# generated using pymatgen
data_V6Si7Ni16
_symmetry_space_group_name_H-M   'P 1'
_cell_length_a   7.81216868
_cell_length_b   7.81201063
_cell_length_c   7.81194130
_cell_angle_alpha   60.00218962
_cell_angle_beta   60.00517640
_cell_angle_gamma   60.00224098
_symmetry_Int_Tables_number   1
_chemical_formula_structural   V6Si7Ni16
_chemical_formula_sum   'V6 Si7 Ni16'
_cell_volume   337.13973447
_cell_formula_units_Z   1
loop_
 _symmetry_equiv_pos_site_id
 _symmetry_equiv_pos_as_xyz
  1  'x, y, z'
loop_
 _atom_site_type_symbol
 _atom_site_label
 _atom_site_symmetry_multiplicity
 _atom_site_fract_x
 _atom_site_fract_y
 _atom_site_fract_z
 _atom_site_occupancy
  V  V0  1  0.19077383  0.80923436  0.19077211  1
  V  V1  1  0.19077966  0.80922883  0.80921981  1
  V  V2  1  0.80921882  0.80923235  0.19077917  1
  V  V3  1  0.80922426  0.19077758  0.19076841  1
  V  V4  1  0.19076963  0.19078349  0.80922456  1
  V  V5  1  0.80922761  0.19077721  0.80923313  1
  Si  Si6  1  0.00000060  0.49999201  -0.00000272  1
  Si  Si7  1  0.50000267  0.50000249  0.50000236  1
  Si  Si8  1  0.50000151  0.00001056  0.00000081  1
  Si  Si9  1  0.50000673  0.00000940  0.49998373  1
  Si  Si10  1  0.99999470  0.00000095  0.49999777  1
  Si  Si11  1  -0.00000064  0.49999733  0.50000679  1
  Si  Si12  1  0.50001018  0.49997818  0.00000560  1
  Ni  Ni13  1  0.83411802  0.49764097  0.83411884  1
  Ni  Ni14  1  0.38246900  0.38246701  0.85259030  1
  Ni  Ni15  1  0.61752963  0.14740968  0.61752819  1
  Ni  Ni16  1  0.83411574  0.83411856  0.83411800  1
  Ni  Ni17  1  0.83410954  0.83411922  0.49764804  1
  Ni  Ni18  1  0.85259068  0.38246909  0.38246727  1
  Ni  Ni19  1  0.38247400  0.38246270  0.38247153  1
  Ni  Ni20  1  0.16588363  0.50234583  0.16588508  1
  Ni  Ni21  1  0.14740979  0.61752288  0.61753660  1
  Ni  Ni22  1  0.61753654  0.61752435  0.14740963  1
  Ni  Ni23  1  0.61753395  0.61752850  0.61752829  1
  Ni  Ni24  1  0.50234379  0.16588556  0.16588624  1
  Ni  Ni25  1  0.38247445  0.85259208  0.38246772  1
  Ni  Ni26  1  0.16588250  0.16588185  0.50235938  1
  Ni  Ni27  1  0.49763880  0.83412498  0.83411428  1
  Ni  Ni28  1  0.16588037  0.16588202  0.16587911  1
