# generated using pymatgen
data_KH4F5
_symmetry_space_group_name_H-M   'P 1'
_cell_length_a   7.39562277
_cell_length_b   7.39562277
_cell_length_c   7.39562277
_cell_angle_alpha   124.83221702
_cell_angle_beta   124.83221702
_cell_angle_gamma   81.81612287
_symmetry_Int_Tables_number   1
_chemical_formula_structural   KH4F5
_chemical_formula_sum   'K2 H8 F10'
_cell_volume   262.19162253
_cell_formula_units_Z   2
loop_
 _symmetry_equiv_pos_site_id
 _symmetry_equiv_pos_as_xyz
  1  'x, y, z'
loop_
 _atom_site_type_symbol
 _atom_site_label
 _atom_site_symmetry_multiplicity
 _atom_site_fract_x
 _atom_site_fract_y
 _atom_site_fract_z
 _atom_site_occupancy
  K  K0  1  0.37500000  0.12500000  0.25000000  1
  K  K1  1  0.62500000  0.87500000  0.75000000  1
  H  H2  1  0.78412831  0.82128963  0.35845439  1
  H  H3  1  0.96283424  0.42567392  0.14154561  1
  H  H4  1  0.92567392  0.28412831  0.46283868  1
  H  H5  1  0.32128963  0.46283424  0.03716132  1
  H  H6  1  0.21587169  0.17871037  0.64154561  1
  H  H7  1  0.03716576  0.57432608  0.85845439  1
  H  H8  1  0.07432608  0.71587169  0.53716132  1
  H  H9  1  0.67871037  0.53716576  0.96283868  1
  F  F10  1  0.87500000  0.62500000  0.25000000  1
  F  F11  1  0.12500000  0.37500000  0.75000000  1
  F  F12  1  0.72254701  0.94707411  0.43367672  1
  F  F13  1  0.01339738  0.28887028  0.06632328  1
  F  F14  1  0.78887028  0.22254701  0.27547290  1
  F  F15  1  0.44707411  0.51339738  0.22452710  1
  F  F16  1  0.27745299  0.05292589  0.56632328  1
  F  F17  1  0.98660262  0.71112972  0.93367672  1
  F  F18  1  0.21112972  0.77745299  0.72452710  1
  F  F19  1  0.55292589  0.48660262  0.77547290  1
