# generated using pymatgen
data_SiO2
_symmetry_space_group_name_H-M   'P 1'
_cell_length_a   8.22589510
_cell_length_b   9.26117423
_cell_length_c   17.42097937
_cell_angle_alpha   90.00000000
_cell_angle_beta   90.00000000
_cell_angle_gamma   90.00000000
_symmetry_Int_Tables_number   1
_chemical_formula_structural   SiO2
_chemical_formula_sum   'Si24 O48'
_cell_volume   1327.15542909
_cell_formula_units_Z   24
loop_
 _symmetry_equiv_pos_site_id
 _symmetry_equiv_pos_as_xyz
  1  'x, y, z'
loop_
 _atom_site_type_symbol
 _atom_site_label
 _atom_site_symmetry_multiplicity
 _atom_site_fract_x
 _atom_site_fract_y
 _atom_site_fract_z
 _atom_site_occupancy
  Si  Si0  1  0.63485212  0.12978445  0.06866730  1
  Si  Si1  1  0.63485212  0.87021555  0.43133270  1
  Si  Si2  1  0.86514788  0.12978445  0.93133270  1
  Si  Si3  1  0.36514788  0.37021555  0.06866730  1
  Si  Si4  1  0.13485212  0.62978445  0.56866730  1
  Si  Si5  1  0.13485212  0.37021555  0.93133270  1
  Si  Si6  1  0.36514788  0.62978445  0.43133270  1
  Si  Si7  1  0.86514788  0.87021555  0.56866730  1
  Si  Si8  1  0.06334919  0.91179102  0.02820944  1
  Si  Si9  1  0.06334919  0.08820898  0.47179056  1
  Si  Si10  1  0.43665081  0.91179102  0.97179056  1
  Si  Si11  1  0.93665081  0.58820898  0.02820944  1
  Si  Si12  1  0.56334919  0.41179102  0.52820944  1
  Si  Si13  1  0.56334919  0.58820898  0.97179056  1
  Si  Si14  1  0.93665081  0.41179102  0.47179056  1
  Si  Si15  1  0.43665081  0.08820898  0.52820944  1
  Si  Si16  1  0.93608327  0.91279989  0.32978548  1
  Si  Si17  1  0.93608327  0.08720011  0.17021452  1
  Si  Si18  1  0.56391673  0.91279989  0.67021452  1
  Si  Si19  1  0.06391673  0.58720011  0.32978548  1
  Si  Si20  1  0.43608327  0.41279989  0.82978548  1
  Si  Si21  1  0.43608327  0.58720011  0.67021452  1
  Si  Si22  1  0.06391673  0.41279989  0.17021452  1
  Si  Si23  1  0.56391673  0.08720011  0.82978548  1
  O  O24  1  0.75000000  0.19428454  0.00000000  1
  O  O25  1  0.75000000  0.80571546  0.50000000  1
  O  O26  1  0.25000000  0.30571546  0.00000000  1
  O  O27  1  0.25000000  0.69428454  0.50000000  1
  O  O28  1  0.54697212  0.98211551  0.03989578  1
  O  O29  1  0.54697212  0.01788449  0.46010422  1
  O  O30  1  0.95302788  0.98211551  0.96010422  1
  O  O31  1  0.45302788  0.51788449  0.03989578  1
  O  O32  1  0.04697212  0.48211551  0.53989578  1
  O  O33  1  0.04697212  0.51788449  0.96010422  1
  O  O34  1  0.45302788  0.48211551  0.46010422  1
  O  O35  1  0.95302788  0.01788449  0.53989578  1
  O  O36  1  0.74647717  0.09167005  0.14257174  1
  O  O37  1  0.74647717  0.90832995  0.35742826  1
  O  O38  1  0.75352283  0.09167005  0.85742826  1
  O  O39  1  0.25352283  0.40832995  0.14257174  1
  O  O40  1  0.24647717  0.59167005  0.64257174  1
  O  O41  1  0.24647717  0.40832995  0.85742826  1
  O  O42  1  0.25352283  0.59167005  0.35742826  1
  O  O43  1  0.75352283  0.90832995  0.64257174  1
  O  O44  1  0.50000000  0.25000000  0.09211546  1
  O  O45  1  0.50000000  0.75000000  0.40788454  1
  O  O46  1  0.00000000  0.25000000  0.90788454  1
  O  O47  1  0.00000000  0.75000000  0.59211546  1
  O  O48  1  0.04903726  0.00976374  0.10526081  1
  O  O49  1  0.04903726  0.99023626  0.39473919  1
  O  O50  1  0.45096274  0.00976374  0.89473919  1
  O  O51  1  0.95096274  0.49023626  0.10526081  1
  O  O52  1  0.54903726  0.50976374  0.60526081  1
  O  O53  1  0.54903726  0.49023626  0.89473919  1
  O  O54  1  0.95096274  0.50976374  0.39473919  1
  O  O55  1  0.45096274  0.99023626  0.60526081  1
  O  O56  1  0.25000000  0.90544366  0.00000000  1
  O  O57  1  0.25000000  0.09455634  0.50000000  1
  O  O58  1  0.75000000  0.59455634  0.00000000  1
  O  O59  1  0.75000000  0.40544366  0.50000000  1
  O  O60  1  0.00000000  0.75000000  0.04695880  1
  O  O61  1  0.00000000  0.25000000  0.45304120  1
  O  O62  1  0.50000000  0.75000000  0.95304120  1
  O  O63  1  0.50000000  0.25000000  0.54695880  1
  O  O64  1  0.00000000  0.75000000  0.31580706  1
  O  O65  1  0.00000000  0.25000000  0.18419294  1
  O  O66  1  0.50000000  0.75000000  0.68419294  1
  O  O67  1  0.50000000  0.25000000  0.81580706  1
  O  O68  1  0.94925122  0.00000000  0.25000000  1
  O  O69  1  0.55074878  0.00000000  0.75000000  1
  O  O70  1  0.05074878  0.50000000  0.25000000  1
  O  O71  1  0.44925122  0.50000000  0.75000000  1
