# generated using pymatgen
data_PH3O4
_symmetry_space_group_name_H-M   'P 1'
_cell_length_a   5.81129441
_cell_length_b   4.91044566
_cell_length_c   11.31021698
_cell_angle_alpha   90.00000000
_cell_angle_beta   94.70908977
_cell_angle_gamma   90.00000000
_symmetry_Int_Tables_number   1
_chemical_formula_structural   PH3O4
_chemical_formula_sum   'P4 H12 O16'
_cell_volume   321.65938641
_cell_formula_units_Z   4
loop_
 _symmetry_equiv_pos_site_id
 _symmetry_equiv_pos_as_xyz
  1  'x, y, z'
loop_
 _atom_site_type_symbol
 _atom_site_label
 _atom_site_symmetry_multiplicity
 _atom_site_fract_x
 _atom_site_fract_y
 _atom_site_fract_z
 _atom_site_occupancy
  P  P0  1  0.21152725  0.20497064  0.63874987  1
  P  P1  1  0.79239581  0.70726790  0.85948658  1
  P  P2  1  0.79239581  0.79273210  0.35948658  1
  P  P3  1  0.21152725  0.29502936  0.13874987  1
  H  H4  1  0.30845892  0.54563939  0.52732654  1
  H  H5  1  0.80443601  0.01989747  0.00059178  1
  H  H6  1  0.80443601  0.48010253  0.50059178  1
  H  H7  1  0.30845892  0.95436061  0.02732654  1
  H  H8  1  0.86123584  0.05106997  0.67422403  1
  H  H9  1  0.13871226  0.54809653  0.82515047  1
  H  H10  1  0.13871226  0.95190347  0.32515047  1
  H  H11  1  0.86123584  0.44893003  0.17422403  1
  H  H12  1  0.47029952  0.88111732  0.68195754  1
  H  H13  1  0.53293087  0.37981991  0.82013122  1
  H  H14  1  0.53293087  0.12018009  0.32013122  1
  H  H15  1  0.47029952  0.61888268  0.18195754  1
  O  O16  1  0.27988039  0.34862698  0.52178166  1
  O  O17  1  0.71772726  0.85632548  0.97406166  1
  O  O18  1  0.71772726  0.64367452  0.47406166  1
  O  O19  1  0.27988039  0.15137302  0.02178166  1
  O  O20  1  0.94141727  0.18345381  0.61981270  1
  O  O21  1  0.06149431  0.68054340  0.87924841  1
  O  O22  1  0.06149431  0.81945660  0.37924841  1
  O  O23  1  0.94141727  0.31654619  0.11981270  1
  O  O24  1  0.29100550  0.35700479  0.75069041  1
  O  O25  1  0.71525822  0.85488468  0.74516691  1
  O  O26  1  0.71525822  0.64511532  0.24516691  1
  O  O27  1  0.29100550  0.14299521  0.25069041  1
  O  O28  1  0.31205826  0.90912829  0.63456449  1
  O  O29  1  0.68780632  0.41671456  0.86730573  1
  O  O30  1  0.68780632  0.08328544  0.36730573  1
  O  O31  1  0.31205826  0.59087171  0.13456449  1
