# generated using pymatgen
data_SiO2
_symmetry_space_group_name_H-M   'P 1'
_cell_length_a   18.64912121
_cell_length_b   18.64912121
_cell_length_c   5.29665487
_cell_angle_alpha   90.00000000
_cell_angle_beta   90.00000000
_cell_angle_gamma   90.00000000
_symmetry_Int_Tables_number   1
_chemical_formula_structural   SiO2
_chemical_formula_sum   'Si32 O64'
_cell_volume   1842.12212427
_cell_formula_units_Z   32
loop_
 _symmetry_equiv_pos_site_id
 _symmetry_equiv_pos_as_xyz
  1  'x, y, z'
loop_
 _atom_site_type_symbol
 _atom_site_label
 _atom_site_symmetry_multiplicity
 _atom_site_fract_x
 _atom_site_fract_y
 _atom_site_fract_z
 _atom_site_occupancy
  Si  Si0  1  0.27299592  0.15809279  0.50000000  1
  Si  Si1  1  0.84190721  0.27299592  0.50000000  1
  Si  Si2  1  0.15809279  0.72700408  0.50000000  1
  Si  Si3  1  0.27299592  0.84190721  0.50000000  1
  Si  Si4  1  0.72700408  0.15809279  0.50000000  1
  Si  Si5  1  0.72700408  0.84190721  0.50000000  1
  Si  Si6  1  0.15809279  0.27299592  0.50000000  1
  Si  Si7  1  0.84190721  0.72700408  0.50000000  1
  Si  Si8  1  0.77299592  0.65809279  0.00000000  1
  Si  Si9  1  0.34190721  0.77299592  0.00000000  1
  Si  Si10  1  0.65809279  0.22700408  0.00000000  1
  Si  Si11  1  0.77299592  0.34190721  0.00000000  1
  Si  Si12  1  0.22700408  0.65809279  0.00000000  1
  Si  Si13  1  0.22700408  0.34190721  0.00000000  1
  Si  Si14  1  0.65809279  0.77299592  0.00000000  1
  Si  Si15  1  0.34190721  0.22700408  0.00000000  1
  Si  Si16  1  0.12084046  0.00000000  0.00000000  1
  Si  Si17  1  0.00000000  0.12084046  0.00000000  1
  Si  Si18  1  0.00000000  0.87915954  0.00000000  1
  Si  Si19  1  0.87915954  0.00000000  0.00000000  1
  Si  Si20  1  0.62084046  0.50000000  0.50000000  1
  Si  Si21  1  0.50000000  0.62084046  0.50000000  1
  Si  Si22  1  0.50000000  0.37915954  0.50000000  1
  Si  Si23  1  0.37915954  0.50000000  0.50000000  1
  Si  Si24  1  0.21992573  0.00000000  0.50000000  1
  Si  Si25  1  0.00000000  0.21992573  0.50000000  1
  Si  Si26  1  0.00000000  0.78007427  0.50000000  1
  Si  Si27  1  0.78007427  0.00000000  0.50000000  1
  Si  Si28  1  0.71992573  0.50000000  0.00000000  1
  Si  Si29  1  0.50000000  0.71992573  0.00000000  1
  Si  Si30  1  0.50000000  0.28007427  0.00000000  1
  Si  Si31  1  0.28007427  0.50000000  0.00000000  1
  O  O32  1  0.19164344  0.19164344  0.50000000  1
  O  O33  1  0.80835656  0.19164344  0.50000000  1
  O  O34  1  0.19164344  0.80835656  0.50000000  1
  O  O35  1  0.80835656  0.80835656  0.50000000  1
  O  O36  1  0.69164344  0.69164344  0.00000000  1
  O  O37  1  0.30835656  0.69164344  0.00000000  1
  O  O38  1  0.69164344  0.30835656  0.00000000  1
  O  O39  1  0.30835656  0.30835656  0.00000000  1
  O  O40  1  0.31522911  0.18477089  0.75000000  1
  O  O41  1  0.81522911  0.31522911  0.75000000  1
  O  O42  1  0.18477089  0.68477089  0.75000000  1
  O  O43  1  0.31522911  0.81522911  0.25000000  1
  O  O44  1  0.68477089  0.18477089  0.25000000  1
  O  O45  1  0.68477089  0.81522911  0.75000000  1
  O  O46  1  0.18477089  0.31522911  0.25000000  1
  O  O47  1  0.81522911  0.68477089  0.25000000  1
  O  O48  1  0.68477089  0.81522911  0.25000000  1
  O  O49  1  0.18477089  0.68477089  0.25000000  1
  O  O50  1  0.81522911  0.31522911  0.25000000  1
  O  O51  1  0.68477089  0.18477089  0.75000000  1
  O  O52  1  0.31522911  0.81522911  0.75000000  1
  O  O53  1  0.31522911  0.18477089  0.25000000  1
  O  O54  1  0.81522911  0.68477089  0.75000000  1
  O  O55  1  0.18477089  0.31522911  0.75000000  1
  O  O56  1  0.27017570  0.07126609  0.50000000  1
  O  O57  1  0.92873391  0.27017570  0.50000000  1
  O  O58  1  0.07126609  0.72982430  0.50000000  1
  O  O59  1  0.27017570  0.92873391  0.50000000  1
  O  O60  1  0.72982430  0.07126609  0.50000000  1
  O  O61  1  0.72982430  0.92873391  0.50000000  1
  O  O62  1  0.07126609  0.27017570  0.50000000  1
  O  O63  1  0.92873391  0.72982430  0.50000000  1
  O  O64  1  0.77017570  0.57126609  0.00000000  1
  O  O65  1  0.42873391  0.77017570  0.00000000  1
  O  O66  1  0.57126609  0.22982430  0.00000000  1
  O  O67  1  0.77017570  0.42873391  0.00000000  1
  O  O68  1  0.22982430  0.57126609  0.00000000  1
  O  O69  1  0.22982430  0.42873391  0.00000000  1
  O  O70  1  0.57126609  0.77017570  0.00000000  1
  O  O71  1  0.42873391  0.22982430  0.00000000  1
  O  O72  1  0.17042721  0.00000000  0.24928856  1
  O  O73  1  0.00000000  0.17042721  0.24928856  1
  O  O74  1  0.00000000  0.82957279  0.24928856  1
  O  O75  1  0.17042721  0.00000000  0.75071144  1
  O  O76  1  0.82957279  0.00000000  0.75071144  1
  O  O77  1  0.82957279  0.00000000  0.24928856  1
  O  O78  1  0.00000000  0.17042721  0.75071144  1
  O  O79  1  0.00000000  0.82957279  0.75071144  1
  O  O80  1  0.67042721  0.50000000  0.74928856  1
  O  O81  1  0.50000000  0.67042721  0.74928856  1
  O  O82  1  0.50000000  0.32957279  0.74928856  1
  O  O83  1  0.67042721  0.50000000  0.25071144  1
  O  O84  1  0.32957279  0.50000000  0.25071144  1
  O  O85  1  0.32957279  0.50000000  0.74928856  1
  O  O86  1  0.50000000  0.67042721  0.25071144  1
  O  O87  1  0.50000000  0.32957279  0.25071144  1
  O  O88  1  0.07140614  0.07140614  0.00000000  1
  O  O89  1  0.92859386  0.07140614  0.00000000  1
  O  O90  1  0.07140614  0.92859386  0.00000000  1
  O  O91  1  0.92859386  0.92859386  0.00000000  1
  O  O92  1  0.57140614  0.57140614  0.50000000  1
  O  O93  1  0.42859386  0.57140614  0.50000000  1
  O  O94  1  0.57140614  0.42859386  0.50000000  1
  O  O95  1  0.42859386  0.42859386  0.50000000  1
