# generated using pymatgen
data_Ba5Pb3
_symmetry_space_group_name_H-M   'P 1'
_cell_length_a   9.17448977
_cell_length_b   9.17449007
_cell_length_c   10.95886928
_cell_angle_alpha   114.74543725
_cell_angle_beta   114.74543825
_cell_angle_gamma   90.00000372
_symmetry_Int_Tables_number   1
_chemical_formula_structural   Ba5Pb3
_chemical_formula_sum   'Ba10 Pb6'
_cell_volume   743.43377212
_cell_formula_units_Z   2
loop_
 _symmetry_equiv_pos_site_id
 _symmetry_equiv_pos_as_xyz
  1  'x, y, z'
loop_
 _atom_site_type_symbol
 _atom_site_label
 _atom_site_symmetry_multiplicity
 _atom_site_fract_x
 _atom_site_fract_y
 _atom_site_fract_z
 _atom_site_occupancy
  Ba  Ba0  1  0.53371616  0.03371616  0.71564877  1
  Ba  Ba1  1  0.68193262  0.53371616  0.71564877  1
  Ba  Ba2  1  0.96628384  0.81806738  0.28435123  1
  Ba  Ba3  1  0.81806738  0.31806738  0.28435123  1
  Ba  Ba4  1  0.00000000  0.00000000  0.00000000  1
  Ba  Ba5  1  0.31806738  0.46628384  0.28435123  1
  Ba  Ba6  1  0.46628384  0.96628384  0.28435123  1
  Ba  Ba7  1  0.18193262  0.68193262  0.71564877  1
  Ba  Ba8  1  0.03371616  0.18193262  0.71564877  1
  Ba  Ba9  1  0.50000000  0.50000000  0.00000000  1
  Pb  Pb10  1  0.61995859  0.88004141  0.00000000  1
  Pb  Pb11  1  0.11995859  0.61995859  0.00000000  1
  Pb  Pb12  1  0.75000000  0.75000000  0.50000000  1
  Pb  Pb13  1  0.38004141  0.11995859  0.00000000  1
  Pb  Pb14  1  0.88004141  0.38004141  0.00000000  1
  Pb  Pb15  1  0.25000000  0.25000000  0.50000000  1
