# generated using pymatgen
data_Dy2V2O7
_symmetry_space_group_name_H-M   'P 1'
_cell_length_a   7.15311588
_cell_length_b   7.15330372
_cell_length_c   7.15316907
_cell_angle_alpha   60.00007518
_cell_angle_beta   59.99921735
_cell_angle_gamma   59.99988786
_symmetry_Int_Tables_number   1
_chemical_formula_structural   Dy2V2O7
_chemical_formula_sum   'Dy4 V4 O14'
_cell_volume   258.81099835
_cell_formula_units_Z   2
loop_
 _symmetry_equiv_pos_site_id
 _symmetry_equiv_pos_as_xyz
  1  'x, y, z'
loop_
 _atom_site_type_symbol
 _atom_site_label
 _atom_site_symmetry_multiplicity
 _atom_site_fract_x
 _atom_site_fract_y
 _atom_site_fract_z
 _atom_site_occupancy
  Dy  Dy0  1  0.49999921  0.00000015  0.00000021  1
  Dy  Dy1  1  0.99999939  0.00000097  0.99999924  1
  Dy  Dy2  1  0.99999915  0.99999973  0.50000057  1
  Dy  Dy3  1  0.00000083  0.49999985  0.99999929  1
  V  V4  1  0.00000224  0.50000154  0.49999879  1
  V  V5  1  0.50000137  0.50000110  0.00000008  1
  V  V6  1  0.49999858  0.00000070  0.49999815  1
  V  V7  1  0.50000312  0.49999760  0.50000160  1
  O  O8  1  0.58156204  0.16844004  0.58156185  1
  O  O9  1  0.16843551  0.58156828  0.58155998  1
  O  O10  1  0.16843532  0.58156687  0.16843221  1
  O  O11  1  0.12498719  0.12501324  0.12499922  1
  O  O12  1  0.16843170  0.16843979  0.58156076  1
  O  O13  1  0.83156682  0.83156086  0.41843838  1
  O  O14  1  0.87501182  0.87498663  0.87500234  1
  O  O15  1  0.58156339  0.16843910  0.16842925  1
  O  O16  1  0.83156522  0.41843087  0.83156824  1
  O  O17  1  0.41843474  0.83156076  0.83157019  1
  O  O18  1  0.58156162  0.58157012  0.16843106  1
  O  O19  1  0.41843732  0.83155946  0.41843876  1
  O  O20  1  0.83156450  0.41843235  0.41844070  1
  O  O21  1  0.41843892  0.41842997  0.83156915  1
