# generated using pymatgen
data_K2V8O21
_symmetry_space_group_name_H-M   'P 1'
_cell_length_a   3.63125110
_cell_length_b   7.88777664
_cell_length_c   15.09031383
_cell_angle_alpha   91.05772782
_cell_angle_beta   90.00000000
_cell_angle_gamma   103.30779713
_symmetry_Int_Tables_number   1
_chemical_formula_structural   K2V8O21
_chemical_formula_sum   'K2 V8 O21'
_cell_volume   420.54231813
_cell_formula_units_Z   1
loop_
 _symmetry_equiv_pos_site_id
 _symmetry_equiv_pos_as_xyz
  1  'x, y, z'
loop_
 _atom_site_type_symbol
 _atom_site_label
 _atom_site_symmetry_multiplicity
 _atom_site_fract_x
 _atom_site_fract_y
 _atom_site_fract_z
 _atom_site_occupancy
  K  K0  1  0.47360278  0.94720555  0.68811730  1
  K  K1  1  0.52639722  0.05279445  0.31188270  1
  V  V2  1  0.31155905  0.62311810  0.92906584  1
  V  V3  1  0.90892765  0.81785529  0.07455391  1
  V  V4  1  0.16941593  0.33883187  0.52118658  1
  V  V5  1  0.81016883  0.62033766  0.26967782  1
  V  V6  1  0.09107235  0.18214471  0.92544609  1
  V  V7  1  0.83058407  0.66116813  0.47881342  1
  V  V8  1  0.68844095  0.37688190  0.07093416  1
  V  V9  1  0.18983117  0.37966234  0.73032218  1
  O  O10  1  0.21262907  0.42525814  0.86010113  1
  O  O11  1  0.70875894  0.41751788  0.52644755  1
  O  O12  1  0.61697995  0.23395990  0.95260656  1
  O  O13  1  0.04529080  0.09058160  0.82586284  1
  O  O14  1  0.95470920  0.90941840  0.17413716  1
  O  O15  1  0.11500731  0.23001461  0.62335062  1
  O  O16  1  0.71311947  0.42623895  0.31102409  1
  O  O17  1  0.66363431  0.32726863  0.73954086  1
  O  O18  1  0.09389197  0.18778395  0.44317753  1
  O  O19  1  0.80578744  0.61157488  0.96657790  1
  O  O20  1  0.61308244  0.22616487  0.14439766  1
  O  O21  1  0.88499269  0.76998539  0.37664938  1
  O  O22  1  0.29124106  0.58248212  0.47355245  1
  O  O23  1  0.28688053  0.57376105  0.68897591  1
  O  O24  1  0.00000000  0.00000000  0.00000000  1
  O  O25  1  0.38302005  0.76604010  0.04739344  1
  O  O26  1  0.78737093  0.57474186  0.13989887  1
  O  O27  1  0.33636569  0.67273137  0.26045914  1
  O  O28  1  0.90610803  0.81221605  0.55682247  1
  O  O29  1  0.38691756  0.77383513  0.85560234  1
  O  O30  1  0.19421256  0.38842512  0.03342210  1
