# generated using pymatgen
data_Y2H2C
_symmetry_space_group_name_H-M   'P 1'
_cell_length_a   3.67185791
_cell_length_b   3.67194442
_cell_length_c   6.02386247
_cell_angle_alpha   89.99999999
_cell_angle_beta   89.99784625
_cell_angle_gamma   120.00078664
_symmetry_Int_Tables_number   1
_chemical_formula_structural   Y2H2C
_chemical_formula_sum   'Y2 H2 C1'
_cell_volume   70.33705855
_cell_formula_units_Z   1
loop_
 _symmetry_equiv_pos_site_id
 _symmetry_equiv_pos_as_xyz
  1  'x, y, z'
loop_
 _atom_site_type_symbol
 _atom_site_label
 _atom_site_symmetry_multiplicity
 _atom_site_fract_x
 _atom_site_fract_y
 _atom_site_fract_z
 _atom_site_occupancy
  Y  Y0  1  0.66662550  0.33331275  0.77467179  1
  Y  Y1  1  0.33337450  0.66668725  0.22532821  1
  H  H2  1  0.66661633  0.33330816  0.39148047  1
  H  H3  1  0.33338367  0.66669184  0.60851953  1
  C  C4  1  0.00000000  0.00000000  0.00000000  1
