# generated using pymatgen
data_SiO2
_symmetry_space_group_name_H-M   'P 1'
_cell_length_a   8.57591161
_cell_length_b   15.83413329
_cell_length_c   15.81315458
_cell_angle_alpha   75.20952876
_cell_angle_beta   74.19171532
_cell_angle_gamma   74.23116312
_symmetry_Int_Tables_number   1
_chemical_formula_structural   SiO2
_chemical_formula_sum   'Si32 O64'
_cell_volume   1949.86826115
_cell_formula_units_Z   32
loop_
 _symmetry_equiv_pos_site_id
 _symmetry_equiv_pos_as_xyz
  1  'x, y, z'
loop_
 _atom_site_type_symbol
 _atom_site_label
 _atom_site_symmetry_multiplicity
 _atom_site_fract_x
 _atom_site_fract_y
 _atom_site_fract_z
 _atom_site_occupancy
  Si  Si0  1  0.45836071  0.58555157  0.87072136  1
  Si  Si1  1  0.92896733  0.75466757  0.75490674  1
  Si  Si2  1  0.45740127  0.86977190  0.58606652  1
  Si  Si3  1  0.64792439  0.93287480  0.39593488  1
  Si  Si4  1  0.08446255  0.86944654  0.58575599  1
  Si  Si5  1  0.75344635  0.79123078  0.07743421  1
  Si  Si6  1  0.43748726  0.24476648  0.24565353  1
  Si  Si7  1  0.34831540  0.06763500  0.60381800  1
  Si  Si8  1  0.53986439  0.12991068  0.41418771  1
  Si  Si9  1  0.24833362  0.92297027  0.20690766  1
  Si  Si10  1  0.75180759  0.07751991  0.79320562  1
  Si  Si11  1  0.62387664  0.92217135  0.20694277  1
  Si  Si12  1  0.54138403  0.41424379  0.13134191  1
  Si  Si13  1  0.35027152  0.60351051  0.06888795  1
  Si  Si14  1  0.37804482  0.79204296  0.07721269  1
  Si  Si15  1  0.24870289  0.20786889  0.92175339  1
  Si  Si16  1  0.02277712  0.93276606  0.39589242  1
  Si  Si17  1  0.56117419  0.75462017  0.75581183  1
  Si  Si18  1  0.97731663  0.60308625  0.06783746  1
  Si  Si19  1  0.91428725  0.41396797  0.12973934  1
  Si  Si20  1  0.37663509  0.07697515  0.79238800  1
  Si  Si21  1  0.06718775  0.11953368  0.11850432  1
  Si  Si22  1  0.02410225  0.39656103  0.93163827  1
  Si  Si23  1  0.07028566  0.24509307  0.24508854  1
  Si  Si24  1  0.97413016  0.06727893  0.60396967  1
  Si  Si25  1  0.91248280  0.12995950  0.41446524  1
  Si  Si26  1  0.93374193  0.88060102  0.88075936  1
  Si  Si27  1  0.08656283  0.58566651  0.86963557  1
  Si  Si28  1  0.62308116  0.20804419  0.92310542  1
  Si  Si29  1  0.64936006  0.39654875  0.93345946  1
  Si  Si30  1  0.69527395  0.11886378  0.11950867  1
  Si  Si31  1  0.30439530  0.88049014  0.88111863  1
  O  O32  1  0.00655582  0.78548096  0.64872773  1
  O  O33  1  0.73088154  0.39644922  0.14212888  1
  O  O34  1  0.45478568  0.61265597  0.96466943  1
  O  O35  1  0.55310638  0.86973434  0.48183346  1
  O  O36  1  0.26927307  0.85789885  0.60100050  1
  O  O37  1  0.75074889  0.14778676  0.85290506  1
  O  O38  1  0.87008897  0.69307228  0.10399079  1
  O  O39  1  0.72893702  0.14053998  0.39807429  1
  O  O40  1  0.27027224  0.60114441  0.85899500  1
  O  O41  1  0.35872483  0.84027614  0.97618530  1
  O  O42  1  0.13295546  0.30658244  0.89596220  1
  O  O43  1  0.66625154  0.30642694  0.89823364  1
  O  O44  1  0.55260274  0.48151041  0.87066877  1
  O  O45  1  0.99058095  0.21357782  0.35098981  1
  O  O46  1  0.16677681  0.07223326  0.58862395  1
  O  O47  1  0.17370313  0.02380887  0.15862763  1
  O  O48  1  0.99383267  0.35124932  0.21309979  1
  O  O49  1  0.82681530  0.97663813  0.84102711  1
  O  O50  1  0.43400254  0.91716057  0.21674027  1
  O  O51  1  0.00816304  0.64891546  0.78621507  1
  O  O52  1  0.09740484  0.48177553  0.86842934  1
  O  O53  1  0.64673775  0.02250223  0.15757151  1
  O  O54  1  0.96477308  0.96319212  0.61283029  1
  O  O55  1  0.39812925  0.81126315  0.81377427  1
  O  O56  1  0.56775455  0.78002549  0.08462105  1
  O  O57  1  0.25149537  0.85244415  0.14721548  1
  O  O58  1  0.90015333  0.13060100  0.51879061  1
  O  O59  1  0.44593132  0.13021279  0.51858354  1
  O  O60  1  0.03371977  0.03630229  0.38852895  1
  O  O61  1  0.44045214  0.21388893  0.35176756  1
  O  O62  1  0.44075506  0.35088225  0.21383755  1
  O  O63  1  0.35608128  0.97586453  0.83976346  1
  O  O64  1  0.96722043  0.61231696  0.96365377  1
  O  O65  1  0.02327098  0.18807350  0.18689644  1
  O  O66  1  0.55761223  0.64873156  0.78736658  1
  O  O67  1  0.16931019  0.58649111  0.07430987  1
  O  O68  1  0.82679180  0.83902040  0.97613435  1
  O  O69  1  0.86557623  0.10356600  0.69394224  1
  O  O70  1  0.24913166  0.14753112  0.85233106  1
  O  O71  1  0.83170991  0.41171234  0.92732093  1
  O  O72  1  0.54336732  0.38807076  0.03728098  1
  O  O73  1  0.64062482  0.16048303  0.02466485  1
  O  O74  1  0.56582421  0.08395101  0.78294488  1
  O  O75  1  0.66503405  0.89737513  0.30577502  1
  O  O76  1  0.03441222  0.38806555  0.03557657  1
  O  O77  1  0.72828120  0.77085729  0.77278796  1
  O  O78  1  0.44922643  0.51882553  0.13146049  1
  O  O79  1  0.43485536  0.21827583  0.91398223  1
  O  O80  1  0.09362176  0.86903451  0.48172601  1
  O  O81  1  0.33238755  0.10312944  0.69394072  1
  O  O82  1  0.10531001  0.89361974  0.89514349  1
  O  O83  1  0.17589302  0.16052100  0.02339383  1
  O  O84  1  0.89437386  0.10681301  0.10498318  1
  O  O85  1  0.33114713  0.69426974  0.10378087  1
  O  O86  1  0.13330240  0.89736703  0.30587536  1
  O  O87  1  0.55705092  0.78707443  0.64990314  1
  O  O88  1  0.83070614  0.92867674  0.40915494  1
  O  O89  1  0.90033170  0.51849239  0.13005127  1
  O  O90  1  0.45400035  0.96378662  0.61284090  1
  O  O91  1  0.27064746  0.22789243  0.22915851  1
  O  O92  1  0.97667443  0.81319929  0.81136850  1
  O  O93  1  0.60008161  0.18581263  0.18925511  1
  O  O94  1  0.54088065  0.03658948  0.38683711  1
  O  O95  1  0.75051468  0.85070563  0.14808242  1
