# generated using pymatgen
data_KCo4(PO4)3
_symmetry_space_group_name_H-M   'P 1'
_cell_length_a   6.24796158
_cell_length_b   9.79202308
_cell_length_c   16.60041830
_cell_angle_alpha   90.00000000
_cell_angle_beta   90.00000000
_cell_angle_gamma   90.00000000
_symmetry_Int_Tables_number   1
_chemical_formula_structural   KCo4(PO4)3
_chemical_formula_sum   'K4 Co16 P12 O48'
_cell_volume   1015.61664598
_cell_formula_units_Z   4
loop_
 _symmetry_equiv_pos_site_id
 _symmetry_equiv_pos_as_xyz
  1  'x, y, z'
loop_
 _atom_site_type_symbol
 _atom_site_label
 _atom_site_symmetry_multiplicity
 _atom_site_fract_x
 _atom_site_fract_y
 _atom_site_fract_z
 _atom_site_occupancy
  K  K0  1  0.50000000  0.20933609  0.96714451  1
  K  K1  1  0.50000000  0.79066391  0.03285549  1
  K  K2  1  0.00000000  0.70933609  0.53285549  1
  K  K3  1  0.00000000  0.29066391  0.46714451  1
  Co  Co4  1  0.50000000  0.48323504  0.36092508  1
  Co  Co5  1  0.75065353  0.74817842  0.29642504  1
  Co  Co6  1  0.74934647  0.24817842  0.20357496  1
  Co  Co7  1  0.00000000  0.46660215  0.90788565  1
  Co  Co8  1  0.00000000  0.01676496  0.86092508  1
  Co  Co9  1  0.50000000  0.96660215  0.59211435  1
  Co  Co10  1  0.74934647  0.75182158  0.79642504  1
  Co  Co11  1  0.75065353  0.25182158  0.70357496  1
  Co  Co12  1  0.25065353  0.24817842  0.20357496  1
  Co  Co13  1  0.24934647  0.25182158  0.70357496  1
  Co  Co14  1  0.00000000  0.53339785  0.09211435  1
  Co  Co15  1  0.25065353  0.75182158  0.79642504  1
  Co  Co16  1  0.24934647  0.74817842  0.29642504  1
  Co  Co17  1  0.50000000  0.03339785  0.40788565  1
  Co  Co18  1  0.50000000  0.51676496  0.63907492  1
  Co  Co19  1  0.00000000  0.98323504  0.13907492  1
  P  P20  1  0.50000000  0.04255865  0.78228106  1
  P  P21  1  0.50000000  0.53755482  0.16687326  1
  P  P22  1  0.50000000  0.28893223  0.53680254  1
  P  P23  1  0.50000000  0.71106777  0.46319746  1
  P  P24  1  0.00000000  0.96244518  0.66687326  1
  P  P25  1  0.00000000  0.03755482  0.33312674  1
  P  P26  1  0.50000000  0.46244518  0.83312674  1
  P  P27  1  0.50000000  0.95744135  0.21771894  1
  P  P28  1  0.00000000  0.45744135  0.28228106  1
  P  P29  1  0.00000000  0.54255865  0.71771894  1
  P  P30  1  0.00000000  0.21106777  0.03680254  1
  P  P31  1  0.00000000  0.78893223  0.96319746  1
  O  O32  1  0.50000000  0.88451144  0.77284195  1
  O  O33  1  0.50000000  0.62054805  0.81861789  1
  O  O34  1  0.70012696  0.58233057  0.12066936  1
  O  O35  1  0.50000000  0.64046486  0.54480112  1
  O  O36  1  0.00000000  0.63233027  0.98000820  1
  O  O37  1  0.00000000  0.11117906  0.24647214  1
  O  O38  1  0.00000000  0.36766973  0.01999180  1
  O  O39  1  0.50000000  0.88979805  0.30534339  1
  O  O40  1  0.00000000  0.88882094  0.75352786  1
  O  O41  1  0.00000000  0.61548856  0.27284195  1
  O  O42  1  0.30108160  0.66818536  0.41133519  1
  O  O43  1  0.00000000  0.12054805  0.68138211  1
  O  O44  1  0.19891840  0.16818536  0.08866481  1
  O  O45  1  0.30108160  0.33181464  0.58866481  1
  O  O46  1  0.00000000  0.61020195  0.80534339  1
  O  O47  1  0.50000000  0.61117906  0.25352786  1
  O  O48  1  0.50000000  0.11548856  0.22715805  1
  O  O49  1  0.20012696  0.08233057  0.37933064  1
  O  O50  1  0.50000000  0.11020195  0.69465661  1
  O  O51  1  0.20552200  0.40366508  0.32272939  1
  O  O52  1  0.00000000  0.38979805  0.19465661  1
  O  O53  1  0.79987304  0.08233057  0.37933064  1
  O  O54  1  0.70012696  0.41766943  0.87933064  1
  O  O55  1  0.70552200  0.09633492  0.82272939  1
  O  O56  1  0.80108160  0.83181464  0.91133519  1
  O  O57  1  0.79447800  0.59633492  0.67727061  1
  O  O58  1  0.20012696  0.91766943  0.62066936  1
  O  O59  1  0.70552200  0.90366508  0.17727061  1
  O  O60  1  0.69891840  0.33181464  0.58866481  1
  O  O61  1  0.29447800  0.09633492  0.82272939  1
  O  O62  1  0.00000000  0.85953514  0.04480112  1
  O  O63  1  0.79447800  0.40366508  0.32272939  1
  O  O64  1  0.50000000  0.13233027  0.51999180  1
  O  O65  1  0.79987304  0.91766943  0.62066936  1
  O  O66  1  0.69891840  0.66818536  0.41133519  1
  O  O67  1  0.29987304  0.58233057  0.12066936  1
  O  O68  1  0.00000000  0.87945195  0.31861789  1
  O  O69  1  0.00000000  0.38451144  0.72715805  1
  O  O70  1  0.29987304  0.41766943  0.87933064  1
  O  O71  1  0.80108160  0.16818536  0.08866481  1
  O  O72  1  0.29447800  0.90366508  0.17727061  1
  O  O73  1  0.50000000  0.38882094  0.74647214  1
  O  O74  1  0.20552200  0.59633492  0.67727061  1
  O  O75  1  0.50000000  0.37945195  0.18138211  1
  O  O76  1  0.50000000  0.86766973  0.48000820  1
  O  O77  1  0.50000000  0.35953514  0.45519888  1
  O  O78  1  0.19891840  0.83181464  0.91133519  1
  O  O79  1  0.00000000  0.14046486  0.95519888  1
