# generated using pymatgen
data_LaFe9Si4
_symmetry_space_group_name_H-M   'P 1'
_cell_length_a   7.89225805
_cell_length_b   7.89225819
_cell_length_c   8.04541706
_cell_angle_alpha   119.37223769
_cell_angle_beta   119.37223820
_cell_angle_gamma   90.00000358
_symmetry_Int_Tables_number   1
_chemical_formula_structural   LaFe9Si4
_chemical_formula_sum   'La2 Fe18 Si8'
_cell_volume   360.97273419
_cell_formula_units_Z   2
loop_
 _symmetry_equiv_pos_site_id
 _symmetry_equiv_pos_as_xyz
  1  'x, y, z'
loop_
 _atom_site_type_symbol
 _atom_site_label
 _atom_site_symmetry_multiplicity
 _atom_site_fract_x
 _atom_site_fract_y
 _atom_site_fract_z
 _atom_site_occupancy
  La  La0  1  0.25000000  0.25000000  0.50000000  1
  La  La1  1  0.75000000  0.75000000  0.50000000  1
  Fe  Fe2  1  0.56419575  0.70177554  1.00000000  1
  Fe  Fe3  1  0.93937854  0.43937854  0.64022004  1
  Fe  Fe4  1  0.00000000  0.50000000  0.00000000  1
  Fe  Fe5  1  0.43937854  0.70084151  0.64022004  1
  Fe  Fe6  1  0.79915849  0.06062146  0.35977996  1
  Fe  Fe7  1  0.93580425  0.20177554  1.00000000  1
  Fe  Fe8  1  0.06062146  0.56062146  0.35977996  1
  Fe  Fe9  1  0.43580425  0.29822446  0.00000000  1
  Fe  Fe10  1  0.29915849  0.79915849  0.35977996  1
  Fe  Fe11  1  0.79822446  0.93580425  1.00000000  1
  Fe  Fe12  1  0.20084151  0.93937854  0.64022004  1
  Fe  Fe13  1  0.20177554  0.06419575  0.00000000  1
  Fe  Fe14  1  0.06419575  0.79822446  0.00000000  1
  Fe  Fe15  1  0.29822446  0.56419575  0.00000000  1
  Fe  Fe16  1  0.50000000  0.00000000  0.00000000  1
  Fe  Fe17  1  0.70084151  0.20084151  0.64022004  1
  Fe  Fe18  1  0.56062146  0.29915849  0.35977996  1
  Fe  Fe19  1  0.70177554  0.43580425  1.00000000  1
  Si  Si20  1  0.29620193  0.44462861  0.24083054  1
  Si  Si21  1  0.05537139  0.20379807  0.75916946  1
  Si  Si22  1  0.55537139  0.05537139  0.75916946  1
  Si  Si23  1  0.20379807  0.70379807  0.75916946  1
  Si  Si24  1  0.94462861  0.79620193  0.24083054  1
  Si  Si25  1  0.79620193  0.29620193  0.24083054  1
  Si  Si26  1  0.70379807  0.55537139  0.75916946  1
  Si  Si27  1  0.44462861  0.94462861  0.24083054  1
