# generated using pymatgen
data_Fe15(Ge2O9)4
_symmetry_space_group_name_H-M   'P 1'
_cell_length_a   7.96003469
_cell_length_b   9.13019959
_cell_length_c   10.61406067
_cell_angle_alpha   65.61020932
_cell_angle_beta   81.30159876
_cell_angle_gamma   79.54103595
_symmetry_Int_Tables_number   1
_chemical_formula_structural   Fe15(Ge2O9)4
_chemical_formula_sum   'Fe15 Ge8 O36'
_cell_volume   688.37098963
_cell_formula_units_Z   1
loop_
 _symmetry_equiv_pos_site_id
 _symmetry_equiv_pos_as_xyz
  1  'x, y, z'
loop_
 _atom_site_type_symbol
 _atom_site_label
 _atom_site_symmetry_multiplicity
 _atom_site_fract_x
 _atom_site_fract_y
 _atom_site_fract_z
 _atom_site_occupancy
  Fe  Fe0  1  0.81006165  0.61126444  0.51029479  1
  Fe  Fe1  1  0.68761763  0.56021596  0.00080187  1
  Fe  Fe2  1  0.18993835  0.38873556  0.48970521  1
  Fe  Fe3  1  0.96272033  0.23952356  0.19285283  1
  Fe  Fe4  1  0.81623372  0.94877344  0.51351239  1
  Fe  Fe5  1  0.66116307  0.22115935  0.99445390  1
  Fe  Fe6  1  0.18376628  0.05122656  0.48648761  1
  Fe  Fe7  1  0.73904043  0.90980821  0.25487878  1
  Fe  Fe8  1  0.03727967  0.76047644  0.80714717  1
  Fe  Fe9  1  0.83419912  0.27365118  0.51303391  1
  Fe  Fe10  1  0.31238237  0.43978404  0.99919813  1
  Fe  Fe11  1  0.00000000  0.00000000  0.00000000  1
  Fe  Fe12  1  0.16580088  0.72634882  0.48696609  1
  Fe  Fe13  1  0.26095957  0.09019179  0.74512122  1
  Fe  Fe14  1  0.33883693  0.77884065  0.00554610  1
  Ge  Ge15  1  0.52001206  0.59018522  0.30891640  1
  Ge  Ge16  1  0.68484170  0.97615325  0.82175355  1
  Ge  Ge17  1  0.47998794  0.40981478  0.69108360  1
  Ge  Ge18  1  0.99243998  0.59214412  0.19152128  1
  Ge  Ge19  1  0.00756002  0.40785588  0.80847872  1
  Ge  Ge20  1  0.31515830  0.02384675  0.17824645  1
  Ge  Ge21  1  0.52457232  0.24985388  0.30808267  1
  Ge  Ge22  1  0.47542768  0.75014612  0.69191733  1
  O  O23  1  0.95664487  0.14125925  0.39097709  1
  O  O24  1  0.10237109  0.20293636  0.86318118  1
  O  O25  1  0.02613480  0.50721795  0.61981850  1
  O  O26  1  0.61605141  0.37787441  0.36657406  1
  O  O27  1  0.53753807  0.02950556  0.13268264  1
  O  O28  1  0.69387773  0.41416622  0.61409454  1
  O  O29  1  0.69151979  0.74539633  0.62200626  1
  O  O30  1  0.54677883  0.34306421  0.12133986  1
  O  O31  1  0.11152027  0.53112508  0.86019386  1
  O  O32  1  0.13613075  0.88732238  0.87990197  1
  O  O33  1  0.45322117  0.65693579  0.87866014  1
  O  O34  1  0.30848021  0.25460367  0.37799374  1
  O  O35  1  0.86386925  0.11267762  0.12009803  1
  O  O36  1  0.47005813  0.32974451  0.87423947  1
  O  O37  1  0.36043829  0.30579128  0.63651401  1
  O  O38  1  0.22061580  0.91791086  0.10559353  1
  O  O39  1  0.35810449  0.94524671  0.62911009  1
  O  O40  1  0.64189551  0.05475329  0.37088991  1
  O  O41  1  0.52994187  0.67025549  0.12576053  1
  O  O42  1  0.91597249  0.81170707  0.40502186  1
  O  O43  1  0.97386520  0.49278205  0.38018150  1
  O  O44  1  0.04335513  0.85874075  0.60902291  1
  O  O45  1  0.88847973  0.46887492  0.13980614  1
  O  O46  1  0.46246193  0.97049444  0.86731736  1
  O  O47  1  0.27625875  0.93650941  0.36186406  1
  O  O48  1  0.72374125  0.06349059  0.63813594  1
  O  O49  1  0.30612227  0.58583378  0.38590546  1
  O  O50  1  0.77938420  0.08208914  0.89440647  1
  O  O51  1  0.19961188  0.22453607  0.12493417  1
  O  O52  1  0.89762891  0.79706364  0.13681882  1
  O  O53  1  0.79663473  0.41458909  0.89225478  1
  O  O54  1  0.20336527  0.58541091  0.10774522  1
  O  O55  1  0.08402751  0.18829293  0.59497814  1
  O  O56  1  0.38394859  0.62212559  0.63342594  1
  O  O57  1  0.63956171  0.69420872  0.36348599  1
  O  O58  1  0.80038812  0.77546393  0.87506583  1
