# generated using pymatgen
data_Rb2MgH4
_symmetry_space_group_name_H-M   'P 1'
_cell_length_a   8.26712192
_cell_length_b   6.39784145
_cell_length_c   11.23693288
_cell_angle_alpha   90.00000000
_cell_angle_beta   90.00000000
_cell_angle_gamma   90.00000000
_symmetry_Int_Tables_number   1
_chemical_formula_structural   Rb2MgH4
_chemical_formula_sum   'Rb8 Mg4 H16'
_cell_volume   594.34087938
_cell_formula_units_Z   4
loop_
 _symmetry_equiv_pos_site_id
 _symmetry_equiv_pos_as_xyz
  1  'x, y, z'
loop_
 _atom_site_type_symbol
 _atom_site_label
 _atom_site_symmetry_multiplicity
 _atom_site_fract_x
 _atom_site_fract_y
 _atom_site_fract_z
 _atom_site_occupancy
  Rb  Rb0  1  0.66259401  0.25000000  0.08489990  1
  Rb  Rb1  1  0.16259401  0.25000000  0.41510010  1
  Rb  Rb2  1  0.33740599  0.75000000  0.91510010  1
  Rb  Rb3  1  0.83740599  0.75000000  0.58489990  1
  Rb  Rb4  1  0.99315086  0.25000000  0.80013590  1
  Rb  Rb5  1  0.49315086  0.25000000  0.69986410  1
  Rb  Rb6  1  0.00684914  0.75000000  0.19986410  1
  Rb  Rb7  1  0.50684914  0.75000000  0.30013590  1
  Mg  Mg8  1  0.72727720  0.25000000  0.41972920  1
  Mg  Mg9  1  0.22727720  0.25000000  0.08027080  1
  Mg  Mg10  1  0.27272280  0.75000000  0.58027080  1
  Mg  Mg11  1  0.77272280  0.75000000  0.91972920  1
  H  H12  1  0.80471314  0.01250686  0.34467684  1
  H  H13  1  0.30471314  0.48749314  0.15532316  1
  H  H14  1  0.19528686  0.51250686  0.65532316  1
  H  H15  1  0.69528686  0.98749314  0.84467684  1
  H  H16  1  0.19528686  0.98749314  0.65532316  1
  H  H17  1  0.69528686  0.51250686  0.84467684  1
  H  H18  1  0.80471314  0.48749314  0.34467684  1
  H  H19  1  0.30471314  0.01250686  0.15532316  1
  H  H20  1  0.50475481  0.25000000  0.42088520  1
  H  H21  1  0.00475481  0.25000000  0.07911480  1
  H  H22  1  0.49524519  0.75000000  0.57911480  1
  H  H23  1  0.99524519  0.75000000  0.92088520  1
  H  H24  1  0.31490305  0.25000000  0.92768397  1
  H  H25  1  0.81490305  0.25000000  0.57231603  1
  H  H26  1  0.68509695  0.75000000  0.07231603  1
  H  H27  1  0.18509695  0.75000000  0.42768397  1
