# generated using pymatgen
data_CaCrO2
_symmetry_space_group_name_H-M   'P 1'
_cell_length_a   3.11215068
_cell_length_b   8.26931086
_cell_length_c   8.50207821
_cell_angle_alpha   83.38605836
_cell_angle_beta   90.00107340
_cell_angle_gamma   89.99078442
_symmetry_Int_Tables_number   1
_chemical_formula_structural   CaCrO2
_chemical_formula_sum   'Ca4 Cr4 O8'
_cell_volume   217.34769223
_cell_formula_units_Z   4
loop_
 _symmetry_equiv_pos_site_id
 _symmetry_equiv_pos_as_xyz
  1  'x, y, z'
loop_
 _atom_site_type_symbol
 _atom_site_label
 _atom_site_symmetry_multiplicity
 _atom_site_fract_x
 _atom_site_fract_y
 _atom_site_fract_z
 _atom_site_occupancy
  Ca  Ca0  1  0.24812838  0.06414804  0.33361314  1
  Ca  Ca1  1  0.74673917  0.91645937  0.69431274  1
  Ca  Ca2  1  0.24786251  0.80423772  0.05515548  1
  Ca  Ca3  1  0.74857217  0.17294987  0.97342625  1
  Cr  Cr4  1  0.24462765  0.27585665  0.61888942  1
  Cr  Cr5  1  0.75316433  0.43428490  0.21616020  1
  Cr  Cr6  1  0.24482369  0.54342321  0.81433070  1
  Cr  Cr7  1  0.74983651  0.70903846  0.40617591  1
  O  O8  1  0.24876249  0.81559079  0.51849612  1
  O  O9  1  0.74445507  0.38729432  0.74676094  1
  O  O10  1  0.25217003  0.59118302  0.28311059  1
  O  O11  1  0.74532102  0.17024087  0.50662382  1
  O  O12  1  0.24738954  0.02873864  0.84862911  1
  O  O13  1  0.25268909  0.29888773  0.13848202  1
  O  O14  1  0.74830700  0.94703106  0.18209798  1
  O  O15  1  0.74542733  0.67996834  0.88935657  1
