# generated using pymatgen
data_ZnP4WO12
_symmetry_space_group_name_H-M   'P 1'
_cell_length_a   7.74424400
_cell_length_b   7.73948045
_cell_length_c   10.28903690
_cell_angle_alpha   97.40223042
_cell_angle_beta   111.16714136
_cell_angle_gamma   110.44783273
_symmetry_Int_Tables_number   1
_chemical_formula_structural   ZnP4WO12
_chemical_formula_sum   'Zn2 P8 W2 O24'
_cell_volume   515.39149311
_cell_formula_units_Z   2
loop_
 _symmetry_equiv_pos_site_id
 _symmetry_equiv_pos_as_xyz
  1  'x, y, z'
loop_
 _atom_site_type_symbol
 _atom_site_label
 _atom_site_symmetry_multiplicity
 _atom_site_fract_x
 _atom_site_fract_y
 _atom_site_fract_z
 _atom_site_occupancy
  Zn  Zn0  1  0.73426154  0.98521537  0.75004778  1
  Zn  Zn1  1  0.26384917  0.01544742  0.25071666  1
  P  P2  1  0.49542014  0.32708145  0.80941748  1
  P  P3  1  0.01706838  0.68699665  0.69174287  1
  P  P4  1  0.50280276  0.67374879  0.19165704  1
  P  P5  1  0.98112391  0.31345741  0.30885934  1
  P  P6  1  0.75273248  0.71768893  0.02930961  1
  P  P7  1  0.18796264  0.72581025  0.47211506  1
  P  P8  1  0.24505418  0.28363466  0.97156795  1
  P  P9  1  0.81086006  0.27448175  0.52859488  1
  W  W10  1  0.49906065  0.49979082  0.50024403  1
  W  W11  1  0.49869159  0.00042745  0.00059286  1
  O  O12  1  0.30868919  0.33399485  0.84110245  1
  O  O13  1  0.99200916  0.46836243  0.65931498  1
  O  O14  1  0.68955373  0.66704869  0.15988395  1
  O  O15  1  0.00647503  0.53219718  0.34134513  1
  O  O16  1  0.69620497  0.50770822  0.93270430  1
  O  O17  1  0.07507024  0.76555256  0.56907497  1
  O  O18  1  0.30181295  0.49383082  0.06795802  1
  O  O19  1  0.92434646  0.23514030  0.43198808  1
  O  O20  1  0.46100634  0.35202576  0.66193536  1
  O  O21  1  0.18926891  0.79941950  0.83944438  1
  O  O22  1  0.53721475  0.64770669  0.33883405  1
  O  O23  1  0.80810183  0.20124918  0.16146718  1
  O  O24  1  0.52360726  0.14806340  0.83558397  1
  O  O25  1  0.81197488  0.68906664  0.66540459  1
  O  O26  1  0.47506832  0.85325217  0.16617530  1
  O  O27  1  0.18606032  0.31121145  0.33447454  1
  O  O28  1  0.61150855  0.79740137  0.94169855  1
  O  O29  1  0.35526005  0.67186380  0.55921997  1
  O  O30  1  0.38594638  0.20366990  0.05936344  1
  O  O31  1  0.64328453  0.32807407  0.44126450  1
  O  O32  1  0.97824712  0.82561058  0.08958787  1
  O  O33  1  0.23543012  0.89159948  0.41228402  1
  O  O34  1  0.01949175  0.17608456  0.91117005  1
  O  O35  1  0.76366966  0.10873845  0.58850781  1
