# generated using pymatgen
data_Na2UI6
_symmetry_space_group_name_H-M   'P 1'
_cell_length_a   8.76058837
_cell_length_b   8.76771529
_cell_length_c   26.29366820
_cell_angle_alpha   53.95572826
_cell_angle_beta   53.89564848
_cell_angle_gamma   54.02081975
_symmetry_Int_Tables_number   1
_chemical_formula_structural   Na2UI6
_chemical_formula_sum   'Na6 U3 I18'
_cell_volume   1226.49480020
_cell_formula_units_Z   3
loop_
 _symmetry_equiv_pos_site_id
 _symmetry_equiv_pos_as_xyz
  1  'x, y, z'
loop_
 _atom_site_type_symbol
 _atom_site_label
 _atom_site_symmetry_multiplicity
 _atom_site_fract_x
 _atom_site_fract_y
 _atom_site_fract_z
 _atom_site_occupancy
  Na  Na0  1  0.49870997  0.50275237  0.16406668  1
  Na  Na1  1  0.31400947  0.31713408  0.43934830  1
  Na  Na2  1  0.68612677  0.68873308  0.22717303  1
  Na  Na3  1  0.31461746  0.31459888  0.77296272  1
  Na  Na4  1  0.68426553  0.68437122  0.56108668  1
  Na  Na5  1  0.68308554  0.67966687  0.89598324  1
  U  U6  1  0.99434288  0.00237048  0.00031382  1
  U  U7  1  0.00653136  0.99557917  0.33259779  1
  U  U8  1  -0.00023464  -0.00008129  0.66675211  1
  I  I9  1  0.09934568  0.38130461  0.25390911  1
  I  I10  1  0.37640019  0.76474510  0.03272728  1
  I  I11  1  0.76206012  0.10008504  0.12748857  1
  I  I12  1  0.24727859  0.89986316  0.20542088  1
  I  I13  1  0.61653457  0.24676163  0.29881181  1
  I  I14  1  0.10216842  0.37754789  0.58603719  1
  I  I15  1  0.89885107  0.61966343  0.08280444  1
  I  I16  1  0.38370861  0.75377608  0.36785980  1
  I  I17  1  0.75543027  0.10181665  0.45928769  1
  I  I18  1  0.24208301  0.89801920  0.54067016  1
  I  I19  1  0.62248292  0.24198662  0.63259390  1
  I  I20  1  0.10245901  0.37823074  0.91900418  1
  I  I21  1  0.89663953  0.61912083  0.41507372  1
  I  I22  1  0.37744933  0.75842666  0.70061420  1
  I  I23  1  0.75854037  0.10201288  0.79243719  1
  I  I24  1  0.24505440  0.89681142  0.87393163  1
  I  I25  1  0.62397181  0.24173454  0.96752610  1
  I  I26  1  0.89808777  0.62296868  0.74685178  1
