# generated using pymatgen
data_Na3Ce5Cl18
_symmetry_space_group_name_H-M   'P 1'
_cell_length_a   7.60451578
_cell_length_b   7.60451583
_cell_length_c   13.01329575
_cell_angle_alpha   90.00000000
_cell_angle_beta   90.00000000
_cell_angle_gamma   119.99999982
_symmetry_Int_Tables_number   1
_chemical_formula_structural   Na3Ce5Cl18
_chemical_formula_sum   'Na3 Ce5 Cl18'
_cell_volume   651.72002563
_cell_formula_units_Z   1
loop_
 _symmetry_equiv_pos_site_id
 _symmetry_equiv_pos_as_xyz
  1  'x, y, z'
loop_
 _atom_site_type_symbol
 _atom_site_label
 _atom_site_symmetry_multiplicity
 _atom_site_fract_x
 _atom_site_fract_y
 _atom_site_fract_z
 _atom_site_occupancy
  Na  Na0  1  0.33333300  0.66666700  0.75000000  1
  Na  Na1  1  0.00000000  0.00000000  0.61237275  1
  Na  Na2  1  0.00000000  0.00000000  0.88762725  1
  Ce  Ce3  1  0.33333300  0.66666700  0.08455587  1
  Ce  Ce4  1  0.33333300  0.66666700  0.41544413  1
  Ce  Ce5  1  0.66666700  0.33333300  0.58434700  1
  Ce  Ce6  1  0.66666700  0.33333300  0.25000000  1
  Ce  Ce7  1  0.66666700  0.33333300  0.91565300  1
  Cl  Cl8  1  0.30556026  0.91225820  0.25000000  1
  Cl  Cl9  1  0.31188852  0.92135065  0.57591429  1
  Cl  Cl10  1  0.31188852  0.92135065  0.92408571  1
  Cl  Cl11  1  0.08774180  0.39330206  0.25000000  1
  Cl  Cl12  1  0.07864935  0.39053787  0.57591429  1
  Cl  Cl13  1  0.07864935  0.39053787  0.92408571  1
  Cl  Cl14  1  0.39218435  0.30518582  0.08551769  1
  Cl  Cl15  1  0.39218435  0.30518582  0.41448231  1
  Cl  Cl16  1  0.38150328  0.28350358  0.75000000  1
  Cl  Cl17  1  0.60669794  0.69443974  0.25000000  1
  Cl  Cl18  1  0.60946213  0.68811148  0.57591429  1
  Cl  Cl19  1  0.60946213  0.68811148  0.92408571  1
  Cl  Cl20  1  0.91300146  0.60781565  0.08551769  1
  Cl  Cl21  1  0.90200031  0.61849672  0.75000000  1
  Cl  Cl22  1  0.91300146  0.60781565  0.41448231  1
  Cl  Cl23  1  0.69481418  0.08699854  0.08551769  1
  Cl  Cl24  1  0.69481418  0.08699854  0.41448231  1
  Cl  Cl25  1  0.71649642  0.09799969  0.75000000  1
