# generated using pymatgen
data_SiO2
_symmetry_space_group_name_H-M   'P 1'
_cell_length_a   8.48946860
_cell_length_b   13.22997806
_cell_length_c   29.20676185
_cell_angle_alpha   90.00000000
_cell_angle_beta   90.00000000
_cell_angle_gamma   108.71386079
_symmetry_Int_Tables_number   1
_chemical_formula_structural   SiO2
_chemical_formula_sum   'Si56 O112'
_cell_volume   3106.94714787
_cell_formula_units_Z   56
loop_
 _symmetry_equiv_pos_site_id
 _symmetry_equiv_pos_as_xyz
  1  'x, y, z'
loop_
 _atom_site_type_symbol
 _atom_site_label
 _atom_site_symmetry_multiplicity
 _atom_site_fract_x
 _atom_site_fract_y
 _atom_site_fract_z
 _atom_site_occupancy
  Si  Si0  1  0.58164528  0.53885295  0.45027828  1
  Si  Si1  1  0.15993754  0.95386450  0.39373882  1
  Si  Si2  1  0.79821986  0.22428695  0.54593249  1
  Si  Si3  1  0.95720767  0.53885295  0.45027828  1
  Si  Si4  1  0.65993754  0.95386450  0.10626118  1
  Si  Si5  1  0.08164528  0.53885295  0.04972172  1
  Si  Si6  1  0.73615346  0.84413500  0.94899915  1
  Si  Si7  1  0.35857190  0.35106159  0.39404970  1
  Si  Si8  1  0.07393291  0.77571305  0.04593249  1
  Si  Si9  1  0.60798154  0.84413500  0.55100085  1
  Si  Si10  1  0.14142810  0.64893841  0.89404970  1
  Si  Si11  1  0.03798641  0.71437668  0.79965030  1
  Si  Si12  1  0.49248969  0.35106159  0.10595030  1
  Si  Si13  1  0.80522612  0.97223080  0.79970417  1
  Si  Si14  1  0.10798154  0.84413500  0.94899915  1
  Si  Si15  1  0.46201359  0.28562332  0.29965030  1
  Si  Si16  1  0.20607304  0.04613550  0.60626118  1
  Si  Si17  1  0.89201846  0.15586500  0.05100085  1
  Si  Si18  1  0.82360972  0.28562332  0.29965030  1
  Si  Si19  1  0.19477388  0.02776920  0.20029583  1
  Si  Si20  1  0.20178014  0.77571305  0.45406751  1
  Si  Si21  1  0.79392696  0.95386450  0.39373882  1
  Si  Si22  1  0.57393291  0.77571305  0.45406751  1
  Si  Si23  1  0.34006246  0.04613550  0.89373882  1
  Si  Si24  1  0.54279233  0.46114705  0.95027828  1
  Si  Si25  1  0.17639028  0.71437668  0.70034970  1
  Si  Si26  1  0.70607304  0.04613550  0.89373882  1
  Si  Si27  1  0.29392696  0.95386450  0.10626118  1
  Si  Si28  1  0.00751031  0.64893841  0.60595030  1
  Si  Si29  1  0.66700467  0.97223080  0.70029583  1
  Si  Si30  1  0.29821986  0.22428695  0.95406751  1
  Si  Si31  1  0.39201846  0.15586500  0.44899915  1
  Si  Si32  1  0.84006246  0.04613550  0.60626118  1
  Si  Si33  1  0.41835472  0.46114705  0.54972172  1
  Si  Si34  1  0.30522612  0.97223080  0.70029583  1
  Si  Si35  1  0.76384654  0.15586500  0.44899915  1
  Si  Si36  1  0.45720767  0.53885295  0.04972172  1
  Si  Si37  1  0.99248969  0.35106159  0.39404970  1
  Si  Si38  1  0.83299533  0.02776920  0.20029583  1
  Si  Si39  1  0.42606709  0.22428695  0.54593249  1
  Si  Si40  1  0.91835472  0.46114705  0.95027828  1
  Si  Si41  1  0.26384654  0.15586500  0.05100085  1
  Si  Si42  1  0.67639028  0.71437668  0.79965030  1
  Si  Si43  1  0.53798641  0.71437668  0.70034970  1
  Si  Si44  1  0.92606709  0.22428695  0.95406751  1
  Si  Si45  1  0.04279233  0.46114705  0.54972172  1
  Si  Si46  1  0.96201359  0.28562332  0.20034970  1
  Si  Si47  1  0.32360972  0.28562332  0.20034970  1
  Si  Si48  1  0.23615346  0.84413500  0.55100085  1
  Si  Si49  1  0.70178014  0.77571305  0.04593249  1
  Si  Si50  1  0.85857190  0.35106159  0.10595030  1
  Si  Si51  1  0.64142810  0.64893841  0.60595030  1
  Si  Si52  1  0.33299533  0.02776920  0.29970417  1
  Si  Si53  1  0.16700467  0.97223080  0.79970417  1
  Si  Si54  1  0.69477388  0.02776920  0.29970417  1
  Si  Si55  1  0.50751031  0.64893841  0.89404970  1
  O  O56  1  0.89181917  0.15681704  0.19468812  1
  O  O57  1  0.95777356  0.34064490  0.33916553  1
  O  O58  1  0.24071996  0.48143992  0.55368785  1
  O  O59  1  0.30021377  0.02670548  0.83937801  1
  O  O60  1  0.12402943  0.24805886  0.96294154  1
  O  O61  1  0.69978623  0.97329452  0.16062199  1
  O  O62  1  0.61712866  0.65935510  0.66083447  1
  O  O63  1  0.33717184  0.26772702  0.07875299  1
  O  O64  1  0.80021377  0.02670548  0.66062199  1
  O  O65  1  0.60784642  0.66476734  0.44318776  1
  O  O66  1  0.19301361  0.93816368  0.57773747  1
  O  O67  1  0.95844608  0.47200763  0.08977930  1
  O  O68  1  0.51356154  0.47200763  0.08977930  1
  O  O69  1  0.54222644  0.65935510  0.83916553  1
  O  O70  1  0.25484994  0.06183632  0.42226253  1
  O  O71  1  0.75928004  0.51856008  0.44631215  1
  O  O72  1  0.77350829  0.97329452  0.33937801  1
  O  O73  1  0.04155392  0.52799237  0.91022070  1
  O  O74  1  0.83636639  0.67273278  0.80433961  1
  O  O75  1  0.74672842  0.99345683  0.25000000  1
  O  O76  1  0.33846998  0.67693996  0.90550279  1
  O  O77  1  0.11712866  0.65935510  0.83916553  1
  O  O78  1  0.39181917  0.15681704  0.30531188  1
  O  O79  1  0.54155392  0.52799237  0.58977930  1
  O  O80  1  0.24672842  0.99345683  0.25000000  1
  O  O81  1  0.25327158  0.00654317  0.75000000  1
  O  O82  1  0.53872935  0.07745870  0.90203400  1
  O  O83  1  0.72649171  0.02670548  0.83937801  1
  O  O84  1  0.96127065  0.92254130  0.40203400  1
  O  O85  1  0.26499787  0.15681704  0.19468812  1
  O  O86  1  0.83846998  0.67693996  0.59449721  1
  O  O87  1  0.06303760  0.12607520  0.04645342  1
  O  O88  1  0.39215358  0.33523266  0.55681224  1
  O  O89  1  0.75327158  0.00654317  0.75000000  1
  O  O90  1  0.44307908  0.33523266  0.94318776  1
  O  O91  1  0.84620848  0.16938802  0.50002923  1
  O  O92  1  0.66363361  0.32726722  0.30433961  1
  O  O93  1  0.67682046  0.83061198  0.49997077  1
  O  O94  1  0.56944482  0.73227298  0.57875299  1
  O  O95  1  0.03872935  0.07745870  0.59796600  1
  O  O96  1  0.25928004  0.51856008  0.05368785  1
  O  O97  1  0.48643846  0.52799237  0.91022070  1
  O  O98  1  0.98643846  0.52799237  0.58977930  1
  O  O99  1  0.66153002  0.32306004  0.09449721  1
  O  O100  1  0.00680974  0.01361948  0.80435349  1
  O  O101  1  0.89215358  0.33523266  0.94318776  1
  O  O102  1  0.94307908  0.33523266  0.55681224  1
  O  O103  1  0.76499787  0.15681704  0.30531188  1
  O  O104  1  0.66282816  0.73227298  0.92124701  1
  O  O105  1  0.27350829  0.97329452  0.16062199  1
  O  O106  1  0.13382179  0.85643373  0.08889638  1
  O  O107  1  0.10818083  0.84318296  0.80531188  1
  O  O108  1  0.00000000  0.50000000  0.50000000  1
  O  O109  1  0.77738806  0.14356627  0.58889638  1
  O  O110  1  0.15379152  0.83061198  0.49997077  1
  O  O111  1  0.62402943  0.24805886  0.53705846  1
  O  O112  1  0.45844608  0.47200763  0.41022070  1
  O  O113  1  0.27738806  0.14356627  0.91110362  1
  O  O114  1  0.74515006  0.93816368  0.57773747  1
  O  O115  1  0.34620848  0.16938802  0.99997077  1
  O  O116  1  0.19978623  0.97329452  0.33937801  1
  O  O117  1  0.16282816  0.73227298  0.57875299  1
  O  O118  1  0.23500213  0.84318296  0.69468812  1
  O  O119  1  0.50680974  0.01361948  0.69564651  1
  O  O120  1  0.08999665  0.67999329  0.75000000  1
  O  O121  1  0.87597057  0.75194114  0.03705846  1
  O  O122  1  0.17682046  0.83061198  0.00002923  1
  O  O123  1  0.16363361  0.32726722  0.19566039  1
  O  O124  1  0.16153002  0.32306004  0.40550279  1
  O  O125  1  0.83717184  0.26772702  0.42124701  1
  O  O126  1  0.43055518  0.26772702  0.42124701  1
  O  O127  1  0.82317954  0.16938802  0.99997077  1
  O  O128  1  0.38287134  0.34064490  0.33916553  1
  O  O129  1  0.41000335  0.32000671  0.25000000  1
  O  O130  1  0.99319026  0.98638052  0.19564651  1
  O  O131  1  0.75484994  0.06183632  0.07773747  1
  O  O132  1  0.43696240  0.87392480  0.54645342  1
  O  O133  1  0.37597057  0.75194114  0.46294154  1
  O  O134  1  0.50000000  0.50000000  0.00000000  1
  O  O135  1  0.30698639  0.06183632  0.07773747  1
  O  O136  1  0.63382179  0.85643373  0.41110362  1
  O  O137  1  0.69301361  0.93816368  0.92226253  1
  O  O138  1  0.65379152  0.83061198  0.00002923  1
  O  O139  1  0.50000000  0.50000000  0.50000000  1
  O  O140  1  0.73500213  0.84318296  0.80531188  1
  O  O141  1  0.80698639  0.06183632  0.42226253  1
  O  O142  1  0.88287134  0.34064490  0.16083447  1
  O  O143  1  0.10784642  0.66476734  0.05681224  1
  O  O144  1  0.33636639  0.67273278  0.69566039  1
  O  O145  1  0.22261194  0.85643373  0.41110362  1
  O  O146  1  0.46127065  0.92254130  0.09796600  1
  O  O147  1  0.58999665  0.67999329  0.75000000  1
  O  O148  1  0.55692092  0.66476734  0.05681224  1
  O  O149  1  0.86617821  0.14356627  0.91110362  1
  O  O150  1  0.32317954  0.16938802  0.50002923  1
  O  O151  1  0.06944482  0.73227298  0.92124701  1
  O  O152  1  0.05692092  0.66476734  0.44318776  1
  O  O153  1  0.74071996  0.48143992  0.94631215  1
  O  O154  1  0.36617821  0.14356627  0.58889638  1
  O  O155  1  0.93055518  0.26772702  0.07875299  1
  O  O156  1  0.60818083  0.84318296  0.69468812  1
  O  O157  1  0.00000000  0.50000000  0.00000000  1
  O  O158  1  0.49319026  0.98638052  0.30435349  1
  O  O159  1  0.45777356  0.34064490  0.16083447  1
  O  O160  1  0.72261194  0.85643373  0.08889638  1
  O  O161  1  0.22649171  0.02670548  0.66062199  1
  O  O162  1  0.04222644  0.65935510  0.66083447  1
  O  O163  1  0.01356154  0.47200763  0.41022070  1
  O  O164  1  0.93696240  0.87392480  0.95354658  1
  O  O165  1  0.91000335  0.32000671  0.25000000  1
  O  O166  1  0.56303760  0.12607520  0.45354658  1
  O  O167  1  0.24515006  0.93816368  0.92226253  1
