# generated using pymatgen
data_Sr2La18AlSi11O52
_symmetry_space_group_name_H-M   'P 1'
_cell_length_a   9.76430582
_cell_length_b   19.56246277
_cell_length_c   7.30895344
_cell_angle_alpha   90.01608948
_cell_angle_beta   89.98582388
_cell_angle_gamma   119.97398955
_symmetry_Int_Tables_number   1
_chemical_formula_structural   Sr2La18AlSi11O52
_chemical_formula_sum   'Sr2 La18 Al1 Si11 O52'
_cell_volume   1209.38471751
_cell_formula_units_Z   1
loop_
 _symmetry_equiv_pos_site_id
 _symmetry_equiv_pos_as_xyz
  1  'x, y, z'
loop_
 _atom_site_type_symbol
 _atom_site_label
 _atom_site_symmetry_multiplicity
 _atom_site_fract_x
 _atom_site_fract_y
 _atom_site_fract_z
 _atom_site_occupancy
  Sr  Sr0  1  0.33290337  0.83296025  0.00062643  1
  Sr  Sr1  1  0.66698393  0.16674507  0.50050701  1
  La  La2  1  0.23271938  0.99432029  0.24921141  1
  La  La3  1  0.00474065  0.61929326  0.24846938  1
  La  La4  1  0.33303790  0.83276114  0.50203960  1
  La  La5  1  0.24235471  0.61669073  0.75078914  1
  La  La6  1  0.23369621  0.49505281  0.25081072  1
  La  La7  1  0.75539724  0.88433552  0.24933282  1
  La  La8  1  0.01086776  0.12128932  0.25149221  1
  La  La9  1  0.66598796  0.66404041  0.49774695  1
  La  La10  1  0.66622086  0.66385267  0.00236722  1
  La  La11  1  0.33612917  0.33371784  0.49737496  1
  La  La12  1  0.33659721  0.33387572  0.00268240  1
  La  La13  1  0.98823046  0.87838287  0.75165092  1
  La  La14  1  0.24386658  0.11530166  0.74937354  1
  La  La15  1  0.77134731  0.50807855  0.75062942  1
  La  La16  1  0.75549279  0.38431225  0.25073683  1
  La  La17  1  0.66656934  0.16667931  0.00211118  1
  La  La18  1  0.98688791  0.37789158  0.74853377  1
  La  La19  1  0.76741888  0.00581366  0.74934489  1
  Al  Al20  1  0.62695407  0.51349051  0.25028445  1
  Si  Si21  1  0.02969165  0.70047427  0.74916802  1
  Si  Si22  1  0.37011629  0.98552685  0.75073137  1
  Si  Si23  1  0.39929217  0.68533824  0.25159855  1
  Si  Si24  1  0.60106813  0.81441676  0.74941866  1
  Si  Si25  1  0.02996019  0.19994640  0.75175310  1
  Si  Si26  1  0.36967454  0.48491190  0.75017463  1
  Si  Si27  1  0.97076896  0.80096225  0.25184555  1
  Si  Si28  1  0.39884954  0.18474346  0.24964124  1
  Si  Si29  1  0.60060555  0.31485523  0.75137464  1
  Si  Si30  1  0.62963482  0.01436236  0.25092143  1
  Si  Si31  1  0.97041287  0.30018662  0.24929337  1
  O  O32  1  0.25388463  0.95466627  0.56870565  1
  O  O33  1  0.24983224  0.95585219  0.92857043  1
  O  O34  1  0.16234580  0.84064481  0.25662740  1
  O  O35  1  0.12128896  0.79753524  0.74537354  1
  O  O36  1  0.09273563  0.67341630  0.56842402  1
  O  O37  1  0.08736867  0.66978421  0.92735796  1
  O  O38  1  0.47281520  0.93950495  0.74551874  1
  O  O39  1  0.31980246  0.74146571  0.25656107  1
  O  O40  1  0.51805600  0.91826258  0.25577729  1
  O  O41  1  0.40623150  0.76388397  0.74559768  1
  O  O42  1  0.34411108  0.62800746  0.06866100  1
  O  O43  1  0.34486971  0.62700419  0.43273212  1
  O  O44  1  0.65515268  0.87281019  0.56824276  1
  O  O45  1  0.66275670  0.87399803  0.92780194  1
  O  O46  1  0.25455257  0.45425173  0.56872837  1
  O  O47  1  0.25391354  0.45434982  0.93111635  1
  O  O48  1  0.16367009  0.33975334  0.24935046  1
  O  O49  1  0.12367650  0.29770143  0.75005522  1
  O  O50  1  0.59517099  0.73580661  0.24982705  1
  O  O51  1  0.48367223  0.58103551  0.75037756  1
  O  O52  1  0.09130021  0.17287252  0.56981560  1
  O  O53  1  0.09401938  0.17289382  0.93125049  1
  O  O54  1  0.67932172  0.75717254  0.74968165  1
  O  O55  1  0.52594180  0.56740022  0.24987435  1
  O  O56  1  0.99930769  0.99909411  0.24842834  1
  O  O57  1  0.00062337  0.00073793  0.74834416  1
  O  O58  1  0.47098256  0.43775616  0.74987391  1
  O  O59  1  0.31497424  0.23946234  0.24964829  1
  O  O60  1  0.90916915  0.82752045  0.06951645  1
  O  O61  1  0.90622703  0.82740174  0.43179541  1
  O  O62  1  0.51087609  0.40983998  0.25069544  1
  O  O63  1  0.40474587  0.26412417  0.74971465  1
  O  O64  1  0.87580037  0.70317605  0.25006544  1
  O  O65  1  0.83693715  0.66172706  0.74942884  1
  O  O66  1  0.75356654  0.54974190  0.05778339  1
  O  O67  1  0.75429172  0.54973081  0.44219514  1
  O  O68  1  0.34553033  0.12679210  0.06787763  1
  O  O69  1  0.33800019  0.12565100  0.42838843  1
  O  O70  1  0.65415624  0.37222747  0.56965926  1
  O  O71  1  0.65327522  0.37327225  0.93142333  1
  O  O72  1  0.59349688  0.23645094  0.24566399  1
  O  O73  1  0.48199790  0.08173850  0.75570673  1
  O  O74  1  0.68082826  0.25907656  0.75614477  1
  O  O75  1  0.52726292  0.06054081  0.24555219  1
  O  O76  1  0.00109198  0.50007186  0.24924724  1
  O  O77  1  0.00136861  0.49914825  0.74918468  1
  O  O78  1  0.90862251  0.32726713  0.06752213  1
  O  O79  1  0.91371715  0.33071899  0.42869896  1
  O  O80  1  0.87837525  0.20294241  0.24538529  1
  O  O81  1  0.83792390  0.15969669  0.75666023  1
  O  O82  1  0.74596130  0.04524022  0.06867066  1
  O  O83  1  0.74992089  0.04416870  0.42866053  1
