# generated using pymatgen
data_KPb2Cl5
_symmetry_space_group_name_H-M   'P 1'
_cell_length_a   8.38120947
_cell_length_b   9.00202382
_cell_length_c   12.38338146
_cell_angle_alpha   90.00020614
_cell_angle_beta   90.00001037
_cell_angle_gamma   90.00050472
_symmetry_Int_Tables_number   1
_chemical_formula_structural   KPb2Cl5
_chemical_formula_sum   'K4 Pb8 Cl20'
_cell_volume   934.29947330
_cell_formula_units_Z   4
loop_
 _symmetry_equiv_pos_site_id
 _symmetry_equiv_pos_as_xyz
  1  'x, y, z'
loop_
 _atom_site_type_symbol
 _atom_site_label
 _atom_site_symmetry_multiplicity
 _atom_site_fract_x
 _atom_site_fract_y
 _atom_site_fract_z
 _atom_site_occupancy
  K  K0  1  0.02863677  0.50518719  0.67578176  1
  K  K1  1  0.47140489  0.50517842  0.17579887  1
  K  K2  1  0.52864680  0.00519279  0.82420037  1
  K  K3  1  0.97134998  0.00516896  0.32420895  1
  Pb  Pb4  1  0.99034883  0.01543597  0.67837273  1
  Pb  Pb5  1  0.08372930  0.24881461  0.99577902  1
  Pb  Pb6  1  0.41626977  0.24878379  0.49576976  1
  Pb  Pb7  1  0.50964051  0.01542256  0.17835958  1
  Pb  Pb8  1  0.49036420  0.51543109  0.82163081  1
  Pb  Pb9  1  0.58368382  0.74879835  0.50423166  1
  Pb  Pb10  1  0.91628386  0.74881714  0.00422680  1
  Pb  Pb11  1  0.00964856  0.51544250  0.32163280  1
  Cl  Cl12  1  0.04961934  0.24331971  0.50351694  1
  Cl  Cl13  1  0.13974297  0.73073409  0.19194072  1
  Cl  Cl14  1  0.18204360  0.53803089  0.91770247  1
  Cl  Cl15  1  0.15179911  0.95295632  0.90439563  1
  Cl  Cl16  1  0.18516711  0.26555881  0.22440409  1
  Cl  Cl17  1  0.31484192  0.26555438  0.72439445  1
  Cl  Cl18  1  0.34818993  0.95293088  0.40438510  1
  Cl  Cl19  1  0.31796701  0.53801632  0.41771016  1
  Cl  Cl20  1  0.36025878  0.73072802  0.69195024  1
  Cl  Cl21  1  0.45038605  0.24333034  0.00351339  1
  Cl  Cl22  1  0.54962297  0.74332525  0.99648301  1
  Cl  Cl23  1  0.63972889  0.23072255  0.30805741  1
  Cl  Cl24  1  0.65178380  0.45293980  0.59560463  1
  Cl  Cl25  1  0.68202633  0.03801802  0.58228948  1
  Cl  Cl26  1  0.68515722  0.76556445  0.27560867  1
  Cl  Cl27  1  0.81483882  0.76555870  0.77560206  1
  Cl  Cl28  1  0.81796450  0.03802418  0.08229445  1
  Cl  Cl29  1  0.84820894  0.45294953  0.09560777  1
  Cl  Cl30  1  0.86026712  0.23074005  0.80806151  1
  Cl  Cl31  1  0.95037830  0.74332434  0.49648470  1
