# generated using pymatgen
data_Ce3AsS3
_symmetry_space_group_name_H-M   'P 1'
_cell_length_a   14.94455515
_cell_length_b   8.62824285
_cell_length_c   8.62824312
_cell_angle_alpha   90.00000000
_cell_angle_beta   54.73560948
_cell_angle_gamma   54.73561074
_symmetry_Int_Tables_number   1
_chemical_formula_structural   Ce3AsS3
_chemical_formula_sum   'Ce12 As4 S12'
_cell_volume   642.34314600
_cell_formula_units_Z   4
loop_
 _symmetry_equiv_pos_site_id
 _symmetry_equiv_pos_as_xyz
  1  'x, y, z'
loop_
 _atom_site_type_symbol
 _atom_site_label
 _atom_site_symmetry_multiplicity
 _atom_site_fract_x
 _atom_site_fract_y
 _atom_site_fract_z
 _atom_site_occupancy
  Ce  Ce0  1  0.00154564  0.12311249  0.74903819  1
  Ce  Ce1  1  0.12465812  0.62475805  0.37379624  1
  Ce  Ce2  1  0.25058383  0.24787054  0.62475805  1
  Ce  Ce3  1  0.50154564  0.37379624  0.24787054  1
  Ce  Ce4  1  0.37534188  0.87407430  0.12620376  1
  Ce  Ce5  1  0.49845436  0.12620376  0.75096181  1
  Ce  Ce6  1  0.24941617  0.74903819  0.87524195  1
  Ce  Ce7  1  0.62465812  0.62592570  0.37688751  1
  Ce  Ce8  1  0.74941617  0.25212946  0.62592570  1
  Ce  Ce9  1  0.99845436  0.37688751  0.25212946  1
  Ce  Ce10  1  0.87534188  0.87524195  0.12311249  1
  Ce  Ce11  1  0.75058383  0.75096181  0.87407430  1
  As  As12  1  0.17375566  0.65248868  0.65248868  1
  As  As13  1  0.32624434  0.00000000  0.84751132  1
  As  As14  1  0.67375566  0.50000000  0.00000000  1
  As  As15  1  0.82624434  0.84751132  0.50000000  1
  S  S16  1  0.07397453  0.00000000  0.35205095  1
  S  S17  1  0.17515031  0.50000000  1.00000000  1
  S  S18  1  0.07502229  0.34995542  0.50000000  1
  S  S19  1  0.42602547  0.14794905  0.14794905  1
  S  S20  1  0.42497771  0.50000000  0.00000000  1
  S  S21  1  0.57502229  0.00000000  0.34995542  1
  S  S22  1  0.32484969  0.85030062  0.50000000  1
  S  S23  1  0.57397453  0.35205095  0.50000000  1
  S  S24  1  0.92497771  0.15004458  0.15004458  1
  S  S25  1  0.92602547  0.50000000  1.00000000  1
  S  S26  1  0.82484969  0.00000000  0.85030062  1
  S  S27  1  0.67515031  0.64969938  0.64969938  1
