# generated using pymatgen
data_Cu4Sn7S16
_symmetry_space_group_name_H-M   'P 1'
_cell_length_a   12.95337176
_cell_length_b   12.95337165
_cell_length_c   12.95337184
_cell_angle_alpha   33.30607219
_cell_angle_beta   33.30607297
_cell_angle_gamma   33.30607108
_symmetry_Int_Tables_number   1
_chemical_formula_structural   Cu4Sn7S16
_chemical_formula_sum   'Cu4 Sn7 S16'
_cell_volume   583.49012437
_cell_formula_units_Z   1
loop_
 _symmetry_equiv_pos_site_id
 _symmetry_equiv_pos_as_xyz
  1  'x, y, z'
loop_
 _atom_site_type_symbol
 _atom_site_label
 _atom_site_symmetry_multiplicity
 _atom_site_fract_x
 _atom_site_fract_y
 _atom_site_fract_z
 _atom_site_occupancy
  Cu  Cu0  1  0.99978155  0.99978155  0.99978155  1
  Cu  Cu1  1  0.29418413  0.29418413  0.29418413  1
  Cu  Cu2  1  0.70544468  0.70544468  0.70544468  1
  Cu  Cu3  1  0.81174909  0.81174909  0.81174909  1
  Sn  Sn4  1  0.24564686  0.24564686  0.75480065  1
  Sn  Sn5  1  0.24564686  0.75480065  0.24564686  1
  Sn  Sn6  1  0.75480065  0.24564686  0.24564686  1
  Sn  Sn7  1  0.50241282  0.50241282  0.50241282  1
  Sn  Sn8  1  0.25319240  0.74962582  0.74962582  1
  Sn  Sn9  1  0.74962582  0.74962582  0.25319240  1
  Sn  Sn10  1  0.74962582  0.25319240  0.74962582  1
  S  S11  1  0.12348471  0.12348471  0.12348471  1
  S  S12  1  0.11621950  0.11621950  0.64125171  1
  S  S13  1  0.11621950  0.64125171  0.11621950  1
  S  S14  1  0.64125171  0.11621950  0.11621950  1
  S  S15  1  0.37654186  0.37654186  0.37654186  1
  S  S16  1  0.13439130  0.61989492  0.61989492  1
  S  S17  1  0.61989492  0.61989492  0.13439130  1
  S  S18  1  0.61989492  0.13439130  0.61989492  1
  S  S19  1  0.38008308  0.38008308  0.86684300  1
  S  S20  1  0.38008308  0.86684300  0.38008308  1
  S  S21  1  0.86684300  0.38008308  0.38008308  1
  S  S22  1  0.62495903  0.62495903  0.62495903  1
  S  S23  1  0.36084562  0.88165797  0.88165797  1
  S  S24  1  0.88165797  0.88165797  0.36084562  1
  S  S25  1  0.88165797  0.36084562  0.88165797  1
  S  S26  1  0.87546118  0.87546118  0.87546118  1
