# generated using pymatgen
data_Zn(InS2)2
_symmetry_space_group_name_H-M   'P 1'
_cell_length_a   12.78693296
_cell_length_b   25.66635798
_cell_length_c   25.35818876
_cell_angle_alpha   8.88762307
_cell_angle_beta   15.20588650
_cell_angle_gamma   17.55968721
_symmetry_Int_Tables_number   1
_chemical_formula_structural   Zn(InS2)2
_chemical_formula_sum   'Zn2 In4 S8'
_cell_volume   337.24675052
_cell_formula_units_Z   2
loop_
 _symmetry_equiv_pos_site_id
 _symmetry_equiv_pos_as_xyz
  1  'x, y, z'
loop_
 _atom_site_type_symbol
 _atom_site_label
 _atom_site_symmetry_multiplicity
 _atom_site_fract_x
 _atom_site_fract_y
 _atom_site_fract_z
 _atom_site_occupancy
  Zn  Zn0  1  0.22358381  0.00000000  0.23731270  1
  Zn  Zn1  1  0.77641619  0.00000000  0.76268730  1
  In  In2  1  0.00000000  0.00000000  0.00000000  1
  In  In3  1  0.24108381  0.50000000  0.22270362  1
  In  In4  1  0.00000000  0.50000000  0.00000000  1
  In  In5  1  0.75891619  0.50000000  0.77729638  1
  S  S6  1  0.15792080  0.00000000  0.10921286  1
  S  S7  1  0.08515590  0.50000000  0.14235122  1
  S  S8  1  0.29228055  0.50000000  0.29891445  1
  S  S9  1  0.70407798  0.00000000  0.70307203  1
  S  S10  1  0.29592202  0.00000000  0.29692797  1
  S  S11  1  0.70771945  0.50000000  0.70108555  1
  S  S12  1  0.91484410  0.50000000  0.85764878  1
  S  S13  1  0.84207920  0.00000000  0.89078714  1
