# generated using pymatgen
data_Sr2AlCu2BiO7
_symmetry_space_group_name_H-M   'P 1'
_cell_length_a   5.29522887
_cell_length_b   5.32393003
_cell_length_c   13.02705199
_cell_angle_alpha   101.74651272
_cell_angle_beta   101.62233905
_cell_angle_gamma   90.19929004
_symmetry_Int_Tables_number   1
_chemical_formula_structural   Sr2AlCu2BiO7
_chemical_formula_sum   'Sr4 Al2 Cu4 Bi2 O14'
_cell_volume   351.80878864
_cell_formula_units_Z   2
loop_
 _symmetry_equiv_pos_site_id
 _symmetry_equiv_pos_as_xyz
  1  'x, y, z'
loop_
 _atom_site_type_symbol
 _atom_site_label
 _atom_site_symmetry_multiplicity
 _atom_site_fract_x
 _atom_site_fract_y
 _atom_site_fract_z
 _atom_site_occupancy
  Sr  Sr0  1  0.32842859  0.36598873  0.72483773  1
  Sr  Sr1  1  0.60913145  0.63324658  0.27607183  1
  Sr  Sr2  1  0.82896827  0.86083257  0.72488840  1
  Sr  Sr3  1  0.10886638  0.14256661  0.27606562  1
  Al  Al4  1  0.99307994  0.01201630  -0.00016544  1
  Al  Al5  1  0.49237838  0.49553752  0.00028348  1
  Cu  Cu6  1  0.92410892  0.45022610  0.89000887  1
  Cu  Cu7  1  0.04291434  0.55922944  0.11045822  1
  Cu  Cu8  1  0.42463086  0.94412731  0.89033827  1
  Cu  Cu9  1  0.54304251  0.05509611  0.11055631  1
  Bi  Bi10  1  0.24707853  0.74532914  0.50092193  1
  Bi  Bi11  1  0.74579160  0.26030499  0.50084178  1
  O  O12  1  0.16308412  0.33848305  0.50133642  1
  O  O13  1  0.66392852  0.66735065  0.50106260  1
  O  O14  1  0.25028894  0.27077996  0.90515799  1
  O  O15  1  0.36072989  0.72785071  0.09842435  1
  O  O16  1  0.75035298  0.13519066  0.90328444  1
  O  O17  1  0.85844660  0.87310041  0.09664567  1
  O  O18  1  0.59993012  0.62324423  0.89552637  1
  O  O19  1  0.71667145  0.37705163  0.10518870  1
  O  O20  1  0.10176364  0.77720523  0.89645553  1
  O  O21  1  0.21783086  0.23192931  0.10659078  1
  O  O22  1  0.31706792  0.84403995  0.68510529  1
  O  O23  1  0.63743691  0.16003691  0.31688247  1
  O  O24  1  0.81779420  0.34532861  0.68509225  1
  O  O25  1  0.13570709  0.65938330  0.31711814  1
