# generated using pymatgen
data_U3Se5
_symmetry_space_group_name_H-M   'P 1'
_cell_length_a   7.69443870
_cell_length_b   8.18898124
_cell_length_c   12.21999656
_cell_angle_alpha   90.00000000
_cell_angle_beta   90.00000000
_cell_angle_gamma   90.00000000
_symmetry_Int_Tables_number   1
_chemical_formula_structural   U3Se5
_chemical_formula_sum   'U12 Se20'
_cell_volume   769.97726836
_cell_formula_units_Z   4
loop_
 _symmetry_equiv_pos_site_id
 _symmetry_equiv_pos_as_xyz
  1  'x, y, z'
loop_
 _atom_site_type_symbol
 _atom_site_label
 _atom_site_symmetry_multiplicity
 _atom_site_fract_x
 _atom_site_fract_y
 _atom_site_fract_z
 _atom_site_occupancy
  U  U0  1  0.97631352  0.99969787  0.18059449  1
  U  U1  1  0.52368648  0.50030213  0.68059449  1
  U  U2  1  0.02368648  0.49969787  0.81940551  1
  U  U3  1  0.47631352  0.00030213  0.31940551  1
  U  U4  1  0.02368648  0.00030213  0.81940551  1
  U  U5  1  0.47631352  0.49969787  0.31940551  1
  U  U6  1  0.97631352  0.50030213  0.18059449  1
  U  U7  1  0.52368648  0.99969787  0.68059449  1
  U  U8  1  0.41989500  0.75000000  0.00649465  1
  U  U9  1  0.08010500  0.75000000  0.50649465  1
  U  U10  1  0.58010500  0.25000000  0.99350535  1
  U  U11  1  0.91989500  0.25000000  0.49350535  1
  Se  Se12  1  0.67069193  0.54889636  0.90204112  1
  Se  Se13  1  0.82930807  0.95110364  0.40204112  1
  Se  Se14  1  0.32930807  0.04889636  0.09795888  1
  Se  Se15  1  0.17069193  0.45110364  0.59795888  1
  Se  Se16  1  0.32930807  0.45110364  0.09795888  1
  Se  Se17  1  0.17069193  0.04889636  0.59795888  1
  Se  Se18  1  0.67069193  0.95110364  0.90204112  1
  Se  Se19  1  0.82930807  0.54889636  0.40204112  1
  Se  Se20  1  0.66926421  0.75000000  0.18522541  1
  Se  Se21  1  0.83073579  0.75000000  0.68522541  1
  Se  Se22  1  0.33073579  0.25000000  0.81477459  1
  Se  Se23  1  0.16926421  0.25000000  0.31477459  1
  Se  Se24  1  0.03587740  0.75000000  0.00037489  1
  Se  Se25  1  0.46412260  0.75000000  0.50037489  1
  Se  Se26  1  0.96412260  0.25000000  0.99962511  1
  Se  Se27  1  0.53587740  0.25000000  0.49962511  1
  Se  Se28  1  0.29995579  0.75000000  0.78197707  1
  Se  Se29  1  0.20004421  0.75000000  0.28197707  1
  Se  Se30  1  0.70004421  0.25000000  0.21802293  1
  Se  Se31  1  0.79995579  0.25000000  0.71802293  1
