# generated using pymatgen
data_Sr10Al6O19
_symmetry_space_group_name_H-M   'P 1'
_cell_length_a   7.91408417
_cell_length_b   15.89290250
_cell_length_c   17.88123061
_cell_angle_alpha   103.33867542
_cell_angle_beta   102.78515668
_cell_angle_gamma   90.00000104
_symmetry_Int_Tables_number   1
_chemical_formula_structural   Sr10Al6O19
_chemical_formula_sum   'Sr40 Al24 O76'
_cell_volume   2131.04057658
_cell_formula_units_Z   4
loop_
 _symmetry_equiv_pos_site_id
 _symmetry_equiv_pos_as_xyz
  1  'x, y, z'
loop_
 _atom_site_type_symbol
 _atom_site_label
 _atom_site_symmetry_multiplicity
 _atom_site_fract_x
 _atom_site_fract_y
 _atom_site_fract_z
 _atom_site_occupancy
  Sr  Sr0  1  0.37521906  0.32317058  0.24944774  1
  Sr  Sr1  1  0.00320428  0.88242085  0.49939049  1
  Sr  Sr2  1  0.62275607  0.17257744  0.74764893  1
  Sr  Sr3  1  0.39332847  0.83245117  0.87165418  1
  Sr  Sr4  1  0.37724393  0.82742256  0.25235107  1
  Sr  Sr5  1  0.52167429  0.66754883  0.12834582  1
  Sr  Sr6  1  0.37003081  0.56259121  0.26102857  1
  Sr  Sr7  1  0.58144646  0.92571512  0.76013119  1
  Sr  Sr8  1  0.24354354  0.02718527  0.00133395  1
  Sr  Sr9  1  0.82131528  0.57428488  0.23986881  1
  Sr  Sr10  1  0.15776397  0.75000000  1.00000000  1
  Sr  Sr11  1  0.16332951  0.47697197  0.37342037  1
  Sr  Sr12  1  0.17868472  0.42571512  0.76013119  1
  Sr  Sr13  1  0.62996919  0.43740879  0.73897143  1
  Sr  Sr14  1  0.47832571  0.33245117  0.87165418  1
  Sr  Sr15  1  0.49618621  0.38242085  0.49939049  1
  Sr  Sr16  1  0.75645646  0.97281473  0.99866605  1
  Sr  Sr17  1  0.83667049  0.52302803  0.62657963  1
  Sr  Sr18  1  0.02326566  0.34839010  0.49951031  1
  Sr  Sr19  1  0.21009085  0.97697197  0.37342037  1
  Sr  Sr20  1  0.71818255  0.75000000  0.00000000  1
  Sr  Sr21  1  0.12489287  0.67257744  0.74764893  1
  Sr  Sr22  1  0.87422868  0.82317058  0.24944774  1
  Sr  Sr23  1  0.87510713  0.32742256  0.25235107  1
  Sr  Sr24  1  0.10900224  0.93740879  0.73897143  1
  Sr  Sr25  1  0.78990915  0.02302803  0.62657963  1
  Sr  Sr26  1  0.75779042  0.52718527  0.00133395  1
  Sr  Sr27  1  0.52375535  0.15160990  0.50048969  1
  Sr  Sr28  1  0.50381379  0.61757915  0.50060951  1
  Sr  Sr29  1  0.99679572  0.11757915  0.50060951  1
  Sr  Sr30  1  0.24220958  0.47281473  0.99866605  1
  Sr  Sr31  1  0.60667153  0.16754883  0.12834582  1
  Sr  Sr32  1  0.84223603  0.25000000  0.00000000  1
  Sr  Sr33  1  0.97673434  0.65160990  0.50048969  1
  Sr  Sr34  1  0.47624465  0.84839010  0.49951031  1
  Sr  Sr35  1  0.62478094  0.67682942  0.75055226  1
  Sr  Sr36  1  0.89099776  0.06259121  0.26102857  1
  Sr  Sr37  1  0.28181745  0.25000000  1.00000000  1
  Sr  Sr38  1  0.41855354  0.07428488  0.23986881  1
  Sr  Sr39  1  0.12577132  0.17682942  0.75055226  1
  Al  Al40  1  0.52053768  0.91067319  0.11319911  1
  Al  Al41  1  0.91513090  0.84913869  0.85210954  1
  Al  Al42  1  0.70019245  0.46158921  0.38819319  1
  Al  Al43  1  0.78642134  0.78505853  0.64280922  1
  Al  Al44  1  0.14361212  0.71494147  0.35719078  1
  Al  Al45  1  0.93697864  0.34913869  0.85210954  1
  Al  Al46  1  0.30042178  0.26223259  0.62980950  1
  Al  Al47  1  0.68800074  0.96158921  0.38819319  1
  Al  Al48  1  0.04443978  0.43337999  0.12901672  1
  Al  Al49  1  0.85638788  0.28505853  0.64280922  1
  Al  Al50  1  0.06302136  0.65086131  0.14789046  1
  Al  Al51  1  0.21357866  0.21494147  0.35719078  1
  Al  Al52  1  0.40733857  0.58932681  0.88680089  1
  Al  Al53  1  0.31199926  0.03841079  0.61180681  1
  Al  Al54  1  0.67061228  0.23776741  0.37019050  1
  Al  Al55  1  0.95556022  0.56662001  0.87098328  1
  Al  Al56  1  0.29980755  0.53841079  0.61180681  1
  Al  Al57  1  0.69957822  0.73776741  0.37019050  1
  Al  Al58  1  0.08486910  0.15086131  0.14789046  1
  Al  Al59  1  0.47946232  0.08932681  0.88680089  1
  Al  Al60  1  0.91542306  0.06662001  0.87098328  1
  Al  Al61  1  0.32938772  0.76223259  0.62980950  1
  Al  Al62  1  0.59266143  0.41067319  0.11319911  1
  Al  Al63  1  0.08457694  0.93337999  0.12901672  1
  O  O64  1  0.50618773  0.87594596  0.01032427  1
  O  O65  1  0.55442714  0.76977356  0.62686255  1
  O  O66  1  0.24131330  0.48573141  0.51075137  1
  O  O67  1  0.26943807  0.98573141  0.51075137  1
  O  O68  1  0.90971125  0.46236364  0.88907196  1
  O  O69  1  0.22466402  0.71307510  0.12905152  1
  O  O70  1  0.77533598  0.28692490  0.87094848  1
  O  O71  1  0.41021363  0.31777597  0.72600206  1
  O  O72  1  0.47292130  0.47149587  0.35680786  1
  O  O73  1  0.24083671  0.81900962  0.37092375  1
  O  O74  1  0.56745685  0.32929920  0.16341163  1
  O  O75  1  0.09561250  0.78692490  0.87094848  1
  O  O76  1  0.92188067  0.07390533  0.77459776  1
  O  O77  1  0.83648271  0.86689348  0.59876744  1
  O  O78  1  0.51045111  0.00999198  0.66533836  1
  O  O79  1  0.68421157  0.18222403  0.27399794  1
  O  O80  1  0.09177618  0.36021869  0.04729103  1
  O  O81  1  0.81913199  0.43288505  0.12501517  1
  O  O82  1  0.34448530  0.15198610  0.62187922  1
  O  O83  1  0.63106167  0.01465538  0.14723943  1
  O  O84  1  0.16351729  0.13310652  0.40123256  1
  O  O85  1  0.31578843  0.81777597  0.72600206  1
  O  O86  1  0.50413654  0.37594596  0.01032427  1
  O  O87  1  0.14557199  0.16560957  0.25314264  1
  O  O88  1  0.02063929  0.03763636  0.11092804  1
  O  O89  1  0.09028875  0.53763636  0.11092804  1
  O  O90  1  0.83731618  0.66772161  0.12486342  1
  O  O91  1  0.18086801  0.56711495  0.87498483  1
  O  O92  1  0.72260608  0.34801390  0.37812078  1
  O  O93  1  0.11611344  0.02850413  0.64319214  1
  O  O94  1  0.27739392  0.65198610  0.62187922  1
  O  O95  1  0.44557286  0.23022644  0.37313745  1
  O  O96  1  0.90822382  0.63978131  0.95270897  1
  O  O97  1  0.15488725  0.50999198  0.66533836  1
  O  O98  1  0.84511275  0.49000802  0.33466164  1
  O  O99  1  0.71245276  0.83227839  0.87513658  1
  O  O100  1  0.66536372  0.70904944  0.45379328  1
  O  O101  1  0.07811933  0.92609467  0.22540224  1
  O  O102  1  0.73056193  0.01426859  0.48924863  1
  O  O103  1  0.30588317  0.93288505  0.12501517  1
  O  O104  1  0.04448516  0.13978131  0.95270897  1
  O  O105  1  0.51617776  0.51465538  0.14723943  1
  O  O106  1  0.90438750  0.21307510  0.12905152  1
  O  O107  1  0.48954889  0.99000802  0.33466164  1
  O  O108  1  0.36893833  0.98534462  0.85276057  1
  O  O109  1  0.10757065  0.66560957  0.25314264  1
  O  O110  1  0.85442801  0.83439043  0.74685736  1
  O  O111  1  0.95551484  0.86021869  0.04729103  1
  O  O112  1  0.13008704  0.31900962  0.37092375  1
  O  O113  1  0.33463628  0.29095056  0.54620672  1
  O  O114  1  0.43254315  0.67070080  0.83658837  1
  O  O115  1  0.85271710  0.57390533  0.77459776  1
  O  O116  1  0.07243540  0.26977356  0.62686255  1
  O  O117  1  0.65551470  0.84801390  0.37812078  1
  O  O118  1  0.92756460  0.73022644  0.37313745  1
  O  O119  1  0.89242935  0.33439043  0.74685736  1
  O  O120  1  0.97936071  0.96236364  0.88907196  1
  O  O121  1  0.49381227  0.12405404  0.98967573  1
  O  O122  1  0.69411683  0.06711495  0.87498483  1
  O  O123  1  0.21157044  0.79095056  0.54620672  1
  O  O124  1  0.76228473  0.36689348  0.59876744  1
  O  O125  1  0.52707870  0.52850413  0.64319214  1
  O  O126  1  0.86991296  0.68099038  0.62907625  1
  O  O127  1  0.75868670  0.51426859  0.48924863  1
  O  O128  1  0.58978637  0.68222403  0.27399794  1
  O  O129  1  0.75916329  0.18099038  0.62907625  1
  O  O130  1  0.49586346  0.62405404  0.98967573  1
  O  O131  1  0.16268382  0.33227839  0.87513658  1
  O  O132  1  0.28754724  0.16772161  0.12486342  1
  O  O133  1  0.14728290  0.42609467  0.22540224  1
  O  O134  1  0.23771527  0.63310652  0.40123256  1
  O  O135  1  0.78842956  0.20904944  0.45379328  1
  O  O136  1  0.88388656  0.97149587  0.35680786  1
  O  O137  1  0.40404522  0.17070080  0.83658837  1
  O  O138  1  0.48382224  0.48534462  0.85276057  1
  O  O139  1  0.59595478  0.82929920  0.16341163  1
