# generated using pymatgen
data_Na3Sr4Nd3Ti10O30
_symmetry_space_group_name_H-M   'P 1'
_cell_length_a   5.51670730
_cell_length_b   27.52585509
_cell_length_c   7.76706863
_cell_angle_alpha   45.16082592
_cell_angle_beta   134.78136166
_cell_angle_gamma   119.89421505
_symmetry_Int_Tables_number   1
_chemical_formula_structural   Na3Sr4Nd3Ti10O30
_chemical_formula_sum   'Na3 Sr4 Nd3 Ti10 O30'
_cell_volume   593.62469848
_cell_formula_units_Z   1
loop_
 _symmetry_equiv_pos_site_id
 _symmetry_equiv_pos_as_xyz
  1  'x, y, z'
loop_
 _atom_site_type_symbol
 _atom_site_label
 _atom_site_symmetry_multiplicity
 _atom_site_fract_x
 _atom_site_fract_y
 _atom_site_fract_z
 _atom_site_occupancy
  Na  Na0  1  0.49064919  0.69953774  0.74255172  1
  Na  Na1  1  0.49245238  0.50062063  0.74722289  1
  Na  Na2  1  0.50994680  0.30288696  0.75001865  1
  Sr  Sr3  1  0.49356234  0.89970327  0.74891437  1
  Sr  Sr4  1  0.49336639  0.89747175  0.25271124  1
  Sr  Sr5  1  0.50217842  0.10027469  0.74962814  1
  Sr  Sr6  1  0.50055968  0.10084717  0.24896191  1
  Nd  Nd7  1  0.51133810  0.69719931  0.26198607  1
  Nd  Nd8  1  0.51830171  0.49772802  0.26684272  1
  Nd  Nd9  1  0.52290221  0.30008203  0.26099709  1
  Ti  Ti10  1  0.99435135  0.99975393  0.49875552  1
  Ti  Ti11  1  0.99345445  0.79661459  0.00679617  1
  Ti  Ti12  1  0.00366083  0.59892152  0.50186953  1
  Ti  Ti13  1  0.00417392  0.59804167  0.00625245  1
  Ti  Ti14  1  0.01337784  0.40064028  0.50459964  1
  Ti  Ti15  1  0.99485864  0.79551395  0.50793543  1
  Ti  Ti16  1  0.01566325  0.40067306  0.00907251  1
  Ti  Ti17  1  0.00864491  0.20229493  0.49774450  1
  Ti  Ti18  1  0.00755446  0.20269376  0.99750656  1
  Ti  Ti19  1  0.99510623  0.99893369  0.00128047  1
  O  O20  1  0.03157827  0.99220971  0.78470916  1
  O  O21  1  0.00084952  0.89900952  0.73025172  1
  O  O22  1  0.06857930  0.78477714  0.82190527  1
  O  O23  1  0.99890505  0.89929541  0.27191683  1
  O  O24  1  0.99859878  0.69811245  0.71245217  1
  O  O25  1  0.49906176  0.00103514  0.26261962  1
  O  O26  1  0.08165853  0.58156747  0.83791564  1
  O  O27  1  0.50416076  0.79758946  0.73773247  1
  O  O28  1  0.99550117  0.69828056  0.29543138  1
  O  O29  1  0.99237681  0.50036215  0.70305034  1
  O  O30  1  0.50434170  0.79711023  0.27820172  1
  O  O31  1  0.08230300  0.38466166  0.83063220  1
  O  O32  1  0.50011376  0.60280327  0.70102895  1
  O  O33  1  0.98250136  0.50039550  0.28424759  1
  O  O34  1  0.98361777  0.30266543  0.69848767  1
  O  O35  1  0.49957456  0.60091359  0.28838769  1
  O  O36  1  0.95023772  0.80872195  0.20327408  1
  O  O37  1  0.04733936  0.19198785  0.79388639  1
  O  O38  1  0.49642138  0.40373233  0.69984364  1
  O  O39  1  0.98184641  0.30261940  0.27239348  1
  O  O40  1  0.49740132  0.40260418  0.28580552  1
  O  O41  1  0.92901899  0.61388907  0.18059521  1
  O  O42  1  0.49628290  0.20504773  0.69868192  1
  O  O43  1  0.99313851  0.10227492  0.26178208  1
  O  O44  1  0.49594500  0.20460351  0.27235930  1
  O  O45  1  0.92782490  0.41500578  0.17754219  1
  O  O46  1  0.49846849  0.00178392  0.72826939  1
  O  O47  1  0.99578224  0.10245520  0.71983147  1
  O  O48  1  0.94975023  0.21510337  0.18706393  1
  O  O49  1  0.96906836  0.00829713  0.21328538  1
