# generated using pymatgen
data_BaLa2ZnO5
_symmetry_space_group_name_H-M   'P 1'
_cell_length_a   6.94516202
_cell_length_b   6.94516202
_cell_length_c   7.65150563
_cell_angle_alpha   116.99050496
_cell_angle_beta   116.99050497
_cell_angle_gamma   89.99999998
_symmetry_Int_Tables_number   1
_chemical_formula_structural   BaLa2ZnO5
_chemical_formula_sum   'Ba2 La4 Zn2 O10'
_cell_volume   283.02189427
_cell_formula_units_Z   2
loop_
 _symmetry_equiv_pos_site_id
 _symmetry_equiv_pos_as_xyz
  1  'x, y, z'
loop_
 _atom_site_type_symbol
 _atom_site_label
 _atom_site_symmetry_multiplicity
 _atom_site_fract_x
 _atom_site_fract_y
 _atom_site_fract_z
 _atom_site_occupancy
  O  O0  1  0.77855634  0.27855634  0.26555899  1
  O  O1  1  0.51299735  0.01299735  0.73444101  1
  O  O2  1  0.22144366  0.72144366  0.73444101  1
  O  O3  1  0.01299735  0.22144366  0.73444101  1
  O  O4  1  0.72144366  0.51299735  0.73444101  1
  O  O5  1  0.98700265  0.77855634  0.26555899  1
  O  O6  1  0.27855634  0.48700265  0.26555899  1
  O  O7  1  0.48700265  0.98700265  0.26555899  1
  O  O8  1  0.00000000  0.00000000  0.00000000  1
  O  O9  1  0.50000000  0.50000000  0.00000000  1
  Zn  Zn10  1  0.75000000  0.25000000  0.50000000  1
  Zn  Zn11  1  0.25000000  0.75000000  0.50000000  1
  Ba  Ba12  1  0.75000000  0.75000000  0.50000000  1
  Ba  Ba13  1  0.25000000  0.25000000  0.50000000  1
  La  La14  1  0.82360949  0.32360949  0.00000000  1
  La  La15  1  0.67639051  0.82360949  0.00000000  1
  La  La16  1  0.32360949  0.17639051  0.00000000  1
  La  La17  1  0.17639051  0.67639051  0.00000000  1
