# generated using pymatgen
data_Li5(NiO2)6
_symmetry_space_group_name_H-M   'P 1'
_cell_length_a   15.37400062
_cell_length_b   9.72887444
_cell_length_c   14.62034142
_cell_angle_alpha   20.02703190
_cell_angle_beta   22.18191890
_cell_angle_gamma   16.43883923
_symmetry_Int_Tables_number   1
_chemical_formula_structural   Li5(NiO2)6
_chemical_formula_sum   'Li5 Ni6 O12'
_cell_volume   204.83744898
_cell_formula_units_Z   1
loop_
 _symmetry_equiv_pos_site_id
 _symmetry_equiv_pos_as_xyz
  1  'x, y, z'
loop_
 _atom_site_type_symbol
 _atom_site_label
 _atom_site_symmetry_multiplicity
 _atom_site_fract_x
 _atom_site_fract_y
 _atom_site_fract_z
 _atom_site_occupancy
  Li  Li0  1  0.26155150  0.48406204  0.24978587  1
  Li  Li1  1  0.08027997  0.52607259  0.73488324  1
  Li  Li2  1  0.56635453  0.52367603  0.25097203  1
  Li  Li3  1  0.41220634  0.50340679  0.75117792  1
  Li  Li4  1  0.75610815  0.47004400  0.76467147  1
  Ni  Ni5  1  0.00099867  -0.00575476  0.00142637  1
  Ni  Ni6  1  0.32887088  0.00974814  0.99971105  1
  Ni  Ni7  1  0.66811735  0.99838440  0.00213959  1
  Ni  Ni8  1  0.16636774  0.00299964  0.49646657  1
  Ni  Ni9  1  0.50541093  0.99178681  0.49830281  1
  Ni  Ni10  1  0.83227640  0.00003480  0.50213809  1
  O  O11  1  0.29150379  0.25708459  0.13176920  1
  O  O12  1  0.11074476  0.25326875  0.64434153  1
  O  O13  1  0.59339714  0.30381204  0.13175068  1
  O  O14  1  0.22994652  0.70408199  0.37244537  1
  O  O15  1  0.43557019  0.28744731  0.63105122  1
  O  O16  1  0.93300453  0.27986791  0.14234819  1
  O  O17  1  0.05958693  0.74061782  0.85171948  1
  O  O18  1  0.51175766  0.75616570  0.38800570  1
  O  O19  1  0.80717326  0.25059567  0.62230640  1
  O  O20  1  0.40285020  0.71356826  0.86291116  1
  O  O21  1  0.90113241  0.71875180  0.35987702  1
  O  O22  1  0.72812316  0.73027766  0.85979903  1
