# generated using pymatgen
data_NaCoPO4
_symmetry_space_group_name_H-M   'P 1'
_cell_length_a   10.26329803
_cell_length_b   10.26329780
_cell_length_c   24.09426362
_cell_angle_alpha   90.00000000
_cell_angle_beta   90.00000000
_cell_angle_gamma   120.00000070
_symmetry_Int_Tables_number   1
_chemical_formula_structural   NaCoPO4
_chemical_formula_sum   'Na24 Co24 P24 O96'
_cell_volume   2197.95176332
_cell_formula_units_Z   24
loop_
 _symmetry_equiv_pos_site_id
 _symmetry_equiv_pos_as_xyz
  1  'x, y, z'
loop_
 _atom_site_type_symbol
 _atom_site_label
 _atom_site_symmetry_multiplicity
 _atom_site_fract_x
 _atom_site_fract_y
 _atom_site_fract_z
 _atom_site_occupancy
  Na  Na0  1  0.96816897  0.96208296  0.58864515  1
  Na  Na1  1  0.50516672  0.06420832  0.74795275  1
  Na  Na2  1  0.04732176  0.51422015  0.25377662  1
  Na  Na3  1  0.53310161  0.04732176  0.08710962  1
  Na  Na4  1  0.51422015  0.46689839  0.42044262  1
  Na  Na5  1  0.51043795  0.54743685  0.25409083  1
  Na  Na6  1  0.48956205  0.45256315  0.75409083  1
  Na  Na7  1  0.48577985  0.53310161  0.92044262  1
  Na  Na8  1  0.06420832  0.55904161  0.91461875  1
  Na  Na9  1  0.96208296  0.99391399  0.75531215  1
  Na  Na10  1  0.99391399  0.03183103  0.92197815  1
  Na  Na11  1  0.44095839  0.50516672  0.58128575  1
  Na  Na12  1  0.55904161  0.49483328  0.08128575  1
  Na  Na13  1  0.03183103  0.03791704  0.08864515  1
  Na  Na14  1  0.93579168  0.44095839  0.41461875  1
  Na  Na15  1  0.49483328  0.93579168  0.24795275  1
  Na  Na16  1  0.46689839  0.95267824  0.58710962  1
  Na  Na17  1  0.45256315  0.96300109  0.92075683  1
  Na  Na18  1  0.00608601  0.96816897  0.42197815  1
  Na  Na19  1  0.95267824  0.48577985  0.75377662  1
  Na  Na20  1  0.54743685  0.03699891  0.42075683  1
  Na  Na21  1  0.96300109  0.51043795  0.08742383  1
  Na  Na22  1  0.03791704  0.00608601  0.25531215  1
  Na  Na23  1  0.03699891  0.48956205  0.58742383  1
  Co  Co24  1  0.14845568  0.83391072  0.68256987  1
  Co  Co25  1  0.88282659  0.69903255  0.17916107  1
  Co  Co26  1  0.65709299  0.32864099  0.65032694  1
  Co  Co27  1  0.38088583  0.17277286  0.20876271  1
  Co  Co28  1  0.32864099  0.67154800  0.81699394  1
  Co  Co29  1  0.68545504  0.85154432  0.01590287  1
  Co  Co30  1  0.16608928  0.31454496  0.34923587  1
  Co  Co31  1  0.69903255  0.81620596  0.34582707  1
  Co  Co32  1  0.61911417  0.82722714  0.70876271  1
  Co  Co33  1  0.20811297  0.38088583  0.04209571  1
  Co  Co34  1  0.79188703  0.61911417  0.54209571  1
  Co  Co35  1  0.81620596  0.11717341  0.51249407  1
  Co  Co36  1  0.18379404  0.88282659  0.01249407  1
  Co  Co37  1  0.83391072  0.68545504  0.84923587  1
  Co  Co38  1  0.67154800  0.34290701  0.98365994  1
  Co  Co39  1  0.34290701  0.67135901  0.15032694  1
  Co  Co40  1  0.31454496  0.14845568  0.51590287  1
  Co  Co41  1  0.17277286  0.79188703  0.37542871  1
  Co  Co42  1  0.32845200  0.65709299  0.48365994  1
  Co  Co43  1  0.30096745  0.18379404  0.84582707  1
  Co  Co44  1  0.82722714  0.20811297  0.87542871  1
  Co  Co45  1  0.85154432  0.16608928  0.18256987  1
  Co  Co46  1  0.67135901  0.32845200  0.31699394  1
  Co  Co47  1  0.11717341  0.30096745  0.67916107  1
  P  P48  1  0.34853678  0.13188021  0.33978838  1
  P  P49  1  0.83668082  0.14728673  0.31276242  1
  P  P50  1  0.31060590  0.16331918  0.64609542  1
  P  P51  1  0.21159033  0.88169868  0.14401523  1
  P  P52  1  0.88169868  0.67010835  0.31068223  1
  P  P53  1  0.86811979  0.21665657  0.00645438  1
  P  P54  1  0.14728673  0.31060590  0.47942842  1
  P  P55  1  0.16331918  0.85271327  0.81276242  1
  P  P56  1  0.35993117  0.67279949  0.34782640  1
  P  P57  1  0.78334343  0.65146322  0.67312138  1
  P  P58  1  0.68939410  0.83668082  0.14609542  1
  P  P59  1  0.67279949  0.31286832  0.51449340  1
  P  P60  1  0.21665657  0.34853678  0.17312138  1
  P  P61  1  0.68713168  0.35993117  0.18116040  1
  P  P62  1  0.65146322  0.86811979  0.83978838  1
  P  P63  1  0.64006883  0.32720051  0.84782640  1
  P  P64  1  0.13188021  0.78334343  0.50645438  1
  P  P65  1  0.32720051  0.68713168  0.01449340  1
  P  P66  1  0.78840967  0.11830132  0.64401523  1
  P  P67  1  0.85271327  0.68939410  0.97942842  1
  P  P68  1  0.32989165  0.21159033  0.97734823  1
  P  P69  1  0.67010835  0.78840967  0.47734823  1
  P  P70  1  0.31286832  0.64006883  0.68116040  1
  P  P71  1  0.11830132  0.32989165  0.81068223  1
  O  O72  1  0.21627991  0.72043962  0.98196370  1
  O  O73  1  0.67766475  0.99027009  0.88353765  1
  O  O74  1  0.13890830  0.97178395  0.84390900  1
  O  O75  1  0.99027009  0.31260534  0.05020465  1
  O  O76  1  0.73305280  0.67319247  0.30283249  1
  O  O77  1  0.31614579  0.27043194  0.91948614  1
  O  O78  1  0.48335287  0.83345259  0.01305346  1
  O  O79  1  0.23903149  0.91799290  0.75577451  1
  O  O80  1  0.33119648  0.55044130  0.98841718  1
  O  O81  1  0.72956806  0.04571384  0.58615314  1
  O  O82  1  0.55044130  0.21924482  0.15508418  1
  O  O83  1  0.05791156  0.20643093  0.16830071  1
  O  O84  1  0.71068745  0.70414594  0.96931379  1
  O  O85  1  0.19458856  0.18816983  0.01337938  1
  O  O86  1  0.27956038  0.49584029  0.64863070  1
  O  O87  1  0.78372009  0.27956038  0.48196370  1
  O  O88  1  0.91571947  0.29952155  0.94943044  1
  O  O89  1  0.63517180  0.37108468  0.24085842  1
  O  O90  1  0.71676440  0.20409884  0.02520413  1
  O  O91  1  0.32103859  0.23903149  0.58910751  1
  O  O92  1  0.99345849  0.28931255  0.30264779  1
  O  O93  1  0.37108468  0.73591289  0.40752542  1
  O  O94  1  0.85148063  0.05791156  0.00163371  1
  O  O95  1  0.08428053  0.70047845  0.44943044  1
  O  O96  1  0.26694720  0.32680753  0.80283249  1
  O  O97  1  0.33195779  0.85242120  0.17173177  1
  O  O98  1  0.62891532  0.26408711  0.90752542  1
  O  O99  1  0.35009973  0.51664713  0.34638646  1
  O  O100  1  0.81183017  0.00641873  0.68004638  1
  O  O101  1  0.66804221  0.14757880  0.67173177  1
  O  O102  1  0.00641873  0.19458856  0.84671238  1
  O  O103  1  0.32233525  0.00972991  0.38353765  1
  O  O104  1  0.02821605  0.16712435  0.51057600  1
  O  O105  1  0.73591289  0.36482820  0.57419242  1
  O  O106  1  0.14757880  0.47953659  0.83839877  1
  O  O107  1  0.76096851  0.08200710  0.25577451  1
  O  O108  1  0.52046341  0.66804221  0.50506477  1
  O  O109  1  0.73213345  0.18601092  0.34732286  1
  O  O110  1  0.47953659  0.33195779  0.00506477  1
  O  O111  1  0.26408711  0.63517180  0.07419242  1
  O  O112  1  0.81398908  0.54612253  0.01398986  1
  O  O113  1  0.27043194  0.95428616  0.08615314  1
  O  O114  1  0.70414594  0.99345849  0.13598079  1
  O  O115  1  0.95428616  0.68385421  0.25282014  1
  O  O116  1  0.51664713  0.16654741  0.51305346  1
  O  O117  1  0.54612253  0.73213345  0.18065586  1
  O  O118  1  0.61619793  0.91571947  0.78276344  1
  O  O119  1  0.32680753  0.05986033  0.96949949  1
  O  O120  1  0.83287565  0.86109170  0.17724300  1
  O  O121  1  0.70047845  0.61619793  0.61609644  1
  O  O122  1  0.79356907  0.85148063  0.83496771  1
  O  O123  1  0.67896141  0.76096851  0.08910751  1
  O  O124  1  0.51266556  0.71676440  0.85853713  1
  O  O125  1  0.05986033  0.73305280  0.13616649  1
  O  O126  1  0.21924482  0.66880352  0.32175118  1
  O  O127  1  0.68385421  0.72956806  0.41948614  1
  O  O128  1  0.18816983  0.99358127  0.18004638  1
  O  O129  1  0.94013967  0.26694720  0.63616649  1
  O  O130  1  0.67319247  0.94013967  0.46949949  1
  O  O131  1  0.28323560  0.79590116  0.52520413  1
  O  O132  1  0.45387747  0.26786655  0.68065586  1
  O  O133  1  0.20643093  0.14851937  0.33496771  1
  O  O134  1  0.86109170  0.02821605  0.34390900  1
  O  O135  1  0.68739466  0.67766475  0.71687065  1
  O  O136  1  0.97178395  0.83287565  0.01057600  1
  O  O137  1  0.99358127  0.80541144  0.34671238  1
  O  O138  1  0.44955870  0.78075518  0.65508418  1
  O  O139  1  0.94208844  0.79356907  0.66830071  1
  O  O140  1  0.00654151  0.71068745  0.80264779  1
  O  O141  1  0.78075518  0.33119648  0.82175118  1
  O  O142  1  0.38380207  0.08428053  0.28276344  1
  O  O143  1  0.20409884  0.48733444  0.19187113  1
  O  O144  1  0.28931255  0.29585406  0.46931379  1
  O  O145  1  0.36482820  0.62891532  0.74085842  1
  O  O146  1  0.64990027  0.48335287  0.84638646  1
  O  O147  1  0.50415971  0.78372009  0.31529670  1
  O  O148  1  0.29585406  0.00654151  0.63598079  1
  O  O149  1  0.08200710  0.32103859  0.42244151  1
  O  O150  1  0.16712435  0.13890830  0.67724300  1
  O  O151  1  0.66880352  0.44955870  0.48841718  1
  O  O152  1  0.48733444  0.28323560  0.35853713  1
  O  O153  1  0.04571384  0.31614579  0.75282014  1
  O  O154  1  0.85242120  0.52046341  0.33839877  1
  O  O155  1  0.79590116  0.51266556  0.69187113  1
  O  O156  1  0.31260534  0.32233525  0.21687065  1
  O  O157  1  0.14851937  0.94208844  0.50163371  1
  O  O158  1  0.80541144  0.81183017  0.51337938  1
  O  O159  1  0.18601092  0.45387747  0.51398986  1
  O  O160  1  0.72043962  0.50415971  0.14863070  1
  O  O161  1  0.26786655  0.81398908  0.84732286  1
  O  O162  1  0.91799290  0.67896141  0.92244151  1
  O  O163  1  0.49584029  0.21627991  0.81529670  1
  O  O164  1  0.00972991  0.68739466  0.55020465  1
  O  O165  1  0.29952155  0.38380207  0.11609644  1
  O  O166  1  0.16654741  0.64990027  0.67972046  1
  O  O167  1  0.83345259  0.35009973  0.17972046  1
