# generated using pymatgen
data_Te3Mo5O18
_symmetry_space_group_name_H-M   'P 1'
_cell_length_a   8.86371446
_cell_length_b   8.86371471
_cell_length_c   11.49560436
_cell_angle_alpha   81.36290210
_cell_angle_beta   81.36289923
_cell_angle_gamma   65.10384685
_symmetry_Int_Tables_number   1
_chemical_formula_structural   Te3Mo5O18
_chemical_formula_sum   'Te6 Mo10 O36'
_cell_volume   806.12177283
_cell_formula_units_Z   2
loop_
 _symmetry_equiv_pos_site_id
 _symmetry_equiv_pos_as_xyz
  1  'x, y, z'
loop_
 _atom_site_type_symbol
 _atom_site_label
 _atom_site_symmetry_multiplicity
 _atom_site_fract_x
 _atom_site_fract_y
 _atom_site_fract_z
 _atom_site_occupancy
  Te  Te0  1  0.35851236  0.96843847  0.94834334  1
  Te  Te1  1  0.80073960  0.18112694  0.26350902  1
  Te  Te2  1  0.81887306  0.19926040  0.73649098  1
  Te  Te3  1  0.52781555  0.81777229  0.46106457  1
  Te  Te4  1  0.18222771  0.47218445  0.53893543  1
  Te  Te5  1  0.03156153  0.64148764  0.05165666  1
  Mo  Mo6  1  0.77360518  0.51323529  0.97343129  1
  Mo  Mo7  1  0.12523567  0.16372882  0.47846171  1
  Mo  Mo8  1  0.34258551  0.36274210  0.28238840  1
  Mo  Mo9  1  0.96908751  0.72223898  0.77527427  1
  Mo  Mo10  1  0.63725790  0.65741449  0.71761160  1
  Mo  Mo11  1  0.95210437  0.04789563  0.00000000  1
  Mo  Mo12  1  0.64719830  0.35280170  0.50000000  1
  Mo  Mo13  1  0.27776102  0.03091149  0.22472573  1
  Mo  Mo14  1  0.83627118  0.87476433  0.52153829  1
  Mo  Mo15  1  0.48676471  0.22639482  0.02656871  1
  O  O16  1  0.38418370  0.16880960  0.89443331  1
  O  O17  1  0.76527591  0.42967716  0.80867979  1
  O  O18  1  0.60776659  0.59283971  0.55434039  1
  O  O19  1  0.73017246  0.11068241  0.43857632  1
  O  O20  1  0.57032284  0.23472409  0.19132021  1
  O  O21  1  0.88931759  0.26982754  0.56142368  1
  O  O22  1  0.35896036  0.82587061  0.28694069  1
  O  O23  1  0.12019010  0.05506089  0.87892444  1
  O  O24  1  0.60548546  0.29136177  0.68618838  1
  O  O25  1  0.11705343  0.41815376  0.39910641  1
  O  O26  1  0.57176954  0.59089471  0.03512083  1
  O  O27  1  0.47303272  0.98731212  0.08803586  1
  O  O28  1  0.85614279  0.94758297  0.67791558  1
  O  O29  1  0.72367671  0.72489846  0.84701897  1
  O  O30  1  0.40910529  0.42823046  0.96487917  1
  O  O31  1  0.28275336  0.56447940  0.22070124  1
  O  O32  1  0.03551199  0.80023836  0.45024396  1
  O  O33  1  0.27510154  0.27632329  0.15298103  1
  O  O34  1  0.40716029  0.39223341  0.44565961  1
  O  O35  1  0.19976164  0.96448801  0.54975604  1
  O  O36  1  0.73637310  0.81236728  0.39083917  1
  O  O37  1  0.88867286  0.65254636  0.63445767  1
  O  O38  1  0.94493911  0.87980990  0.12107556  1
  O  O39  1  0.43552060  0.71724664  0.77929876  1
  O  O40  1  0.98814253  0.82369981  0.91577623  1
  O  O41  1  0.73105849  0.13188591  0.93514559  1
  O  O42  1  0.01268788  0.52696728  0.91196414  1
  O  O43  1  0.17412939  0.64103964  0.71305931  1
  O  O44  1  0.05241703  0.14385721  0.32208442  1
  O  O45  1  0.34745364  0.11132714  0.36554233  1
  O  O46  1  0.18763272  0.26362690  0.60916083  1
  O  O47  1  0.86811409  0.26894151  0.06485441  1
  O  O48  1  0.70863823  0.39451454  0.31381162  1
  O  O49  1  0.58184624  0.88294657  0.60089359  1
  O  O50  1  0.17630019  0.01185747  0.08422377  1
  O  O51  1  0.83119040  0.61581630  0.10556669  1
