# generated using pymatgen
data_K4Pb9
_symmetry_space_group_name_H-M   'P 1'
_cell_length_a   9.82548337
_cell_length_b   13.46873445
_cell_length_c   16.20051726
_cell_angle_alpha   90.00000000
_cell_angle_beta   103.19432372
_cell_angle_gamma   90.00000000
_symmetry_Int_Tables_number   1
_chemical_formula_structural   K4Pb9
_chemical_formula_sum   'K16 Pb36'
_cell_volume   2087.32867913
_cell_formula_units_Z   4
loop_
 _symmetry_equiv_pos_site_id
 _symmetry_equiv_pos_as_xyz
  1  'x, y, z'
loop_
 _atom_site_type_symbol
 _atom_site_label
 _atom_site_symmetry_multiplicity
 _atom_site_fract_x
 _atom_site_fract_y
 _atom_site_fract_z
 _atom_site_occupancy
  K  K0  1  0.61887347  0.07320614  0.78709364  1
  K  K1  1  0.26092291  0.25000000  0.56792253  1
  K  K2  1  0.61887347  0.42679386  0.78709364  1
  K  K3  1  0.73907709  0.75000000  0.43207747  1
  K  K4  1  0.94767416  0.99680837  0.62978689  1
  K  K5  1  0.05232584  0.00319163  0.37021311  1
  K  K6  1  0.32473286  0.59752955  0.90901202  1
  K  K7  1  0.32473286  0.90247045  0.90901202  1
  K  K8  1  0.94767416  0.50319163  0.62978689  1
  K  K9  1  0.05232584  0.49680837  0.37021311  1
  K  K10  1  0.67526714  0.09752955  0.09098798  1
  K  K11  1  0.38112653  0.92679386  0.21290636  1
  K  K12  1  0.38112653  0.57320614  0.21290636  1
  K  K13  1  0.11430721  0.25000000  0.20297193  1
  K  K14  1  0.67526714  0.40247045  0.09098798  1
  K  K15  1  0.88569279  0.75000000  0.79702807  1
  Pb  Pb16  1  0.93347974  0.25000000  0.75356906  1
  Pb  Pb17  1  0.86871409  0.25000000  0.50619603  1
  Pb  Pb18  1  0.13128591  0.75000000  0.49380397  1
  Pb  Pb19  1  0.69179165  0.43756842  0.37697657  1
  Pb  Pb20  1  0.24631786  0.13191650  0.02905012  1
  Pb  Pb21  1  0.50275812  0.25000000  0.23922610  1
  Pb  Pb22  1  0.30820835  0.56243158  0.62302343  1
  Pb  Pb23  1  0.23364264  0.36712749  0.78177865  1
  Pb  Pb24  1  0.75368214  0.86808350  0.97094988  1
  Pb  Pb25  1  0.82889292  0.25000000  0.30737499  1
  Pb  Pb26  1  0.99967848  0.55717218  0.12234547  1
  Pb  Pb27  1  0.76635736  0.86712749  0.21822135  1
  Pb  Pb28  1  0.24631786  0.36808350  0.02905012  1
  Pb  Pb29  1  0.76635736  0.63287251  0.21822135  1
  Pb  Pb30  1  0.61566272  0.62997557  0.62191922  1
  Pb  Pb31  1  0.38845510  0.63128149  0.44912653  1
  Pb  Pb32  1  0.61566272  0.87002443  0.62191922  1
  Pb  Pb33  1  0.55976625  0.75000000  0.07173375  1
  Pb  Pb34  1  0.23364264  0.13287251  0.78177865  1
  Pb  Pb35  1  0.49724188  0.75000000  0.76077390  1
  Pb  Pb36  1  0.06522084  0.75000000  0.02897199  1
  Pb  Pb37  1  0.69179165  0.06243158  0.37697657  1
  Pb  Pb38  1  0.38845510  0.86871851  0.44912653  1
  Pb  Pb39  1  0.38433728  0.37002443  0.37808078  1
  Pb  Pb40  1  0.44023375  0.25000000  0.92826625  1
  Pb  Pb41  1  0.30820835  0.93756842  0.62302343  1
  Pb  Pb42  1  0.61154490  0.36871851  0.55087347  1
  Pb  Pb43  1  0.06652026  0.75000000  0.24643094  1
  Pb  Pb44  1  0.61154490  0.13128149  0.55087347  1
  Pb  Pb45  1  0.38433728  0.12997557  0.37808078  1
  Pb  Pb46  1  0.75368214  0.63191650  0.97094988  1
  Pb  Pb47  1  0.93477916  0.25000000  0.97102801  1
  Pb  Pb48  1  0.99967848  0.94282782  0.12234547  1
  Pb  Pb49  1  0.00032152  0.05717218  0.87765453  1
  Pb  Pb50  1  0.00032152  0.44282782  0.87765453  1
  Pb  Pb51  1  0.17110708  0.75000000  0.69262501  1
