# generated using pymatgen
data_Cu13I15
_symmetry_space_group_name_H-M   'P 1'
_cell_length_a   4.23802753
_cell_length_b   4.23802751
_cell_length_c   64.05958052
_cell_angle_alpha   60.53900852
_cell_angle_beta   60.53900867
_cell_angle_gamma   60.23671116
_symmetry_Int_Tables_number   1
_chemical_formula_structural   Cu13I15
_chemical_formula_sum   'Cu13 I15'
_cell_volume   821.61925727
_cell_formula_units_Z   1
loop_
 _symmetry_equiv_pos_site_id
 _symmetry_equiv_pos_as_xyz
  1  'x, y, z'
loop_
 _atom_site_type_symbol
 _atom_site_label
 _atom_site_symmetry_multiplicity
 _atom_site_fract_x
 _atom_site_fract_y
 _atom_site_fract_z
 _atom_site_occupancy
  Cu  Cu0  1  0.26034370  0.26034370  0.08139374  1
  Cu  Cu1  1  0.26306267  0.26306267  0.15217564  1
  Cu  Cu2  1  0.27340852  0.27340852  0.28324907  1
  Cu  Cu3  1  0.26767767  0.26767767  0.35133412  1
  Cu  Cu4  1  0.26782736  0.26782736  0.41813565  1
  Cu  Cu5  1  0.26823456  0.26823456  0.48480626  1
  Cu  Cu6  1  0.26772177  0.26772177  0.55150485  1
  Cu  Cu7  1  0.26790482  0.26790482  0.61820516  1
  Cu  Cu8  1  0.26765273  0.26765273  0.68485912  1
  Cu  Cu9  1  0.26795698  0.26795698  0.75148328  1
  Cu  Cu10  1  0.26867718  0.26867718  0.81805719  1
  Cu  Cu11  1  0.26726030  0.26726030  0.88491791  1
  Cu  Cu12  1  0.26029865  0.26029865  0.95321584  1
  I  I13  1  0.00747861  0.00747861  0.99980509  1
  I  I14  1  0.00930840  0.00930840  0.06472882  1
  I  I15  1  0.02416947  0.02416947  0.13185581  1
  I  I16  1  0.01622530  0.01622530  0.26762741  1
  I  I17  1  0.01334901  0.01334901  0.19897407  1
  I  I18  1  0.01627071  0.01627071  0.33453204  1
  I  I19  1  0.01755519  0.01755519  0.53430478  1
  I  I20  1  0.01786890  0.01786890  0.60094131  1
  I  I21  1  0.01662064  0.01662064  0.40120144  1
  I  I22  1  0.01753592  0.01753592  0.46772067  1
  I  I23  1  0.01767492  0.01767492  0.66758225  1
  I  I24  1  0.01811627  0.01811627  0.73417258  1
  I  I25  1  0.01928155  0.01928155  0.86715605  1
  I  I26  1  0.01886712  0.01886712  0.80070501  1
  I  I27  1  0.01965110  0.01965110  0.93362085  1
