# generated using pymatgen
data_Mg3P2(H22O15)2
_symmetry_space_group_name_H-M   'P 1'
_cell_length_a   6.98727450
_cell_length_b   6.99954899
_cell_length_c   16.16023299
_cell_angle_alpha   82.19758074
_cell_angle_beta   90.07923341
_cell_angle_gamma   119.89020453
_symmetry_Int_Tables_number   1
_chemical_formula_structural   Mg3P2(H22O15)2
_chemical_formula_sum   'Mg3 P2 H44 O30'
_cell_volume   676.86138247
_cell_formula_units_Z   1
loop_
 _symmetry_equiv_pos_site_id
 _symmetry_equiv_pos_as_xyz
  1  'x, y, z'
loop_
 _atom_site_type_symbol
 _atom_site_label
 _atom_site_symmetry_multiplicity
 _atom_site_fract_x
 _atom_site_fract_y
 _atom_site_fract_z
 _atom_site_occupancy
  Mg  Mg0  1  0.00000000  0.50000000  0.00000000  1
  Mg  Mg1  1  0.35088724  0.75240524  0.65568105  1
  Mg  Mg2  1  0.64911276  0.24759476  0.34431895  1
  P  P3  1  0.99720319  0.03677943  0.75905332  1
  P  P4  1  0.00279681  0.96322057  0.24094668  1
  H  H5  1  0.29575518  0.63882701  0.85345785  1
  H  H6  1  0.70424482  0.36117299  0.14654215  1
  H  H7  1  0.23604767  0.82210336  0.86592897  1
  H  H8  1  0.76395233  0.17789664  0.13407103  1
  H  H9  1  0.85813363  0.20140757  0.88162615  1
  H  H10  1  0.14186637  0.79859243  0.11837385  1
  H  H11  1  0.75601757  0.07681397  0.97549623  1
  H  H12  1  0.24398243  0.92318603  0.02450377  1
  H  H13  1  0.81292367  0.68160559  0.89191793  1
  H  H14  1  0.18707633  0.31839441  0.10808207  1
  H  H15  1  0.74186837  0.69066399  0.98587468  1
  H  H16  1  0.25813163  0.30933601  0.01412532  1
  H  H17  1  0.16983010  0.99016781  0.60242461  1
  H  H18  1  0.83016990  0.00983219  0.39757539  1
  H  H19  1  0.28662065  0.00489232  0.51375164  1
  H  H20  1  0.71337935  0.99510768  0.48624836  1
  H  H21  1  0.15302116  0.32882369  0.61590525  1
  H  H22  1  0.84697884  0.67117631  0.38409475  1
  H  H23  1  0.24232508  0.50118560  0.52820702  1
  H  H24  1  0.75767492  0.49881440  0.47179298  1
  H  H25  1  0.97249097  0.43254454  0.74298398  1
  H  H26  1  0.02750903  0.56745546  0.25701602  1
  H  H27  1  0.95963396  0.65746214  0.74526948  1
  H  H28  1  0.04036604  0.34253786  0.25473052  1
  H  H29  1  0.58777744  0.65530585  0.77244958  1
  H  H30  1  0.41222256  0.34469415  0.22755042  1
  H  H31  1  0.36399408  0.41910502  0.77045514  1
  H  H32  1  0.63600592  0.58089498  0.22954486  1
  H  H33  1  0.80288847  0.94901260  0.61876902  1
  H  H34  1  0.19711153  0.05098740  0.38123098  1
  H  H35  1  0.66148483  0.71674048  0.58497155  1
  H  H36  1  0.33851517  0.28325952  0.41502845  1
  H  H37  1  0.40371021  0.07815537  0.74412787  1
  H  H38  1  0.59628979  0.92184463  0.25587213  1
  H  H39  1  0.63996507  0.08382713  0.74496787  1
  H  H40  1  0.36003493  0.91617287  0.25503213  1
  H  H41  1  0.50853418  0.27170866  0.94839338  1
  H  H42  1  0.49146582  0.72829134  0.05160662  1
  H  H43  1  0.29358476  0.16032400  0.89701230  1
  H  H44  1  0.70641524  0.83967600  0.10298770  1
  H  H45  1  0.61728211  0.32893715  0.61084936  1
  H  H46  1  0.38271789  0.67106285  0.38915064  1
  H  H47  1  0.85467420  0.52834175  0.61425153  1
  H  H48  1  0.14532580  0.47165825  0.38574847  1
  O  O49  1  0.02514381  0.07144600  0.66134199  1
  O  O50  1  0.97485619  0.92855400  0.33865801  1
  O  O51  1  0.85007599  0.78199642  0.79131396  1
  O  O52  1  0.14992401  0.21800358  0.20868604  1
  O  O53  1  0.88697464  0.16735623  0.78528526  1
  O  O54  1  0.11302536  0.83264377  0.21471474  1
  O  O55  1  0.22925968  0.12400102  0.79494854  1
  O  O56  1  0.77074032  0.87599898  0.20505146  1
  O  O57  1  0.23426810  0.68904638  0.89543397  1
  O  O58  1  0.76573190  0.31095362  0.10456603  1
  O  O59  1  0.83114726  0.22502732  0.93945200  1
  O  O60  1  0.16885274  0.77497268  0.06054800  1
  O  O61  1  0.78408645  0.60668756  0.95194909  1
  O  O62  1  0.21591355  0.39331244  0.04805091  1
  O  O63  1  0.24869327  0.92991003  0.57270297  1
  O  O64  1  0.75130673  0.07008997  0.42729703  1
  O  O65  1  0.23779088  0.49048012  0.58996478  1
  O  O66  1  0.76220912  0.50951988  0.41003522  1
  O  O67  1  0.02434898  0.58751236  0.71279317  1
  O  O68  1  0.97565102  0.41248764  0.28720683  1
  O  O69  1  0.42477731  0.58380533  0.76270978  1
  O  O70  1  0.57522269  0.41619467  0.23729022  1
  O  O71  1  0.66163820  0.85677006  0.58990245  1
  O  O72  1  0.33836180  0.14322994  0.41009755  1
  O  O73  1  0.50322398  0.04025731  0.71373922  1
  O  O74  1  0.49677602  0.95974269  0.28626078  1
  O  O75  1  0.34674920  0.17345795  0.95462481  1
  O  O76  1  0.65325080  0.82654205  0.04537519  1
  O  O77  1  0.72252814  0.47886016  0.58151195  1
  O  O78  1  0.27747186  0.52113984  0.41848805  1
