# generated using pymatgen
data_BaH8C6(N3O4)2
_symmetry_space_group_name_H-M   'P 1'
_cell_length_a   9.08730448
_cell_length_b   9.52092711
_cell_length_c   7.44361390
_cell_angle_alpha   97.67638879
_cell_angle_beta   103.39949960
_cell_angle_gamma   84.90616139
_symmetry_Int_Tables_number   1
_chemical_formula_structural   BaH8C6(N3O4)2
_chemical_formula_sum   'Ba2 H16 C12 N12 O16'
_cell_volume   619.75420577
_cell_formula_units_Z   2
loop_
 _symmetry_equiv_pos_site_id
 _symmetry_equiv_pos_as_xyz
  1  'x, y, z'
loop_
 _atom_site_type_symbol
 _atom_site_label
 _atom_site_symmetry_multiplicity
 _atom_site_fract_x
 _atom_site_fract_y
 _atom_site_fract_z
 _atom_site_occupancy
  Ba  Ba0  1  0.73165927  0.99920277  0.87738714  1
  Ba  Ba1  1  0.26834073  0.00079723  0.12261286  1
  H  H2  1  0.15797671  0.63635935  0.43207805  1
  H  H3  1  0.84202329  0.36364065  0.56792195  1
  H  H4  1  0.79890360  0.46241648  0.04999462  1
  H  H5  1  0.20109640  0.53758352  0.95000538  1
  H  H6  1  0.77218527  0.62591313  0.55594223  1
  H  H7  1  0.22781473  0.37408687  0.44405777  1
  H  H8  1  0.42354700  0.44919918  0.15959972  1
  H  H9  1  0.57645300  0.55080082  0.84040028  1
  H  H10  1  0.96251019  0.22079966  0.22210546  1
  H  H11  1  0.03748981  0.77920034  0.77789454  1
  H  H12  1  0.97870538  0.06524372  0.28495294  1
  H  H13  1  0.02129462  0.93475628  0.71504706  1
  H  H14  1  0.40100458  0.81178518  0.74676040  1
  H  H15  1  0.59899542  0.18821482  0.25323960  1
  H  H16  1  0.35580069  0.96278006  0.68850078  1
  H  H17  1  0.64419931  0.03721994  0.31149922  1
  C  C18  1  0.80764499  0.68564312  0.06134961  1
  C  C19  1  0.19235501  0.31435688  0.93865039  1
  C  C20  1  0.01342095  0.78421430  0.27707484  1
  C  C21  1  0.98657905  0.21578570  0.72292516  1
  C  C22  1  0.98608831  0.52968357  0.24996890  1
  C  C23  1  0.01391169  0.47031643  0.75003110  1
  C  C24  1  0.42029386  0.67352349  0.18897295  1
  C  C25  1  0.57970614  0.32647651  0.81102705  1
  C  C26  1  0.61505501  0.77451954  0.41949695  1
  C  C27  1  0.38494499  0.22548046  0.58050305  1
  C  C28  1  0.60879959  0.51633019  0.36167367  1
  C  C29  1  0.39120041  0.48366981  0.63832633  1
  N  N30  1  0.88485557  0.79959941  0.14442467  1
  N  N31  1  0.11514443  0.20040059  0.85557533  1
  N  N32  1  0.05956035  0.64885010  0.33035490  1
  N  N33  1  0.94043965  0.35114990  0.66964510  1
  N  N34  1  0.85841259  0.55148290  0.11472791  1
  N  N35  1  0.14158741  0.44851710  0.88527209  1
  N  N36  1  0.48848356  0.78898461  0.28484409  1
  N  N37  1  0.51151644  0.21101539  0.71515591  1
  N  N38  1  0.67233059  0.63738833  0.45672096  1
  N  N39  1  0.32766941  0.36261167  0.54327904  1
  N  N40  1  0.48138362  0.53846131  0.22621587  1
  N  N41  1  0.51861638  0.46153869  0.77378413  1
  O  O42  1  0.68948067  0.69733517  0.93411196  1
  O  O43  1  0.31051933  0.30266483  0.06588804  1
  O  O44  1  0.09386234  0.88524017  0.35409918  1
  O  O45  1  0.90613766  0.11475983  0.64590082  1
  O  O46  1  0.03218202  0.40884302  0.29499326  1
  O  O47  1  0.96781798  0.59115698  0.70500674  1
  O  O48  1  0.30076808  0.68586356  0.06404507  1
  O  O49  1  0.69923192  0.31413644  0.93595493  1
  O  O50  1  0.68464610  0.87802182  0.51200903  1
  O  O51  1  0.31535390  0.12197818  0.48799097  1
  O  O52  1  0.66162214  0.39455420  0.39468606  1
  O  O53  1  0.33837786  0.60544580  0.60531394  1
  O  O54  1  0.95908189  0.11899124  0.17667341  1
  O  O55  1  0.04091811  0.88100876  0.82332659  1
  O  O56  1  0.40979047  0.91276584  0.79417794  1
  O  O57  1  0.59020953  0.08723416  0.20582206  1
