# generated using pymatgen
data_MnZnSiO5
_symmetry_space_group_name_H-M   'P 1'
_cell_length_a   5.29174641
_cell_length_b   7.08789512
_cell_length_c   8.19205192
_cell_angle_alpha   89.92439168
_cell_angle_beta   39.13480578
_cell_angle_gamma   73.82531944
_symmetry_Int_Tables_number   1
_chemical_formula_structural   MnZnSiO5
_chemical_formula_sum   'Mn2 Zn2 Si2 O10'
_cell_volume   174.17067795
_cell_formula_units_Z   2
loop_
 _symmetry_equiv_pos_site_id
 _symmetry_equiv_pos_as_xyz
  1  'x, y, z'
loop_
 _atom_site_type_symbol
 _atom_site_label
 _atom_site_symmetry_multiplicity
 _atom_site_fract_x
 _atom_site_fract_y
 _atom_site_fract_z
 _atom_site_occupancy
  Mn  Mn0  1  0.49900095  0.48576846  0.99587442  1
  Mn  Mn1  1  0.49948009  0.98570417  0.99553314  1
  Zn  Zn2  1  0.50332367  0.23206081  0.66556731  1
  Zn  Zn3  1  0.50432263  0.73218182  0.32124426  1
  Si  Si4  1  0.49900204  0.23657917  0.32168248  1
  Si  Si5  1  0.49737763  0.73522076  0.67084616  1
  O  O6  1  0.30948841  0.10218459  0.30444038  1
  O  O7  1  0.69718885  0.36825233  0.11045706  1
  O  O8  1  0.68740143  0.87027700  0.68700270  1
  O  O9  1  0.29792618  0.60494468  0.88356596  1
  O  O10  1  0.87132957  0.57852290  0.35338825  1
  O  O11  1  0.13068616  0.88754182  0.71968175  1
  O  O12  1  0.12580483  0.39235147  0.63922329  1
  O  O13  1  0.86720028  0.08377646  0.27159374  1
  O  O14  1  0.49549418  0.73635768  0.08819072  1
  O  O15  1  0.50170307  0.23540587  0.90372438  1
