# generated using pymatgen
data_BaCu2P2H2O9
_symmetry_space_group_name_H-M   'P 1'
_cell_length_a   5.21873570
_cell_length_b   9.83921617
_cell_length_c   14.89225619
_cell_angle_alpha   90.00000000
_cell_angle_beta   90.00000000
_cell_angle_gamma   90.00000000
_symmetry_Int_Tables_number   1
_chemical_formula_structural   BaCu2P2H2O9
_chemical_formula_sum   'Ba4 Cu8 P8 H8 O36'
_cell_volume   764.69157219
_cell_formula_units_Z   4
loop_
 _symmetry_equiv_pos_site_id
 _symmetry_equiv_pos_as_xyz
  1  'x, y, z'
loop_
 _atom_site_type_symbol
 _atom_site_label
 _atom_site_symmetry_multiplicity
 _atom_site_fract_x
 _atom_site_fract_y
 _atom_site_fract_z
 _atom_site_occupancy
  Ba  Ba0  1  0.49569646  0.02157986  0.03628759  1
  Ba  Ba1  1  0.00430354  0.97842014  0.53628759  1
  Ba  Ba2  1  0.99569646  0.47842014  0.96371241  1
  Ba  Ba3  1  0.50430354  0.52157986  0.46371241  1
  Cu  Cu4  1  0.48068268  0.75169100  0.23985226  1
  Cu  Cu5  1  0.01931732  0.24830900  0.73985226  1
  Cu  Cu6  1  0.98068268  0.74830900  0.76014774  1
  Cu  Cu7  1  0.51931732  0.25169100  0.26014774  1
  Cu  Cu8  1  0.90144066  0.51261041  0.21895023  1
  Cu  Cu9  1  0.59855934  0.48738959  0.71895023  1
  Cu  Cu10  1  0.40144066  0.98738959  0.78104977  1
  Cu  Cu11  1  0.09855934  0.01261041  0.28104977  1
  P  P12  1  0.97973634  0.80222943  0.12372950  1
  P  P13  1  0.52026366  0.19777057  0.62372950  1
  P  P14  1  0.47973634  0.69777057  0.87627050  1
  P  P15  1  0.02026366  0.30222943  0.37627050  1
  P  P16  1  0.98830290  0.72398643  0.36536664  1
  P  P17  1  0.51169710  0.27601357  0.86536664  1
  P  P18  1  0.48830290  0.77601357  0.63463336  1
  P  P19  1  0.01169710  0.22398643  0.13463336  1
  H  H20  1  0.35975336  0.47899692  0.14961924  1
  H  H21  1  0.14024664  0.52100308  0.64961924  1
  H  H22  1  0.85975336  0.02100308  0.85038076  1
  H  H23  1  0.64024664  0.97899692  0.35038076  1
  H  H24  1  0.52190928  0.57410114  0.08650648  1
  H  H25  1  0.97809072  0.42589886  0.58650648  1
  H  H26  1  0.02190928  0.92589886  0.91349352  1
  H  H27  1  0.47809072  0.07410114  0.41349352  1
  O  O28  1  0.70973468  0.84650500  0.15835904  1
  O  O29  1  0.79026532  0.15349500  0.65835904  1
  O  O30  1  0.20973468  0.65349500  0.84164096  1
  O  O31  1  0.29026532  0.34650500  0.34164096  1
  O  O32  1  0.00898832  0.64575664  0.12316169  1
  O  O33  1  0.49101168  0.35424336  0.62316169  1
  O  O34  1  0.50898832  0.85424336  0.87683831  1
  O  O35  1  0.99101168  0.14575664  0.37683831  1
  O  O36  1  0.02715846  0.86518385  0.03164355  1
  O  O37  1  0.47284154  0.13481615  0.53164355  1
  O  O38  1  0.52715846  0.63481615  0.96835645  1
  O  O39  1  0.97284154  0.36518385  0.46835645  1
  O  O40  1  0.18954780  0.86484875  0.19092930  1
  O  O41  1  0.31045220  0.13515125  0.69092930  1
  O  O42  1  0.68954780  0.63515125  0.80907070  1
  O  O43  1  0.81045220  0.36484875  0.30907070  1
  O  O44  1  0.77890514  0.65500019  0.30170600  1
  O  O45  1  0.72109486  0.34499981  0.80170600  1
  O  O46  1  0.27890514  0.84499981  0.69829400  1
  O  O47  1  0.22109486  0.15500019  0.19829400  1
  O  O48  1  0.25832235  0.68010898  0.33230364  1
  O  O49  1  0.24167765  0.31989102  0.83230364  1
  O  O50  1  0.75832235  0.81989102  0.66769636  1
  O  O51  1  0.74167765  0.18010898  0.16769636  1
  O  O52  1  0.94298971  0.88081386  0.36123927  1
  O  O53  1  0.55701029  0.11918614  0.86123927  1
  O  O54  1  0.44298971  0.61918614  0.63876073  1
  O  O55  1  0.05701029  0.38081386  0.13876073  1
  O  O56  1  0.94807117  0.67557756  0.46110113  1
  O  O57  1  0.55192883  0.32442244  0.96110113  1
  O  O58  1  0.44807117  0.82442244  0.53889887  1
  O  O59  1  0.05192883  0.17557756  0.03889887  1
  O  O60  1  0.51592719  0.53519768  0.14759740  1
  O  O61  1  0.98407281  0.46480232  0.64759740  1
  O  O62  1  0.01592719  0.96480232  0.85240260  1
  O  O63  1  0.48407281  0.03519768  0.35240260  1
