# generated using pymatgen
data_Li21Mo11O32
_symmetry_space_group_name_H-M   'P 1'
_cell_length_a   5.25932132
_cell_length_b   21.00207577
_cell_length_c   21.00207620
_cell_angle_alpha   33.82722191
_cell_angle_beta   34.07921588
_cell_angle_gamma   34.07921458
_symmetry_Int_Tables_number   1
_chemical_formula_structural   Li21Mo11O32
_chemical_formula_sum   'Li21 Mo11 O32'
_cell_volume   646.41462181
_cell_formula_units_Z   1
loop_
 _symmetry_equiv_pos_site_id
 _symmetry_equiv_pos_as_xyz
  1  'x, y, z'
loop_
 _atom_site_type_symbol
 _atom_site_label
 _atom_site_symmetry_multiplicity
 _atom_site_fract_x
 _atom_site_fract_y
 _atom_site_fract_z
 _atom_site_occupancy
  Li  Li0  1  0.01394884  0.99684518  0.99684518  1
  Li  Li1  1  0.00000000  0.26784829  0.98215171  1
  Li  Li2  1  0.96966929  0.25933044  0.49760290  1
  Li  Li3  1  0.03033071  0.75239710  0.99066956  1
  Li  Li4  1  0.98605116  0.25315482  0.25315482  1
  Li  Li5  1  0.02806968  0.50276507  0.98881017  1
  Li  Li6  1  0.48276844  0.37792666  0.37792666  1
  Li  Li7  1  0.96966929  0.49760290  0.25933044  1
  Li  Li8  1  0.03033071  0.99066956  0.75239710  1
  Li  Li9  1  0.97193032  0.74723493  0.26118983  1
  Li  Li10  1  0.95806349  0.50619427  0.50619427  1
  Li  Li11  1  0.97193032  0.26118983  0.74723493  1
  Li  Li12  1  0.50000000  0.62500000  0.62500000  1
  Li  Li13  1  0.50000000  0.86220089  0.38779911  1
  Li  Li14  1  0.50000000  0.38779911  0.86220089  1
  Li  Li15  1  1.00000000  0.51145327  0.73854673  1
  Li  Li16  1  0.00000000  0.73854673  0.51145327  1
  Li  Li17  1  1.00000000  0.98215171  0.26784829  1
  Li  Li18  1  0.04193651  0.74380573  0.74380573  1
  Li  Li19  1  0.02806968  0.98881017  0.50276507  1
  Li  Li20  1  0.51723156  0.87207334  0.87207334  1
  Mo  Mo21  1  0.50000000  0.12500000  0.12500000  1
  Mo  Mo22  1  0.50426136  0.12214965  0.37818290  1
  Mo  Mo23  1  0.50426136  0.37818290  0.12214965  1
  Mo  Mo24  1  0.50000000  0.62500000  0.12500000  1
  Mo  Mo25  1  0.50000000  0.12500000  0.62500000  1
  Mo  Mo26  1  0.47263823  0.62913172  0.37628403  1
  Mo  Mo27  1  0.47263823  0.37628403  0.62913172  1
  Mo  Mo28  1  0.49573864  0.87181710  0.12785035  1
  Mo  Mo29  1  0.49573864  0.12785035  0.87181710  1
  Mo  Mo30  1  0.52736177  0.62086828  0.87371597  1
  Mo  Mo31  1  0.52736177  0.87371597  0.62086828  1
  O  O32  1  0.24989489  0.06080487  0.06080487  1
  O  O33  1  0.23674919  0.06729075  0.30570182  1
  O  O34  1  0.23674919  0.30570182  0.06729075  1
  O  O35  1  0.75010511  0.18919513  0.18919513  1
  O  O36  1  0.23674068  0.56348969  0.06600149  1
  O  O37  1  0.23674068  0.06600149  0.56348969  1
  O  O38  1  0.28766089  0.30562716  0.30562716  1
  O  O39  1  0.77863404  0.44286469  0.18183368  1
  O  O40  1  0.77863404  0.18183368  0.44286469  1
  O  O41  1  0.23307047  0.56768484  0.30601955  1
  O  O42  1  0.22136596  0.06816632  0.80713531  1
  O  O43  1  0.22136596  0.80713531  0.06816632  1
  O  O44  1  0.23307047  0.30601955  0.56768484  1
  O  O45  1  0.76325932  0.68651031  0.18399851  1
  O  O46  1  0.76325932  0.18399851  0.68651031  1
  O  O47  1  0.73795404  0.44241425  0.44241425  1
  O  O48  1  0.27277195  0.80840014  0.30868809  1
  O  O49  1  0.26403980  0.55951193  0.55951193  1
  O  O50  1  0.27277195  0.30868809  0.80840014  1
  O  O51  1  0.80478878  0.68426333  0.43071194  1
  O  O52  1  0.76325081  0.94429818  0.18270925  1
  O  O53  1  0.76325081  0.18270925  0.94429818  1
  O  O54  1  0.80478878  0.43071194  0.68426333  1
  O  O55  1  0.19521122  0.56573667  0.81928806  1
  O  O56  1  0.19521122  0.81928806  0.56573667  1
  O  O57  1  0.73596020  0.69048807  0.69048807  1
  O  O58  1  0.72722805  0.44159986  0.94131191  1
  O  O59  1  0.72722805  0.94131191  0.44159986  1
  O  O60  1  0.26204596  0.80758575  0.80758575  1
  O  O61  1  0.76692953  0.68231516  0.94398045  1
  O  O62  1  0.76692953  0.94398045  0.68231516  1
  O  O63  1  0.71233911  0.94437284  0.94437284  1
