# generated using pymatgen
data_ZnH20S2(NO7)2
_symmetry_space_group_name_H-M   'P 1'
_cell_length_a   8.74381019
_cell_length_b   13.89330408
_cell_length_c   6.18186480
_cell_angle_alpha   90.00000000
_cell_angle_beta   103.12363570
_cell_angle_gamma   90.00000000
_symmetry_Int_Tables_number   1
_chemical_formula_structural   ZnH20S2(NO7)2
_chemical_formula_sum   'Zn2 H40 S4 N4 O28'
_cell_volume   731.36180650
_cell_formula_units_Z   2
loop_
 _symmetry_equiv_pos_site_id
 _symmetry_equiv_pos_as_xyz
  1  'x, y, z'
loop_
 _atom_site_type_symbol
 _atom_site_label
 _atom_site_symmetry_multiplicity
 _atom_site_fract_x
 _atom_site_fract_y
 _atom_site_fract_z
 _atom_site_occupancy
  Zn  Zn0  1  0.50000000  0.50000000  0.00000000  1
  Zn  Zn1  1  -0.00000000  0.00000000  0.00000000  1
  H  H2  1  0.54735021  0.17016478  0.22212303  1
  H  H3  1  0.95264979  0.67016478  0.77787697  1
  H  H4  1  0.45264979  0.82983522  0.77787697  1
  H  H5  1  0.04735021  0.32983522  0.22212303  1
  H  H6  1  0.66160105  0.25913067  0.36115619  1
  H  H7  1  0.83839895  0.75913067  0.63884381  1
  H  H8  1  0.33839895  0.74086933  0.63884381  1
  H  H9  1  0.16160105  0.24086933  0.36115619  1
  H  H10  1  0.61613438  0.16283829  0.50567128  1
  H  H11  1  0.88386562  0.66283829  0.49432872  1
  H  H12  1  0.38386562  0.83716171  0.49432872  1
  H  H13  1  0.11613438  0.33716171  0.50567128  1
  H  H14  1  0.76607245  0.01790603  0.18420382  1
  H  H15  1  0.73392755  0.51790603  0.81579618  1
  H  H16  1  0.23392755  0.98209397  0.81579618  1
  H  H17  1  0.26607245  0.48209397  0.18420382  1
  H  H18  1  0.72392737  0.42544988  0.34359059  1
  H  H19  1  0.77607263  0.92544988  0.65640941  1
  H  H20  1  0.27607263  0.57455012  0.65640941  1
  H  H21  1  0.22392737  0.07455012  0.34359059  1
  H  H22  1  0.75097795  0.38328739  0.11544962  1
  H  H23  1  0.74902205  0.88328739  0.88455038  1
  H  H24  1  0.24902205  0.61671261  0.88455038  1
  H  H25  1  0.25097795  0.11671261  0.11544962  1
  H  H26  1  0.23984589  0.34796574  0.33349387  1
  H  H27  1  0.26015411  0.84796574  0.66650613  1
  H  H28  1  0.76015411  0.65203426  0.66650613  1
  H  H29  1  0.73984589  0.15203426  0.33349387  1
  H  H30  1  0.22312873  0.41820840  0.96658119  1
  H  H31  1  0.27687127  0.91820840  0.03341881  1
  H  H32  1  0.77687127  0.58179160  0.03341881  1
  H  H33  1  0.72312873  0.08179160  0.96658119  1
  H  H34  1  0.42197435  0.58674733  0.33934383  1
  H  H35  1  0.07802565  0.08674733  0.66065617  1
  H  H36  1  0.57802565  0.41325267  0.66065617  1
  H  H37  1  0.92197435  0.91325267  0.33934383  1
  H  H38  1  0.54938790  0.65932467  0.28937291  1
  H  H39  1  0.95061210  0.15932467  0.71062709  1
  H  H40  1  0.45061210  0.34067533  0.71062709  1
  H  H41  1  0.04938790  0.84067533  0.28937291  1
  S  S42  1  0.91383145  0.36536385  0.76041893  1
  S  S43  1  0.58616855  0.86536385  0.23958107  1
  S  S44  1  0.08616855  0.63463615  0.23958107  1
  S  S45  1  0.41383145  0.13463615  0.76041893  1
  N  N46  1  0.64027427  0.18614672  0.35716547  1
  N  N47  1  0.85972573  0.68614672  0.64283453  1
  N  N48  1  0.35972573  0.81385328  0.64283453  1
  N  N49  1  0.14027427  0.31385328  0.35716547  1
  O  O50  1  0.88979795  0.27393170  0.63424253  1
  O  O51  1  0.61020205  0.77393170  0.36575747  1
  O  O52  1  0.11020205  0.72606830  0.36575747  1
  O  O53  1  0.38979795  0.22606830  0.63424253  1
  O  O54  1  0.07223275  0.40426954  0.75736967  1
  O  O55  1  0.42776725  0.90426954  0.24263033  1
  O  O56  1  0.92776725  0.59573046  0.24263033  1
  O  O57  1  0.57223275  0.09573046  0.75736967  1
  O  O58  1  0.78925498  0.43630765  0.64853422  1
  O  O59  1  0.71074502  0.93630765  0.35146578  1
  O  O60  1  0.21074502  0.56369235  0.35146578  1
  O  O61  1  0.28925498  0.06369235  0.64853422  1
  O  O62  1  0.89777679  0.35110864  0.99381970  1
  O  O63  1  0.60222321  0.85110864  0.00618030  1
  O  O64  1  0.10222321  0.64889136  0.00618030  1
  O  O65  1  0.39777679  0.14889136  0.99381970  1
  O  O66  1  0.66815408  0.39898664  0.19789448  1
  O  O67  1  0.83184592  0.89898664  0.80210552  1
  O  O68  1  0.33184592  0.60101336  0.80210552  1
  O  O69  1  0.16815408  0.10101336  0.19789448  1
  O  O70  1  0.31133980  0.43245921  0.09867961  1
  O  O71  1  0.18866020  0.93245921  0.90132039  1
  O  O72  1  0.68866020  0.56754079  0.90132039  1
  O  O73  1  0.81133980  0.06754079  0.09867961  1
  O  O74  1  0.52124620  0.58954881  0.28889833  1
  O  O75  1  0.97875380  0.08954881  0.71110167  1
  O  O76  1  0.47875380  0.41045119  0.71110167  1
  O  O77  1  0.02124620  0.91045119  0.28889833  1
