# generated using pymatgen
data_CuHIO4
_symmetry_space_group_name_H-M   'P 1'
_cell_length_a   10.80679029
_cell_length_b   6.80434081
_cell_length_c   4.89771123
_cell_angle_alpha   90.00000000
_cell_angle_beta   90.00000000
_cell_angle_gamma   90.00000000
_symmetry_Int_Tables_number   1
_chemical_formula_structural   CuHIO4
_chemical_formula_sum   'Cu4 H4 I4 O16'
_cell_volume   360.14381224
_cell_formula_units_Z   4
loop_
 _symmetry_equiv_pos_site_id
 _symmetry_equiv_pos_as_xyz
  1  'x, y, z'
loop_
 _atom_site_type_symbol
 _atom_site_label
 _atom_site_symmetry_multiplicity
 _atom_site_fract_x
 _atom_site_fract_y
 _atom_site_fract_z
 _atom_site_occupancy
  Cu  Cu0  1  0.50000000  0.00000000  0.50000000  1
  Cu  Cu1  1  0.00000000  0.50000000  0.00000000  1
  Cu  Cu2  1  0.50000000  0.50000000  0.50000000  1
  Cu  Cu3  1  0.00000000  0.00000000  0.00000000  1
  H  H4  1  0.51646338  0.25000000  0.89473957  1
  H  H5  1  0.01646338  0.25000000  0.60526043  1
  H  H6  1  0.48353662  0.75000000  0.10526043  1
  H  H7  1  0.98353662  0.75000000  0.39473957  1
  I  I8  1  0.74532650  0.25000000  0.50685693  1
  I  I9  1  0.24532650  0.25000000  0.99314307  1
  I  I10  1  0.25467350  0.75000000  0.49314307  1
  I  I11  1  0.75467350  0.75000000  0.00685693  1
  O  O12  1  0.88745078  0.25000000  0.30514616  1
  O  O13  1  0.38745078  0.25000000  0.19485384  1
  O  O14  1  0.11254922  0.75000000  0.69485384  1
  O  O15  1  0.61254922  0.75000000  0.80514616  1
  O  O16  1  0.66170703  0.04796486  0.31740298  1
  O  O17  1  0.16170703  0.45203514  0.18259702  1
  O  O18  1  0.33829297  0.54796486  0.68259702  1
  O  O19  1  0.83829297  0.95203514  0.81740298  1
  O  O20  1  0.33829297  0.95203514  0.68259702  1
  O  O21  1  0.83829297  0.54796486  0.81740298  1
  O  O22  1  0.66170703  0.45203514  0.31740298  1
  O  O23  1  0.16170703  0.04796486  0.18259702  1
  O  O24  1  0.53460511  0.25000000  0.69527115  1
  O  O25  1  0.03460511  0.25000000  0.80472885  1
  O  O26  1  0.46539489  0.75000000  0.30472885  1
  O  O27  1  0.96539489  0.75000000  0.19527115  1
