# generated using pymatgen
data_NpH16C4N8ClO6
_symmetry_space_group_name_H-M   'P 1'
_cell_length_a   8.10593249
_cell_length_b   8.10593249
_cell_length_c   11.79594838
_cell_angle_alpha   84.10904631
_cell_angle_beta   95.89095369
_cell_angle_gamma   82.07351388
_symmetry_Int_Tables_number   1
_chemical_formula_structural   NpH16C4N8ClO6
_chemical_formula_sum   'Np2 H32 C8 N16 Cl2 O12'
_cell_volume   758.22299630
_cell_formula_units_Z   2
loop_
 _symmetry_equiv_pos_site_id
 _symmetry_equiv_pos_as_xyz
  1  'x, y, z'
loop_
 _atom_site_type_symbol
 _atom_site_label
 _atom_site_symmetry_multiplicity
 _atom_site_fract_x
 _atom_site_fract_y
 _atom_site_fract_z
 _atom_site_occupancy
  Np  Np0  1  0.77971650  0.77971650  0.25000000  1
  Np  Np1  1  0.22028350  0.22028350  0.75000000  1
  H  H2  1  0.16325053  0.81999383  0.33535892  1
  H  H3  1  0.81999383  0.16325053  0.16464108  1
  H  H4  1  0.83674947  0.18000617  0.66464108  1
  H  H5  1  0.18000617  0.83674947  0.83535892  1
  H  H6  1  0.35294108  0.87544570  0.29418546  1
  H  H7  1  0.87544570  0.35294108  0.20581454  1
  H  H8  1  0.64705892  0.12455430  0.70581454  1
  H  H9  1  0.12455430  0.64705892  0.79418546  1
  H  H10  1  0.17372435  0.01253470  0.00710210  1
  H  H11  1  0.01253470  0.17372435  0.49289790  1
  H  H12  1  0.82627565  0.98746530  0.99289790  1
  H  H13  1  0.98746530  0.82627565  0.50710210  1
  H  H14  1  0.35881024  0.98530409  0.10590133  1
  H  H15  1  0.98530409  0.35881024  0.39409867  1
  H  H16  1  0.64118976  0.01469591  0.89409867  1
  H  H17  1  0.01469591  0.64118976  0.60590133  1
  H  H18  1  0.91537613  0.42048136  0.94004365  1
  H  H19  1  0.42048136  0.91537613  0.55995635  1
  H  H20  1  0.08462387  0.57951864  0.05995635  1
  H  H21  1  0.57951864  0.08462387  0.44004365  1
  H  H22  1  0.71647326  0.45594121  0.85798115  1
  H  H23  1  0.45594121  0.71647326  0.64201885  1
  H  H24  1  0.28352674  0.54405879  0.14201885  1
  H  H25  1  0.54405879  0.28352674  0.35798115  1
  H  H26  1  0.53759915  0.76500796  0.01294115  1
  H  H27  1  0.76500796  0.53759915  0.48705885  1
  H  H28  1  0.46240085  0.23499204  0.98705885  1
  H  H29  1  0.23499204  0.46240085  0.51294115  1
  H  H30  1  0.50949648  0.65223809  0.89353300  1
  H  H31  1  0.65223809  0.50949648  0.60646700  1
  H  H32  1  0.49050352  0.34776191  0.10646700  1
  H  H33  1  0.34776191  0.49050352  0.39353300  1
  C  C34  1  0.14971523  0.90924098  0.16765785  1
  C  C35  1  0.90924098  0.14971523  0.33234215  1
  C  C36  1  0.85028477  0.09075902  0.83234215  1
  C  C37  1  0.09075902  0.85028477  0.66765785  1
  C  C38  1  0.73756878  0.59387465  0.99351158  1
  C  C39  1  0.59387465  0.73756878  0.50648842  1
  C  C40  1  0.26243122  0.40612535  0.00648842  1
  C  C41  1  0.40612535  0.26243122  0.49351158  1
  N  N42  1  0.22839903  0.87071734  0.27548926  1
  N  N43  1  0.87071734  0.22839903  0.22451074  1
  N  N44  1  0.77160097  0.12928266  0.72451074  1
  N  N45  1  0.12928266  0.77160097  0.77548926  1
  N  N46  1  0.23779946  0.96655169  0.08535979  1
  N  N47  1  0.96655169  0.23779946  0.41464021  1
  N  N48  1  0.76220054  0.03344831  0.91464021  1
  N  N49  1  0.03344831  0.76220054  0.58535979  1
  N  N50  1  0.79335394  0.47663294  0.92760798  1
  N  N51  1  0.47663294  0.79335394  0.57239202  1
  N  N52  1  0.20664606  0.52336706  0.07239202  1
  N  N53  1  0.52336706  0.20664606  0.42760798  1
  N  N54  1  0.58448854  0.68374735  0.96028177  1
  N  N55  1  0.68374735  0.58448854  0.53971823  1
  N  N56  1  0.41551146  0.31625265  0.03971823  1
  N  N57  1  0.31625265  0.41551146  0.46028177  1
  Cl  Cl58  1  0.54316873  0.54316873  0.25000000  1
  Cl  Cl59  1  0.45683127  0.45683127  0.75000000  1
  O  O60  1  0.93792876  0.62186311  0.34225564  1
  O  O61  1  0.62186311  0.93792876  0.15774436  1
  O  O62  1  0.06207124  0.37813689  0.65774436  1
  O  O63  1  0.37813689  0.06207124  0.84225564  1
  O  O64  1  0.99664872  0.89136772  0.14377202  1
  O  O65  1  0.89136772  0.99664872  0.35622798  1
  O  O66  1  0.00335128  0.10863228  0.85622798  1
  O  O67  1  0.10863228  0.00335128  0.64377202  1
  O  O68  1  0.82778543  0.61841903  0.08373368  1
  O  O69  1  0.61841903  0.82778543  0.41626632  1
  O  O70  1  0.17221457  0.38158097  0.91626632  1
  O  O71  1  0.38158097  0.17221457  0.58373368  1
