# generated using pymatgen
data_Sn2H2SO5F2
_symmetry_space_group_name_H-M   'P 1'
_cell_length_a   7.11259830
_cell_length_b   13.03686719
_cell_length_c   7.32496624
_cell_angle_alpha   90.00000000
_cell_angle_beta   90.96967689
_cell_angle_gamma   90.00000000
_symmetry_Int_Tables_number   1
_chemical_formula_structural   Sn2H2SO5F2
_chemical_formula_sum   'Sn8 H8 S4 O20 F8'
_cell_volume   679.11754508
_cell_formula_units_Z   4
loop_
 _symmetry_equiv_pos_site_id
 _symmetry_equiv_pos_as_xyz
  1  'x, y, z'
loop_
 _atom_site_type_symbol
 _atom_site_label
 _atom_site_symmetry_multiplicity
 _atom_site_fract_x
 _atom_site_fract_y
 _atom_site_fract_z
 _atom_site_occupancy
  Sn  Sn0  1  0.67874912  0.31902919  0.15448692  1
  Sn  Sn1  1  0.32125088  0.81902919  0.34551308  1
  Sn  Sn2  1  0.32125088  0.68097081  0.84551308  1
  Sn  Sn3  1  0.67874912  0.18097081  0.65448692  1
  Sn  Sn4  1  0.76067014  0.47965804  0.67043247  1
  Sn  Sn5  1  0.23932986  0.97965804  0.82956753  1
  Sn  Sn6  1  0.23932986  0.52034196  0.32956753  1
  Sn  Sn7  1  0.76067014  0.02034196  0.17043247  1
  H  H8  1  0.06209210  0.31867826  0.04966785  1
  H  H9  1  0.93790790  0.81867826  0.45033215  1
  H  H10  1  0.93790790  0.68132174  0.95033215  1
  H  H11  1  0.06209210  0.18132174  0.54966785  1
  H  H12  1  0.05484115  0.26303145  0.24587999  1
  H  H13  1  0.94515885  0.76303145  0.25412001  1
  H  H14  1  0.94515885  0.73696855  0.75412001  1
  H  H15  1  0.05484115  0.23696855  0.74587999  1
  S  S16  1  0.75827508  0.58127136  0.22518307  1
  S  S17  1  0.24172492  0.08127136  0.27481693  1
  S  S18  1  0.24172492  0.41872864  0.77481693  1
  S  S19  1  0.75827508  0.91872864  0.72518307  1
  O  O20  1  0.78908696  0.67995846  0.12747170  1
  O  O21  1  0.21091304  0.17995846  0.37252830  1
  O  O22  1  0.21091304  0.32004154  0.87252830  1
  O  O23  1  0.78908696  0.82004154  0.62747170  1
  O  O24  1  0.92062591  0.56298113  0.35701058  1
  O  O25  1  0.07937409  0.06298113  0.14298942  1
  O  O26  1  0.07937409  0.43701887  0.64298942  1
  O  O27  1  0.92062591  0.93701887  0.85701058  1
  O  O28  1  0.74799041  0.49612549  0.08799964  1
  O  O29  1  0.25200959  0.99612549  0.41200036  1
  O  O30  1  0.25200959  0.50387451  0.91200036  1
  O  O31  1  0.74799041  0.00387451  0.58799964  1
  O  O32  1  0.58592445  0.58405247  0.33614006  1
  O  O33  1  0.41407555  0.08405247  0.16385994  1
  O  O34  1  0.41407555  0.41594753  0.66385994  1
  O  O35  1  0.58592445  0.91594753  0.83614006  1
  O  O36  1  0.99238431  0.31605700  0.16786708  1
  O  O37  1  0.00761569  0.81605700  0.33213292  1
  O  O38  1  0.00761569  0.68394300  0.83213292  1
  O  O39  1  0.99238431  0.18394300  0.66786708  1
  F  F40  1  0.73816263  0.13822714  0.96323563  1
  F  F41  1  0.26183737  0.63822714  0.53676437  1
  F  F42  1  0.26183737  0.86177286  0.03676437  1
  F  F43  1  0.73816263  0.36177286  0.46323563  1
  F  F44  1  0.76357092  0.16282415  0.34087296  1
  F  F45  1  0.23642908  0.66282415  0.15912704  1
  F  F46  1  0.23642908  0.83717585  0.65912704  1
  F  F47  1  0.76357092  0.33717585  0.84087296  1
