# generated using pymatgen
data_MgCrPO5
_symmetry_space_group_name_H-M   'P 1'
_cell_length_a   5.29973435
_cell_length_b   7.05492506
_cell_length_c   8.20649490
_cell_angle_alpha   89.98755881
_cell_angle_beta   39.24410126
_cell_angle_gamma   74.81681857
_symmetry_Int_Tables_number   1
_chemical_formula_structural   MgCrPO5
_chemical_formula_sum   'Mg2 Cr2 P2 O10'
_cell_volume   176.71869826
_cell_formula_units_Z   2
loop_
 _symmetry_equiv_pos_site_id
 _symmetry_equiv_pos_as_xyz
  1  'x, y, z'
loop_
 _atom_site_type_symbol
 _atom_site_label
 _atom_site_symmetry_multiplicity
 _atom_site_fract_x
 _atom_site_fract_y
 _atom_site_fract_z
 _atom_site_occupancy
  Mg  Mg0  1  0.50471654  0.23240074  0.66474483  1
  Mg  Mg1  1  0.50328138  0.73065265  0.32180993  1
  Cr  Cr2  1  0.49905011  0.48579102  0.99578961  1
  Cr  Cr3  1  0.49943934  0.98575896  0.99556129  1
  P  P4  1  0.49832633  0.23668295  0.32849011  1
  P  P5  1  0.49768914  0.73528215  0.66422810  1
  O  O6  1  0.30246674  0.11547071  0.31991517  1
  O  O7  1  0.69731850  0.35805584  0.12320203  1
  O  O8  1  0.69395474  0.85754369  0.67166529  1
  O  O9  1  0.29685747  0.61592787  0.87146068  1
  O  O10  1  0.84247626  0.58348187  0.37127026  1
  O  O11  1  0.15751079  0.88401485  0.71099823  1
  O  O12  1  0.15519097  0.38706100  0.62165375  1
  O  O13  1  0.84113440  0.08714424  0.27940486  1
  O  O14  1  0.49622386  0.73639518  0.09230032  1
  O  O15  1  0.50109544  0.23546528  0.89952054  1
