# generated using pymatgen
data_La9Mn10O30
_symmetry_space_group_name_H-M   'P 1'
_cell_length_a   11.04170617
_cell_length_b   27.62256373
_cell_length_c   18.22499315
_cell_angle_alpha   25.49764277
_cell_angle_beta   41.63479942
_cell_angle_gamma   60.71021777
_symmetry_Int_Tables_number   1
_chemical_formula_structural   La9Mn10O30
_chemical_formula_sum   'La18 Mn20 O60'
_cell_volume   1210.60280519
_cell_formula_units_Z   2
loop_
 _symmetry_equiv_pos_site_id
 _symmetry_equiv_pos_as_xyz
  1  'x, y, z'
loop_
 _atom_site_type_symbol
 _atom_site_label
 _atom_site_symmetry_multiplicity
 _atom_site_fract_x
 _atom_site_fract_y
 _atom_site_fract_z
 _atom_site_occupancy
  La  La0  1  0.99356227  0.14415919  0.26388969  1
  La  La1  1  0.00021265  0.35015747  0.24967014  1
  La  La2  1  0.01210307  0.05751257  0.73742406  1
  La  La3  1  0.48789693  0.14248743  0.26257594  1
  La  La4  1  0.00083244  0.74909270  0.25108956  1
  La  La5  1  0.00129412  0.24820209  0.74824691  1
  La  La6  1  0.98619789  0.44334491  0.76876161  1
  La  La7  1  0.50964749  0.55428575  0.24218316  1
  La  La8  1  0.50643773  0.05584081  0.73611031  1
  La  La9  1  0.99035251  0.64571425  0.75781684  1
  La  La10  1  0.51380211  0.75665509  0.23123839  1
  La  La11  1  0.50308106  0.25446520  0.74309191  1
  La  La12  1  0.49870588  0.95179791  0.25175309  1
  La  La13  1  0.49916756  0.45090730  0.74891044  1
  La  La14  1  0.99925142  0.55739510  0.23741688  1
  La  La15  1  0.50074858  0.64260490  0.76258312  1
  La  La16  1  0.49978735  0.84984253  0.75032986  1
  La  La17  1  0.99691894  0.94553480  0.25690809  1
  Mn  Mn18  1  0.00307578  0.00225865  0.99582841  1
  Mn  Mn19  1  0.00074801  0.19982432  0.99965964  1
  Mn  Mn20  1  0.99802790  0.40054602  0.99962762  1
  Mn  Mn21  1  0.49925199  0.00017568  0.00034036  1
  Mn  Mn22  1  0.00169950  0.60283087  0.99517965  1
  Mn  Mn23  1  0.00059182  0.09826031  0.50232957  1
  Mn  Mn24  1  0.49692422  0.19774135  0.00417159  1
  Mn  Mn25  1  0.99904673  0.80125021  0.99785716  1
  Mn  Mn26  1  0.00408901  0.30086984  0.49710893  1
  Mn  Mn27  1  0.50095327  0.39874979  0.00214284  1
  Mn  Mn28  1  0.49830050  0.59716913  0.00482035  1
  Mn  Mn29  1  0.49940818  0.10173969  0.49767043  1
  Mn  Mn30  1  0.99635668  0.69686571  0.50530644  1
  Mn  Mn31  1  0.50197210  0.79945398  0.00037238  1
  Mn  Mn32  1  0.49906341  0.29991415  0.49792437  1
  Mn  Mn33  1  0.50364332  0.50313429  0.49469356  1
  Mn  Mn34  1  0.50044943  0.70164819  0.49769896  1
  Mn  Mn35  1  0.49591099  0.89913016  0.50289107  1
  Mn  Mn36  1  0.99955057  0.49835181  0.50230104  1
  Mn  Mn37  1  0.00093659  0.90008585  0.50207563  1
  O  O38  1  0.23808735  0.07770753  0.21333000  1
  O  O39  1  0.28469992  0.18819066  0.18607705  1
  O  O40  1  0.22404538  0.26454386  0.24436717  1
  O  O41  1  0.48351271  0.04038655  0.26687600  1
  O  O42  1  0.26503671  0.38293288  0.19481919  1
  O  O43  1  0.21447335  0.46486858  0.24880290  1
  O  O44  1  0.44467973  0.22009341  0.30684941  1
  O  O45  1  0.72102045  0.06160908  0.25007586  1
  O  O46  1  0.01648729  0.15961345  0.73312400  1
  O  O47  1  0.27593676  0.58829431  0.18891471  1
  O  O48  1  0.21530008  0.01180934  0.81392295  1
  O  O49  1  0.77601819  0.18298416  0.19386040  1
  O  O50  1  0.21048799  0.65588190  0.26390050  1
  O  O51  1  0.43673197  0.43295179  0.31130562  1
  O  O52  1  0.73763105  0.25087490  0.25576756  1
  O  O53  1  0.93835613  0.02566555  0.31099195  1
  O  O54  1  0.06799778  0.37659502  0.68284358  1
  O  O55  1  0.26191265  0.12229247  0.78667000  1
  O  O56  1  0.28214005  0.79001301  0.18209931  1
  O  O57  1  0.22142851  0.21291333  0.81265378  1
  O  O58  1  0.79849392  0.38705233  0.18528403  1
  O  O59  1  0.22621540  0.86412816  0.24242266  1
  O  O60  1  0.42714847  0.62244210  0.32347603  1
  O  O61  1  0.72536027  0.46335486  0.24424813  1
  O  O62  1  0.94973433  0.23201560  0.30044673  1
  O  O63  1  0.07285153  0.57755790  0.67652397  1
  O  O64  1  0.27378460  0.33587184  0.75757734  1
  O  O65  1  0.56164387  0.17433445  0.68900805  1
  O  O66  1  0.27857149  0.98708667  0.18734622  1
  O  O67  1  0.21785995  0.40998699  0.81790069  1
  O  O68  1  0.75893233  0.56247896  0.22990710  1
  O  O69  1  0.72398181  0.01701584  0.80613960  1
  O  O70  1  0.43200222  0.82340498  0.31715642  1
  O  O71  1  0.70561347  0.65154645  0.27895416  1
  O  O72  1  0.94422051  0.42809752  0.30381323  1
  O  O73  1  0.06326803  0.76704821  0.68869438  1
  O  O74  1  0.28951201  0.54411810  0.73609950  1
  O  O75  1  0.56103234  0.37784537  0.68775390  1
  O  O76  1  0.77897955  0.13839092  0.74992414  1
  O  O77  1  0.22406324  0.61170569  0.81108529  1
  O  O78  1  0.78351741  0.79161711  0.18355902  1
  O  O79  1  0.71634859  0.21989399  0.80007467  1
  O  O80  1  0.71282339  0.86019927  0.25704056  1
  O  O81  1  0.93845309  0.62545875  0.31322851  1
  O  O82  1  0.05532027  0.97990659  0.69315059  1
  O  O83  1  0.28552665  0.73513142  0.75119710  1
  O  O84  1  0.56154691  0.57454125  0.68677149  1
  O  O85  1  0.78717661  0.33980073  0.74295944  1
  O  O86  1  0.23496329  0.81706712  0.80518081  1
  O  O87  1  0.78365141  0.98010601  0.19992533  1
  O  O88  1  0.71648259  0.40838289  0.81644098  1
  O  O89  1  0.93896766  0.82215463  0.31224610  1
  O  O90  1  0.27595462  0.93545614  0.75563283  1
  O  O91  1  0.55577949  0.77190248  0.69618677  1
  O  O92  1  0.79438653  0.54845355  0.72104584  1
  O  O93  1  0.74106767  0.63752104  0.77009290  1
  O  O94  1  0.55026567  0.96798440  0.69955327  1
  O  O95  1  0.77463973  0.73664514  0.75575187  1
  O  O96  1  0.70150608  0.81294767  0.81471597  1
  O  O97  1  0.76236895  0.94912510  0.74423244  1
