# generated using pymatgen
data_Li7Mn17O32
_symmetry_space_group_name_H-M   'P 1'
_cell_length_a   23.44720024
_cell_length_b   8.27561217
_cell_length_c   10.28343903
_cell_angle_alpha   66.16314931
_cell_angle_beta   30.99043887
_cell_angle_gamma   45.09823438
_symmetry_Int_Tables_number   1
_chemical_formula_structural   Li7Mn17O32
_chemical_formula_sum   'Li7 Mn17 O32'
_cell_volume   607.24947599
_cell_formula_units_Z   1
loop_
 _symmetry_equiv_pos_site_id
 _symmetry_equiv_pos_as_xyz
  1  'x, y, z'
loop_
 _atom_site_type_symbol
 _atom_site_label
 _atom_site_symmetry_multiplicity
 _atom_site_fract_x
 _atom_site_fract_y
 _atom_site_fract_z
 _atom_site_occupancy
  Li  Li0  1  0.06226525  0.12335826  0.75038819  1
  Li  Li1  1  0.18916611  0.87166779  0.25000000  1
  Li  Li2  1  0.31517003  0.12341011  0.74266869  1
  Li  Li3  1  0.43577788  0.87844424  0.25000000  1
  Li  Li4  1  0.56265344  0.12680437  0.74961181  1
  Li  Li5  1  0.80783872  0.13057237  0.75733131  1
  Li  Li6  1  0.93848856  0.87302289  0.25000000  1
  Mn  Mn7  1  0.13030090  0.99587746  0.98836151  1
  Mn  Mn8  1  0.99947063  0.50033787  0.00536772  1
  Mn  Mn9  1  0.99804311  0.50264172  0.50554859  1
  Mn  Mn10  1  0.37348366  0.00158895  0.00299037  1
  Mn  Mn11  1  0.25359169  0.49408867  0.99445141  1
  Mn  Mn12  1  0.12647402  0.49849569  0.49700963  1
  Mn  Mn13  1  0.24808121  0.50201113  0.50295731  1
  Mn  Mn14  1  0.61841318  0.00674431  0.00938828  1
  Mn  Mn15  1  0.50103853  0.49974939  0.99704269  1
  Mn  Mn16  1  0.37780146  0.50082642  0.49061172  1
  Mn  Mn17  1  0.50292216  0.50059316  0.49133113  1
  Mn  Mn18  1  0.74425328  0.50505595  0.00866887  1
  Mn  Mn19  1  0.87622122  0.00080290  -0.00002335  1
  Mn  Mn20  1  0.62619786  0.49435894  0.50002335  1
  Mn  Mn21  1  0.68923772  0.87152455  0.25000000  1
  Mn  Mn22  1  0.75483835  0.49104417  0.49463228  1
  Mn  Mn23  1  0.86866241  0.50619591  0.51163849  1
  O  O24  1  0.11381650  0.25522647  0.00670621  1
  O  O25  1  0.25389766  0.25221556  0.00606296  1
  O  O26  1  0.12856119  0.26674569  0.48071304  1
  O  O27  1  0.00996062  0.72006787  0.49393704  1
  O  O28  1  0.35927423  0.25758348  0.01928696  1
  O  O29  1  0.21601661  0.29804159  0.55711860  1
  O  O30  1  0.12670550  0.72410323  0.51192838  1
  O  O31  1  0.99344908  0.74421578  0.00186897  1
  O  O32  1  0.50622657  0.24698472  0.00522930  1
  O  O33  1  0.38952433  0.25619587  0.45848794  1
  O  O34  1  0.26145587  0.71765040  0.49477070  1
  O  O35  1  0.59801226  0.26873094  0.04151206  1
  O  O36  1  0.16223038  0.71731718  0.93875862  1
  O  O37  1  0.49650995  0.28011764  0.49038958  1
  O  O38  1  0.38731234  0.71338676  0.48918308  1
  O  O39  1  0.27438980  0.72272031  0.93746066  1
  O  O40  1  0.73435383  0.27326924  0.04223891  1
  O  O41  1  0.61845109  0.27958619  0.49258197  1
  O  O42  1  0.52659274  0.70483764  0.45776109  1
  O  O43  1  0.86103305  0.26144553  0.00741803  1
  O  O44  1  0.38863388  0.74521802  0.98807162  1
  O  O45  1  0.74531805  0.27824996  0.49813103  1
  O  O46  1  0.62578384  0.72685046  0.51552222  1
  O  O47  1  0.52313521  0.72365475  0.94288140  1
  O  O48  1  0.98332997  0.27453704  0.04424092  1
  O  O49  1  0.87052271  0.27609512  0.49329379  1
  O  O50  1  0.77757089  0.70366123  0.45575908  1
  O  O51  1  0.62649542  0.75899773  0.01081692  1
  O  O52  1  0.96185046  0.30479917  0.56253934  1
  O  O53  1  0.85098900  0.75624407  0.56124138  1
  O  O54  1  0.73689954  0.75306338  0.00961042  1
  O  O55  1  0.89130606  0.73896974  0.98447778  1
