# generated using pymatgen
data_ZnH10C4N6(ClO2)2
_symmetry_space_group_name_H-M   'P 1'
_cell_length_a   8.15043564
_cell_length_b   7.36645526
_cell_length_c   11.70835096
_cell_angle_alpha   90.00000000
_cell_angle_beta   124.81239468
_cell_angle_gamma   90.00000000
_symmetry_Int_Tables_number   1
_chemical_formula_structural   ZnH10C4N6(ClO2)2
_chemical_formula_sum   'Zn2 H20 C8 N12 Cl4 O8'
_cell_volume   577.15422170
_cell_formula_units_Z   2
loop_
 _symmetry_equiv_pos_site_id
 _symmetry_equiv_pos_as_xyz
  1  'x, y, z'
loop_
 _atom_site_type_symbol
 _atom_site_label
 _atom_site_symmetry_multiplicity
 _atom_site_fract_x
 _atom_site_fract_y
 _atom_site_fract_z
 _atom_site_occupancy
  Zn  Zn0  1  0.00000000  0.50000000  0.50000000  1
  Zn  Zn1  1  0.00000000  0.00000000  0.00000000  1
  H  H2  1  0.33217399  0.85278578  0.80106123  1
  H  H3  1  0.66782601  0.35278578  0.69893877  1
  H  H4  1  0.66782601  0.14721422  0.19893877  1
  H  H5  1  0.33217399  0.64721422  0.30106123  1
  H  H6  1  0.40003052  0.07170036  0.79029872  1
  H  H7  1  0.59996948  0.57170036  0.70970128  1
  H  H8  1  0.59996948  0.92829964  0.20970128  1
  H  H9  1  0.40003052  0.42829964  0.29029872  1
  H  H10  1  0.11661821  0.59809931  0.98143955  1
  H  H11  1  0.88338179  0.09809931  0.51856045  1
  H  H12  1  0.88338179  0.40190069  0.01856045  1
  H  H13  1  0.11661821  0.90190069  0.48143955  1
  H  H14  1  0.23756512  0.57194308  0.89643658  1
  H  H15  1  0.76243488  0.07194308  0.60356342  1
  H  H16  1  0.76243488  0.42805692  0.10356342  1
  H  H17  1  0.23756512  0.92805692  0.39643658  1
  H  H18  1  0.29927802  0.31045350  0.84985543  1
  H  H19  1  0.70072198  0.81045350  0.65014457  1
  H  H20  1  0.70072198  0.68954650  0.15014457  1
  H  H21  1  0.29927802  0.18954650  0.34985543  1
  C  C22  1  0.23431230  0.04734480  0.87476308  1
  C  C23  1  0.76568770  0.54734480  0.62523692  1
  C  C24  1  0.76568770  0.95265520  0.12523692  1
  C  C25  1  0.23431230  0.45265520  0.37476308  1
  C  C26  1  0.16065802  0.33656410  0.94951735  1
  C  C27  1  0.83934198  0.83656410  0.55048265  1
  C  C28  1  0.83934198  0.66343590  0.05048265  1
  C  C29  1  0.16065802  0.16343590  0.44951735  1
  N  N30  1  0.23944844  0.23467239  0.89190244  1
  N  N31  1  0.76055156  0.73467239  0.60809756  1
  N  N32  1  0.76055156  0.76532761  0.10809756  1
  N  N33  1  0.23944844  0.26532761  0.39190244  1
  N  N34  1  0.32823903  0.98885513  0.81789129  1
  N  N35  1  0.67176097  0.48885513  0.68210871  1
  N  N36  1  0.67176097  0.01114487  0.18210871  1
  N  N37  1  0.32823903  0.51114487  0.31789129  1
  N  N38  1  0.18060719  0.51600580  0.94663065  1
  N  N39  1  0.81939281  0.01600580  0.55336935  1
  N  N40  1  0.81939281  0.48399420  0.05336935  1
  N  N41  1  0.18060719  0.98399420  0.44663065  1
  Cl  Cl42  1  0.32883423  0.55478637  0.74151083  1
  Cl  Cl43  1  0.67116577  0.05478637  0.75848917  1
  Cl  Cl44  1  0.67116577  0.44521363  0.25848917  1
  Cl  Cl45  1  0.32883423  0.94521363  0.24151083  1
  O  O46  1  0.15015195  0.93812230  0.90864166  1
  O  O47  1  0.84984805  0.43812230  0.59135834  1
  O  O48  1  0.84984805  0.06187770  0.09135834  1
  O  O49  1  0.15015195  0.56187770  0.40864166  1
  O  O50  1  0.07749746  0.26822064  0.00354272  1
  O  O51  1  0.92250254  0.76822064  0.49645728  1
  O  O52  1  0.92250254  0.73177936  0.99645728  1
  O  O53  1  0.07749746  0.23177936  0.50354272  1
