# generated using pymatgen
data_NaSr3NdTi5O15
_symmetry_space_group_name_H-M   'P 1'
_cell_length_a   5.51524720
_cell_length_b   5.51524689
_cell_length_c   27.78987284
_cell_angle_alpha   119.78043543
_cell_angle_beta   119.78043350
_cell_angle_gamma   89.99996656
_symmetry_Int_Tables_number   1
_chemical_formula_structural   NaSr3NdTi5O15
_chemical_formula_sum   'Na2 Sr6 Nd2 Ti10 O30'
_cell_volume   601.67082485
_cell_formula_units_Z   2
loop_
 _symmetry_equiv_pos_site_id
 _symmetry_equiv_pos_as_xyz
  1  'x, y, z'
loop_
 _atom_site_type_symbol
 _atom_site_label
 _atom_site_symmetry_multiplicity
 _atom_site_fract_x
 _atom_site_fract_y
 _atom_site_fract_z
 _atom_site_occupancy
  Na  Na0  1  0.74673928  0.24673928  0.89870289  1
  Na  Na1  1  0.75327442  0.25327442  0.70130404  1
  Sr  Sr2  1  0.25387069  0.75387069  0.50154949  1
  Sr  Sr3  1  0.25006462  0.75006462  0.30000616  1
  Sr  Sr4  1  0.75312026  0.25312026  0.50124678  1
  Sr  Sr5  1  0.24614501  0.74614501  0.09844254  1
  Sr  Sr6  1  0.74996406  0.24996406  0.29999845  1
  Sr  Sr7  1  0.74688110  0.24688110  0.09875773  1
  Nd  Nd8  1  0.24704870  0.74704870  0.89881959  1
  Nd  Nd9  1  0.25304172  0.75304172  0.70119354  1
  Ti  Ti10  1  -0.00006077  0.00003088  0.79999622  1
  Ti  Ti11  1  0.50003088  0.49993923  0.79999622  1
  Ti  Ti12  1  0.00206164  0.00206767  0.40082708  1
  Ti  Ti13  1  0.50693348  0.50690539  0.60276696  1
  Ti  Ti14  1  0.99794850  0.99795312  0.19917258  1
  Ti  Ti15  1  0.50206767  0.50206164  0.40082708  1
  Ti  Ti16  1  0.00690539  0.00693348  0.60276696  1
  Ti  Ti17  1  0.99305834  0.99308836  0.99723260  1
  Ti  Ti18  1  0.49795312  0.49794850  0.19917258  1
  Ti  Ti19  1  0.49308836  0.49305834  0.99723260  1
  O  O20  1  0.24669286  0.24673167  0.89868325  1
  O  O21  1  0.21068533  0.30750822  0.80363176  1
  O  O22  1  0.28930772  0.78930772  0.79635775  1
  O  O23  1  0.25328415  0.25319274  0.70131649  1
  O  O24  1  0.74673167  0.74669286  0.89868325  1
  O  O25  1  0.22198975  0.30208116  0.60480630  1
  O  O26  1  0.69250702  0.19250702  0.79636955  1
  O  O27  1  0.28222391  0.78222391  0.60147555  1
  O  O28  1  0.80750822  0.71068533  0.80363176  1
  O  O29  1  0.25404387  0.25404662  0.50162560  1
  O  O30  1  0.75319274  0.75328415  0.70131649  1
  O  O31  1  0.23008122  0.27633206  0.40128188  1
  O  O32  1  0.72503891  0.22503891  0.60145394  1
  O  O33  1  0.27473488  0.77473488  0.40054103  1
  O  O34  1  0.80208116  0.72198975  0.60480630  1
  O  O35  1  0.25002976  0.24998382  0.29999955  1
  O  O36  1  0.75404662  0.75404387  0.50162560  1
  O  O37  1  0.22530511  0.27205838  0.19947146  1
  O  O38  1  0.72791778  0.22791778  0.40051404  1
  O  O39  1  0.26990409  0.76990409  0.19871529  1
  O  O40  1  0.77633206  0.73008122  0.40128188  1
  O  O41  1  0.24591270  0.24594893  0.09837226  1
  O  O42  1  0.74998382  0.75002976  0.29999955  1
  O  O43  1  0.21775994  0.27490910  0.99853935  1
  O  O44  1  0.72367088  0.22367088  0.19871934  1
  O  O45  1  0.27805658  0.77805658  0.99519643  1
  O  O46  1  0.77205838  0.72530511  0.19947146  1
  O  O47  1  0.74594893  0.74591270  0.09837226  1
  O  O48  1  0.69792438  0.19792438  0.99518915  1
  O  O49  1  0.77490910  0.71775994  0.99853935  1
