# generated using pymatgen
data_Sn(WO3)18
_symmetry_space_group_name_H-M   'P 1'
_cell_length_a   7.50824892
_cell_length_b   15.01905920
_cell_length_c   23.17489697
_cell_angle_alpha   90.00000000
_cell_angle_beta   90.00000000
_cell_angle_gamma   119.99435871
_symmetry_Int_Tables_number   1
_chemical_formula_structural   Sn(WO3)18
_chemical_formula_sum   'Sn2 W36 O108'
_cell_volume   2263.36460560
_cell_formula_units_Z   2
loop_
 _symmetry_equiv_pos_site_id
 _symmetry_equiv_pos_as_xyz
  1  'x, y, z'
loop_
 _atom_site_type_symbol
 _atom_site_label
 _atom_site_symmetry_multiplicity
 _atom_site_fract_x
 _atom_site_fract_y
 _atom_site_fract_z
 _atom_site_occupancy
  Sn  Sn0  1  0.00000000  0.00000000  0.66605816  1
  Sn  Sn1  1  0.00000000  0.50000000  0.83394184  1
  W  W2  1  0.50031946  0.75026634  0.00118890  1
  W  W3  1  0.49995629  0.74997172  0.33286443  1
  W  W4  1  0.50004371  0.75002828  0.16713557  1
  W  W5  1  0.49968054  0.74973366  0.49881110  1
  W  W6  1  0.49840027  0.74824946  0.66600843  1
  W  W7  1  0.50159973  0.75175054  0.83399157  1
  W  W8  1  0.50000000  0.50000000  0.00120061  1
  W  W9  1  0.50000000  0.50000000  0.16693566  1
  W  W10  1  0.50000000  0.50000000  0.49876207  1
  W  W11  1  0.50000000  0.50000000  0.33264922  1
  W  W12  1  0.50000000  0.50000000  0.66570302  1
  W  W13  1  0.50000000  0.50000000  0.83370229  1
  W  W14  1  0.00021321  0.75026634  0.00118890  1
  W  W15  1  -0.00001286  0.74997172  0.33286443  1
  W  W16  1  0.00001286  0.75002828  0.16713557  1
  W  W17  1  0.49968054  0.24973366  0.00118890  1
  W  W18  1  0.49995629  0.24997172  0.16713557  1
  W  W19  1  0.50031946  0.25026634  0.49881110  1
  W  W20  1  0.50004371  0.25002828  0.33286443  1
  W  W21  1  0.99978679  0.74973366  0.49881110  1
  W  W22  1  0.99809865  0.74824946  0.66600843  1
  W  W23  1  0.49840027  0.24824946  0.83399157  1
  W  W24  1  0.00190135  0.75175054  0.83399157  1
  W  W25  1  0.50159973  0.25175054  0.66600843  1
  W  W26  1  0.50000000  0.00000000  0.00123793  1
  W  W27  1  0.50000000  0.00000000  0.16735078  1
  W  W28  1  0.50000000  0.00000000  0.33306434  1
  W  W29  1  0.50000000  0.00000000  0.49879939  1
  W  W30  1  0.50000000  0.00000000  0.66629771  1
  W  W31  1  0.50000000  0.00000000  0.83429698  1
  W  W32  1  0.99978679  0.24973366  0.00118890  1
  W  W33  1  -0.00001286  0.24997172  0.16713557  1
  W  W34  1  0.00001286  0.25002828  0.33286443  1
  W  W35  1  0.00021321  0.25026634  0.49881110  1
  W  W36  1  0.00190135  0.25175054  0.66600843  1
  W  W37  1  0.99809865  0.24824946  0.83399157  1
  O  O38  1  0.99968449  0.75009215  0.08304300  1
  O  O39  1  0.00031551  0.74990785  0.41695700  1
  O  O40  1  0.00000000  0.75000000  0.25000000  1
  O  O41  1  0.00000000  0.75000000  0.75000000  1
  O  O42  1  0.99911433  0.75037305  0.58451517  1
  O  O43  1  0.00088567  0.74962695  0.91548483  1
  O  O44  1  0.21388569  0.89300033  0.99911826  1
  O  O45  1  0.21396615  0.89303532  0.16648965  1
  O  O46  1  0.21394205  0.89307850  0.33356058  1
  O  O47  1  0.21364005  0.89332124  0.50069569  1
  O  O48  1  0.20566133  0.89875209  0.66718886  1
  O  O49  1  0.21183133  0.89255064  0.83276045  1
  O  O50  1  0.21355980  0.71355980  0.99920944  1
  O  O51  1  0.50000000  0.00000000  0.74982945  1
  O  O52  1  0.21394656  0.71394656  0.33348250  1
  O  O53  1  0.50000000  0.00000000  0.91549485  1
  O  O54  1  0.21402395  0.71402395  0.16640089  1
  O  O55  1  0.21968881  0.71968881  0.66730996  1
  O  O56  1  0.21404824  0.71404824  0.50094829  1
  O  O57  1  0.19998726  0.69998726  0.83266324  1
  O  O58  1  0.57211498  0.89300033  0.99911826  1
  O  O59  1  0.57210449  0.89303532  0.16648965  1
  O  O60  1  0.57221495  0.89307850  0.33356058  1
  O  O61  1  0.57300242  0.89332124  0.50069569  1
  O  O62  1  0.59184285  0.89875209  0.66718886  1
  O  O63  1  0.57326995  0.89255064  0.83276045  1
  O  O64  1  0.50049981  0.75009215  0.08304300  1
  O  O65  1  0.49950019  0.74990785  0.41695700  1
  O  O66  1  0.50163176  0.75037305  0.58451517  1
  O  O67  1  0.50000000  0.75000000  0.25000000  1
  O  O68  1  0.50000000  0.75000000  0.75000000  1
  O  O69  1  0.00031551  0.24990785  0.08304300  1
  O  O70  1  0.00000000  0.25000000  0.25000000  1
  O  O71  1  0.49836824  0.74962695  0.91548483  1
  O  O72  1  0.99968449  0.25009215  0.41695700  1
  O  O73  1  0.00088567  0.24962695  0.58451517  1
  O  O74  1  0.00000000  0.25000000  0.75000000  1
  O  O75  1  0.99911433  0.25037305  0.91548483  1
  O  O76  1  0.21364005  0.39332124  0.99930431  1
  O  O77  1  0.21394205  0.39307850  0.16643942  1
  O  O78  1  0.21396615  0.39303532  0.33351035  1
  O  O79  1  0.42699758  0.60667876  0.99930431  1
  O  O80  1  0.21183133  0.39255064  0.66723955  1
  O  O81  1  0.21388569  0.39300033  0.50088174  1
  O  O82  1  0.42778505  0.60692150  0.16643942  1
  O  O83  1  0.42673005  0.60744936  0.66723955  1
  O  O84  1  0.42789551  0.60696468  0.33351035  1
  O  O85  1  0.42788502  0.60699967  0.50088174  1
  O  O86  1  0.20566133  0.39875209  0.83281114  1
  O  O87  1  0.40815715  0.60124791  0.83281114  1
  O  O88  1  0.78605344  0.78605344  0.16651750  1
  O  O89  1  0.78595176  0.78595176  0.99905171  1
  O  O90  1  0.78597605  0.78597605  0.33359911  1
  O  O91  1  0.50000000  0.50000000  0.24985795  1
  O  O92  1  0.78644020  0.78644020  0.50079056  1
  O  O93  1  0.50000000  0.50000000  0.08298894  1
  O  O94  1  0.50000000  0.50000000  0.58450515  1
  O  O95  1  0.80001274  0.80001274  0.66733676  1
  O  O96  1  0.78031119  0.78031119  0.83269004  1
  O  O97  1  0.50000000  0.50000000  0.41697850  1
  O  O98  1  0.50000000  0.50000000  0.75017055  1
  O  O99  1  0.50000000  0.50000000  0.91542225  1
  O  O100  1  0.21404824  0.21404824  0.99905171  1
  O  O101  1  0.21394656  0.21394656  0.16651750  1
  O  O102  1  0.21402395  0.21402395  0.33359911  1
  O  O103  1  0.21355980  0.21355980  0.50079056  1
  O  O104  1  0.19998726  0.19998726  0.66733676  1
  O  O105  1  0.21968881  0.21968881  0.83269004  1
  O  O106  1  0.57300242  0.39332124  0.99930431  1
  O  O107  1  0.57221495  0.39307850  0.16643942  1
  O  O108  1  0.78635995  0.60667876  0.99930431  1
  O  O109  1  0.57210449  0.39303532  0.33351035  1
  O  O110  1  0.57211498  0.39300033  0.50088174  1
  O  O111  1  0.57326995  0.39255064  0.66723955  1
  O  O112  1  0.78603385  0.60696468  0.33351035  1
  O  O113  1  0.78816867  0.60744936  0.66723955  1
  O  O114  1  0.78605795  0.60692150  0.16643942  1
  O  O115  1  0.59184285  0.39875209  0.83281114  1
  O  O116  1  0.78611431  0.60699967  0.50088174  1
  O  O117  1  0.79433867  0.60124791  0.83281114  1
  O  O118  1  0.49950019  0.24990785  0.08304300  1
  O  O119  1  0.50000000  0.25000000  0.25000000  1
  O  O120  1  0.49836824  0.24962695  0.58451517  1
  O  O121  1  0.50049981  0.25009215  0.41695700  1
  O  O122  1  0.50163176  0.25037305  0.91548483  1
  O  O123  1  0.50000000  0.25000000  0.75000000  1
  O  O124  1  0.42788502  0.10699967  0.99911826  1
  O  O125  1  0.42789551  0.10696468  0.16648965  1
  O  O126  1  0.42778505  0.10692150  0.33356058  1
  O  O127  1  0.42699758  0.10667876  0.50069569  1
  O  O128  1  0.40815715  0.10124791  0.66718886  1
  O  O129  1  0.42673005  0.10744936  0.83276045  1
  O  O130  1  0.78644020  0.28644020  0.99920944  1
  O  O131  1  0.78597605  0.28597605  0.16640089  1
  O  O132  1  0.78605344  0.28605344  0.33348250  1
  O  O133  1  0.78595176  0.28595176  0.50094829  1
  O  O134  1  0.50000000  0.00000000  0.08302150  1
  O  O135  1  0.78031119  0.28031119  0.66730996  1
  O  O136  1  0.50000000  0.00000000  0.25014205  1
  O  O137  1  0.50000000  0.00000000  0.41701106  1
  O  O138  1  0.80001274  0.30001274  0.83266324  1
  O  O139  1  0.50000000  0.00000000  0.58457775  1
  O  O140  1  0.78611431  0.10699967  0.99911826  1
  O  O141  1  0.78603385  0.10696468  0.16648965  1
  O  O142  1  0.78605795  0.10692150  0.33356058  1
  O  O143  1  0.78635995  0.10667876  0.50069569  1
  O  O144  1  0.79433867  0.10124791  0.66718886  1
  O  O145  1  0.78816867  0.10744936  0.83276045  1
