# generated using pymatgen
data_UAg2(WO5)2
_symmetry_space_group_name_H-M   'P 1'
_cell_length_a   7.64165650
_cell_length_b   8.60736747
_cell_length_c   13.14905978
_cell_angle_alpha   95.23645223
_cell_angle_beta   90.00000000
_cell_angle_gamma   90.00000000
_symmetry_Int_Tables_number   1
_chemical_formula_structural   UAg2(WO5)2
_chemical_formula_sum   'U4 Ag8 W8 O40'
_cell_volume   861.26391375
_cell_formula_units_Z   4
loop_
 _symmetry_equiv_pos_site_id
 _symmetry_equiv_pos_as_xyz
  1  'x, y, z'
loop_
 _atom_site_type_symbol
 _atom_site_label
 _atom_site_symmetry_multiplicity
 _atom_site_fract_x
 _atom_site_fract_y
 _atom_site_fract_z
 _atom_site_occupancy
  U  U0  1  0.12092070  0.02526301  0.75186082  1
  U  U1  1  0.37907930  0.02526301  0.25186082  1
  U  U2  1  0.62092070  0.97473699  0.74813918  1
  U  U3  1  0.87907930  0.97473699  0.24813918  1
  Ag  Ag4  1  0.11698107  0.19576667  0.04839786  1
  Ag  Ag5  1  0.61698107  0.80423333  0.45160214  1
  Ag  Ag6  1  0.13088373  0.80177292  0.46131765  1
  Ag  Ag7  1  0.38301893  0.19576667  0.54839786  1
  Ag  Ag8  1  0.63088373  0.19822708  0.03868235  1
  Ag  Ag9  1  0.36911627  0.80177292  0.96131765  1
  Ag  Ag10  1  0.86911627  0.19822708  0.53868235  1
  Ag  Ag11  1  0.88301893  0.80423333  0.95160214  1
  W  W12  1  0.12879372  0.63143170  0.16853877  1
  W  W13  1  0.87120628  0.36856830  0.83146123  1
  W  W14  1  0.13007544  0.37011822  0.33361472  1
  W  W15  1  0.37120628  0.63143170  0.66853877  1
  W  W16  1  0.36992456  0.37011822  0.83361472  1
  W  W17  1  0.86992456  0.62988178  0.66638528  1
  W  W18  1  0.63007544  0.62988178  0.16638528  1
  W  W19  1  0.62879372  0.36856830  0.33146123  1
  O  O20  1  0.62126928  0.68543000  0.70185799  1
  O  O21  1  0.88920030  0.33218520  0.96297957  1
  O  O22  1  0.87731707  0.99541480  0.10783166  1
  O  O23  1  0.59667766  0.58319123  0.33034350  1
  O  O24  1  0.61820926  0.95961547  0.88994824  1
  O  O25  1  0.87873072  0.68543000  0.20185799  1
  O  O26  1  0.90332234  0.58319123  0.83034350  1
  O  O27  1  0.84578179  0.14765156  0.76815123  1
  O  O28  1  0.84023832  0.41388124  0.66543849  1
  O  O29  1  0.12268293  0.00458520  0.89216834  1
  O  O30  1  0.89630297  0.85101973  0.73165219  1
  O  O31  1  0.61079970  0.33218520  0.46297957  1
  O  O32  1  0.10369703  0.14898027  0.26834781  1
  O  O33  1  0.62268293  0.99541480  0.60783166  1
  O  O34  1  0.39630297  0.14898027  0.76834781  1
  O  O35  1  0.62082146  0.37624038  0.83434259  1
  O  O36  1  0.87917854  0.37624038  0.33434259  1
  O  O37  1  0.38920030  0.66781480  0.53702043  1
  O  O38  1  0.60369703  0.85101973  0.23165219  1
  O  O39  1  0.35184473  0.33419699  0.96490109  1
  O  O40  1  0.65976168  0.41388124  0.16543849  1
  O  O41  1  0.12126928  0.31457000  0.79814201  1
  O  O42  1  0.37873072  0.31457000  0.29814201  1
  O  O43  1  0.09667766  0.41680877  0.16965650  1
  O  O44  1  0.15976168  0.58611876  0.33456151  1
  O  O45  1  0.65421821  0.14765156  0.26815123  1
  O  O46  1  0.38179074  0.04038453  0.11005176  1
  O  O47  1  0.11820926  0.04038453  0.61005176  1
  O  O48  1  0.12082146  0.62375962  0.66565741  1
  O  O49  1  0.37917854  0.62375962  0.16565741  1
  O  O50  1  0.11079970  0.66781480  0.03702043  1
  O  O51  1  0.15421821  0.85234844  0.23184877  1
  O  O52  1  0.88179074  0.95961547  0.38994824  1
  O  O53  1  0.85184473  0.66580301  0.53509891  1
  O  O54  1  0.37731707  0.00458520  0.39216834  1
  O  O55  1  0.34578179  0.85234844  0.73184877  1
  O  O56  1  0.14815527  0.33419699  0.46490109  1
  O  O57  1  0.64815527  0.66580301  0.03509891  1
  O  O58  1  0.40332234  0.41680877  0.66965650  1
  O  O59  1  0.34023832  0.58611876  0.83456151  1
