# generated using pymatgen
data_Co6P7O24
_symmetry_space_group_name_H-M   'P 1'
_cell_length_a   5.26233248
_cell_length_b   26.54635742
_cell_length_c   6.42372977
_cell_angle_alpha   90.00000000
_cell_angle_beta   106.87607675
_cell_angle_gamma   90.00000000
_symmetry_Int_Tables_number   1
_chemical_formula_structural   Co6P7O24
_chemical_formula_sum   'Co12 P14 O48'
_cell_volume   858.72255327
_cell_formula_units_Z   2
loop_
 _symmetry_equiv_pos_site_id
 _symmetry_equiv_pos_as_xyz
  1  'x, y, z'
loop_
 _atom_site_type_symbol
 _atom_site_label
 _atom_site_symmetry_multiplicity
 _atom_site_fract_x
 _atom_site_fract_y
 _atom_site_fract_z
 _atom_site_occupancy
  Co  Co0  1  0.12190832  0.68584253  0.28314703  1
  Co  Co1  1  0.79396199  0.59885280  0.91170874  1
  Co  Co2  1  0.18260312  0.95398862  0.68530468  1
  Co  Co3  1  0.87809168  0.18584253  0.71685297  1
  Co  Co4  1  0.79396199  0.90114720  0.91170874  1
  Co  Co5  1  0.20603801  0.40114720  0.08829126  1
  Co  Co6  1  0.20603801  0.09885280  0.08829126  1
  Co  Co7  1  0.81739688  0.04601138  0.31469532  1
  Co  Co8  1  0.81739688  0.45398862  0.31469532  1
  Co  Co9  1  0.12190832  0.81415747  0.28314703  1
  Co  Co10  1  0.87809168  0.31415747  0.71685297  1
  Co  Co11  1  0.18260312  0.54601138  0.68530468  1
  P  P12  1  0.71096453  0.47665510  0.79575556  1
  P  P13  1  0.24709834  0.66759705  0.80650704  1
  P  P14  1  0.32048031  0.38959048  0.61640723  1
  P  P15  1  0.28903547  0.97665510  0.20424444  1
  P  P16  1  0.24709834  0.83240295  0.80650704  1
  P  P17  1  0.28903547  0.52334490  0.20424444  1
  P  P18  1  0.67951969  0.61040952  0.38359277  1
  P  P19  1  0.71096453  0.02334490  0.79575556  1
  P  P20  1  0.53974961  0.75000000  0.09748714  1
  P  P21  1  0.46025039  0.25000000  0.90251286  1
  P  P22  1  0.75290166  0.16759705  0.19349296  1
  P  P23  1  0.32048031  0.11040952  0.61640723  1
  P  P24  1  0.67951969  0.88959048  0.38359277  1
  P  P25  1  0.75290166  0.33240295  0.19349296  1
  O  O26  1  0.52737419  0.14936086  0.61555699  1
  O  O27  1  0.86485726  0.02047659  0.62715678  1
  O  O28  1  0.11780136  0.69253982  0.59095186  1
  O  O29  1  0.11780136  0.80746018  0.59095186  1
  O  O30  1  0.50629896  0.20276026  0.05898436  1
  O  O31  1  0.60406313  0.38200646  0.20738178  1
  O  O32  1  0.06189152  0.83707925  0.95372141  1
  O  O33  1  0.33449618  0.75000000  0.22415303  1
  O  O34  1  0.52737419  0.35063914  0.61555699  1
  O  O35  1  0.87858370  0.04785608  0.00902782  1
  O  O36  1  0.06189152  0.66292075  0.95372141  1
  O  O37  1  0.13514274  0.97952341  0.37284322  1
  O  O38  1  0.86485726  0.47952341  0.62715678  1
  O  O39  1  0.58393496  0.97267516  0.82886959  1
  O  O40  1  0.41606504  0.47267516  0.17113041  1
  O  O41  1  0.54677176  0.55746585  0.29303588  1
  O  O42  1  0.13514274  0.52047659  0.37284322  1
  O  O43  1  0.16700594  0.25000000  0.78097885  1
  O  O44  1  0.85827286  0.90443422  0.61133869  1
  O  O45  1  0.85070484  0.62348146  0.23199595  1
  O  O46  1  0.88219864  0.30746018  0.40904814  1
  O  O47  1  0.66550382  0.25000000  0.77584697  1
  O  O48  1  0.49370104  0.79723974  0.94101564  1
  O  O49  1  0.14929516  0.12348146  0.76800405  1
  O  O50  1  0.47262581  0.64936086  0.38444301  1
  O  O51  1  0.54677176  0.94253415  0.29303588  1
  O  O52  1  0.45322824  0.44253415  0.70696412  1
  O  O53  1  0.87858370  0.45214392  0.00902782  1
  O  O54  1  0.58393496  0.52732484  0.82886959  1
  O  O55  1  0.39593687  0.88200646  0.79261822  1
  O  O56  1  0.49370104  0.70276026  0.94101564  1
  O  O57  1  0.60406313  0.11799354  0.20738178  1
  O  O58  1  0.93810848  0.33707925  0.04627859  1
  O  O59  1  0.93810848  0.16292075  0.04627859  1
  O  O60  1  0.14172714  0.40443422  0.38866131  1
  O  O61  1  0.41606504  0.02732484  0.17113041  1
  O  O62  1  0.39593687  0.61799354  0.79261822  1
  O  O63  1  0.88219864  0.19253982  0.40904814  1
  O  O64  1  0.12141630  0.54785608  0.99097218  1
  O  O65  1  0.50629896  0.29723974  0.05898436  1
  O  O66  1  0.12141630  0.95214392  0.99097218  1
  O  O67  1  0.83299406  0.75000000  0.21902115  1
  O  O68  1  0.47262581  0.85063914  0.38444301  1
  O  O69  1  0.14929516  0.37651854  0.76800405  1
  O  O70  1  0.45322824  0.05746585  0.70696412  1
  O  O71  1  0.85827286  0.59556578  0.61133869  1
  O  O72  1  0.85070484  0.87651854  0.23199595  1
  O  O73  1  0.14172714  0.09556578  0.38866131  1
