# generated using pymatgen
data_Al2Si2H4O9
_symmetry_space_group_name_H-M   'P 1'
_cell_length_a   5.22145871
_cell_length_b   5.22145871
_cell_length_c   14.65751877
_cell_angle_alpha   86.89834444
_cell_angle_beta   93.10165556
_cell_angle_gamma   60.01853854
_symmetry_Int_Tables_number   1
_chemical_formula_structural   Al2Si2H4O9
_chemical_formula_sum   'Al4 Si4 H8 O18'
_cell_volume   344.11167324
_cell_formula_units_Z   2
loop_
 _symmetry_equiv_pos_site_id
 _symmetry_equiv_pos_as_xyz
  1  'x, y, z'
loop_
 _atom_site_type_symbol
 _atom_site_label
 _atom_site_symmetry_multiplicity
 _atom_site_fract_x
 _atom_site_fract_y
 _atom_site_fract_z
 _atom_site_occupancy
  Al  Al0  1  0.66036946  0.82842266  0.73215885  1
  Al  Al1  1  0.17157734  0.33963054  0.23215885  1
  Al  Al2  1  0.00122247  0.16010870  0.72742788  1
  Al  Al3  1  0.83989130  0.99877753  0.22742788  1
  Si  Si4  1  0.61118528  0.58578524  0.54014479  1
  Si  Si5  1  0.41421476  0.38881472  0.04014479  1
  Si  Si6  1  0.92490035  0.92825229  0.53937844  1
  Si  Si7  1  0.07174771  0.07509965  0.03937844  1
  H  H8  1  0.31549845  0.31841157  0.65391297  1
  H  H9  1  0.68158843  0.68450155  0.15391297  1
  H  H10  1  0.03602163  0.44111614  0.85758010  1
  H  H11  1  0.55888386  0.96397837  0.35758010  1
  H  H12  1  0.34973691  0.74883414  0.85129237  1
  H  H13  1  0.25116586  0.65026309  0.35129237  1
  H  H14  1  0.70447352  0.13957232  0.85541431  1
  H  H15  1  0.86042768  0.29552648  0.35541431  1
  O  O16  1  0.71917895  0.80396191  0.49249030  1
  O  O17  1  0.19603809  0.28082105  0.99249030  1
  O  O18  1  0.78501117  0.27064428  0.49253908  1
  O  O19  1  0.72935572  0.21498883  0.99253908  1
  O  O20  1  0.25841365  0.72877358  0.50606525  1
  O  O21  1  0.27122642  0.74158635  0.00606525  1
  O  O22  1  0.69044519  0.52719762  0.65020567  1
  O  O23  1  0.47280238  0.30955481  0.15020567  1
  O  O24  1  0.92162857  0.91193493  0.64969544  1
  O  O25  1  0.08806507  0.07837143  0.14969544  1
  O  O26  1  0.31381444  0.13279277  0.65611324  1
  O  O27  1  0.86720723  0.68618556  0.15611324  1
  O  O28  1  0.96567809  0.47515231  0.79275665  1
  O  O29  1  0.52484769  0.03432191  0.29275665  1
  O  O30  1  0.34719558  0.86315008  0.79702700  1
  O  O31  1  0.13684992  0.65280442  0.29702700  1
  O  O32  1  0.73959564  0.09105881  0.79266766  1
  O  O33  1  0.90894119  0.26040436  0.29266766  1
