# generated using pymatgen
data_Ba3As2H14S8O7
_symmetry_space_group_name_H-M   'P 1'
_cell_length_a   12.75455474
_cell_length_b   12.90625201
_cell_length_c   12.91236118
_cell_angle_alpha   90.00000000
_cell_angle_beta   98.16475206
_cell_angle_gamma   90.00000000
_symmetry_Int_Tables_number   1
_chemical_formula_structural   Ba3As2H14S8O7
_chemical_formula_sum   'Ba12 As8 H56 S32 O28'
_cell_volume   2104.00392309
_cell_formula_units_Z   4
loop_
 _symmetry_equiv_pos_site_id
 _symmetry_equiv_pos_as_xyz
  1  'x, y, z'
loop_
 _atom_site_type_symbol
 _atom_site_label
 _atom_site_symmetry_multiplicity
 _atom_site_fract_x
 _atom_site_fract_y
 _atom_site_fract_z
 _atom_site_occupancy
  Ba  Ba0  1  0.33349812  0.76372433  0.37667985  1
  Ba  Ba1  1  0.83349812  0.73627567  0.87667985  1
  Ba  Ba2  1  0.66650188  0.23627567  0.62332015  1
  Ba  Ba3  1  0.16650188  0.26372433  0.12332015  1
  Ba  Ba4  1  0.25891543  0.61956459  0.93272785  1
  Ba  Ba5  1  0.75891543  0.88043541  0.43272785  1
  Ba  Ba6  1  0.74108457  0.38043541  0.06727215  1
  Ba  Ba7  1  0.24108457  0.11956459  0.56727215  1
  Ba  Ba8  1  0.20895701  0.97702315  0.90319953  1
  Ba  Ba9  1  0.70895701  0.52297685  0.40319953  1
  Ba  Ba10  1  0.79104299  0.02297685  0.09680047  1
  Ba  Ba11  1  0.29104299  0.47702315  0.59680047  1
  As  As12  1  0.10131983  0.74685405  0.63697146  1
  As  As13  1  0.60131983  0.75314595  0.13697146  1
  As  As14  1  0.89868017  0.25314595  0.36302854  1
  As  As15  1  0.39868017  0.24685405  0.86302854  1
  As  As16  1  0.08801930  0.75848823  0.12563686  1
  As  As17  1  0.58801930  0.74151177  0.62563686  1
  As  As18  1  0.91198070  0.24151177  0.87436314  1
  As  As19  1  0.41198070  0.25848823  0.37436314  1
  H  H20  1  0.40499761  0.50755524  0.31934681  1
  H  H21  1  0.90499761  0.99244476  0.81934681  1
  H  H22  1  0.59500239  0.49244476  0.68065319  1
  H  H23  1  0.09500239  0.00755524  0.18065319  1
  H  H24  1  0.43684356  0.59306994  0.24489135  1
  H  H25  1  0.93684356  0.90693006  0.74489135  1
  H  H26  1  0.56315644  0.40693006  0.75510865  1
  H  H27  1  0.06315644  0.09306994  0.25510865  1
  H  H28  1  0.41843665  0.00431321  0.32784526  1
  H  H29  1  0.91843665  0.49568679  0.82784526  1
  H  H30  1  0.58156335  0.99568679  0.67215474  1
  H  H31  1  0.08156335  0.50431321  0.17215474  1
  H  H32  1  0.43639836  0.93298447  0.23037910  1
  H  H33  1  0.93639836  0.56701553  0.73037910  1
  H  H34  1  0.56360164  0.06701553  0.76962090  1
  H  H35  1  0.06360164  0.43298447  0.26962090  1
  H  H36  1  0.34819058  0.41899381  0.06003932  1
  H  H37  1  0.84819058  0.08100619  0.56003932  1
  H  H38  1  0.65180942  0.58100619  0.93996068  1
  H  H39  1  0.15180942  0.91899381  0.43996068  1
  H  H40  1  0.30638311  0.48665621  0.14662231  1
  H  H41  1  0.80638311  0.01334379  0.64662231  1
  H  H42  1  0.69361689  0.51334379  0.85337769  1
  H  H43  1  0.19361689  0.98665621  0.35337769  1
  H  H44  1  0.35304600  0.09936938  0.08685660  1
  H  H45  1  0.85304600  0.40063062  0.58685660  1
  H  H46  1  0.64695400  0.90063062  0.91314340  1
  H  H47  1  0.14695400  0.59936938  0.41314340  1
  H  H48  1  0.30014747  0.02760414  0.16009701  1
  H  H49  1  0.80014747  0.47239586  0.66009701  1
  H  H50  1  0.69985253  0.97239586  0.83990299  1
  H  H51  1  0.19985253  0.52760414  0.33990299  1
  H  H52  1  0.43461725  0.49475868  0.83560607  1
  H  H53  1  0.93461725  0.00524132  0.33560607  1
  H  H54  1  0.56538275  0.50524132  0.16439393  1
  H  H55  1  0.06538275  0.99475868  0.66439393  1
  H  H56  1  0.45560180  0.60368539  0.78253397  1
  H  H57  1  0.95560180  0.89631461  0.28253397  1
  H  H58  1  0.54439820  0.39631461  0.21746603  1
  H  H59  1  0.04439820  0.10368539  0.71746603  1
  H  H60  1  0.39404826  0.99204287  0.75752881  1
  H  H61  1  0.89404826  0.50795713  0.25752881  1
  H  H62  1  0.60595174  0.00795713  0.24247119  1
  H  H63  1  0.10595174  0.49204287  0.74247119  1
  H  H64  1  0.33304760  0.90170446  0.68746302  1
  H  H65  1  0.83304760  0.59829554  0.18746302  1
  H  H66  1  0.66695240  0.09829554  0.31253698  1
  H  H67  1  0.16695240  0.40170446  0.81253698  1
  H  H68  1  0.41168908  0.82635695  0.95881819  1
  H  H69  1  0.91168908  0.67364305  0.45881819  1
  H  H70  1  0.58831092  0.17364305  0.04118181  1
  H  H71  1  0.08831092  0.32635695  0.54118181  1
  H  H72  1  0.40347458  0.79834902  0.84098174  1
  H  H73  1  0.90347458  0.70165098  0.34098174  1
  H  H74  1  0.59652542  0.20165098  0.15901826  1
  H  H75  1  0.09652542  0.29834902  0.65901826  1
  S  S76  1  0.27055072  0.74009501  0.62463024  1
  S  S77  1  0.77055072  0.75990499  0.12463024  1
  S  S78  1  0.72944928  0.25990499  0.37536976  1
  S  S79  1  0.22944928  0.24009501  0.87536976  1
  S  S80  1  0.07685730  0.77087961  0.80087821  1
  S  S81  1  0.57685730  0.72912039  0.30087821  1
  S  S82  1  0.92314270  0.22912039  0.19912179  1
  S  S83  1  0.42314270  0.27087961  0.69912179  1
  S  S84  1  0.03244548  0.59636121  0.58505628  1
  S  S85  1  0.53244548  0.90363879  0.08505628  1
  S  S86  1  0.96755452  0.40363879  0.41494372  1
  S  S87  1  0.46755452  0.09636121  0.91494372  1
  S  S88  1  0.02330773  0.87593375  0.54582226  1
  S  S89  1  0.52330773  0.62406625  0.04582226  1
  S  S90  1  0.97669227  0.12406625  0.45417774  1
  S  S91  1  0.47669227  0.37593375  0.95417774  1
  S  S92  1  0.25664537  0.78139891  0.11835097  1
  S  S93  1  0.75664537  0.71860109  0.61835097  1
  S  S94  1  0.74335463  0.21860109  0.88164903  1
  S  S95  1  0.24335463  0.28139891  0.38164903  1
  S  S96  1  0.06202765  0.75910018  0.28948096  1
  S  S97  1  0.56202765  0.74089982  0.78948096  1
  S  S98  1  0.93797235  0.24089982  0.71051904  1
  S  S99  1  0.43797235  0.25910018  0.21051904  1
  S  S100  1  0.03103682  0.61692254  0.04266853  1
  S  S101  1  0.53103682  0.88307746  0.54266853  1
  S  S102  1  0.96896318  0.38307746  0.95733147  1
  S  S103  1  0.46896318  0.11692254  0.45733147  1
  S  S104  1  0.00906158  0.89256054  0.04143154  1
  S  S105  1  0.50906158  0.60743946  0.54143154  1
  S  S106  1  0.99093842  0.10743946  0.95856846  1
  S  S107  1  0.49093842  0.39256054  0.45856846  1
  O  O108  1  0.37437345  0.55737873  0.26536665  1
  O  O109  1  0.87437345  0.94262127  0.76536665  1
  O  O110  1  0.62562655  0.44262127  0.73463335  1
  O  O111  1  0.12562655  0.05737873  0.23463335  1
  O  O112  1  0.38376491  0.95307814  0.27597768  1
  O  O113  1  0.88376491  0.54692186  0.77597768  1
  O  O114  1  0.61623509  0.04692186  0.72402232  1
  O  O115  1  0.11623509  0.45307814  0.22402232  1
  O  O116  1  0.28324845  0.45297723  0.07777494  1
  O  O117  1  0.78324845  0.04702277  0.57777494  1
  O  O118  1  0.71675155  0.54702277  0.92222506  1
  O  O119  1  0.21675155  0.95297723  0.42222506  1
  O  O120  1  0.28409165  0.06944285  0.09536583  1
  O  O121  1  0.78409165  0.43055715  0.59536583  1
  O  O122  1  0.71590835  0.93055715  0.90463417  1
  O  O123  1  0.21590835  0.56944285  0.40463417  1
  O  O124  1  0.40054384  0.54969896  0.78726560  1
  O  O125  1  0.90054384  0.95030104  0.28726560  1
  O  O126  1  0.59945616  0.45030104  0.21273440  1
  O  O127  1  0.09945616  0.04969896  0.71273440  1
  O  O128  1  0.32663862  0.97314543  0.71497019  1
  O  O129  1  0.82663862  0.52685457  0.21497019  1
  O  O130  1  0.67336138  0.02685457  0.28502981  1
  O  O131  1  0.17336138  0.47314543  0.78502981  1
  O  O132  1  0.35869758  0.81001434  0.89688927  1
  O  O133  1  0.85869758  0.68998566  0.39688927  1
  O  O134  1  0.64130242  0.18998566  0.10311073  1
  O  O135  1  0.14130242  0.31001434  0.60311073  1
