# generated using pymatgen
data_Nd2P3(HO2)5
_symmetry_space_group_name_H-M   'P 1'
_cell_length_a   9.73222281
_cell_length_b   8.04384915
_cell_length_c   13.18111018
_cell_angle_alpha   90.00000000
_cell_angle_beta   108.98742897
_cell_angle_gamma   90.00000000
_symmetry_Int_Tables_number   1
_chemical_formula_structural   Nd2P3(HO2)5
_chemical_formula_sum   'Nd8 P12 H20 O40'
_cell_volume   975.73259783
_cell_formula_units_Z   4
loop_
 _symmetry_equiv_pos_site_id
 _symmetry_equiv_pos_as_xyz
  1  'x, y, z'
loop_
 _atom_site_type_symbol
 _atom_site_label
 _atom_site_symmetry_multiplicity
 _atom_site_fract_x
 _atom_site_fract_y
 _atom_site_fract_z
 _atom_site_occupancy
  Nd  Nd0  1  0.04923025  0.08016711  0.23023034  1
  Nd  Nd1  1  0.54923025  0.41983289  0.73023034  1
  Nd  Nd2  1  0.95076975  0.91983289  0.76976966  1
  Nd  Nd3  1  0.45076975  0.58016711  0.26976966  1
  Nd  Nd4  1  0.62732084  0.21114629  0.03613250  1
  Nd  Nd5  1  0.12732084  0.28885371  0.53613250  1
  Nd  Nd6  1  0.37267916  0.78885371  0.96386750  1
  Nd  Nd7  1  0.87267916  0.71114629  0.46386750  1
  P  P8  1  0.33230649  0.19460333  0.10005777  1
  P  P9  1  0.83230649  0.30539667  0.60005777  1
  P  P10  1  0.66769351  0.80539667  0.89994223  1
  P  P11  1  0.16769351  0.69460333  0.39994223  1
  P  P12  1  0.88809135  0.24976829  0.94600280  1
  P  P13  1  0.38809135  0.25023171  0.44600280  1
  P  P14  1  0.11190865  0.75023171  0.05399720  1
  P  P15  1  0.61190865  0.74976829  0.55399720  1
  P  P16  1  0.78683667  0.11391797  0.32502430  1
  P  P17  1  0.28683667  0.38608203  0.82502430  1
  P  P18  1  0.21316333  0.88608203  0.67497570  1
  P  P19  1  0.71316333  0.61391797  0.17497570  1
  H  H20  1  0.21887198  0.26212802  0.01387353  1
  H  H21  1  0.71887198  0.23787198  0.51387353  1
  H  H22  1  0.78112802  0.73787198  0.98612647  1
  H  H23  1  0.28112802  0.76212802  0.48612647  1
  H  H24  1  0.97655842  0.38971372  0.98388953  1
  H  H25  1  0.47655842  0.11028628  0.48388953  1
  H  H26  1  0.02344158  0.61028628  0.01611047  1
  H  H27  1  0.52344158  0.88971372  0.51611047  1
  H  H28  1  0.68756099  0.23931115  0.32798376  1
  H  H29  1  0.18756099  0.26068885  0.82798376  1
  H  H30  1  0.31243901  0.76068885  0.67201624  1
  H  H31  1  0.81243901  0.73931115  0.17201624  1
  H  H32  1  0.10890444  0.47562094  0.23425069  1
  H  H33  1  0.60890444  0.02437906  0.73425069  1
  H  H34  1  0.89109556  0.52437906  0.76574931  1
  H  H35  1  0.39109556  0.97562094  0.26574931  1
  H  H36  1  0.93957290  0.42979989  0.17840190  1
  H  H37  1  0.43957290  0.07020011  0.67840190  1
  H  H38  1  0.06042710  0.57020011  0.82159810  1
  H  H39  1  0.56042710  0.92979989  0.32159810  1
  O  O40  1  0.44792067  0.33238479  0.14299471  1
  O  O41  1  0.94792067  0.16761521  0.64299471  1
  O  O42  1  0.55207933  0.66761521  0.85700529  1
  O  O43  1  0.05207933  0.83238479  0.35700529  1
  O  O44  1  0.40786933  0.05872250  0.05220500  1
  O  O45  1  0.90786933  0.44127750  0.55220500  1
  O  O46  1  0.59213067  0.94127750  0.94779500  1
  O  O47  1  0.09213067  0.55872250  0.44779500  1
  O  O48  1  0.26275271  0.12525445  0.17961732  1
  O  O49  1  0.76275271  0.37474555  0.67961732  1
  O  O50  1  0.73724729  0.87474555  0.82038268  1
  O  O51  1  0.23724729  0.62525445  0.32038268  1
  O  O52  1  0.88412306  0.14914407  0.04553684  1
  O  O53  1  0.38412306  0.35085593  0.54553684  1
  O  O54  1  0.11587694  0.85085593  0.95446316  1
  O  O55  1  0.61587694  0.64914407  0.45446316  1
  O  O56  1  0.72964945  0.31447298  0.89471276  1
  O  O57  1  0.22964945  0.18552702  0.39471276  1
  O  O58  1  0.27035055  0.68552702  0.10528724  1
  O  O59  1  0.77035055  0.81447298  0.60528724  1
  O  O60  1  0.95104348  0.16048209  0.87003799  1
  O  O61  1  0.45104348  0.33951791  0.37003799  1
  O  O62  1  0.04895652  0.83951791  0.12996201  1
  O  O63  1  0.54895652  0.66048209  0.62996201  1
  O  O64  1  0.94243452  0.17461623  0.38371651  1
  O  O65  1  0.44243452  0.32538377  0.88371651  1
  O  O66  1  0.05756548  0.82538377  0.61628349  1
  O  O67  1  0.55756548  0.67461623  0.11628349  1
  O  O68  1  0.77621333  0.08514603  0.20640108  1
  O  O69  1  0.27621333  0.41485397  0.70640108  1
  O  O70  1  0.22378667  0.91485397  0.79359892  1
  O  O71  1  0.72378667  0.58514603  0.29359892  1
  O  O72  1  0.74544212  0.95820076  0.37591673  1
  O  O73  1  0.24544212  0.54179924  0.87591673  1
  O  O74  1  0.25455788  0.04179924  0.62408327  1
  O  O75  1  0.75455788  0.45820076  0.12408327  1
  O  O76  1  0.04029411  0.38494526  0.20146053  1
  O  O77  1  0.54029411  0.11505474  0.70146053  1
  O  O78  1  0.95970589  0.61505474  0.79853947  1
  O  O79  1  0.45970589  0.88494526  0.29853947  1
