# generated using pymatgen
data_LiPH4NO3F
_symmetry_space_group_name_H-M   'P 1'
_cell_length_a   5.52643889
_cell_length_b   5.07060884
_cell_length_c   14.52840913
_cell_angle_alpha   90.00000000
_cell_angle_beta   90.14384480
_cell_angle_gamma   90.00000000
_symmetry_Int_Tables_number   1
_chemical_formula_structural   LiPH4NO3F
_chemical_formula_sum   'Li4 P4 H16 N4 O12 F4'
_cell_volume   407.11975297
_cell_formula_units_Z   4
loop_
 _symmetry_equiv_pos_site_id
 _symmetry_equiv_pos_as_xyz
  1  'x, y, z'
loop_
 _atom_site_type_symbol
 _atom_site_label
 _atom_site_symmetry_multiplicity
 _atom_site_fract_x
 _atom_site_fract_y
 _atom_site_fract_z
 _atom_site_occupancy
  Li  Li0  1  0.18468572  0.55498117  0.74533639  1
  Li  Li1  1  0.81531428  0.05498117  0.75466361  1
  Li  Li2  1  0.81531428  0.44501883  0.25466361  1
  Li  Li3  1  0.18468572  0.94501883  0.24533639  1
  P  P4  1  0.70183860  0.55918420  0.85597395  1
  P  P5  1  0.29816140  0.05918420  0.64402605  1
  P  P6  1  0.29816140  0.44081580  0.14402605  1
  P  P7  1  0.70183860  0.94081580  0.35597395  1
  H  H8  1  0.72648154  0.47950691  0.51658525  1
  H  H9  1  0.27351846  0.97950691  0.98341475  1
  H  H10  1  0.27351846  0.52049309  0.48341475  1
  H  H11  1  0.72648154  0.02049309  0.01658525  1
  H  H12  1  0.70168421  0.72526247  0.59703737  1
  H  H13  1  0.29831579  0.22526247  0.90296263  1
  H  H14  1  0.29831579  0.27473753  0.40296263  1
  H  H15  1  0.70168421  0.77473753  0.09703737  1
  H  H16  1  0.93290563  0.49347607  0.60199005  1
  H  H17  1  0.06709437  0.99347607  0.89800995  1
  H  H18  1  0.06709437  0.50652393  0.39800995  1
  H  H19  1  0.93290563  0.00652393  0.10199005  1
  H  H20  1  0.64460579  0.40947306  0.62438073  1
  H  H21  1  0.35539421  0.90947306  0.87561927  1
  H  H22  1  0.35539421  0.59052694  0.37561927  1
  H  H23  1  0.64460579  0.09052694  0.12438073  1
  N  N24  1  0.75188782  0.52990900  0.58459654  1
  N  N25  1  0.24811218  0.02990900  0.91540346  1
  N  N26  1  0.24811218  0.47009100  0.41540346  1
  N  N27  1  0.75188782  0.97009100  0.08459654  1
  O  O28  1  0.87292903  0.42087552  0.78973558  1
  O  O29  1  0.12707097  0.92087552  0.71026442  1
  O  O30  1  0.12707097  0.57912448  0.21026442  1
  O  O31  1  0.87292903  0.07912448  0.28973558  1
  O  O32  1  0.43417947  0.50404296  0.83966997  1
  O  O33  1  0.56582053  0.00404296  0.66033003  1
  O  O34  1  0.56582053  0.49595704  0.16033003  1
  O  O35  1  0.43417947  0.99595704  0.33966997  1
  O  O36  1  0.76043942  0.85099613  0.87196889  1
  O  O37  1  0.23956058  0.35099613  0.62803111  1
  O  O38  1  0.23956058  0.14900387  0.12803111  1
  O  O39  1  0.76043942  0.64900387  0.37196889  1
  F  F40  1  0.75527697  0.42122778  0.95510876  1
  F  F41  1  0.24472303  0.92122778  0.54489124  1
  F  F42  1  0.24472303  0.57877222  0.04489124  1
  F  F43  1  0.75527697  0.07877222  0.45510876  1
