# generated using pymatgen
data_V7O13
_symmetry_space_group_name_H-M   'P 1'
_cell_length_a   5.55199741
_cell_length_b   7.10328764
_cell_length_c   11.38020456
_cell_angle_alpha   83.07638897
_cell_angle_beta   90.24965699
_cell_angle_gamma   71.78411422
_symmetry_Int_Tables_number   1
_chemical_formula_structural   V7O13
_chemical_formula_sum   'V14 O26'
_cell_volume   422.78475587
_cell_formula_units_Z   2
loop_
 _symmetry_equiv_pos_site_id
 _symmetry_equiv_pos_as_xyz
  1  'x, y, z'
loop_
 _atom_site_type_symbol
 _atom_site_label
 _atom_site_symmetry_multiplicity
 _atom_site_fract_x
 _atom_site_fract_y
 _atom_site_fract_z
 _atom_site_occupancy
  V  V0  1  0.99401948  0.50124408  0.50169716  1
  V  V1  1  0.99638658  0.00730387  0.50153491  1
  V  V2  1  0.39032434  0.26086636  0.35163328  1
  V  V3  1  0.61083149  0.74133364  0.64851346  1
  V  V4  1  0.40374899  0.75287408  0.35920279  1
  V  V5  1  0.59270868  0.24870796  0.64783319  1
  V  V6  1  0.79694453  0.01510113  0.21314778  1
  V  V7  1  0.20760528  0.98276165  0.78861573  1
  V  V8  1  0.79776548  0.50828784  0.20307691  1
  V  V9  1  0.21434717  0.48501572  0.79646044  1
  V  V10  1  0.20672903  0.78184315  0.05821498  1
  V  V11  1  0.79901511  0.20978023  0.94611122  1
  V  V12  1  0.21267220  0.28055774  0.05251747  1
  V  V13  1  0.79221553  0.71423462  0.94516901  1
  O  O14  1  0.62271511  0.17829171  0.48793565  1
  O  O15  1  0.35749982  0.83329921  0.51153681  1
  O  O16  1  0.10733280  0.23999742  0.44706100  1
  O  O17  1  0.87461710  0.77474212  0.55492563  1
  O  O18  1  0.27647876  0.53756930  0.39381256  1
  O  O19  1  0.71508589  0.47371009  0.60045266  1
  O  O20  1  0.75595911  0.59713249  0.36546878  1
  O  O21  1  0.23958393  0.40877983  0.62862528  1
  O  O22  1  0.02844209  0.92666474  0.33136470  1
  O  O23  1  0.96422643  0.08013136  0.67343727  1
  O  O24  1  0.50216775  0.98911898  0.29804454  1
  O  O25  1  0.49407954  0.00891950  0.70298011  1
  O  O26  1  0.67296288  0.28380345  0.25157483  1
  O  O27  1  0.33209151  0.71439880  0.74313065  1
  O  O28  1  0.19890773  0.55187589  0.97515083  1
  O  O29  1  0.81002313  0.44653274  0.02582317  1
  O  O30  1  0.45564199  0.83385828  0.94189327  1
  O  O31  1  0.54049461  0.15687145  0.05975294  1
  O  O32  1  0.95581111  0.92280357  0.90837928  1
  O  O33  1  0.05213858  0.06565750  0.09362420  1
  O  O34  1  0.16371304  0.35507947  0.21049332  1
  O  O35  1  0.87530480  0.76518867  0.12249306  1
  O  O36  1  0.58025464  0.30559492  0.80871420  1
  O  O37  1  0.42196773  0.69168351  0.18028833  1
  O  O38  1  0.84876658  0.63613050  0.79189859  1
  O  O39  1  0.13842644  0.23225840  0.87740500  1
