# generated using pymatgen
data_Ca(BiO2)2
_symmetry_space_group_name_H-M   'P 1'
_cell_length_a   3.40795518
_cell_length_b   5.96616217
_cell_length_c   11.44068973
_cell_angle_alpha   90.00000000
_cell_angle_beta   90.00000000
_cell_angle_gamma   106.59513442
_symmetry_Int_Tables_number   1
_chemical_formula_structural   Ca(BiO2)2
_chemical_formula_sum   'Ca2 Bi4 O8'
_cell_volume   222.92760355
_cell_formula_units_Z   2
loop_
 _symmetry_equiv_pos_site_id
 _symmetry_equiv_pos_as_xyz
  1  'x, y, z'
loop_
 _atom_site_type_symbol
 _atom_site_label
 _atom_site_symmetry_multiplicity
 _atom_site_fract_x
 _atom_site_fract_y
 _atom_site_fract_z
 _atom_site_occupancy
  Ca  Ca0  1  0.38635683  0.77271466  0.75000000  1
  Ca  Ca1  1  0.61364317  0.22728534  0.25000000  1
  Bi  Bi2  1  0.86762605  0.73525411  0.07726169  1
  Bi  Bi3  1  0.13237395  0.26474589  0.92273831  1
  Bi  Bi4  1  0.86762605  0.73525411  0.42273831  1
  Bi  Bi5  1  0.13237395  0.26474589  0.57726169  1
  O  O6  1  0.22490895  0.44981990  0.37933771  1
  O  O7  1  0.77509105  0.55018010  0.62066229  1
  O  O8  1  0.77509105  0.55018010  0.87933771  1
  O  O9  1  0.22490895  0.44981990  0.12066229  1
  O  O10  1  0.97231498  0.94463196  0.25000000  1
  O  O11  1  0.02768502  0.05536804  0.75000000  1
  O  O12  1  0.50000000  -0.00000000  0.00000000  1
  O  O13  1  0.50000000  -0.00000000  0.50000000  1
