# generated using pymatgen
data_V2O3
_symmetry_space_group_name_H-M   'P 1'
_cell_length_a   5.10431317
_cell_length_b   5.10587256
_cell_length_c   5.57163033
_cell_angle_alpha   63.35851004
_cell_angle_beta   88.29095164
_cell_angle_gamma   119.20065727
_symmetry_Int_Tables_number   1
_chemical_formula_structural   V2O3
_chemical_formula_sum   'V4 O6'
_cell_volume   107.39248772
_cell_formula_units_Z   2
loop_
 _symmetry_equiv_pos_site_id
 _symmetry_equiv_pos_as_xyz
  1  'x, y, z'
loop_
 _atom_site_type_symbol
 _atom_site_label
 _atom_site_symmetry_multiplicity
 _atom_site_fract_x
 _atom_site_fract_y
 _atom_site_fract_z
 _atom_site_occupancy
  V  V0  1  0.84715619  0.70315786  0.44859991  1
  V  V1  1  0.65315123  0.29774296  0.04703453  1
  V  V2  1  0.15672101  0.30405510  0.54733245  1
  V  V3  1  0.35085498  0.70962640  0.94892011  1
  O  O4  1  0.43703748  0.18900791  0.74804254  1
  O  O5  1  0.56680264  0.81814306  0.24817575  1
  O  O6  1  0.25603882  0.20856817  0.24301257  1
  O  O7  1  0.74798965  0.79894773  0.75265305  1
  O  O8  1  0.05412375  0.50647115  0.74261783  1
  O  O9  1  0.94981826  0.50094665  0.25316525  1
