# generated using pymatgen
data_Sr2HfO4
_symmetry_space_group_name_H-M   'P 1'
_cell_length_a   5.73884042
_cell_length_b   13.75589856
_cell_length_c   5.73884042
_cell_angle_alpha   77.95993523
_cell_angle_beta   90.00000000
_cell_angle_gamma   102.04006477
_symmetry_Int_Tables_number   1
_chemical_formula_structural   Sr2HfO4
_chemical_formula_sum   'Sr8 Hf4 O16'
_cell_volume   432.87935975
_cell_formula_units_Z   4
loop_
 _symmetry_equiv_pos_site_id
 _symmetry_equiv_pos_as_xyz
  1  'x, y, z'
loop_
 _atom_site_type_symbol
 _atom_site_label
 _atom_site_symmetry_multiplicity
 _atom_site_fract_x
 _atom_site_fract_y
 _atom_site_fract_z
 _atom_site_occupancy
  Sr  Sr0  1  0.54962487  0.59924975  0.20037513  1
  Sr  Sr1  1  0.95037513  0.40075025  0.29962487  1
  Sr  Sr2  1  0.70037513  0.90075025  0.04962487  1
  Sr  Sr3  1  0.79962487  0.09924975  0.45037513  1
  Sr  Sr4  1  0.45037513  0.40075025  0.79962487  1
  Sr  Sr5  1  0.04962487  0.59924975  0.70037513  1
  Sr  Sr6  1  0.20037513  0.90075025  0.54962487  1
  Sr  Sr7  1  0.29962487  0.09924975  0.95037513  1
  Hf  Hf8  1  0.12500000  0.75000000  0.12500000  1
  Hf  Hf9  1  0.37500000  0.25000000  0.37500000  1
  Hf  Hf10  1  0.62500000  0.75000000  0.62500000  1
  Hf  Hf11  1  0.87500000  0.25000000  0.87500000  1
  O  O12  1  0.57432794  0.25000000  0.07432794  1
  O  O13  1  0.07432794  0.25000000  0.17567206  1
  O  O14  1  0.29446784  0.08893469  0.45553216  1
  O  O15  1  0.04446784  0.58893469  0.20553216  1
  O  O16  1  0.45553216  0.41106531  0.29446784  1
  O  O17  1  0.20553216  0.91106531  0.04446784  1
  O  O18  1  0.67567206  0.25000000  0.57432794  1
  O  O19  1  0.82432794  0.75000000  0.32432794  1
  O  O20  1  0.17567206  0.25000000  0.67567206  1
  O  O21  1  0.32432794  0.75000000  0.42567206  1
  O  O22  1  0.70553216  0.91106531  0.54446784  1
  O  O23  1  0.54446784  0.58893469  0.70553216  1
  O  O24  1  0.79446784  0.08893469  0.95553216  1
  O  O25  1  0.95553216  0.41106531  0.79446784  1
  O  O26  1  0.92567206  0.75000000  0.82432794  1
  O  O27  1  0.42567206  0.75000000  0.92567206  1
