# generated using pymatgen
data_Ca2Mn7Si10H12O35
_symmetry_space_group_name_H-M   'P 1'
_cell_length_a   8.97644688
_cell_length_b   9.03434059
_cell_length_c   18.83712472
_cell_angle_alpha   86.25001695
_cell_angle_beta   83.38641172
_cell_angle_gamma   84.58592922
_symmetry_Int_Tables_number   1
_chemical_formula_structural   Ca2Mn7Si10H12O35
_chemical_formula_sum   'Ca4 Mn14 Si20 H24 O70'
_cell_volume   1508.38657236
_cell_formula_units_Z   2
loop_
 _symmetry_equiv_pos_site_id
 _symmetry_equiv_pos_as_xyz
  1  'x, y, z'
loop_
 _atom_site_type_symbol
 _atom_site_label
 _atom_site_symmetry_multiplicity
 _atom_site_fract_x
 _atom_site_fract_y
 _atom_site_fract_z
 _atom_site_occupancy
  Ca  Ca0  1  0.28845782  0.10022900  0.36923361  1
  Ca  Ca1  1  0.28878585  0.10078584  0.87004612  1
  Ca  Ca2  1  0.71154218  0.89977100  0.13076639  1
  Ca  Ca3  1  0.71121415  0.89921416  0.62995388  1
  Mn  Mn4  1  0.00045368  0.00157984  0.00040497  1
  Mn  Mn5  1  0.03048117  0.66417806  0.07533723  1
  Mn  Mn6  1  0.99954632  0.99842016  0.49959503  1
  Mn  Mn7  1  0.03245284  0.66348066  0.57474734  1
  Mn  Mn8  1  0.35235556  0.43997471  0.05261467  1
  Mn  Mn9  1  0.32598087  0.77504098  0.46046197  1
  Mn  Mn10  1  0.35192978  0.43952164  0.55229118  1
  Mn  Mn11  1  0.32664013  0.77581460  0.96157273  1
  Mn  Mn12  1  0.67401913  0.22495902  0.03953803  1
  Mn  Mn13  1  0.64764444  0.56002529  0.44738533  1
  Mn  Mn14  1  0.67335987  0.22418540  0.53842727  1
  Mn  Mn15  1  0.64807022  0.56047836  0.94770882  1
  Mn  Mn16  1  0.96951883  0.33582194  0.42466277  1
  Mn  Mn17  1  0.96754716  0.33651934  0.92525266  1
  Si  Si18  1  0.03621415  0.28280990  0.09557742  1
  Si  Si19  1  0.03704312  0.27951050  0.59295515  1
  Si  Si20  1  0.32225131  0.08083000  0.05716841  1
  Si  Si21  1  0.24586132  0.73422739  0.30100910  1
  Si  Si22  1  0.32197814  0.07949019  0.55710655  1
  Si  Si23  1  0.35934187  0.77298825  0.13651799  1
  Si  Si24  1  0.34344600  0.44423637  0.37712225  1
  Si  Si25  1  0.24770341  0.73437098  0.80150401  1
  Si  Si26  1  0.35923207  0.77307276  0.63643785  1
  Si  Si27  1  0.34558957  0.44413816  0.87815911  1
  Si  Si28  1  0.65655400  0.55576363  0.12287775  1
  Si  Si29  1  0.64065813  0.22701175  0.36348201  1
  Si  Si30  1  0.75413868  0.26577261  0.19899090  1
  Si  Si31  1  0.65441043  0.55586184  0.62184089  1
  Si  Si32  1  0.64076793  0.22692724  0.86356215  1
  Si  Si33  1  0.67774869  0.91917000  0.44283159  1
  Si  Si34  1  0.75229659  0.26562902  0.69849599  1
  Si  Si35  1  0.67802186  0.92050981  0.94289345  1
  Si  Si36  1  0.96378585  0.71719010  0.40442258  1
  Si  Si37  1  0.96295688  0.72048950  0.90704485  1
  H  H38  1  0.03427656  0.93341517  0.13859394  1
  H  H39  1  0.01774014  0.65146372  0.72866946  1
  H  H40  1  0.02464617  0.49092210  0.80723771  1
  H  H41  1  0.03442130  0.93750936  0.63747720  1
  H  H42  1  0.22910288  0.45639037  0.19071386  1
  H  H43  1  0.31239850  0.04434880  0.21398160  1
  H  H44  1  0.32151109  0.21701148  0.21496933  1
  H  H45  1  0.22986216  0.46806790  0.68778106  1
  H  H46  1  0.31295525  0.04554627  0.71402697  1
  H  H47  1  0.39830781  0.45455101  0.20322609  1
  H  H48  1  0.32339879  0.21851531  0.71483310  1
  H  H49  1  0.40013982  0.45170337  0.70175227  1
  H  H50  1  0.60169219  0.54544899  0.29677391  1
  H  H51  1  0.67848891  0.78298852  0.28503067  1
  H  H52  1  0.59986018  0.54829663  0.79824773  1
  H  H53  1  0.68760150  0.95565120  0.28601840  1
  H  H54  1  0.77089712  0.54360963  0.30928614  1
  H  H55  1  0.67660121  0.78148469  0.78516690  1
  H  H56  1  0.68704475  0.95445373  0.78597303  1
  H  H57  1  0.77013784  0.53193210  0.81221894  1
  H  H58  1  0.96572344  0.06658483  0.36140606  1
  H  H59  1  0.96557870  0.06249064  0.86252280  1
  H  H60  1  0.97535383  0.50907790  0.69276229  1
  H  H61  1  0.98225986  0.34853628  0.77133054  1
  O  O62  1  0.02445003  0.10886747  0.39428120  1
  O  O63  1  0.11349021  0.43849003  0.07628320  1
  O  O64  1  0.17109890  0.14763785  0.10804050  1
  O  O65  1  0.06706341  0.71213660  0.32607921  1
  O  O66  1  0.02637992  0.10561168  0.89420094  1
  O  O67  1  0.06120678  0.76277362  0.46721082  1
  O  O68  1  0.05223656  0.58000973  0.69177937  1
  O  O69  1  0.11469792  0.43201055  0.56893657  1
  O  O70  1  0.16930569  0.14405350  0.60845335  1
  O  O71  1  0.19735778  0.35363806  0.39493658  1
  O  O72  1  0.06649430  0.70691167  0.82680706  1
  O  O73  1  0.06505674  0.76638450  0.96744938  1
  O  O74  1  0.28084865  0.69196601  0.07788847  1
  O  O75  1  0.26352387  0.00619135  0.48947605  1
  O  O76  1  0.25677958  0.78598876  0.21458706  1
  O  O77  1  0.31965501  0.12446739  0.24555701  1
  O  O78  1  0.32908137  0.40830960  0.17625761  1
  O  O79  1  0.20002352  0.35362708  0.89746339  1
  O  O80  1  0.33752885  0.56487648  0.30638199  1
  O  O81  1  0.43446864  0.21122402  0.03680775  1
  O  O82  1  0.31064014  0.84644277  0.35024864  1
  O  O83  1  0.28364601  0.69357978  0.57656719  1
  O  O84  1  0.26433495  0.00645240  0.98965503  1
  O  O85  1  0.25763354  0.78837353  0.71536834  1
  O  O86  1  0.31706713  0.12631874  0.74572390  1
  O  O87  1  0.40172436  0.94465585  0.10971190  1
  O  O88  1  0.32716514  0.40824033  0.67595823  1
  O  O89  1  0.39685167  0.53042441  0.44276044  1
  O  O90  1  0.33669880  0.56486701  0.80731715  1
  O  O91  1  0.43381802  0.21010191  0.53710156  1
  O  O92  1  0.47710175  0.31357697  0.34799820  1
  O  O93  1  0.30885714  0.84707712  0.85108358  1
  O  O94  1  0.52289825  0.68642303  0.15200180  1
  O  O95  1  0.40259137  0.94466366  0.61002943  1
  O  O96  1  0.60314833  0.46957559  0.05723956  1
  O  O97  1  0.39849450  0.53155019  0.94337657  1
  O  O98  1  0.59827564  0.05534415  0.39028810  1
  O  O99  1  0.47852440  0.31504607  0.84704900  1
  O  O100  1  0.68935986  0.15355723  0.14975136  1
  O  O101  1  0.52147560  0.68495393  0.65295100  1
  O  O102  1  0.56553136  0.78877598  0.46319225  1
  O  O103  1  0.66247115  0.43512352  0.19361801  1
  O  O104  1  0.60150550  0.46844981  0.55662343  1
  O  O105  1  0.67091863  0.59169040  0.32374239  1
  O  O106  1  0.59740863  0.05533634  0.88997057  1
  O  O107  1  0.68034499  0.87553261  0.25444299  1
  O  O108  1  0.74322042  0.21401124  0.28541294  1
  O  O109  1  0.73647613  0.99380865  0.01052395  1
  O  O110  1  0.71915135  0.30803399  0.42211153  1
  O  O111  1  0.69114286  0.15292288  0.64891642  1
  O  O112  1  0.56618198  0.78989809  0.96289844  1
  O  O113  1  0.66330120  0.43513299  0.69268285  1
  O  O114  1  0.80264222  0.64636194  0.10506342  1
  O  O115  1  0.67283486  0.59175967  0.82404177  1
  O  O116  1  0.68293287  0.87368126  0.75427610  1
  O  O117  1  0.74236646  0.21162647  0.78463166  1
  O  O118  1  0.73566505  0.99354760  0.51034497  1
  O  O119  1  0.71635399  0.30642022  0.92343281  1
  O  O120  1  0.93879322  0.23722638  0.03278918  1
  O  O121  1  0.93293659  0.28786340  0.17392079  1
  O  O122  1  0.79997648  0.64637292  0.60253661  1
  O  O123  1  0.82890110  0.85236215  0.39195950  1
  O  O124  1  0.88650979  0.56150997  0.42371680  1
  O  O125  1  0.93494326  0.23361550  0.53255062  1
  O  O126  1  0.97554997  0.89113253  0.10571880  1
  O  O127  1  0.93350570  0.29308833  0.67319294  1
  O  O128  1  0.83069431  0.85594650  0.89154665  1
  O  O129  1  0.88530208  0.56798945  0.93106343  1
  O  O130  1  0.94776344  0.41999027  0.80822063  1
  O  O131  1  0.97362008  0.89438832  0.60579906  1
