# generated using pymatgen
data_Na2Si(H3O2)6
_symmetry_space_group_name_H-M   'P 1'
_cell_length_a   11.81681580
_cell_length_b   11.81681580
_cell_length_c   11.81681580
_cell_angle_alpha   120.61366676
_cell_angle_beta   88.08898719
_cell_angle_gamma   121.60771363
_symmetry_Int_Tables_number   1
_chemical_formula_structural   Na2Si(H3O2)6
_chemical_formula_sum   'Na8 Si4 H72 O48'
_cell_volume   1146.38038798
_cell_formula_units_Z   4
loop_
 _symmetry_equiv_pos_site_id
 _symmetry_equiv_pos_as_xyz
  1  'x, y, z'
loop_
 _atom_site_type_symbol
 _atom_site_label
 _atom_site_symmetry_multiplicity
 _atom_site_fract_x
 _atom_site_fract_y
 _atom_site_fract_z
 _atom_site_occupancy
  Na  Na0  1  0.27181344  0.71274538  0.80531564  1
  Na  Na1  1  0.22818656  0.03350220  0.44093194  1
  Na  Na2  1  0.09257026  0.78725462  0.05906806  1
  Na  Na3  1  0.40742974  0.46649780  0.69468436  1
  Na  Na4  1  0.72818656  0.28725462  0.19468436  1
  Na  Na5  1  0.77181344  0.96649780  0.55906806  1
  Na  Na6  1  0.90742974  0.21274538  0.94093194  1
  Na  Na7  1  0.59257026  0.53350220  0.30531564  1
  Si  Si8  1  0.25000000  0.12343430  0.87343430  1
  Si  Si9  1  0.75000000  0.37656570  0.62656570  1
  Si  Si10  1  0.75000000  0.87656570  0.12656570  1
  Si  Si11  1  0.25000000  0.62343430  0.37343430  1
  H  H12  1  0.40513678  0.11578967  0.75895902  1
  H  H13  1  0.09486322  0.85382224  0.71065289  1
  H  H14  1  0.64316934  0.38421033  0.78934711  1
  H  H15  1  0.85683066  0.64617776  0.74104098  1
  H  H16  1  0.59486322  0.88421033  0.24104098  1
  H  H17  1  0.90513678  0.14617776  0.28934711  1
  H  H18  1  0.35683066  0.61578967  0.21065289  1
  H  H19  1  0.14316934  0.35382224  0.25895902  1
  H  H20  1  0.02221833  0.58305082  0.63887572  1
  H  H21  1  0.47778167  0.11665739  0.56083249  1
  H  H22  1  0.05582490  0.91694918  0.93916751  1
  H  H23  1  0.44417510  0.38334261  0.86112428  1
  H  H24  1  0.97778167  0.41694918  0.36112428  1
  H  H25  1  0.52221833  0.88334261  0.43916751  1
  H  H26  1  0.94417510  0.08305082  0.06083249  1
  H  H27  1  0.55582490  0.61665739  0.13887572  1
  H  H28  1  0.11028390  0.66066476  0.56293215  1
  H  H29  1  0.38971610  0.95264826  0.55038087  1
  H  H30  1  0.90226739  0.83933524  0.94961913  1
  H  H31  1  0.59773261  0.54735174  0.93706785  1
  H  H32  1  0.88971610  0.33933524  0.43706785  1
  H  H33  1  0.61028390  0.04735174  0.44961913  1
  H  H34  1  0.09773261  0.16066476  0.05038087  1
  H  H35  1  0.40226739  0.45264826  0.06293215  1
  H  H36  1  0.42682036  0.84966055  0.66564440  1
  H  H37  1  0.07317964  0.73882404  0.42284019  1
  H  H38  1  0.81598385  0.65033945  0.07715981  1
  H  H39  1  0.68401615  0.76117596  0.83435560  1
  H  H40  1  0.57317964  0.15033945  0.33435560  1
  H  H41  1  0.92682036  0.26117596  0.57715981  1
  H  H42  1  0.18401615  0.34966055  0.92284019  1
  H  H43  1  0.31598385  0.23882404  0.16564440  1
  H  H44  1  0.42811909  0.97746202  0.80758861  1
  H  H45  1  0.07188091  0.87946951  0.54934292  1
  H  H46  1  0.83012659  0.52253798  0.95065708  1
  H  H47  1  0.66987341  0.62053049  0.69241139  1
  H  H48  1  0.57188091  0.02253798  0.19241139  1
  H  H49  1  0.92811909  0.12053049  0.45065708  1
  H  H50  1  0.16987341  0.47746202  0.04934292  1
  H  H51  1  0.33012659  0.37946951  0.30758861  1
  H  H52  1  0.54094097  0.27649814  0.00574343  1
  H  H53  1  0.95905903  0.96480246  0.73555718  1
  H  H54  1  0.72924529  0.22350186  0.76444282  1
  H  H55  1  0.77075471  0.53519754  0.49425657  1
  H  H56  1  0.45905903  0.72350186  0.99425657  1
  H  H57  1  0.04094097  0.03519754  0.26444282  1
  H  H58  1  0.27075471  0.77649814  0.23555718  1
  H  H59  1  0.22924529  0.46480246  0.50574343  1
  H  H60  1  0.69715787  0.42985805  0.07472778  1
  H  H61  1  0.80284213  0.87756990  0.73270018  1
  H  H62  1  0.64486973  0.07014195  0.76729982  1
  H  H63  1  0.85513027  0.62243010  0.42527222  1
  H  H64  1  0.30284213  0.57014195  0.92527222  1
  H  H65  1  0.19715787  0.12243010  0.26729982  1
  H  H66  1  0.35513027  0.92985805  0.23270018  1
  H  H67  1  0.14486973  0.37756990  0.57472778  1
  H  H68  1  0.28512562  0.01226669  0.01117052  1
  H  H69  1  0.21487438  0.22604489  0.72714107  1
  H  H70  1  0.99890382  0.48773331  0.77285893  1
  H  H71  1  0.50109618  0.27395511  0.48882948  1
  H  H72  1  0.71487438  0.98773331  0.98882948  1
  H  H73  1  0.78512562  0.77395511  0.27285893  1
  H  H74  1  0.00109618  0.51226669  0.22714107  1
  H  H75  1  0.49890382  0.72604489  0.51117052  1
  H  H76  1  0.39062820  0.01278528  0.09270262  1
  H  H77  1  0.10937180  0.20207441  0.62215708  1
  H  H78  1  0.07991734  0.48721472  0.87784292  1
  H  H79  1  0.42008266  0.29792559  0.40729738  1
  H  H80  1  0.60937180  0.98721472  0.90729738  1
  H  H81  1  0.89062820  0.79792559  0.37784292  1
  H  H82  1  0.92008266  0.51278528  0.12215708  1
  H  H83  1  0.57991734  0.70207441  0.59270262  1
  O  O84  1  0.38956111  0.11948396  0.84434140  1
  O  O85  1  0.11043889  0.95478028  0.72992284  1
  O  O86  1  0.72485744  0.38051604  0.77007716  1
  O  O87  1  0.77514256  0.54521972  0.65565860  1
  O  O88  1  0.61043889  0.88051604  0.15565860  1
  O  O89  1  0.88956111  0.04521972  0.27007716  1
  O  O90  1  0.27514256  0.61948396  0.22992284  1
  O  O91  1  0.22485744  0.45478028  0.34434140  1
  O  O92  1  0.22136237  0.10964900  0.00231614  1
  O  O93  1  0.27863763  0.28095377  0.88828663  1
  O  O94  1  0.89266714  0.39035100  0.61171337  1
  O  O95  1  0.60733286  0.21904623  0.49768386  1
  O  O96  1  0.77863763  0.89035100  0.99768386  1
  O  O97  1  0.72136237  0.71904623  0.11171337  1
  O  O98  1  0.10733286  0.60964900  0.38828663  1
  O  O99  1  0.39266714  0.78095377  0.50231614  1
  O  O100  1  0.10274918  0.68775909  0.65637013  1
  O  O101  1  0.39725082  0.05362095  0.58500991  1
  O  O102  1  0.96861104  0.81224091  0.91499009  1
  O  O103  1  0.53138896  0.44637905  0.84362987  1
  O  O104  1  0.89725082  0.31224091  0.34362987  1
  O  O105  1  0.60274918  0.94637905  0.41499009  1
  O  O106  1  0.03138896  0.18775909  0.08500991  1
  O  O107  1  0.46861104  0.55362095  0.15637013  1
  O  O108  1  0.45956838  0.90605655  0.76954278  1
  O  O109  1  0.04043162  0.80997439  0.44648817  1
  O  O110  1  0.86348623  0.59394345  0.05351183  1
  O  O111  1  0.63651377  0.69002561  0.73045722  1
  O  O112  1  0.54043162  0.09394345  0.23045722  1
  O  O113  1  0.95956838  0.19002561  0.55351183  1
  O  O114  1  0.13651377  0.40605655  0.94648817  1
  O  O115  1  0.36348623  0.30997439  0.26954278  1
  O  O116  1  0.62013854  0.35673850  0.09283437  1
  O  O117  1  0.87986146  0.97269584  0.73659997  1
  O  O118  1  0.73609587  0.14326150  0.76340003  1
  O  O119  1  0.76390413  0.52730416  0.40716563  1
  O  O120  1  0.37986146  0.64326150  0.90716563  1
  O  O121  1  0.12013854  0.02730416  0.26340003  1
  O  O122  1  0.26390413  0.85673850  0.23659997  1
  O  O123  1  0.23609587  0.47269584  0.59283437  1
  O  O124  1  0.30406158  0.94102949  0.01483396  1
  O  O125  1  0.19593842  0.21077238  0.63696791  1
  O  O126  1  0.07380447  0.55897051  0.86303209  1
  O  O127  1  0.42619553  0.28922762  0.48516604  1
  O  O128  1  0.69593842  0.05897051  0.98516604  1
  O  O129  1  0.80406158  0.78922762  0.36303209  1
  O  O130  1  0.92619553  0.44102949  0.13696791  1
  O  O131  1  0.57380447  0.71077238  0.51483396  1
