# generated using pymatgen
data_Fe3H4(S2O9)2
_symmetry_space_group_name_H-M   'P 1'
_cell_length_a   5.19202237
_cell_length_b   14.55877553
_cell_length_c   8.54196391
_cell_angle_alpha   90.00000000
_cell_angle_beta   92.83988124
_cell_angle_gamma   90.00000000
_symmetry_Int_Tables_number   1
_chemical_formula_structural   Fe3H4(S2O9)2
_chemical_formula_sum   'Fe6 H8 S8 O36'
_cell_volume   644.88971260
_cell_formula_units_Z   2
loop_
 _symmetry_equiv_pos_site_id
 _symmetry_equiv_pos_as_xyz
  1  'x, y, z'
loop_
 _atom_site_type_symbol
 _atom_site_label
 _atom_site_symmetry_multiplicity
 _atom_site_fract_x
 _atom_site_fract_y
 _atom_site_fract_z
 _atom_site_occupancy
  Fe  Fe0  1  0.00000000  0.00000000  0.00000000  1
  Fe  Fe1  1  0.50000000  0.50000000  0.50000000  1
  Fe  Fe2  1  0.75135909  0.84699885  0.47389423  1
  Fe  Fe3  1  0.25135909  0.65300115  0.97389423  1
  Fe  Fe4  1  0.24864091  0.15300115  0.52610577  1
  Fe  Fe5  1  0.74864091  0.34699885  0.02610577  1
  H  H6  1  0.82466005  0.82699772  0.95321612  1
  H  H7  1  0.32466005  0.67300228  0.45321612  1
  H  H8  1  0.17533995  0.17300228  0.04678388  1
  H  H9  1  0.67533995  0.32699772  0.54678388  1
  H  H10  1  0.57925361  0.89191230  0.93766087  1
  H  H11  1  0.07925361  0.60808770  0.43766087  1
  H  H12  1  0.42074639  0.10808770  0.06233913  1
  H  H13  1  0.92074639  0.39191230  0.56233913  1
  S  S14  1  0.72606396  0.06719405  0.32210350  1
  S  S15  1  0.22606396  0.43280595  0.82210350  1
  S  S16  1  0.27393604  0.93280595  0.67789650  1
  S  S17  1  0.77393604  0.56719405  0.17789650  1
  S  S18  1  0.21807885  0.82920340  0.23020402  1
  S  S19  1  0.71807885  0.67079660  0.73020402  1
  S  S20  1  0.78192115  0.17079660  0.76979598  1
  S  S21  1  0.28192115  0.32920340  0.26979598  1
  O  O22  1  0.73307683  0.06257908  0.14917572  1
  O  O23  1  0.23307683  0.43742092  0.64917572  1
  O  O24  1  0.26692317  0.93742092  0.85082428  1
  O  O25  1  0.76692317  0.56257908  0.35082428  1
  O  O26  1  0.76219605  0.97470349  0.39208820  1
  O  O27  1  0.26219605  0.52529651  0.89208820  1
  O  O28  1  0.23780395  0.02529651  0.60791180  1
  O  O29  1  0.73780395  0.47470349  0.10791180  1
  O  O30  1  0.93136619  0.12981603  0.38520386  1
  O  O31  1  0.43136619  0.37018397  0.88520386  1
  O  O32  1  0.06863381  0.87018397  0.61479614  1
  O  O33  1  0.56863381  0.62981603  0.11479614  1
  O  O34  1  0.46992663  0.10514507  0.35653142  1
  O  O35  1  0.96992663  0.39485493  0.85653142  1
  O  O36  1  0.53007337  0.89485493  0.64346858  1
  O  O37  1  0.03007337  0.60514507  0.14346858  1
  O  O38  1  0.97644600  0.79833525  0.30404551  1
  O  O39  1  0.47644600  0.70166475  0.80404551  1
  O  O40  1  0.02355400  0.20166475  0.69595449  1
  O  O41  1  0.52355400  0.29833525  0.19595449  1
  O  O42  1  0.21671855  0.92812011  0.19835244  1
  O  O43  1  0.71671855  0.57187989  0.69835244  1
  O  O44  1  0.78328145  0.07187989  0.80164756  1
  O  O45  1  0.28328145  0.42812011  0.30164756  1
  O  O46  1  0.44007933  0.80275512  0.34005213  1
  O  O47  1  0.94007933  0.69724488  0.84005213  1
  O  O48  1  0.55992067  0.19724488  0.65994787  1
  O  O49  1  0.05992067  0.30275512  0.15994787  1
  O  O50  1  0.23771667  0.77835946  0.07915765  1
  O  O51  1  0.73771667  0.72164054  0.57915765  1
  O  O52  1  0.76228333  0.22164054  0.92084235  1
  O  O53  1  0.26228333  0.27835946  0.42084235  1
  O  O54  1  0.75441685  0.88603562  0.98612783  1
  O  O55  1  0.25441685  0.61396438  0.48612783  1
  O  O56  1  0.24558315  0.11396438  0.01387217  1
  O  O57  1  0.74558315  0.38603562  0.51387217  1
