# generated using pymatgen
data_Pr2P3(HO2)5
_symmetry_space_group_name_H-M   'P 1'
_cell_length_a   9.75131847
_cell_length_b   8.07432751
_cell_length_c   13.34683921
_cell_angle_alpha   90.00000000
_cell_angle_beta   109.19449055
_cell_angle_gamma   90.00000000
_symmetry_Int_Tables_number   1
_chemical_formula_structural   Pr2P3(HO2)5
_chemical_formula_sum   'Pr8 P12 H20 O40'
_cell_volume   992.44804870
_cell_formula_units_Z   4
loop_
 _symmetry_equiv_pos_site_id
 _symmetry_equiv_pos_as_xyz
  1  'x, y, z'
loop_
 _atom_site_type_symbol
 _atom_site_label
 _atom_site_symmetry_multiplicity
 _atom_site_fract_x
 _atom_site_fract_y
 _atom_site_fract_z
 _atom_site_occupancy
  Pr  Pr0  1  0.05121369  0.08080249  0.23180130  1
  Pr  Pr1  1  0.55121369  0.41919751  0.73180130  1
  Pr  Pr2  1  0.94878631  0.91919751  0.76819870  1
  Pr  Pr3  1  0.44878631  0.58080249  0.26819870  1
  Pr  Pr4  1  0.62782694  0.21154629  0.03595442  1
  Pr  Pr5  1  0.12782694  0.28845371  0.53595442  1
  Pr  Pr6  1  0.37217306  0.78845371  0.96404558  1
  Pr  Pr7  1  0.87217306  0.71154629  0.46404558  1
  P  P8  1  0.33395589  0.19593190  0.10044218  1
  P  P9  1  0.83395589  0.30406810  0.60044218  1
  P  P10  1  0.66604411  0.80406810  0.89955782  1
  P  P11  1  0.16604411  0.69593190  0.39955782  1
  P  P12  1  0.89063726  0.25037294  0.94640781  1
  P  P13  1  0.39063726  0.24962706  0.44640781  1
  P  P14  1  0.10936274  0.74962706  0.05359219  1
  P  P15  1  0.60936274  0.75037294  0.55359219  1
  P  P16  1  0.78649110  0.11334992  0.32422246  1
  P  P17  1  0.28649110  0.38665008  0.82422246  1
  P  P18  1  0.21350890  0.88665008  0.67577754  1
  P  P19  1  0.71350890  0.61334992  0.17577754  1
  H  H20  1  0.21973623  0.26372331  0.01600272  1
  H  H21  1  0.71973623  0.23627669  0.51600272  1
  H  H22  1  0.78026377  0.73627669  0.98399728  1
  H  H23  1  0.28026377  0.76372331  0.48399728  1
  H  H24  1  0.98362712  0.38651168  0.98378247  1
  H  H25  1  0.48362712  0.11348832  0.48378247  1
  H  H26  1  0.01637288  0.61348832  0.01621753  1
  H  H27  1  0.51637288  0.88651168  0.51621753  1
  H  H28  1  0.68803423  0.23840484  0.32842592  1
  H  H29  1  0.18803423  0.26159516  0.82842592  1
  H  H30  1  0.31196577  0.76159516  0.67157408  1
  H  H31  1  0.81196577  0.73840484  0.17157408  1
  H  H32  1  0.10480192  0.47161198  0.24545727  1
  H  H33  1  0.60480192  0.02838802  0.74545727  1
  H  H34  1  0.89519808  0.52838802  0.75454273  1
  H  H35  1  0.39519808  0.97161198  0.25454273  1
  H  H36  1  0.94086752  0.42855321  0.17140234  1
  H  H37  1  0.44086752  0.07144679  0.67140234  1
  H  H38  1  0.05913248  0.57144679  0.82859766  1
  H  H39  1  0.55913248  0.92855321  0.32859766  1
  O  O40  1  0.44945728  0.33306534  0.14187664  1
  O  O41  1  0.94945728  0.16693466  0.64187664  1
  O  O42  1  0.55054272  0.66693466  0.85812336  1
  O  O43  1  0.05054272  0.83306534  0.35812336  1
  O  O44  1  0.40661158  0.06019731  0.05173877  1
  O  O45  1  0.90661158  0.43980269  0.55173877  1
  O  O46  1  0.59338842  0.93980269  0.94826123  1
  O  O47  1  0.09338842  0.56019731  0.44826123  1
  O  O48  1  0.26861363  0.12516146  0.18098993  1
  O  O49  1  0.76861363  0.37483854  0.68098993  1
  O  O50  1  0.73138637  0.87483854  0.81901007  1
  O  O51  1  0.23138637  0.62516146  0.31901007  1
  O  O52  1  0.88672152  0.15150768  0.04516478  1
  O  O53  1  0.38672152  0.34849232  0.54516478  1
  O  O54  1  0.11327848  0.84849232  0.95483522  1
  O  O55  1  0.61327848  0.65150768  0.45483522  1
  O  O56  1  0.73355508  0.31917611  0.89655167  1
  O  O57  1  0.23355508  0.18082389  0.39655167  1
  O  O58  1  0.26644492  0.68082389  0.10344833  1
  O  O59  1  0.76644492  0.81917611  0.60344833  1
  O  O60  1  0.94805900  0.15872862  0.86926943  1
  O  O61  1  0.44805900  0.34127138  0.36926943  1
  O  O62  1  0.05194100  0.84127138  0.13073057  1
  O  O63  1  0.55194100  0.65872862  0.63073057  1
  O  O64  1  0.94281189  0.17295848  0.38229040  1
  O  O65  1  0.44281189  0.32704152  0.88229040  1
  O  O66  1  0.05718811  0.82704152  0.61770960  1
  O  O67  1  0.55718811  0.67295848  0.11770960  1
  O  O68  1  0.77497897  0.08749051  0.20639237  1
  O  O69  1  0.27497897  0.41250949  0.70639237  1
  O  O70  1  0.22502103  0.91250949  0.79360763  1
  O  O71  1  0.72502103  0.58749051  0.29360763  1
  O  O72  1  0.74594217  0.95773730  0.37350166  1
  O  O73  1  0.24594217  0.54226270  0.87350166  1
  O  O74  1  0.25405783  0.04226270  0.62649834  1
  O  O75  1  0.75405783  0.45773730  0.12649834  1
  O  O76  1  0.04152671  0.38448458  0.20134451  1
  O  O77  1  0.54152671  0.11551542  0.70134451  1
  O  O78  1  0.95847329  0.61551542  0.79865549  1
  O  O79  1  0.45847329  0.88448458  0.29865549  1
