# generated using pymatgen
data_Ca7La3Ti5Cr5O30
_symmetry_space_group_name_H-M   'P 1'
_cell_length_a   5.47702295
_cell_length_b   5.52084332
_cell_length_c   38.45887589
_cell_angle_alpha   90.00000000
_cell_angle_beta   90.00000000
_cell_angle_gamma   89.81378055
_symmetry_Int_Tables_number   1
_chemical_formula_structural   Ca7La3Ti5Cr5O30
_chemical_formula_sum   'Ca14 La6 Ti10 Cr10 O60'
_cell_volume   1162.90509842
_cell_formula_units_Z   2
loop_
 _symmetry_equiv_pos_site_id
 _symmetry_equiv_pos_as_xyz
  1  'x, y, z'
loop_
 _atom_site_type_symbol
 _atom_site_label
 _atom_site_symmetry_multiplicity
 _atom_site_fract_x
 _atom_site_fract_y
 _atom_site_fract_z
 _atom_site_occupancy
  Ca  Ca0  1  0.01370068  0.96758761  0.15000000  1
  Ca  Ca1  1  0.01226866  0.96785985  0.55043356  1
  Ca  Ca2  1  0.01226866  0.96785985  0.74956644  1
  Ca  Ca3  1  0.48888371  0.46249932  0.35122446  1
  Ca  Ca4  1  0.48794958  0.46011821  0.15000000  1
  Ca  Ca5  1  0.48888371  0.46249932  0.94877554  1
  Ca  Ca6  1  0.51047785  0.54001086  0.65000000  1
  Ca  Ca7  1  0.51113188  0.53771683  0.45038993  1
  Ca  Ca8  1  0.51113188  0.53771683  0.84961007  1
  Ca  Ca9  1  0.98907511  0.03252178  0.05145619  1
  Ca  Ca10  1  0.98907511  0.03252178  0.24854381  1
  Ca  Ca11  1  0.98682115  0.03276581  0.65000000  1
  Ca  Ca12  1  0.98688415  0.03378877  0.45238165  1
  Ca  Ca13  1  0.98688415  0.03378877  0.84761835  1
  La  La14  1  0.00763251  0.97445672  0.35040529  1
  La  La15  1  0.00763251  0.97445672  0.94959471  1
  La  La16  1  0.49102994  0.46848593  0.55012020  1
  La  La17  1  0.49102994  0.46848593  0.74987980  1
  La  La18  1  0.50721416  0.53023799  0.05029453  1
  La  La19  1  0.50721416  0.53023799  0.24970547  1
  Ti  Ti20  1  0.00027336  0.49899335  0.99961462  1
  Ti  Ti21  1  0.00165558  0.49972261  0.10141078  1
  Ti  Ti22  1  0.00165558  0.49972261  0.19858922  1
  Ti  Ti23  1  0.00027336  0.49899335  0.30038538  1
  Ti  Ti24  1  0.99856620  0.49935052  0.40217015  1
  Ti  Ti25  1  0.99682067  0.50128113  0.49983605  1
  Ti  Ti26  1  0.99739364  0.50083383  0.60134957  1
  Ti  Ti27  1  0.99739364  0.50083383  0.69865043  1
  Ti  Ti28  1  0.99856620  0.49935052  0.89782985  1
  Ti  Ti29  1  0.99682067  0.50128113  0.80016395  1
  Cr  Cr30  1  0.50112468  0.99960872  0.10118962  1
  Cr  Cr31  1  0.50072912  0.99977798  0.00015058  1
  Cr  Cr32  1  0.50072912  0.99977798  0.29984942  1
  Cr  Cr33  1  0.50112468  0.99960872  0.19881038  1
  Cr  Cr34  1  0.49868400  0.99953889  0.40168480  1
  Cr  Cr35  1  0.49937825  0.99994160  0.49971287  1
  Cr  Cr36  1  0.49874101  0.00012971  0.60103476  1
  Cr  Cr37  1  0.49874101  0.00012971  0.69896524  1
  Cr  Cr38  1  0.49868400  0.99953889  0.89831520  1
  Cr  Cr39  1  0.49937825  0.99994160  0.80028713  1
  O  O40  1  0.07092276  0.48348067  0.05021941  1
  O  O41  1  0.07092276  0.48348067  0.24978059  1
  O  O42  1  0.08520760  0.47844793  0.44961850  1
  O  O43  1  0.08520808  0.47529329  0.65000000  1
  O  O44  1  0.08520760  0.47844793  0.85038150  1
  O  O45  1  0.21827384  0.22418822  0.19103388  1
  O  O46  1  0.22534160  0.22313308  0.39166081  1
  O  O47  1  0.22062882  0.22271448  0.59096344  1
  O  O48  1  0.21827384  0.22418822  0.10896612  1
  O  O49  1  0.22410163  0.22787148  0.30823310  1
  O  O50  1  0.21653713  0.22293056  0.79107244  1
  O  O51  1  0.22410163  0.22787148  0.99176690  1
  O  O52  1  0.21653713  0.22293056  0.50892756  1
  O  O53  1  0.22062882  0.22271448  0.70903656  1
  O  O54  1  0.22534160  0.22313308  0.90833919  1
  O  O55  1  0.27901589  0.71650291  0.30846035  1
  O  O56  1  0.27983495  0.71496671  0.10851151  1
  O  O57  1  0.27983495  0.71496671  0.19148849  1
  O  O58  1  0.27840399  0.72129900  0.39136159  1
  O  O59  1  0.27478134  0.71944154  0.50770512  1
  O  O60  1  0.27660482  0.71953731  0.59225200  1
  O  O61  1  0.27660482  0.71953731  0.70774800  1
  O  O62  1  0.27840399  0.72129900  0.90863841  1
  O  O63  1  0.27901589  0.71650291  0.99153965  1
  O  O64  1  0.27478134  0.71944154  0.79229488  1
  O  O65  1  0.41506269  0.98578403  0.05099210  1
  O  O66  1  0.41506269  0.98578403  0.24900790  1
  O  O67  1  0.41582092  0.98258969  0.65000000  1
  O  O68  1  0.41497601  0.98227298  0.85139908  1
  O  O69  1  0.41497601  0.98227298  0.44860092  1
  O  O70  1  0.57498179  0.01743654  0.35170324  1
  O  O71  1  0.58463201  0.01259855  0.55066318  1
  O  O72  1  0.58555257  0.01676019  0.15000000  1
  O  O73  1  0.58463201  0.01259855  0.74933682  1
  O  O74  1  0.57498179  0.01743654  0.94829676  1
  O  O75  1  0.72948631  0.27701273  0.00772464  1
  O  O76  1  0.72258375  0.28042639  0.09214361  1
  O  O77  1  0.72258375  0.28042639  0.20785639  1
  O  O78  1  0.72948631  0.27701273  0.29227536  1
  O  O79  1  0.72546944  0.27866224  0.40864441  1
  O  O80  1  0.71944485  0.28459788  0.60840210  1
  O  O81  1  0.71923514  0.28548877  0.80846521  1
  O  O82  1  0.72546944  0.27866224  0.89135559  1
  O  O83  1  0.71923514  0.28548877  0.49153479  1
  O  O84  1  0.71944485  0.28459788  0.69159790  1
  O  O85  1  0.77918278  0.77627974  0.09097125  1
  O  O86  1  0.78523371  0.77763769  0.29137459  1
  O  O87  1  0.77958302  0.77334485  0.49118948  1
  O  O88  1  0.78066859  0.77527827  0.69112467  1
  O  O89  1  0.78523371  0.77763769  0.00862541  1
  O  O90  1  0.77918278  0.77627974  0.20902875  1
  O  O91  1  0.78363914  0.78241383  0.89109584  1
  O  O92  1  0.78363914  0.78241383  0.40890416  1
  O  O93  1  0.78066859  0.77527827  0.60887533  1
  O  O94  1  0.77958302  0.77334485  0.80881052  1
  O  O95  1  0.91314064  0.52406662  0.15000000  1
  O  O96  1  0.91988488  0.51363706  0.35028163  1
  O  O97  1  0.92945914  0.51627288  0.55005724  1
  O  O98  1  0.92945914  0.51627288  0.74994276  1
  O  O99  1  0.91988488  0.51363706  0.94971837  1
