# generated using pymatgen
data_CoH12(ClO3)2
_symmetry_space_group_name_H-M   'P 1'
_cell_length_a   6.31277626
_cell_length_b   6.31277626
_cell_length_c   6.63141496
_cell_angle_alpha   64.12734749
_cell_angle_beta   115.87265251
_cell_angle_gamma   112.46944042
_symmetry_Int_Tables_number   1
_chemical_formula_structural   CoH12(ClO3)2
_chemical_formula_sum   'Co1 H12 Cl2 O6'
_cell_volume   207.85810605
_cell_formula_units_Z   1
loop_
 _symmetry_equiv_pos_site_id
 _symmetry_equiv_pos_as_xyz
  1  'x, y, z'
loop_
 _atom_site_type_symbol
 _atom_site_label
 _atom_site_symmetry_multiplicity
 _atom_site_fract_x
 _atom_site_fract_y
 _atom_site_fract_z
 _atom_site_occupancy
  Co  Co0  1  0.00000000  0.00000000  0.00000000  1
  H  H1  1  0.20901683  0.41075621  0.72770278  1
  H  H2  1  0.58924379  0.79098317  0.72770278  1
  H  H3  1  0.79098317  0.58924379  0.27229722  1
  H  H4  1  0.41075621  0.20901683  0.27229722  1
  H  H5  1  0.78778627  0.65939875  0.78423415  1
  H  H6  1  0.34060125  0.21221373  0.78423415  1
  H  H7  1  0.21221373  0.34060125  0.21576585  1
  H  H8  1  0.65939875  0.78778627  0.21576585  1
  H  H9  1  0.81156519  0.18843481  0.44706064  1
  H  H10  1  0.18843481  0.81156519  0.55293936  1
  H  H11  1  0.26758979  0.73241021  0.83392513  1
  H  H12  1  0.73241021  0.26758979  0.16607487  1
  Cl  Cl13  1  0.72562630  0.27437370  0.83650561  1
  Cl  Cl14  1  0.27437370  0.72562630  0.16349439  1
  O  O15  1  0.18242980  0.23468406  0.75811229  1
  O  O16  1  0.76531594  0.81757020  0.75811229  1
  O  O17  1  0.81757020  0.76531594  0.24188771  1
  O  O18  1  0.23468406  0.18242980  0.24188771  1
  O  O19  1  0.71358284  0.28641716  0.29819979  1
  O  O20  1  0.28641716  0.71358284  0.70180021  1
