# generated using pymatgen
data_Ca2YVO5
_symmetry_space_group_name_H-M   'P 1'
_cell_length_a   5.49842648
_cell_length_b   5.71791763
_cell_length_c   8.93347357
_cell_angle_alpha   108.66911074
_cell_angle_beta   107.88435441
_cell_angle_gamma   89.99923297
_symmetry_Int_Tables_number   1
_chemical_formula_structural   Ca2YVO5
_chemical_formula_sum   'Ca4 Y2 V2 O10'
_cell_volume   251.71917135
_cell_formula_units_Z   2
loop_
 _symmetry_equiv_pos_site_id
 _symmetry_equiv_pos_as_xyz
  1  'x, y, z'
loop_
 _atom_site_type_symbol
 _atom_site_label
 _atom_site_symmetry_multiplicity
 _atom_site_fract_x
 _atom_site_fract_y
 _atom_site_fract_z
 _atom_site_occupancy
  Ca  Ca0  1  0.10808204  0.62912359  0.19938614  1
  Ca  Ca1  1  0.40713542  0.93036551  0.80170072  1
  Ca  Ca2  1  0.90717202  0.37110897  0.80167396  1
  Ca  Ca3  1  0.60803947  0.07006236  0.19940383  1
  Y  Y4  1  0.29212318  0.29515265  0.50045033  1
  Y  Y5  1  0.79214508  0.70508873  0.50047020  1
  V  V6  1  0.48328311  0.50033692  0.00048059  1
  V  V7  1  0.98339801  -0.00005754  0.00052881  1
  O  O8  1  0.69403441  0.33318008  0.50054094  1
  O  O9  1  0.19403381  0.66714170  0.50052601  1
  O  O10  1  0.58078578  0.71107696  0.25929851  1
  O  O11  1  0.32394559  0.28961925  0.74186942  1
  O  O12  1  0.08082406  0.04804357  0.25928170  1
  O  O13  1  0.82399497  0.95199422  0.74189731  1
  O  O14  1  0.21493569  0.73258716  0.96269014  1
  O  O15  1  0.25696745  0.26390919  0.03849421  1
  O  O16  1  0.75697787  0.27441532  0.03852531  1
  O  O17  1  0.71496304  0.72993635  0.96268286  1
