# generated using pymatgen
data_LiAg2F4
_symmetry_space_group_name_H-M   'P 1'
_cell_length_a   6.06925627
_cell_length_b   6.06906538
_cell_length_c   6.97849781
_cell_angle_alpha   103.79496477
_cell_angle_beta   103.78941441
_cell_angle_gamma   116.94019413
_symmetry_Int_Tables_number   1
_chemical_formula_structural   LiAg2F4
_chemical_formula_sum   'Li2 Ag4 F8'
_cell_volume   203.95773229
_cell_formula_units_Z   2
loop_
 _symmetry_equiv_pos_site_id
 _symmetry_equiv_pos_as_xyz
  1  'x, y, z'
loop_
 _atom_site_type_symbol
 _atom_site_label
 _atom_site_symmetry_multiplicity
 _atom_site_fract_x
 _atom_site_fract_y
 _atom_site_fract_z
 _atom_site_occupancy
  Li  Li0  1  0.12546936  0.87460376  0.75000735  1
  Li  Li1  1  0.87466123  0.12519724  0.25000027  1
  Ag  Ag2  1  0.46911851  0.53102579  0.74995453  1
  Ag  Ag3  1  0.78157160  0.21845774  0.75000023  1
  Ag  Ag4  1  0.21837608  0.78162694  0.25010716  1
  Ag  Ag5  1  0.52979042  0.47012098  0.24999385  1
  F  F6  1  0.26535546  0.24221054  0.90500177  1
  F  F7  1  0.13943997  0.66250481  0.90490400  1
  F  F8  1  0.24292661  0.26524011  0.40323283  1
  F  F9  1  0.66236051  0.13936662  0.40488521  1
  F  F10  1  0.33768160  0.86033007  0.59526629  1
  F  F11  1  0.75792468  0.73486456  0.59488034  1
  F  F12  1  0.86081561  0.33752529  0.09507817  1
  F  F13  1  0.73451039  0.75692456  0.09668801  1
