# generated using pymatgen
data_Sm3TaO7
_symmetry_space_group_name_H-M   'P 1'
_cell_length_a   6.60083565
_cell_length_b   6.60083565
_cell_length_c   7.67092868
_cell_angle_alpha   90.00000000
_cell_angle_beta   90.00000000
_cell_angle_gamma   110.59216574
_symmetry_Int_Tables_number   1
_chemical_formula_structural   Sm3TaO7
_chemical_formula_sum   'Sm6 Ta2 O14'
_cell_volume   312.87551106
_cell_formula_units_Z   2
loop_
 _symmetry_equiv_pos_site_id
 _symmetry_equiv_pos_as_xyz
  1  'x, y, z'
loop_
 _atom_site_type_symbol
 _atom_site_label
 _atom_site_symmetry_multiplicity
 _atom_site_fract_x
 _atom_site_fract_y
 _atom_site_fract_z
 _atom_site_occupancy
  Sm  Sm0  1  0.05860832  0.51731585  0.25000000  1
  Sm  Sm1  1  0.48268415  0.94139168  0.75000000  1
  Sm  Sm2  1  0.00000000  0.00000000  0.00000000  1
  Sm  Sm3  1  0.00000000  0.00000000  0.50000000  1
  Sm  Sm4  1  0.94139168  0.48268415  0.75000000  1
  Sm  Sm5  1  0.51731585  0.05860832  0.25000000  1
  Ta  Ta6  1  0.50000000  0.50000000  0.00000000  1
  Ta  Ta7  1  0.50000000  0.50000000  0.50000000  1
  O  O8  1  0.15163523  0.88807772  0.25000000  1
  O  O9  1  0.11192228  0.84836477  0.75000000  1
  O  O10  1  0.56290164  0.81759080  0.03171353  1
  O  O11  1  0.56290164  0.81759080  0.46828647  1
  O  O12  1  0.18240920  0.43709836  0.96828647  1
  O  O13  1  0.18240920  0.43709836  0.53171353  1
  O  O14  1  0.56652663  0.56652663  0.75000000  1
  O  O15  1  0.43347337  0.43347337  0.25000000  1
  O  O16  1  0.81759080  0.56290164  0.03171353  1
  O  O17  1  0.43709836  0.18240920  0.53171353  1
  O  O18  1  0.43709836  0.18240920  0.96828647  1
  O  O19  1  0.81759080  0.56290164  0.46828647  1
  O  O20  1  0.84836477  0.11192228  0.75000000  1
  O  O21  1  0.88807772  0.15163523  0.25000000  1
