# generated using pymatgen
data_Ca(ClO3)2
_symmetry_space_group_name_H-M   'P 1'
_cell_length_a   6.78543314
_cell_length_b   7.14630802
_cell_length_c   8.37481243
_cell_angle_alpha   51.10049810
_cell_angle_beta   55.04865251
_cell_angle_gamma   73.85084938
_symmetry_Int_Tables_number   1
_chemical_formula_structural   Ca(ClO3)2
_chemical_formula_sum   'Ca2 Cl4 O12'
_cell_volume   256.91645585
_cell_formula_units_Z   2
loop_
 _symmetry_equiv_pos_site_id
 _symmetry_equiv_pos_as_xyz
  1  'x, y, z'
loop_
 _atom_site_type_symbol
 _atom_site_label
 _atom_site_symmetry_multiplicity
 _atom_site_fract_x
 _atom_site_fract_y
 _atom_site_fract_z
 _atom_site_occupancy
  Ca  Ca0  1  0.99897530  0.99897530  0.00102470  1
  Ca  Ca1  1  0.24897530  0.24897530  0.25102470  1
  Cl  Cl2  1  0.59906465  0.02864018  0.51008754  1
  Cl  Cl3  1  0.38779237  0.73991246  0.22135982  1
  Cl  Cl4  1  0.73991246  0.38779237  0.65093535  1
  Cl  Cl5  1  0.02864018  0.59906465  0.86220763  1
  O  O6  1  0.63488172  0.10454655  0.27778538  1
  O  O7  1  0.81354892  0.14989306  0.43382828  1
  O  O8  1  0.38382541  0.14820322  0.59682586  1
  O  O9  1  0.37885449  0.65317414  0.10179678  1
  O  O10  1  0.97221462  0.26721365  0.61511828  1
  O  O11  1  0.64727026  0.81617172  0.10010694  1
  O  O12  1  0.81617172  0.64727026  0.43645108  1
  O  O13  1  0.26721365  0.97221462  0.14545345  1
  O  O14  1  0.65317414  0.37885449  0.86617459  1
  O  O15  1  0.14820322  0.38382541  0.87114551  1
  O  O16  1  0.14989306  0.81354892  0.60272974  1
  O  O17  1  0.10454655  0.63488172  0.98278635  1
