# generated using pymatgen
data_La2Bi4O9
_symmetry_space_group_name_H-M   'P 1'
_cell_length_a   4.04090005
_cell_length_b   9.43336477
_cell_length_c   7.00917197
_cell_angle_alpha   83.19600093
_cell_angle_beta   89.76042500
_cell_angle_gamma   101.20017336
_symmetry_Int_Tables_number   1
_chemical_formula_structural   La2Bi4O9
_chemical_formula_sum   'La2 Bi4 O9'
_cell_volume   260.14865265
_cell_formula_units_Z   1
loop_
 _symmetry_equiv_pos_site_id
 _symmetry_equiv_pos_as_xyz
  1  'x, y, z'
loop_
 _atom_site_type_symbol
 _atom_site_label
 _atom_site_symmetry_multiplicity
 _atom_site_fract_x
 _atom_site_fract_y
 _atom_site_fract_z
 _atom_site_occupancy
  La  La0  1  0.49518633  0.01773083  0.50554796  1
  La  La1  1  0.97772594  0.99055718  0.00228389  1
  Bi  Bi2  1  0.83652867  0.67597685  0.40024138  1
  Bi  Bi3  1  0.62706608  0.32710192  0.10495564  1
  Bi  Bi4  1  0.35063727  0.65733678  0.87797389  1
  Bi  Bi5  1  0.17412913  0.34515235  0.63779384  1
  O  O6  1  0.58420282  0.29672460  0.44462106  1
  O  O7  1  0.52756583  0.09261126  0.14591962  1
  O  O8  1  0.95246393  0.90691795  0.36403565  1
  O  O9  1  0.79625122  0.70313116  0.07414294  1
  O  O10  1  0.65608512  0.48551863  0.77522066  1
  O  O11  1  0.11095947  0.28067192  0.97193498  1
  O  O12  1  0.43864409  0.89544185  0.84019800  1
  O  O13  1  0.03590570  0.10726985  0.66695608  1
  O  O14  1  0.36559939  0.70971488  0.54516140  1
