# generated using pymatgen
data_LiCu(PO3)4
_symmetry_space_group_name_H-M   'P 1'
_cell_length_a   7.81464319
_cell_length_b   7.81464341
_cell_length_c   8.33727241
_cell_angle_alpha   83.95008382
_cell_angle_beta   96.04991996
_cell_angle_gamma   78.57278588
_symmetry_Int_Tables_number   1
_chemical_formula_structural   LiCu(PO3)4
_chemical_formula_sum   'Li2 Cu2 P8 O24'
_cell_volume   492.09151876
_cell_formula_units_Z   2
loop_
 _symmetry_equiv_pos_site_id
 _symmetry_equiv_pos_as_xyz
  1  'x, y, z'
loop_
 _atom_site_type_symbol
 _atom_site_label
 _atom_site_symmetry_multiplicity
 _atom_site_fract_x
 _atom_site_fract_y
 _atom_site_fract_z
 _atom_site_occupancy
  Li  Li0  1  0.17148214  0.45156388  0.45514180  1
  Li  Li1  1  0.54843612  0.82851786  0.95514180  1
  Cu  Cu2  1  0.18948524  0.10771649  0.75282065  1
  Cu  Cu3  1  0.89228351  0.81051476  0.25282065  1
  P  P4  1  0.07795657  0.75941644  0.68575878  1
  P  P5  1  0.18205666  0.44255468  0.92844969  1
  P  P6  1  0.24058356  0.92204343  0.18575878  1
  P  P7  1  0.50572905  0.15258486  0.57949812  1
  P  P8  1  0.55744532  0.81794334  0.42844969  1
  P  P9  1  0.82763265  0.02315963  0.81507942  1
  P  P10  1  0.84741514  0.49427095  0.07949812  1
  P  P11  1  0.97684037  0.17236735  0.31507942  1
  O  O12  1  0.01191308  0.26950514  0.45483384  1
  O  O13  1  0.05252488  0.65934994  0.54601237  1
  O  O14  1  0.16167142  0.10606793  0.24675568  1
  O  O15  1  0.20975513  0.33499539  0.78435532  1
  O  O16  1  0.19017387  0.63876264  0.84399390  1
  O  O17  1  0.08789540  0.82970576  0.14895074  1
  O  O18  1  0.17029424  0.91210460  0.64894974  1
  O  O19  1  0.42522805  0.05888538  0.71663048  1
  O  O20  1  0.29639831  0.39760372  0.08474496  1
  O  O21  1  0.41754358  0.33166450  0.50290563  1
  O  O22  1  0.36123736  0.80982613  0.34399390  1
  O  O23  1  0.53564082  0.02719020  0.44050302  1
  O  O24  1  0.34065006  0.94747512  0.04601237  1
  O  O25  1  0.70475960  0.14448794  0.66115826  1
  O  O26  1  0.66833550  0.58245642  0.00290563  1
  O  O27  1  0.60239628  0.70360169  0.58474496  1
  O  O28  1  0.66500461  0.79024487  0.28435532  1
  O  O29  1  0.73049486  0.98808692  0.95483384  1
  O  O30  1  0.88696637  0.01681833  0.34885536  1
  O  O31  1  0.85551206  0.29524040  0.16115826  1
  O  O32  1  0.98318167  0.11303363  0.84885536  1
  O  O33  1  0.97280980  0.46435918  0.94050302  1
  O  O34  1  0.89393207  0.83832858  0.74675568  1
  O  O35  1  0.94111462  0.57477195  0.21663048  1
