# generated using pymatgen
data_CuTeO4
_symmetry_space_group_name_H-M   'P 1'
_cell_length_a   5.35575414
_cell_length_b   9.65230361
_cell_length_c   9.17316004
_cell_angle_alpha   18.14643401
_cell_angle_beta   34.43732197
_cell_angle_gamma   38.39680957
_symmetry_Int_Tables_number   1
_chemical_formula_structural   CuTeO4
_chemical_formula_sum   'Cu1 Te1 O4'
_cell_volume   83.51994418
_cell_formula_units_Z   1
loop_
 _symmetry_equiv_pos_site_id
 _symmetry_equiv_pos_as_xyz
  1  'x, y, z'
loop_
 _atom_site_type_symbol
 _atom_site_label
 _atom_site_symmetry_multiplicity
 _atom_site_fract_x
 _atom_site_fract_y
 _atom_site_fract_z
 _atom_site_occupancy
  Cu  Cu0  1  0.50002449  0.00000057  0.49997372  1
  Te  Te1  1  0.49999334  0.49999822  0.50001316  1
  O  O2  1  0.41452022  0.00013689  0.18149272  1
  O  O3  1  0.12832399  0.50003174  0.23890690  1
  O  O4  1  0.58543952  0.99986157  0.81853864  1
  O  O5  1  0.87169844  0.49997001  0.76107586  1
