# generated using pymatgen
data_Tb3NbO7
_symmetry_space_group_name_H-M   'P 1'
_cell_length_a   6.51447609
_cell_length_b   6.51447609
_cell_length_c   7.55436331
_cell_angle_alpha   90.00000000
_cell_angle_beta   90.00000000
_cell_angle_gamma   109.19829145
_symmetry_Int_Tables_number   1
_chemical_formula_structural   Tb3NbO7
_chemical_formula_sum   'Tb6 Nb2 O14'
_cell_volume   302.76556404
_cell_formula_units_Z   2
loop_
 _symmetry_equiv_pos_site_id
 _symmetry_equiv_pos_as_xyz
  1  'x, y, z'
loop_
 _atom_site_type_symbol
 _atom_site_label
 _atom_site_symmetry_multiplicity
 _atom_site_fract_x
 _atom_site_fract_y
 _atom_site_fract_z
 _atom_site_occupancy
  Tb  Tb0  1  0.99970115  0.46423896  0.49589376  1
  Tb  Tb1  1  0.53576104  0.00029885  0.50410624  1
  Tb  Tb2  1  0.47421693  0.47421693  0.75000000  1
  Tb  Tb3  1  0.52578307  0.52578307  0.25000000  1
  Tb  Tb4  1  0.00029885  0.53576104  0.99589376  1
  Tb  Tb5  1  0.46423896  0.99970115  0.00410624  1
  Nb  Nb6  1  0.00339998  0.00339998  0.25000000  1
  Nb  Nb7  1  0.99660002  0.99660002  0.75000000  1
  O  O8  1  0.07016734  0.92983266  0.00000000  1
  O  O9  1  0.36223421  0.63776579  0.00000000  1
  O  O10  1  0.06122941  0.31489661  0.21166590  1
  O  O11  1  0.68510339  0.93877059  0.78833410  1
  O  O12  1  0.37055946  0.62944054  0.50000000  1
  O  O13  1  0.67258398  0.91860699  0.22209574  1
  O  O14  1  0.08139301  0.32741602  0.77790426  1
  O  O15  1  0.32741602  0.08139301  0.72209574  1
  O  O16  1  0.91860699  0.67258398  0.27790426  1
  O  O17  1  0.62944054  0.37055946  0.00000000  1
  O  O18  1  0.93877059  0.68510339  0.71166590  1
  O  O19  1  0.31489661  0.06122941  0.28833410  1
  O  O20  1  0.63776579  0.36223421  0.50000000  1
  O  O21  1  0.92983266  0.07016734  0.50000000  1
