# generated using pymatgen
data_Cu6OF11
_symmetry_space_group_name_H-M   'P 1'
_cell_length_a   3.29600599
_cell_length_b   10.17695853
_cell_length_c   6.63451604
_cell_angle_alpha   108.05264911
_cell_angle_beta   84.48174800
_cell_angle_gamma   87.58906187
_symmetry_Int_Tables_number   1
_chemical_formula_structural   Cu6OF11
_chemical_formula_sum   'Cu6 O1 F11'
_cell_volume   209.99960188
_cell_formula_units_Z   1
loop_
 _symmetry_equiv_pos_site_id
 _symmetry_equiv_pos_as_xyz
  1  'x, y, z'
loop_
 _atom_site_type_symbol
 _atom_site_label
 _atom_site_symmetry_multiplicity
 _atom_site_fract_x
 _atom_site_fract_y
 _atom_site_fract_z
 _atom_site_occupancy
  Cu  Cu0  1  0.50192730  0.66351080  0.83158347  1
  Cu  Cu1  1  0.49549422  0.01128308  0.50571770  1
  Cu  Cu2  1  0.50121073  0.33377146  0.16667722  1
  Cu  Cu3  1  0.99892144  0.67032873  0.33513392  1
  Cu  Cu4  1  0.98421643  0.31251562  0.65670188  1
  Cu  Cu5  1  -0.00071648  0.99965517  0.00004861  1
  O  O6  1  0.47495402  0.20008120  0.59919629  1
  F  F7  1  0.96170735  0.66705185  0.62733685  1
  F  F8  1  0.95696993  0.33165946  0.96184367  1
  F  F9  1  0.94947370  0.00097384  0.29534209  1
  F  F10  1  0.46644604  0.86376130  0.93182609  1
  F  F11  1  0.54298803  0.46589913  0.73359407  1
  F  F12  1  0.53622358  0.81020596  0.40575072  1
  F  F13  1  0.46136559  0.53291029  0.26594558  1
  F  F14  1  0.53492904  0.13461754  0.06745413  1
  F  F15  1  0.03982399  0.66734450  0.03974411  1
  F  F16  1  0.04757577  0.00166631  0.70620717  1
  F  F17  1  0.04649134  0.33276476  0.36989743  1
