# generated using pymatgen
data_Li2NbOF5
_symmetry_space_group_name_H-M   'P 1'
_cell_length_a   5.03351300
_cell_length_b   5.03344367
_cell_length_c   13.95468431
_cell_angle_alpha   89.99510239
_cell_angle_beta   89.99827811
_cell_angle_gamma   120.00509136
_symmetry_Int_Tables_number   1
_chemical_formula_structural   Li2NbOF5
_chemical_formula_sum   'Li6 Nb3 O3 F15'
_cell_volume   306.17150500
_cell_formula_units_Z   3
loop_
 _symmetry_equiv_pos_site_id
 _symmetry_equiv_pos_as_xyz
  1  'x, y, z'
loop_
 _atom_site_type_symbol
 _atom_site_label
 _atom_site_symmetry_multiplicity
 _atom_site_fract_x
 _atom_site_fract_y
 _atom_site_fract_z
 _atom_site_occupancy
  Li  Li0  1  0.34560478  0.67314989  0.16791348  1
  Li  Li1  1  0.32684692  0.67243418  0.50126650  1
  Li  Li2  1  0.32759382  0.65438645  0.83460842  1
  Li  Li3  1  0.66933470  0.33696121  0.50120329  1
  Li  Li4  1  0.66763651  0.33063849  0.16784868  1
  Li  Li5  1  0.66303017  0.33235089  0.83455261  1
  Nb  Nb6  1  0.97449326  0.97549025  0.00599627  1
  Nb  Nb7  1  0.02437474  0.99891969  0.33932694  1
  Nb  Nb8  1  0.00104868  0.02551655  0.67268153  1
  O  O9  1  0.99844719  0.30979915  0.74798563  1
  O  O10  1  0.31113810  0.00148559  0.41463231  1
  O  O11  1  0.69035617  0.68878694  0.08134558  1
  F  F12  1  0.99684455  0.67731906  0.24893805  1
  F  F13  1  0.00528509  0.68362067  0.91533233  1
  F  F14  1  0.99795662  0.67699039  0.58223067  1
  F  F15  1  0.99550352  0.32138024  0.41549684  1
  F  F16  1  0.00566722  0.32768057  0.08153956  1
  F  F17  1  0.32269010  0.31967290  0.58228890  1
  F  F18  1  0.31629162  0.32143489  0.24860254  1
  F  F19  1  0.32308362  0.32094453  0.91548717  1
  F  F20  1  0.32594147  0.00457321  0.08212892  1
  F  F21  1  0.32196885  0.99444703  0.74832062  1
  F  F22  1  0.67226701  0.67776956  0.41490431  1
  F  F23  1  0.67871788  0.67417202  0.74892021  1
  F  F24  1  0.67891396  0.00210810  0.24884119  1
  F  F25  1  0.67841387  0.99491022  0.58202855  1
  F  F26  1  0.68051956  0.00305632  0.91557789  1
