# generated using pymatgen
data_AlBi3F15
_symmetry_space_group_name_H-M   'P 1'
_cell_length_a   11.06657226
_cell_length_b   5.74645855
_cell_length_c   11.02334928
_cell_angle_alpha   90.00000000
_cell_angle_beta   90.00000000
_cell_angle_gamma   105.60249835
_symmetry_Int_Tables_number   1
_chemical_formula_structural   AlBi3F15
_chemical_formula_sum   'Al2 Bi6 F30'
_cell_volume   675.18265767
_cell_formula_units_Z   2
loop_
 _symmetry_equiv_pos_site_id
 _symmetry_equiv_pos_as_xyz
  1  'x, y, z'
loop_
 _atom_site_type_symbol
 _atom_site_label
 _atom_site_symmetry_multiplicity
 _atom_site_fract_x
 _atom_site_fract_y
 _atom_site_fract_z
 _atom_site_occupancy
  Al  Al0  1  0.91321900  0.48946485  0.25000000  1
  Al  Al1  1  0.42011400  0.51053515  0.75000000  1
  Bi  Bi2  1  0.16666700  -0.00000000  0.50000000  1
  Bi  Bi3  1  0.50276568  0.95515719  0.44632380  1
  Bi  Bi4  1  0.83056732  0.04484281  0.55367620  1
  Bi  Bi5  1  0.16666700  -0.00000000  -0.00000000  1
  Bi  Bi6  1  0.50276568  0.95515719  0.05367620  1
  Bi  Bi7  1  0.83056732  0.04484281  0.94632380  1
  F  F8  1  0.06923014  0.62131398  0.25000000  1
  F  F9  1  0.48504028  0.84418323  0.25000000  1
  F  F10  1  0.80878735  0.65035995  0.25000000  1
  F  F11  1  0.26410286  0.37868602  0.75000000  1
  F  F12  1  0.52454665  0.34964005  0.75000000  1
  F  F13  1  0.84829272  0.15581677  0.75000000  1
  F  F14  1  0.05900138  0.15100280  0.61555666  1
  F  F15  1  0.34545764  0.10103533  0.57982000  1
  F  F16  1  0.64539305  0.11010227  0.59182475  1
  F  F17  1  0.27433262  0.84899720  0.38444334  1
  F  F18  1  0.68793995  0.88989773  0.40817525  1
  F  F19  1  0.98787536  0.89896467  0.42018000  1
  F  F20  1  0.11862588  0.69379112  0.90124418  1
  F  F21  1  0.44767951  0.68692217  0.88114538  1
  F  F22  1  0.79114640  0.69179834  0.88965894  1
  F  F23  1  0.21470812  0.30620888  0.09875582  1
  F  F24  1  0.54218660  0.30820166  0.11034106  1
  F  F25  1  0.88565349  0.31307783  0.11885462  1
  F  F26  1  0.21470812  0.30620888  0.40124418  1
  F  F27  1  0.54218660  0.30820166  0.38965894  1
  F  F28  1  0.88565349  0.31307783  0.38114538  1
  F  F29  1  0.11862588  0.69379112  0.59875582  1
  F  F30  1  0.44767951  0.68692217  0.61885462  1
  F  F31  1  0.79114640  0.69179834  0.61034106  1
  F  F32  1  0.05900138  0.15100280  0.88444334  1
  F  F33  1  0.34545764  0.10103533  0.92018000  1
  F  F34  1  0.64539305  0.11010227  0.90817525  1
  F  F35  1  0.27433262  0.84899720  0.11555666  1
  F  F36  1  0.68793995  0.88989773  0.09182475  1
  F  F37  1  0.98787536  0.89896467  0.07982000  1
