# generated using pymatgen
data_Ba4OF6
_symmetry_space_group_name_H-M   'P 1'
_cell_length_a   8.79095575
_cell_length_b   8.79095575
_cell_length_c   6.32998696
_cell_angle_alpha   90.00000000
_cell_angle_beta   90.00000000
_cell_angle_gamma   90.00000000
_symmetry_Int_Tables_number   1
_chemical_formula_structural   Ba4OF6
_chemical_formula_sum   'Ba8 O2 F12'
_cell_volume   489.18710824
_cell_formula_units_Z   2
loop_
 _symmetry_equiv_pos_site_id
 _symmetry_equiv_pos_as_xyz
  1  'x, y, z'
loop_
 _atom_site_type_symbol
 _atom_site_label
 _atom_site_symmetry_multiplicity
 _atom_site_fract_x
 _atom_site_fract_y
 _atom_site_fract_z
 _atom_site_occupancy
  Ba  Ba0  1  0.00418276  0.25000000  0.54674447  1
  Ba  Ba1  1  0.25000000  0.00418276  0.04674447  1
  Ba  Ba2  1  0.25000000  0.49581724  0.04674447  1
  Ba  Ba3  1  0.49581724  0.25000000  0.54674447  1
  Ba  Ba4  1  0.50418276  0.75000000  0.45325553  1
  Ba  Ba5  1  0.75000000  0.50418276  0.95325553  1
  Ba  Ba6  1  0.75000000  0.99581724  0.95325553  1
  Ba  Ba7  1  0.99581724  0.75000000  0.45325553  1
  O  O8  1  0.25000000  0.75000000  0.25000000  1
  O  O9  1  0.75000000  0.25000000  0.75000000  1
  F  F10  1  0.03087493  0.96912507  0.75000000  1
  F  F11  1  0.03087493  0.53087493  0.75000000  1
  F  F12  1  0.25000000  0.25000000  0.78983141  1
  F  F13  1  0.25000000  0.25000000  0.28983141  1
  F  F14  1  0.46912507  0.53087493  0.75000000  1
  F  F15  1  0.46912507  0.96912507  0.75000000  1
  F  F16  1  0.53087493  0.03087493  0.25000000  1
  F  F17  1  0.53087493  0.46912507  0.25000000  1
  F  F18  1  0.75000000  0.75000000  0.21016859  1
  F  F19  1  0.75000000  0.75000000  0.71016859  1
  F  F20  1  0.96912507  0.03087493  0.25000000  1
  F  F21  1  0.96912507  0.46912507  0.25000000  1
