# generated using pymatgen
data_SbAsAuF9
_symmetry_space_group_name_H-M   'P 1'
_cell_length_a   8.14838299
_cell_length_b   9.29310081
_cell_length_c   10.99857132
_cell_angle_alpha   90.00000000
_cell_angle_beta   96.16728675
_cell_angle_gamma   90.00000000
_symmetry_Int_Tables_number   1
_chemical_formula_structural   SbAsAuF9
_chemical_formula_sum   'Sb4 As4 Au4 F36'
_cell_volume   828.03283836
_cell_formula_units_Z   4
loop_
 _symmetry_equiv_pos_site_id
 _symmetry_equiv_pos_as_xyz
  1  'x, y, z'
loop_
 _atom_site_type_symbol
 _atom_site_label
 _atom_site_symmetry_multiplicity
 _atom_site_fract_x
 _atom_site_fract_y
 _atom_site_fract_z
 _atom_site_occupancy
  Sb  Sb0  1  0.25921426  0.67529543  0.92161071  1
  Sb  Sb1  1  0.24078574  0.17529543  0.57838929  1
  Sb  Sb2  1  0.75921426  0.82470457  0.42161071  1
  Sb  Sb3  1  0.74078574  0.32470457  0.07838929  1
  As  As4  1  0.25006310  0.63611983  0.38627568  1
  As  As5  1  0.24993690  0.13611983  0.11372532  1
  As  As6  1  0.75006310  0.86388017  0.88627568  1
  As  As7  1  0.74993690  0.36388017  0.61372432  1
  Au  Au8  1  0.20408765  0.70761217  0.58153496  1
  Au  Au9  1  0.29591235  0.20761217  0.91846504  1
  Au  Au10  1  0.70408765  0.79238783  0.08153496  1
  Au  Au11  1  0.79591235  0.29238783  0.41846504  1
  F  F12  1  0.05177233  0.68618456  0.98746594  1
  F  F13  1  0.04686244  0.17815063  0.66332008  1
  F  F14  1  0.14179864  0.74975239  0.76522378  1
  F  F15  1  0.10130656  0.53537403  0.30091732  1
  F  F16  1  0.12266082  0.10335891  0.43213061  1
  F  F17  1  0.08060266  0.02887676  0.13144202  1
  F  F18  1  0.20954162  0.48540432  0.86040669  1
  F  F19  1  0.19534448  0.37131209  0.52986842  1
  F  F20  1  0.30465652  0.87131209  0.97013158  1
  F  F21  1  0.22040136  0.26536781  0.22157102  1
  F  F22  1  0.29045838  0.98540432  0.63959331  1
  F  F23  1  0.27959864  0.76536781  0.27842898  1
  F  F24  1  0.35820136  0.24975239  0.73477622  1
  F  F25  1  0.45313756  0.67815063  0.83667992  1
  F  F26  1  0.41939734  0.52887676  0.36855798  1
  F  F27  1  0.37733918  0.60335891  0.06786939  1
  F  F28  1  0.39869344  0.03537403  0.19908268  1
  F  F29  1  0.44822767  0.18618456  0.51253406  1
  F  F30  1  0.55177233  0.81381544  0.48746594  1
  F  F31  1  0.60130656  0.96462597  0.80091732  1
  F  F32  1  0.62266082  0.39664109  0.93213061  1
  F  F33  1  0.58060266  0.47112324  0.63144202  1
  F  F34  1  0.54686244  0.32184937  0.16332008  1
  F  F35  1  0.64179864  0.75024761  0.26522378  1
  F  F36  1  0.72040136  0.23463219  0.72157102  1
  F  F37  1  0.70954162  0.01459568  0.36040669  1
  F  F38  1  0.77959864  0.73463219  0.77842898  1
  F  F39  1  0.69534348  0.12868891  0.02986842  1
  F  F40  1  0.80465652  0.62868791  0.47013158  1
  F  F41  1  0.79045838  0.51459568  0.13959331  1
  F  F42  1  0.91939734  0.97112324  0.86855798  1
  F  F43  1  0.87733918  0.89664109  0.56786939  1
  F  F44  1  0.89869344  0.46462597  0.69908268  1
  F  F45  1  0.85820136  0.25024761  0.23477622  1
  F  F46  1  0.95313756  0.82184937  0.33667992  1
  F  F47  1  0.94822767  0.31381544  0.01253406  1
