# generated using pymatgen
data_Ti5O8
_symmetry_space_group_name_H-M   'P 1'
_cell_length_a   5.52365897
_cell_length_b   9.08277246
_cell_length_c   9.07462911
_cell_angle_alpha   68.12044484
_cell_angle_beta   95.26688317
_cell_angle_gamma   95.21249725
_symmetry_Int_Tables_number   1
_chemical_formula_structural   Ti5O8
_chemical_formula_sum   'Ti15 O24'
_cell_volume   419.90673258
_cell_formula_units_Z   3
loop_
 _symmetry_equiv_pos_site_id
 _symmetry_equiv_pos_as_xyz
  1  'x, y, z'
loop_
 _atom_site_type_symbol
 _atom_site_label
 _atom_site_symmetry_multiplicity
 _atom_site_fract_x
 _atom_site_fract_y
 _atom_site_fract_z
 _atom_site_occupancy
  Ti  Ti0  1  0.67664514  0.06882469  0.07116666  1
  Ti  Ti1  1  0.19982849  0.06973832  0.59301673  1
  Ti  Ti2  1  0.30381110  0.17410692  0.17429110  1
  Ti  Ti3  1  0.80984903  0.17330743  0.67281936  1
  Ti  Ti4  1  0.30524666  0.42230648  0.42132484  1
  Ti  Ti5  1  0.19557505  0.59219406  0.06728517  1
  Ti  Ti6  1  0.19045097  0.31997701  0.82638148  1
  Ti  Ti7  1  0.69330366  0.32658066  0.32488381  1
  Ti  Ti8  1  0.80788791  0.67282971  0.17394051  1
  Ti  Ti9  1  0.19754093  0.83185572  0.32180955  1
  Ti  Ti10  1  0.30562520  0.67432756  0.67342099  1
  Ti  Ti11  1  0.80702053  0.42330775  0.92489424  1
  Ti  Ti12  1  0.69180654  0.57748995  0.57742857  1
  Ti  Ti13  1  0.68326357  0.83017137  0.83670165  1
  Ti  Ti14  1  0.80782431  0.92580043  0.42392442  1
  O  O15  1  0.15699970  0.03251057  0.37772329  1
  O  O16  1  0.99740740  0.21687247  0.03209484  1
  O  O17  1  0.65742060  0.12704654  0.27950272  1
  O  O18  1  0.16071395  0.14123703  0.76639864  1
  O  O19  1  0.99890427  0.28023912  0.46622373  1
  O  O20  1  0.67458484  0.03354241  0.87284379  1
  O  O21  1  0.34322127  0.37886901  0.21527516  1
  O  O22  1  0.49903888  0.21945152  0.52884491  1
  O  O23  1  0.15872861  0.62757183  0.28095137  1
  O  O24  1  0.49895032  0.28078704  0.96765712  1
  O  O25  1  0.34241606  0.46959125  0.62424418  1
  O  O26  1  0.85078767  0.46687646  0.12758109  1
  O  O27  1  0.15366129  0.53037882  0.87422400  1
  O  O28  1  0.65527069  0.52946386  0.37627848  1
  O  O29  1  0.99915282  0.72019982  0.53214803  1
  O  O30  1  0.50870421  0.70831362  0.03533867  1
  O  O31  1  0.84240527  0.37486035  0.72002196  1
  O  O32  1  0.65002085  0.62562255  0.78254546  1
  O  O33  1  0.50143312  0.78006944  0.46836557  1
  O  O34  1  0.97384465  0.76710623  0.96681418  1
  O  O35  1  0.35684049  0.96936543  0.14065266  1
  O  O36  1  0.34936737  0.87210627  0.70804997  1
  O  O37  1  0.84583377  0.87474358  0.22093933  1
  O  O38  1  0.84052282  0.96737973  0.62901279  1
