# generated using pymatgen
data_K4Nb15O24
_symmetry_space_group_name_H-M   'P 1'
_cell_length_a   8.27641615
_cell_length_b   9.34231679
_cell_length_c   9.41493964
_cell_angle_alpha   66.47184614
_cell_angle_beta   90.00000000
_cell_angle_gamma   63.70754781
_symmetry_Int_Tables_number   1
_chemical_formula_structural   K4Nb15O24
_chemical_formula_sum   'K4 Nb15 O24'
_cell_volume   584.39039224
_cell_formula_units_Z   1
loop_
 _symmetry_equiv_pos_site_id
 _symmetry_equiv_pos_as_xyz
  1  'x, y, z'
loop_
 _atom_site_type_symbol
 _atom_site_label
 _atom_site_symmetry_multiplicity
 _atom_site_fract_x
 _atom_site_fract_y
 _atom_site_fract_z
 _atom_site_occupancy
  K  K0  1  0.00000000  0.00000000  0.00000000  1
  K  K1  1  0.50000000  0.00000000  0.00000000  1
  K  K2  1  0.25222971  0.49554058  0.00259663  1
  K  K3  1  0.74777029  0.50445942  0.99740337  1
  Nb  Nb4  1  0.17407974  0.13434121  0.23160350  1
  Nb  Nb5  1  0.11706233  0.25247865  0.50029215  1
  Nb  Nb6  1  0.06309402  0.37447368  0.75086466  1
  Nb  Nb7  1  0.50000000  0.00000000  0.50000000  1
  Nb  Nb8  1  0.25283211  0.49433577  0.50023236  1
  Nb  Nb9  1  0.69157805  0.13434121  0.23160350  1
  Nb  Nb10  1  0.43756770  0.62552632  0.24913534  1
  Nb  Nb11  1  0.63045902  0.25247865  0.50029215  1
  Nb  Nb12  1  0.36954098  0.74752135  0.49970785  1
  Nb  Nb13  1  0.56243230  0.37447368  0.75086466  1
  Nb  Nb14  1  0.30842195  0.86565879  0.76839650  1
  Nb  Nb15  1  0.74716789  0.50566423  0.49976764  1
  Nb  Nb16  1  0.93690598  0.62552632  0.24913534  1
  Nb  Nb17  1  0.88293767  0.74752135  0.49970785  1
  Nb  Nb18  1  0.82592026  0.86565879  0.76839650  1
  O  O19  1  0.05978101  0.37393466  0.24754689  1
  O  O20  1  0.18620881  0.12141726  0.75276963  1
  O  O21  1  0.12968923  0.24934339  0.00101440  1
  O  O22  1  0.43676301  0.12647397  0.24695350  1
  O  O23  1  0.37622222  0.24755555  0.49995770  1
  O  O24  1  0.18764456  0.62471189  0.24651564  1
  O  O25  1  0.12608290  0.74783420  0.49989373  1
  O  O26  1  0.31400634  0.37198832  0.75226707  1
  O  O27  1  0.06501492  0.86996916  0.76003953  1
  O  O28  1  0.62096638  0.24934339  0.00101440  1
  O  O29  1  0.37903362  0.75065661  0.99898560  1
  O  O30  1  0.56628433  0.37393466  0.24754689  1
  O  O31  1  0.30762507  0.87858274  0.24723037  1
  O  O32  1  0.69237493  0.12141726  0.75276963  1
  O  O33  1  0.43371567  0.62606534  0.75245311  1
  O  O34  1  0.81235544  0.37528811  0.75348436  1
  O  O35  1  0.56323699  0.87352603  0.75304650  1
  O  O36  1  0.93498508  0.13003084  0.23996047  1
  O  O37  1  0.87391710  0.25216580  0.50010627  1
  O  O38  1  0.68599366  0.62801168  0.24773293  1
  O  O39  1  0.62377778  0.75244445  0.50004230  1
  O  O40  1  0.94021899  0.62606534  0.75245311  1
  O  O41  1  0.81379119  0.87858274  0.24723037  1
  O  O42  1  0.87031077  0.75065661  0.99898560  1
