# generated using pymatgen
data_Hg2P2H4O9
_symmetry_space_group_name_H-M   'P 1'
_cell_length_a   7.04463560
_cell_length_b   7.54475697
_cell_length_c   8.10762844
_cell_angle_alpha   84.91394206
_cell_angle_beta   75.12871854
_cell_angle_gamma   73.57107492
_symmetry_Int_Tables_number   1
_chemical_formula_structural   Hg2P2H4O9
_chemical_formula_sum   'Hg4 P4 H8 O18'
_cell_volume   399.42258726
_cell_formula_units_Z   2
loop_
 _symmetry_equiv_pos_site_id
 _symmetry_equiv_pos_as_xyz
  1  'x, y, z'
loop_
 _atom_site_type_symbol
 _atom_site_label
 _atom_site_symmetry_multiplicity
 _atom_site_fract_x
 _atom_site_fract_y
 _atom_site_fract_z
 _atom_site_occupancy
  Hg  Hg0  1  0.18931922  0.23093578  0.52132712  1
  Hg  Hg1  1  0.26373655  0.63579842  0.75469910  1
  Hg  Hg2  1  0.73626345  0.36420158  0.24530090  1
  Hg  Hg3  1  0.81068078  0.76906422  0.47867288  1
  P  P4  1  0.22262106  0.53645133  0.18807691  1
  P  P5  1  0.33079745  0.79554241  0.36157796  1
  P  P6  1  0.66920255  0.20445759  0.63842204  1
  P  P7  1  0.77737894  0.46354867  0.81192309  1
  H  H8  1  0.17757215  0.10303399  0.14448615  1
  H  H9  1  0.16663007  0.27039784  0.01414339  1
  H  H10  1  0.20134214  0.02961147  0.87020856  1
  H  H11  1  0.58306500  0.02481040  0.26126646  1
  H  H12  1  0.41693500  0.97518960  0.73873354  1
  H  H13  1  0.79865786  0.97038853  0.12979144  1
  H  H14  1  0.83336993  0.72960216  0.98585661  1
  H  H15  1  0.82242785  0.89696601  0.85551385  1
  O  O16  1  0.11051737  0.16322152  0.05303285  1
  O  O17  1  0.00768916  0.43093087  0.72758649  1
  O  O18  1  0.31222548  0.00410745  0.32248222  1
  O  O19  1  0.16441557  0.75934251  0.51800356  1
  O  O20  1  0.27584794  0.73245632  0.19582731  1
  O  O21  1  0.35730516  0.39020109  0.28394720  1
  O  O22  1  0.26902798  0.48653752  0.00047176  1
  O  O23  1  0.45386817  0.31256385  0.63063671  1
  O  O24  1  0.72782678  0.02500376  0.24505505  1
  O  O25  1  0.27217322  0.97499624  0.75494495  1
  O  O26  1  0.54613183  0.68743615  0.36936329  1
  O  O27  1  0.73097202  0.51346248  0.99952824  1
  O  O28  1  0.64269484  0.60979891  0.71605280  1
  O  O29  1  0.72415206  0.26754368  0.80417269  1
  O  O30  1  0.83558443  0.24065749  0.48199644  1
  O  O31  1  0.68777452  0.99589255  0.67751778  1
  O  O32  1  0.99231084  0.56906913  0.27241351  1
  O  O33  1  0.88948263  0.83677848  0.94696715  1
