# generated using pymatgen
data_NaInBP2HO9
_symmetry_space_group_name_H-M   'P 1'
_cell_length_a   5.25778283
_cell_length_b   7.91111664
_cell_length_c   17.06768641
_cell_angle_alpha   90.00000000
_cell_angle_beta   90.00000000
_cell_angle_gamma   93.35034845
_symmetry_Int_Tables_number   1
_chemical_formula_structural   NaInBP2HO9
_chemical_formula_sum   'Na4 In4 B4 P8 H4 O36'
_cell_volume   708.71589969
_cell_formula_units_Z   4
loop_
 _symmetry_equiv_pos_site_id
 _symmetry_equiv_pos_as_xyz
  1  'x, y, z'
loop_
 _atom_site_type_symbol
 _atom_site_label
 _atom_site_symmetry_multiplicity
 _atom_site_fract_x
 _atom_site_fract_y
 _atom_site_fract_z
 _atom_site_occupancy
  Na  Na0  1  0.35550867  0.33872518  0.33883065  1
  Na  Na1  1  0.85550867  0.83872518  0.16116935  1
  Na  Na2  1  0.64449133  0.66127482  0.66116935  1
  Na  Na3  1  0.14449133  0.16127482  0.83883065  1
  In  In4  1  0.32177416  0.80608597  0.34420478  1
  In  In5  1  0.82177416  0.30608597  0.15579522  1
  In  In6  1  0.67822584  0.19391403  0.65579522  1
  In  In7  1  0.17822584  0.69391403  0.84420478  1
  B  B8  1  0.90982996  0.25107888  0.47140025  1
  B  B9  1  0.40982996  0.75107888  0.02859975  1
  B  B10  1  0.09017004  0.74892112  0.52859975  1
  B  B11  1  0.59017004  0.24892112  0.97140025  1
  P  P12  1  0.84992792  0.08166067  0.33003390  1
  P  P13  1  0.34992792  0.58166067  0.16996610  1
  P  P14  1  0.15007208  0.91833933  0.66996610  1
  P  P15  1  0.65007208  0.41833933  0.83003390  1
  P  P16  1  0.82859273  0.57297678  0.41237880  1
  P  P17  1  0.32859273  0.07297678  0.08762120  1
  P  P18  1  0.17140727  0.42702322  0.58762120  1
  P  P19  1  0.67140727  0.92702322  0.91237880  1
  H  H20  1  0.37520171  0.92130097  0.50332761  1
  H  H21  1  0.87520171  0.42130097  0.99667239  1
  H  H22  1  0.62479829  0.07869903  0.49667239  1
  H  H23  1  0.12479829  0.57869903  0.00332761  1
  O  O24  1  0.56355390  0.03765906  0.34868159  1
  O  O25  1  0.06355390  0.53765906  0.15131841  1
  O  O26  1  0.43644610  0.96234094  0.65131841  1
  O  O27  1  0.93644610  0.46234094  0.84868159  1
  O  O28  1  0.99378809  0.14115647  0.40789418  1
  O  O29  1  0.49378809  0.64115647  0.09210582  1
  O  O30  1  0.00621191  0.85884353  0.59210582  1
  O  O31  1  0.50621191  0.35884353  0.90789418  1
  O  O32  1  0.25811007  0.84821531  0.47313903  1
  O  O33  1  0.75811007  0.34821531  0.02686097  1
  O  O34  1  0.74188993  0.15178469  0.52686097  1
  O  O35  1  0.24188993  0.65178469  0.97313903  1
  O  O36  1  0.85824702  0.68684688  0.48810049  1
  O  O37  1  0.35824702  0.18684688  0.01189951  1
  O  O38  1  0.14175298  0.31315312  0.51189951  1
  O  O39  1  0.64175298  0.81315312  0.98810049  1
  O  O40  1  0.75600816  0.38631579  0.43879143  1
  O  O41  1  0.25600816  0.88631579  0.06120857  1
  O  O42  1  0.24399184  0.61368421  0.56120857  1
  O  O43  1  0.74399184  0.11368421  0.93879143  1
  O  O44  1  0.87988582  0.23504939  0.27513347  1
  O  O45  1  0.37988582  0.73504939  0.22486653  1
  O  O46  1  0.12011418  0.76495061  0.72486653  1
  O  O47  1  0.62011418  0.26495061  0.77513347  1
  O  O48  1  0.98559998  0.92653864  0.30038677  1
  O  O49  1  0.48559998  0.42653864  0.19961323  1
  O  O50  1  0.01440002  0.07346136  0.69961323  1
  O  O51  1  0.51440002  0.57346136  0.80038677  1
  O  O52  1  0.07917023  0.57938633  0.36666659  1
  O  O53  1  0.57917023  0.07938633  0.13333341  1
  O  O54  1  0.92082977  0.42061367  0.63333341  1
  O  O55  1  0.42082977  0.92061367  0.86666659  1
  O  O56  1  0.59887016  0.62420738  0.36660668  1
  O  O57  1  0.09887016  0.12420738  0.13339332  1
  O  O58  1  0.40112984  0.37579262  0.63339332  1
  O  O59  1  0.90112984  0.87579262  0.86660668  1
