# generated using pymatgen
data_Mg3Cr3(AsO4)4
_symmetry_space_group_name_H-M   'P 1'
_cell_length_a   5.21650203
_cell_length_b   8.80095273
_cell_length_c   15.09414411
_cell_angle_alpha   99.31588016
_cell_angle_beta   90.00000000
_cell_angle_gamma   90.00000000
_symmetry_Int_Tables_number   1
_chemical_formula_structural   Mg3Cr3(AsO4)4
_chemical_formula_sum   'Mg6 Cr6 As8 O32'
_cell_volume   683.83526596
_cell_formula_units_Z   2
loop_
 _symmetry_equiv_pos_site_id
 _symmetry_equiv_pos_as_xyz
  1  'x, y, z'
loop_
 _atom_site_type_symbol
 _atom_site_label
 _atom_site_symmetry_multiplicity
 _atom_site_fract_x
 _atom_site_fract_y
 _atom_site_fract_z
 _atom_site_occupancy
  Mg  Mg0  1  0.96324637  0.01638712  0.71743619  1
  Mg  Mg1  1  0.46324637  0.48361288  0.78256381  1
  Mg  Mg2  1  0.03675363  0.98361288  0.28256381  1
  Mg  Mg3  1  0.53675363  0.51638712  0.21743619  1
  Mg  Mg4  1  0.00000000  -0.00000000  0.00000000  1
  Mg  Mg5  1  0.50000000  0.50000000  0.50000000  1
  Cr  Cr6  1  0.99855896  0.32778388  0.12223694  1
  Cr  Cr7  1  0.00144104  0.67221612  0.87776306  1
  Cr  Cr8  1  0.49855896  0.17221612  0.37776306  1
  Cr  Cr9  1  0.50144104  0.82778388  0.62223694  1
  Cr  Cr10  1  0.50000000  0.50000000  0.00000000  1
  Cr  Cr11  1  0.00000000  -0.00000000  0.50000000  1
  As  As12  1  0.51099343  0.88790933  0.85100512  1
  As  As13  1  0.99819213  0.31294346  0.89451356  1
  As  As14  1  0.49819213  0.18705654  0.60548644  1
  As  As15  1  0.50180787  0.81294346  0.39451356  1
  As  As16  1  0.48900657  0.11209067  0.14899488  1
  As  As17  1  0.00180787  0.68705654  0.10548644  1
  As  As18  1  0.98900657  0.38790933  0.35100512  1
  As  As19  1  0.01099343  0.61209067  0.64899488  1
  O  O20  1  0.10228100  0.56486621  0.75275650  1
  O  O21  1  0.54911847  0.26691699  0.51017525  1
  O  O22  1  0.08165624  0.19887886  0.79938882  1
  O  O23  1  0.09693797  0.80632539  0.65329915  1
  O  O24  1  0.91834376  0.80112114  0.20061118  1
  O  O25  1  0.39771900  0.06486621  0.25275650  1
  O  O26  1  0.58165624  0.30112114  0.70061118  1
  O  O27  1  0.79900501  0.89868476  0.39004925  1
  O  O28  1  0.81715983  0.50715007  0.42612947  1
  O  O29  1  0.89771900  0.43513379  0.24724350  1
  O  O30  1  0.40306203  0.30632539  0.15329915  1
  O  O31  1  0.20099499  0.10131524  0.60995075  1
  O  O32  1  0.20817422  0.47448643  0.90773289  1
  O  O33  1  0.18284017  0.49284993  0.57387053  1
  O  O34  1  0.81751202  0.10117753  0.13406821  1
  O  O35  1  0.31751202  0.39882247  0.36593179  1
  O  O36  1  0.70817422  0.02551357  0.59226711  1
  O  O37  1  0.41834376  0.69887886  0.29938882  1
  O  O38  1  0.31715983  0.99284993  0.07387053  1
  O  O39  1  0.29900501  0.60131524  0.10995075  1
  O  O40  1  0.68248798  0.60117753  0.63406821  1
  O  O41  1  0.18248798  0.89882247  0.86593179  1
  O  O42  1  0.45088153  0.73308301  0.48982475  1
  O  O43  1  0.04911847  0.23308301  0.98982475  1
  O  O44  1  0.79182578  0.52551357  0.09226711  1
  O  O45  1  0.60228100  0.93513379  0.74724350  1
  O  O46  1  0.90306203  0.19367461  0.34670085  1
  O  O47  1  0.68284017  0.00715007  0.92612947  1
  O  O48  1  0.95088153  0.76691699  0.01017625  1
  O  O49  1  0.70099499  0.39868476  0.89004925  1
  O  O50  1  0.29182578  0.97448643  0.40773289  1
  O  O51  1  0.59693797  0.69367461  0.84670085  1
