# generated using pymatgen
data_Ce5O9
_symmetry_space_group_name_H-M   'P 1'
_cell_length_a   6.75123881
_cell_length_b   5.57801143
_cell_length_c   6.75123881
_cell_angle_alpha   114.40036401
_cell_angle_beta   99.82619797
_cell_angle_gamma   65.59963599
_symmetry_Int_Tables_number   1
_chemical_formula_structural   Ce5O9
_chemical_formula_sum   'Ce5 O9'
_cell_volume   210.85258366
_cell_formula_units_Z   1
loop_
 _symmetry_equiv_pos_site_id
 _symmetry_equiv_pos_as_xyz
  1  'x, y, z'
loop_
 _atom_site_type_symbol
 _atom_site_label
 _atom_site_symmetry_multiplicity
 _atom_site_fract_x
 _atom_site_fract_y
 _atom_site_fract_z
 _atom_site_occupancy
  Ce  Ce0  1  0.99884202  0.98701917  0.02276658  1
  Ce  Ce1  1  0.42276658  0.21413881  0.80115798  1
  Ce  Ce2  1  0.20115798  0.56309461  0.37723342  1
  Ce  Ce3  1  0.77723342  0.43574741  0.59884202  1
  Ce  Ce4  1  0.60000000  0.80000000  0.20000000  1
  O  O5  1  0.10000000  0.55000000  0.70000000  1
  O  O6  1  0.32212470  0.63375482  0.09975059  1
  O  O7  1  0.70024941  0.86599577  0.92212470  1
  O  O8  1  0.49975059  0.24412049  0.47787530  1
  O  O9  1  0.27212448  0.14516275  0.06244507  1
  O  O10  1  0.73755493  0.31728232  0.87212448  1
  O  O11  1  0.46244507  0.78271277  0.52787552  1
  O  O12  1  0.87787530  0.45612892  0.30024941  1
  O  O13  1  0.92787552  0.95484216  0.33755493  1
