# generated using pymatgen
data_Ti19O30
_symmetry_space_group_name_H-M   'P 1'
_cell_length_a   5.10187038
_cell_length_b   5.52589989
_cell_length_c   21.46312555
_cell_angle_alpha   94.29103128
_cell_angle_beta   96.87841521
_cell_angle_gamma   117.51931770
_symmetry_Int_Tables_number   1
_chemical_formula_structural   Ti19O30
_chemical_formula_sum   'Ti19 O30'
_cell_volume   526.91790240
_cell_formula_units_Z   1
loop_
 _symmetry_equiv_pos_site_id
 _symmetry_equiv_pos_as_xyz
  1  'x, y, z'
loop_
 _atom_site_type_symbol
 _atom_site_label
 _atom_site_symmetry_multiplicity
 _atom_site_fract_x
 _atom_site_fract_y
 _atom_site_fract_z
 _atom_site_occupancy
  Ti  Ti0  1  0.59894186  0.11051882  0.06485850  1
  Ti  Ti1  1  0.97348509  0.79195507  0.16246624  1
  Ti  Ti2  1  0.78449772  0.20040329  0.36846088  1
  Ti  Ti3  1  0.81507760  0.09915170  0.53086610  1
  Ti  Ti4  1  0.98632091  0.30192488  0.66994133  1
  Ti  Ti5  1  0.61232920  0.00101570  0.22855176  1
  Ti  Ti6  1  0.38297981  0.50106378  0.26886754  1
  Ti  Ti7  1  0.21204488  0.30177653  0.13025844  1
  Ti  Ti8  1  0.41518336  0.39837177  0.43025821  1
  Ti  Ti9  1  0.77754938  0.69324016  0.87218152  1
  Ti  Ti10  1  0.58456322  0.60123771  0.56916949  1
  Ti  Ti11  1  0.61935659  0.50213858  0.73141340  1
  Ti  Ti12  1  0.38481139  0.00085108  0.76970176  1
  Ti  Ti13  1  0.18387719  0.90013297  0.46865412  1
  Ti  Ti14  1  0.01435994  0.69980051  0.32871831  1
  Ti  Ti15  1  0.21569087  0.79992882  0.63112750  1
  Ti  Ti16  1  0.01929795  0.20334172  0.83300860  1
  Ti  Ti17  1  0.41993641  0.90487680  0.93169021  1
  Ti  Ti18  1  0.19978597  0.41549109  0.97616479  1
  O  O19  1  0.98755146  0.14999477  0.44988604  1
  O  O20  1  0.95928311  0.47258980  0.11717985  1
  O  O21  1  0.83567429  0.94427996  0.09486519  1
  O  O22  1  0.64925040  0.32503861  0.28722104  1
  O  O23  1  0.83820296  0.57459915  0.41169873  1
  O  O24  1  0.41511666  0.05754278  0.14918420  1
  O  O25  1  0.81422472  0.25117919  0.75040516  1
  O  O26  1  0.36724984  0.32800902  0.05145439  1
  O  O27  1  0.78852895  0.55046444  0.64989105  1
  O  O28  1  0.36177668  0.02440045  0.38713649  1
  O  O29  1  0.56272581  0.62749797  0.18809802  1
  O  O30  1  0.96188094  0.82888080  0.78825644  1
  O  O31  1  0.74740340  0.87593097  0.31173612  1
  O  O32  1  0.54886880  0.27428799  0.51216530  1
  O  O33  1  0.77162198  0.20479455  0.98561342  1
  O  O34  1  0.45039095  0.72506184  0.48750226  1
  O  O35  1  0.25286938  0.12682055  0.68793229  1
  O  O36  1  0.28196807  0.78548066  0.01325519  1
  O  O37  1  0.04402113  0.17186259  0.21412481  1
  O  O38  1  0.63829883  0.97548128  0.61252378  1
  O  O39  1  0.43547771  0.37555434  0.81148566  1
  O  O40  1  0.21186794  0.45131121  0.35004266  1
  O  O41  1  0.57422121  0.62586370  0.94091593  1
  O  O42  1  0.18635124  0.75083706  0.24876831  1
  O  O43  1  0.58887218  0.95160783  0.84964494  1
  O  O44  1  0.16199327  0.42547137  0.58780926  1
  O  O45  1  0.14622359  0.07063709  0.91304420  1
  O  O46  1  0.35097281  0.67571659  0.71245514  1
  O  O47  1  0.04092772  0.52486563  0.88839008  1
  O  O48  1  0.01226461  0.85009583  0.54992538  1
