# generated using pymatgen
data_K2Mg3P4(H5O6)4
_symmetry_space_group_name_H-M   'P 1'
_cell_length_a   7.59829950
_cell_length_b   6.64907250
_cell_length_c   20.54155355
_cell_angle_alpha   90.00000000
_cell_angle_beta   93.22253290
_cell_angle_gamma   90.00000000
_symmetry_Int_Tables_number   1
_chemical_formula_structural   K2Mg3P4(H5O6)4
_chemical_formula_sum   'K4 Mg6 P8 H40 O48'
_cell_volume   1036.15203366
_cell_formula_units_Z   2
loop_
 _symmetry_equiv_pos_site_id
 _symmetry_equiv_pos_as_xyz
  1  'x, y, z'
loop_
 _atom_site_type_symbol
 _atom_site_label
 _atom_site_symmetry_multiplicity
 _atom_site_fract_x
 _atom_site_fract_y
 _atom_site_fract_z
 _atom_site_occupancy
  K  K0  1  0.23870874  0.48139232  0.94407527  1
  K  K1  1  0.23870874  0.01860768  0.44407527  1
  K  K2  1  0.76129126  0.98139232  0.55592473  1
  K  K3  1  0.76129126  0.51860768  0.05592473  1
  Mg  Mg4  1  0.00000000  0.50000000  0.50000000  1
  Mg  Mg5  1  0.00000000  0.00000000  0.00000000  1
  Mg  Mg6  1  0.23292125  0.55360571  0.76459577  1
  Mg  Mg7  1  0.23292125  0.94639429  0.26459577  1
  Mg  Mg8  1  0.76707875  0.05360571  0.73540423  1
  Mg  Mg9  1  0.76707875  0.44639429  0.23540423  1
  P  P10  1  0.06603734  0.27926091  0.64585530  1
  P  P11  1  0.06603734  0.22073909  0.14585530  1
  P  P12  1  0.46178793  0.32649449  0.65313604  1
  P  P13  1  0.53821207  0.82649449  0.84686396  1
  P  P14  1  0.46178793  0.17350551  0.15313604  1
  P  P15  1  0.53821207  0.67350551  0.34686396  1
  P  P16  1  0.93396266  0.77926091  0.85414470  1
  P  P17  1  0.93396266  0.72073909  0.35414470  1
  H  H18  1  0.06258762  0.67728078  0.61473912  1
  H  H19  1  0.06258762  0.82271922  0.11473912  1
  H  H20  1  0.15386095  0.93069086  0.70915355  1
  H  H21  1  0.15114871  0.15585626  0.80986173  1
  H  H22  1  0.18435602  0.79303622  0.56926153  1
  H  H23  1  0.15386095  0.56930914  0.20915355  1
  H  H24  1  0.15114871  0.34414374  0.30986173  1
  H  H25  1  0.18435602  0.70696378  0.06926153  1
  H  H26  1  0.33620152  0.99366703  0.95388757  1
  H  H27  1  0.34680042  0.43497749  0.52749951  1
  H  H28  1  0.35559586  0.17332923  0.80264630  1
  H  H29  1  0.33620152  0.50633297  0.45388757  1
  H  H30  1  0.35457270  0.90204254  0.73764101  1
  H  H31  1  0.34680042  0.06502251  0.02749951  1
  H  H32  1  0.35559586  0.32667077  0.30264630  1
  H  H33  1  0.35457270  0.59795746  0.23764101  1
  H  H34  1  0.41703341  0.92052855  0.61108114  1
  H  H35  1  0.43827096  0.70186242  0.58236918  1
  H  H36  1  0.41703341  0.57947145  0.11108114  1
  H  H37  1  0.56172904  0.20186242  0.91763082  1
  H  H38  1  0.43827096  0.79813758  0.08236918  1
  H  H39  1  0.58296659  0.42052855  0.88891886  1
  H  H40  1  0.56172904  0.29813758  0.41763082  1
  H  H41  1  0.58296659  0.07947145  0.38891886  1
  H  H42  1  0.64542730  0.40204254  0.76235899  1
  H  H43  1  0.64440414  0.67332923  0.69735370  1
  H  H44  1  0.65319958  0.93497749  0.97250049  1
  H  H45  1  0.64542730  0.09795746  0.26235899  1
  H  H46  1  0.66379848  0.49366703  0.54611243  1
  H  H47  1  0.64440414  0.82667077  0.19735370  1
  H  H48  1  0.65319958  0.56502251  0.47250049  1
  H  H49  1  0.66379848  0.00633297  0.04611243  1
  H  H50  1  0.81564398  0.29303622  0.93073847  1
  H  H51  1  0.84885129  0.65585626  0.69013827  1
  H  H52  1  0.84613905  0.43069086  0.79084645  1
  H  H53  1  0.81564398  0.20696378  0.43073847  1
  H  H54  1  0.84885129  0.84414374  0.19013827  1
  H  H55  1  0.84613905  0.06930914  0.29084645  1
  H  H56  1  0.93741238  0.17728078  0.88526088  1
  H  H57  1  0.93741238  0.32271922  0.38526088  1
  O  O58  1  0.01504512  0.60355731  0.81815936  1
  O  O59  1  0.99646585  0.29611390  0.57487983  1
  O  O60  1  0.06339850  0.48072183  0.68269239  1
  O  O61  1  0.01504512  0.89644269  0.31815936  1
  O  O62  1  0.06250399  0.73581523  0.57031901  1
  O  O63  1  0.99646585  0.20388610  0.07487983  1
  O  O64  1  0.06339850  0.01927817  0.18269239  1
  O  O65  1  0.06250399  0.76418477  0.07031901  1
  O  O66  1  0.26509378  0.05830924  0.98737604  1
  O  O67  1  0.24934427  0.25336845  0.81025151  1
  O  O68  1  0.24812952  0.83051484  0.71953784  1
  O  O69  1  0.27361761  0.21081815  0.64402792  1
  O  O70  1  0.26509378  0.44169076  0.48737604  1
  O  O71  1  0.24934427  0.24663155  0.31025151  1
  O  O72  1  0.24812952  0.66948516  0.21953784  1
  O  O73  1  0.27361761  0.28918185  0.14402792  1
  O  O74  1  0.40619201  0.65432030  0.83966376  1
  O  O75  1  0.40247538  0.84289047  0.57044298  1
  O  O76  1  0.45792953  0.46302274  0.71370494  1
  O  O77  1  0.40619201  0.84567970  0.33966376  1
  O  O78  1  0.51639393  0.95117593  0.90910950  1
  O  O79  1  0.48360607  0.45117593  0.59089050  1
  O  O80  1  0.40247538  0.65710953  0.07044298  1
  O  O81  1  0.45792953  0.03697726  0.21370494  1
  O  O82  1  0.54207047  0.96302274  0.78629506  1
  O  O83  1  0.59752462  0.34289047  0.92955702  1
  O  O84  1  0.51639393  0.54882407  0.40910950  1
  O  O85  1  0.48360607  0.04882407  0.09089050  1
  O  O86  1  0.59380799  0.15432030  0.66033624  1
  O  O87  1  0.54207047  0.53697726  0.28629506  1
  O  O88  1  0.59752462  0.15710953  0.42955702  1
  O  O89  1  0.59380799  0.34567970  0.16033624  1
  O  O90  1  0.72638239  0.71081815  0.85597208  1
  O  O91  1  0.75187048  0.33051484  0.78046216  1
  O  O92  1  0.75065573  0.75336845  0.68974849  1
  O  O93  1  0.73490622  0.55830924  0.51262396  1
  O  O94  1  0.72638239  0.78918185  0.35597208  1
  O  O95  1  0.75187048  0.16948516  0.28046216  1
  O  O96  1  0.75065573  0.74663155  0.18974849  1
  O  O97  1  0.73490622  0.94169076  0.01262396  1
  O  O98  1  0.93749601  0.23581523  0.92968099  1
  O  O99  1  0.93660150  0.98072183  0.81730761  1
  O  O100  1  0.00353415  0.79611390  0.92512017  1
  O  O101  1  0.93749601  0.26418477  0.42968099  1
  O  O102  1  0.98495488  0.10355731  0.68184064  1
  O  O103  1  0.93660150  0.51927817  0.31730761  1
  O  O104  1  0.00353415  0.70388610  0.42512017  1
  O  O105  1  0.98495488  0.39644269  0.18184064  1
