# generated using pymatgen
data_Na5LiCo2P2(CO7)2
_symmetry_space_group_name_H-M   'P 1'
_cell_length_a   8.80502275
_cell_length_b   5.19319178
_cell_length_c   6.72578705
_cell_angle_alpha   90.00000000
_cell_angle_beta   90.00000000
_cell_angle_gamma   87.22243537
_symmetry_Int_Tables_number   1
_chemical_formula_structural   Na5LiCo2P2(CO7)2
_chemical_formula_sum   'Na5 Li1 Co2 P2 C2 O14'
_cell_volume   307.18318694
_cell_formula_units_Z   1
loop_
 _symmetry_equiv_pos_site_id
 _symmetry_equiv_pos_as_xyz
  1  'x, y, z'
loop_
 _atom_site_type_symbol
 _atom_site_label
 _atom_site_symmetry_multiplicity
 _atom_site_fract_x
 _atom_site_fract_y
 _atom_site_fract_z
 _atom_site_occupancy
  Na  Na0  1  0.26887256  0.25783985  0.00854392  1
  Na  Na1  1  0.26887256  0.25783985  0.49145608  1
  Na  Na2  1  0.72866296  0.74016332  0.99391158  1
  Na  Na3  1  0.72866296  0.74016332  0.50608842  1
  Na  Na4  1  0.91724074  0.22393218  0.75000000  1
  Li  Li5  1  0.10096925  0.76840775  0.25000000  1
  Co  Co6  1  0.34357150  0.77481931  0.75000000  1
  Co  Co7  1  0.65439664  0.21625326  0.25000000  1
  P  P8  1  0.40930654  0.71923709  0.25000000  1
  P  P9  1  0.58387745  0.28017063  0.75000000  1
  C  C10  1  0.05760593  0.70634788  0.75000000  1
  C  C11  1  0.94894762  0.29561486  0.25000000  1
  O  O12  1  0.08499917  0.37724075  0.25000000  1
  O  O13  1  0.11708380  0.93100335  0.75000000  1
  O  O14  1  0.14955180  0.50326482  0.75000000  1
  O  O15  1  0.30697836  0.79450834  0.06698273  1
  O  O16  1  0.30697836  0.79450834  0.43301727  1
  O  O17  1  0.43218522  0.14600578  0.75000000  1
  O  O18  1  0.44459404  0.42297308  0.25000000  1
  O  O19  1  0.55140948  0.58011741  0.75000000  1
  O  O20  1  0.56071927  0.85915385  0.25000000  1
  O  O21  1  0.68345805  0.20413223  0.56448137  1
  O  O22  1  0.68345805  0.20413223  0.93551863  1
  O  O23  1  0.83314586  0.46435123  0.25000000  1
  O  O24  1  0.92245252  0.05137265  0.25000000  1
  O  O25  1  0.91199933  0.68644865  0.75000000  1
