# generated using pymatgen
data_Ti3V2Fe(PO4)6
_symmetry_space_group_name_H-M   'P 1'
_cell_length_a   8.54931688
_cell_length_b   8.70420746
_cell_length_c   8.70420766
_cell_angle_alpha   59.99999996
_cell_angle_beta   59.39885345
_cell_angle_gamma   59.39885526
_symmetry_Int_Tables_number   1
_chemical_formula_structural   Ti3V2Fe(PO4)6
_chemical_formula_sum   'Ti3 V2 Fe1 P6 O24'
_cell_volume   453.80409441
_cell_formula_units_Z   1
loop_
 _symmetry_equiv_pos_site_id
 _symmetry_equiv_pos_as_xyz
  1  'x, y, z'
loop_
 _atom_site_type_symbol
 _atom_site_label
 _atom_site_symmetry_multiplicity
 _atom_site_fract_x
 _atom_site_fract_y
 _atom_site_fract_z
 _atom_site_occupancy
  Ti  Ti0  1  0.06577303  0.64474232  0.64474232  1
  Ti  Ti1  1  0.42672492  0.85775869  0.85775869  1
  Ti  Ti2  1  0.93520364  0.35493245  0.35493245  1
  V  V3  1  0.99630928  0.00123057  0.00123057  1
  V  V4  1  0.49701398  0.50099567  0.50099567  1
  Fe  Fe5  1  0.56963957  0.14345381  0.14345381  1
  P  P6  1  0.25349109  0.24858221  0.54409629  1
  P  P7  1  0.25349109  0.95383141  0.24858221  1
  P  P8  1  0.25349109  0.54409629  0.95383141  1
  P  P9  1  0.74971623  0.45717502  0.04472047  1
  P  P10  1  0.74971623  0.04472047  0.74838828  1
  P  P11  1  0.74971623  0.74838828  0.45717502  1
  O  O12  1  0.07008373  0.11832207  0.31450134  1
  O  O13  1  0.07008373  0.49709287  0.11832207  1
  O  O14  1  0.07008373  0.31450134  0.49709287  1
  O  O15  1  0.22409189  0.09137742  0.74260882  1
  O  O16  1  0.43781273  0.18284923  0.39525738  1
  O  O17  1  0.26396892  0.41060795  0.56721406  1
  O  O18  1  0.22409189  0.94192287  0.09137742  1
  O  O19  1  0.26396892  0.75820807  0.41060795  1
  O  O20  1  0.56620178  0.61879290  -0.00008714  1
  O  O21  1  0.26396892  0.56721406  0.75820807  1
  O  O22  1  0.78251990  0.26459880  0.05180314  1
  O  O23  1  0.56620178  -0.00008714  0.81509246  1
  O  O24  1  0.43781273  0.98408066  0.18284923  1
  O  O25  1  0.22409189  0.74260882  0.94192287  1
  O  O26  1  0.72677090  0.44614116  0.23980724  1
  O  O27  1  0.43781273  0.39525738  0.98408066  1
  O  O28  1  0.72677090  0.23980724  0.58728070  1
  O  O29  1  0.78251990  0.05180314  0.90107916  1
  O  O30  1  0.72677090  0.58728070  0.44614116  1
  O  O31  1  0.56620178  0.81509246  0.61879290  1
  O  O32  1  0.78251990  0.90107916  0.26459880  1
  O  O33  1  0.92845435  0.67111714  0.51319460  1
  O  O34  1  0.92845435  0.51319460  0.88723492  1
  O  O35  1  0.92845435  0.88723492  0.67111714  1
