# generated using pymatgen
data_Co(PO3)3
_symmetry_space_group_name_H-M   'P 1'
_cell_length_a   9.95800548
_cell_length_b   10.80575612
_cell_length_c   6.35198778
_cell_angle_alpha   90.00000000
_cell_angle_beta   90.00000000
_cell_angle_gamma   90.00000000
_symmetry_Int_Tables_number   1
_chemical_formula_structural   Co(PO3)3
_chemical_formula_sum   'Co4 P12 O36'
_cell_volume   683.49788712
_cell_formula_units_Z   4
loop_
 _symmetry_equiv_pos_site_id
 _symmetry_equiv_pos_as_xyz
  1  'x, y, z'
loop_
 _atom_site_type_symbol
 _atom_site_label
 _atom_site_symmetry_multiplicity
 _atom_site_fract_x
 _atom_site_fract_y
 _atom_site_fract_z
 _atom_site_occupancy
  Co  Co0  1  0.00000000  0.00000000  0.00000000  1
  Co  Co1  1  0.00000000  0.50000000  0.50000000  1
  Co  Co2  1  0.50000000  0.50000000  0.00000000  1
  Co  Co3  1  0.50000000  0.00000000  0.50000000  1
  P  P4  1  0.08189328  0.75000000  0.75000000  1
  P  P5  1  0.21075083  0.86804955  0.36128129  1
  P  P6  1  0.21075083  0.63195045  0.13871871  1
  P  P7  1  0.28924917  0.13195045  0.86128129  1
  P  P8  1  0.28924917  0.36804955  0.63871871  1
  P  P9  1  0.41810672  0.25000000  0.25000000  1
  P  P10  1  0.58189328  0.75000000  0.75000000  1
  P  P11  1  0.71075083  0.63195045  0.36128129  1
  P  P12  1  0.71075083  0.86804955  0.13871871  1
  P  P13  1  0.78924917  0.13195045  0.63871871  1
  P  P14  1  0.78924917  0.36804955  0.86128129  1
  P  P15  1  0.91810672  0.25000000  0.25000000  1
  O  O16  1  0.00452377  0.15189451  0.14956650  1
  O  O17  1  0.00452377  0.34810549  0.35043350  1
  O  O18  1  0.08049932  0.59685272  0.24206207  1
  O  O19  1  0.08049932  0.90314728  0.25793793  1
  O  O20  1  0.18509270  0.46683052  0.61279387  1
  O  O21  1  0.18509270  0.03316948  0.88720613  1
  O  O22  1  0.18481844  0.80994305  0.59150127  1
  O  O23  1  0.18481844  0.69005695  0.90849873  1
  O  O24  1  0.21971014  0.25000000  0.75000000  1
  O  O25  1  0.28028986  0.75000000  0.25000000  1
  O  O26  1  0.31518156  0.19005695  0.09150127  1
  O  O27  1  0.31518156  0.30994305  0.40849873  1
  O  O28  1  0.31490730  0.53316948  0.11279387  1
  O  O29  1  0.31490730  0.96683052  0.38720613  1
  O  O30  1  0.41950068  0.09685272  0.75793793  1
  O  O31  1  0.41950068  0.40314728  0.74206207  1
  O  O32  1  0.49547623  0.65189451  0.85043350  1
  O  O33  1  0.49547623  0.84810549  0.64956650  1
  O  O34  1  0.50452377  0.15189451  0.35043350  1
  O  O35  1  0.50452377  0.34810549  0.14956650  1
  O  O36  1  0.58049932  0.59685272  0.25793793  1
  O  O37  1  0.58049932  0.90314728  0.24206207  1
  O  O38  1  0.68509270  0.03316948  0.61279387  1
  O  O39  1  0.68509270  0.46683052  0.88720613  1
  O  O40  1  0.68481844  0.69005695  0.59150127  1
  O  O41  1  0.68481844  0.80994305  0.90849873  1
  O  O42  1  0.71971014  0.25000000  0.75000000  1
  O  O43  1  0.78028986  0.75000000  0.25000000  1
  O  O44  1  0.81518156  0.19005695  0.40849873  1
  O  O45  1  0.81518156  0.30994305  0.09150127  1
  O  O46  1  0.81490730  0.53316948  0.38720613  1
  O  O47  1  0.81490730  0.96683052  0.11279387  1
  O  O48  1  0.91950068  0.09685272  0.74206207  1
  O  O49  1  0.91950068  0.40314728  0.75793793  1
  O  O50  1  0.99547623  0.65189451  0.64956650  1
  O  O51  1  0.99547623  0.84810549  0.85043350  1
