# generated using pymatgen
data_Li2CoNi3O8
_symmetry_space_group_name_H-M   'P 1'
_cell_length_a   5.72021091
_cell_length_b   5.72021099
_cell_length_c   5.68607335
_cell_angle_alpha   59.80120284
_cell_angle_beta   120.19880054
_cell_angle_gamma   119.99999481
_symmetry_Int_Tables_number   1
_chemical_formula_structural   Li2CoNi3O8
_chemical_formula_sum   'Li2 Co1 Ni3 O8'
_cell_volume   131.16260207
_cell_formula_units_Z   1
loop_
 _symmetry_equiv_pos_site_id
 _symmetry_equiv_pos_as_xyz
  1  'x, y, z'
loop_
 _atom_site_type_symbol
 _atom_site_label
 _atom_site_symmetry_multiplicity
 _atom_site_fract_x
 _atom_site_fract_y
 _atom_site_fract_z
 _atom_site_occupancy
  Li  Li0  1  0.87549998  0.12450002  0.62650095  1
  Li  Li1  1  0.12450002  0.87549998  0.37349905  1
  Co  Co2  1  0.50000000  0.50000000  0.50000000  1
  Ni  Ni3  1  0.50000000  0.50000000  0.00000000  1
  Ni  Ni4  1  0.50000000  0.00000000  0.00000000  1
  Ni  Ni5  1  0.00000000  0.50000000  0.00000000  1
  O  O6  1  0.73535275  0.71017491  0.76053060  1
  O  O7  1  0.73535275  0.26464725  0.76053060  1
  O  O8  1  0.26254442  0.73745558  0.78763326  1
  O  O9  1  0.28982509  0.26464725  0.76053060  1
  O  O10  1  0.71017491  0.73535275  0.23946940  1
  O  O11  1  0.73745558  0.26254442  0.21236674  1
  O  O12  1  0.26464725  0.73535275  0.23946940  1
  O  O13  1  0.26464725  0.28982509  0.23946940  1
