# generated using pymatgen
data_Li8V3P8O29
_symmetry_space_group_name_H-M   'P 1'
_cell_length_a   9.87207545
_cell_length_b   9.90228322
_cell_length_c   13.83114740
_cell_angle_alpha   89.84796721
_cell_angle_beta   90.03193679
_cell_angle_gamma   60.08361680
_symmetry_Int_Tables_number   1
_chemical_formula_structural   Li8V3P8O29
_chemical_formula_sum   'Li16 V6 P16 O58'
_cell_volume   1171.91310336
_cell_formula_units_Z   2
loop_
 _symmetry_equiv_pos_site_id
 _symmetry_equiv_pos_as_xyz
  1  'x, y, z'
loop_
 _atom_site_type_symbol
 _atom_site_label
 _atom_site_symmetry_multiplicity
 _atom_site_fract_x
 _atom_site_fract_y
 _atom_site_fract_z
 _atom_site_occupancy
  Li  Li0  1  0.76673168  0.90029393  0.56483427  1
  Li  Li1  1  0.90116296  0.33464056  0.56653839  1
  Li  Li2  1  0.67015330  0.66754088  0.38223171  1
  Li  Li3  1  0.67473680  0.66605507  0.88165197  1
  Li  Li4  1  0.76691511  0.32748539  0.06259853  1
  Li  Li5  1  0.32371702  0.90638038  0.06156376  1
  Li  Li6  1  0.32697458  0.77030002  0.56579312  1
  Li  Li7  1  0.66672641  0.09981319  0.93501096  1
  Li  Li8  1  0.23552741  0.66551931  0.93346504  1
  Li  Li9  1  0.34096989  0.33386242  0.61848287  1
  Li  Li10  1  0.33583069  0.33282049  0.11766940  1
  Li  Li11  1  0.09466201  0.67158505  0.43735106  1
  Li  Li12  1  0.22947547  0.09364113  0.43847237  1
  Li  Li13  1  0.09704968  0.22964182  0.93417858  1
  Li  Li14  1  0.97956375  0.95564890  0.00408049  1
  Li  Li15  1  0.93488743  0.04488470  0.49574041  1
  V  V16  1  0.56387134  0.43294016  0.25504450  1
  V  V17  1  0.43691029  0.56422341  0.74885003  1
  V  V18  1  0.56616641  0.00002579  0.74996961  1
  V  V19  1  0.43705761  0.99977817  0.25017893  1
  V  V20  1  0.99706296  0.56717876  0.24479852  1
  V  V21  1  0.00103746  0.43597948  0.75114553  1
  P  P22  1  0.91288420  0.77650946  0.84293956  1
  P  P23  1  0.77776661  0.90840981  0.34366656  1
  P  P24  1  0.90944304  0.31796954  0.34338444  1
  P  P25  1  0.66472555  0.66152999  0.12624558  1
  P  P26  1  0.66694068  0.66820520  0.62356341  1
  P  P27  1  0.77175732  0.31805657  0.84619407  1
  P  P28  1  0.68956217  0.22343702  0.65677023  1
  P  P29  1  0.31940510  0.90864588  0.84425457  1
  P  P30  1  0.68559039  0.09157378  0.15657988  1
  P  P31  1  0.31817224  0.77144251  0.34370344  1
  P  P32  1  0.22737799  0.68266360  0.15656381  1
  P  P33  1  0.32593395  0.33920271  0.37390637  1
  P  P34  1  0.33452887  0.33294421  0.87634038  1
  P  P35  1  0.08929301  0.68207119  0.65378518  1
  P  P36  1  0.22769031  0.09195796  0.65607175  1
  P  P37  1  0.08987204  0.22843762  0.15610206  1
  O  O38  1  0.99866040  0.76545693  0.56239283  1
  O  O39  1  0.92350128  0.74392309  0.33739168  1
  O  O40  1  0.77300584  0.01031282  0.06648770  1
  O  O41  1  0.74952922  0.92161491  0.84568800  1
  O  O42  1  0.89679824  0.62969084  0.83739992  1
  O  O43  1  0.81490507  0.65559919  0.17269038  1
  O  O44  1  0.89922962  0.47847594  0.33260203  1
  O  O45  1  0.99562532  0.23896897  0.06804726  1
  O  O46  1  0.92163198  0.32781317  0.84495548  1
  O  O47  1  0.67438375  0.81269389  0.66118900  1
  O  O48  1  0.63152527  0.89070876  0.33240536  1
  O  O49  1  0.81220879  0.51630581  0.66352216  1
  O  O50  1  0.67457764  0.64763684  0.01880088  1
  O  O51  1  0.66997528  0.66495066  0.51363426  1
  O  O52  1  0.66386579  0.51446826  0.17047615  1
  O  O53  1  0.48474762  0.88624107  0.83348744  1
  O  O54  1  0.51727181  0.81095681  0.16154156  1
  O  O55  1  0.74497597  0.33988247  0.34064397  1
  O  O56  1  0.78065175  0.21075633  0.75715906  1
  O  O57  1  0.79391300  0.21907239  0.57568507  1
  O  O58  1  0.76519397  0.23399843  0.93737310  1
  O  O59  1  0.62988170  0.48307566  0.83348802  1
  O  O60  1  0.51472209  0.67527797  0.66132177  1
  O  O61  1  0.66737058  0.25624944  0.16257905  1
  O  O62  1  0.48383396  0.62707662  0.32936142  1
  O  O63  1  0.33130153  0.91920360  0.34356375  1
  O  O64  1  0.78857270  0.00004860  0.24984222  1
  O  O65  1  0.78322368  0.99028655  0.43332820  1
  O  O66  1  0.23393298  0.99893577  0.56652703  1
  O  O67  1  0.67201324  0.07795509  0.65443018  1
  O  O68  1  0.52638130  0.37011990  0.66281487  1
  O  O69  1  0.32933536  0.74915517  0.84432716  1
  O  O70  1  0.47103825  0.34409323  0.32766841  1
  O  O71  1  0.37785309  0.52150339  0.16743169  1
  O  O72  1  0.22632055  0.77312922  0.06820627  1
  O  O73  1  0.23523712  0.75947680  0.43201986  1
  O  O74  1  0.21515656  0.78541579  0.25010503  1
  O  O75  1  0.24986335  0.67129602  0.65491993  1
  O  O76  1  0.48584483  0.18773735  0.83852062  1
  O  O77  1  0.52193859  0.10926008  0.16799142  1
  O  O78  1  0.32766823  0.48403913  0.83686719  1
  O  O79  1  0.33404446  0.33341068  0.98628354  1
  O  O80  1  0.32315294  0.35240245  0.48131196  1
  O  O81  1  0.17893197  0.48525519  0.32920192  1
  O  O82  1  0.37111655  0.11380233  0.66631845  1
  O  O83  1  0.32944713  0.18901835  0.33892492  1
  O  O84  1  0.08535678  0.65994393  0.15926647  1
  O  O85  1  0.99127892  0.79000081  0.74290224  1
  O  O86  1  0.01295986  0.78093302  0.92459385  1
  O  O87  1  0.11272856  0.51713103  0.66645925  1
  O  O88  1  0.18902142  0.32478835  0.83846007  1
  O  O89  1  0.11087499  0.37252705  0.17012528  1
  O  O90  1  0.25076253  0.07993207  0.15684430  1
  O  O91  1  0.23338759  0.00149054  0.93348567  1
  O  O92  1  0.21707763  0.00027127  0.74993582  1
  O  O93  1  0.07829468  0.25101807  0.65575492  1
  O  O94  1  0.99847352  0.22652097  0.43163194  1
  O  O95  1  0.99993947  0.21539186  0.24989170  1
