# generated using pymatgen
data_LiTi3V(PO4)6
_symmetry_space_group_name_H-M   'P 1'
_cell_length_a   8.77236388
_cell_length_b   8.77236386
_cell_length_c   8.77236367
_cell_angle_alpha   58.72793653
_cell_angle_beta   58.72793166
_cell_angle_gamma   58.72793679
_symmetry_Int_Tables_number   1
_chemical_formula_structural   LiTi3V(PO4)6
_chemical_formula_sum   'Li1 Ti3 V1 P6 O24'
_cell_volume   463.47507831
_cell_formula_units_Z   1
loop_
 _symmetry_equiv_pos_site_id
 _symmetry_equiv_pos_as_xyz
  1  'x, y, z'
loop_
 _atom_site_type_symbol
 _atom_site_label
 _atom_site_symmetry_multiplicity
 _atom_site_fract_x
 _atom_site_fract_y
 _atom_site_fract_z
 _atom_site_occupancy
  Li  Li0  1  0.00132438  0.00132438  0.00132438  1
  Ti  Ti1  1  0.14469355  0.14469355  0.14469355  1
  Ti  Ti2  1  0.36085205  0.36085205  0.36085205  1
  Ti  Ti3  1  0.63897845  0.63897845  0.63897845  1
  V  V4  1  0.85520625  0.85520625  0.85520625  1
  P  P5  1  0.03254151  0.75074749  0.46314217  1
  P  P6  1  0.46314217  0.03254151  0.75074749  1
  P  P7  1  0.75074749  0.46314217  0.03254151  1
  P  P8  1  0.24646518  0.53876243  0.96680776  1
  P  P9  1  0.53876243  0.96680776  0.24646518  1
  P  P10  1  0.96680776  0.24646518  0.53876243  1
  O  O11  1  0.13952266  0.27373390  0.51008892  1
  O  O12  1  0.27373390  0.51008892  0.13952266  1
  O  O13  1  0.05900702  0.92322618  0.27985869  1
  O  O14  1  0.51008892  0.13952266  0.27373390  1
  O  O15  1  0.21329470  0.57701923  0.44517455  1
  O  O16  1  0.99701324  0.78919619  0.63740221  1
  O  O17  1  0.27985869  0.05900702  0.92322618  1
  O  O18  1  0.44517455  0.21329470  0.57701923  1
  O  O19  1  0.57701923  0.44517455  0.21329470  1
  O  O20  1  0.21136143  0.36890898  0.99668795  1
  O  O21  1  0.07114766  0.72459792  0.93724999  1
  O  O22  1  0.36890898  0.99668795  0.21136143  1
  O  O23  1  0.63740221  0.99701324  0.78919619  1
  O  O24  1  0.92322618  0.27985869  0.05900702  1
  O  O25  1  0.78919619  0.63740221  0.99701324  1
  O  O26  1  0.41759193  0.56621444  0.78496307  1
  O  O27  1  0.56621444  0.78496307  0.41759193  1
  O  O28  1  0.72459792  0.93724999  0.07114766  1
  O  O29  1  0.99668795  0.21136143  0.36890898  1
  O  O30  1  0.78496307  0.41759193  0.56621444  1
  O  O31  1  0.49685891  0.86081338  0.71954663  1
  O  O32  1  0.93724999  0.07114766  0.72459792  1
  O  O33  1  0.71954663  0.49685891  0.86081338  1
  O  O34  1  0.86081338  0.71954663  0.49685891  1
