# generated using pymatgen
data_Ca3Sn3(AsO4)4
_symmetry_space_group_name_H-M   'P 1'
_cell_length_a   5.53972066
_cell_length_b   9.81768647
_cell_length_c   15.77879655
_cell_angle_alpha   86.63395787
_cell_angle_beta   90.00000000
_cell_angle_gamma   90.00000000
_symmetry_Int_Tables_number   1
_chemical_formula_structural   Ca3Sn3(AsO4)4
_chemical_formula_sum   'Ca6 Sn6 As8 O32'
_cell_volume   856.68469908
_cell_formula_units_Z   2
loop_
 _symmetry_equiv_pos_site_id
 _symmetry_equiv_pos_as_xyz
  1  'x, y, z'
loop_
 _atom_site_type_symbol
 _atom_site_label
 _atom_site_symmetry_multiplicity
 _atom_site_fract_x
 _atom_site_fract_y
 _atom_site_fract_z
 _atom_site_occupancy
  Ca  Ca0  1  0.93329947  0.07103620  0.74404418  1
  Ca  Ca1  1  0.43329947  0.42896380  0.75595582  1
  Ca  Ca2  1  0.06670053  0.92896380  0.25595582  1
  Ca  Ca3  1  0.56670053  0.57103620  0.24404418  1
  Ca  Ca4  1  0.00000000  -0.00000000  0.00000000  1
  Ca  Ca5  1  0.50000000  0.50000000  0.50000000  1
  Sn  Sn6  1  0.98068235  0.31376751  0.13459462  1
  Sn  Sn7  1  0.01931765  0.68623249  0.86540538  1
  Sn  Sn8  1  0.48068235  0.18623249  0.36540538  1
  Sn  Sn9  1  0.51931765  0.81376751  0.63459462  1
  Sn  Sn10  1  0.50000000  0.50000000  0.00000000  1
  Sn  Sn11  1  0.00000000  -0.00000000  0.50000000  1
  As  As12  1  0.47010879  0.88921485  0.85724707  1
  As  As13  1  0.97248587  0.33837166  0.88781199  1
  As  As14  1  0.47248587  0.16162834  0.61218801  1
  As  As15  1  0.52751413  0.83837166  0.38781199  1
  As  As16  1  0.52989121  0.11078515  0.14275293  1
  As  As17  1  0.02751413  0.66162834  0.11218801  1
  As  As18  1  0.02989121  0.38921485  0.35724707  1
  As  As19  1  0.97010879  0.61078515  0.64275293  1
  O  O20  1  0.11076109  0.58764363  0.74113911  1
  O  O21  1  0.46566469  0.26440457  0.52183009  1
  O  O22  1  0.08666623  0.26681135  0.80027702  1
  O  O23  1  0.91532575  0.78741601  0.62479010  1
  O  O24  1  0.91333377  0.73318865  0.19972298  1
  O  O25  1  0.38923891  0.08764363  0.24113911  1
  O  O26  1  0.58666623  0.23318865  0.69972298  1
  O  O27  1  0.80814394  0.91306393  0.37135609  1
  O  O28  1  0.84543725  0.46186471  0.42557289  1
  O  O29  1  0.88923891  0.41235637  0.25886089  1
  O  O30  1  0.58467425  0.28741601  0.12479010  1
  O  O31  1  0.19185606  0.08693607  0.62864391  1
  O  O32  1  0.16897782  0.47503117  0.90508834  1
  O  O33  1  0.15456275  0.53813529  0.57442711  1
  O  O34  1  0.82372283  0.04814472  0.14619554  1
  O  O35  1  0.32372283  0.45185528  0.35380446  1
  O  O36  1  0.66897782  0.02496883  0.59491166  1
  O  O37  1  0.41333377  0.76681135  0.30027702  1
  O  O38  1  0.34543725  0.03813529  0.07442711  1
  O  O39  1  0.30814394  0.58693607  0.12864391  1
  O  O40  1  0.67627717  0.54814472  0.64619554  1
  O  O41  1  0.17627717  0.95185528  0.85380446  1
  O  O42  1  0.53433531  0.73559543  0.47816991  1
  O  O43  1  0.96566469  0.23559543  0.97816991  1
  O  O44  1  0.83102218  0.52496883  0.09491166  1
  O  O45  1  0.61076109  0.91235637  0.75886089  1
  O  O46  1  0.08467425  0.21258399  0.37520990  1
  O  O47  1  0.65456275  0.96186471  0.92557289  1
  O  O48  1  0.03433531  0.76440457  0.02183009  1
  O  O49  1  0.69185606  0.41306393  0.87135609  1
  O  O50  1  0.33102218  0.97503117  0.40508834  1
  O  O51  1  0.41532575  0.71258399  0.87520990  1
