# generated using pymatgen
data_Li4Mn2Si3O10
_symmetry_space_group_name_H-M   'P 1'
_cell_length_a   5.42036689
_cell_length_b   5.42036689
_cell_length_c   17.25267918
_cell_angle_alpha   81.60105153
_cell_angle_beta   98.39894847
_cell_angle_gamma   119.17641645
_symmetry_Int_Tables_number   1
_chemical_formula_structural   Li4Mn2Si3O10
_chemical_formula_sum   'Li8 Mn4 Si6 O20'
_cell_volume   436.18342068
_cell_formula_units_Z   2
loop_
 _symmetry_equiv_pos_site_id
 _symmetry_equiv_pos_as_xyz
  1  'x, y, z'
loop_
 _atom_site_type_symbol
 _atom_site_label
 _atom_site_symmetry_multiplicity
 _atom_site_fract_x
 _atom_site_fract_y
 _atom_site_fract_z
 _atom_site_occupancy
  Li  Li0  1  0.17059964  0.67833113  0.94718788  1
  Li  Li1  1  0.42013340  0.78728825  0.76911944  1
  Li  Li2  1  0.32166887  0.82940036  0.44718788  1
  Li  Li3  1  0.21271175  0.57986660  0.26911944  1
  Li  Li4  1  0.78728825  0.42013340  0.73088056  1
  Li  Li5  1  0.67833113  0.17059964  0.55281212  1
  Li  Li6  1  0.57986660  0.21271175  0.23088056  1
  Li  Li7  1  0.82940036  0.32166887  0.05281212  1
  Mn  Mn8  1  0.80264823  0.01363281  0.91594179  1
  Mn  Mn9  1  0.98636719  0.19735177  0.41594179  1
  Mn  Mn10  1  0.01363281  0.80264823  0.58405821  1
  Mn  Mn11  1  0.19735177  0.98636719  0.08405821  1
  Si  Si12  1  0.33991642  0.46419601  0.59940018  1
  Si  Si13  1  0.11668425  0.11668425  0.75000000  1
  Si  Si14  1  0.46419601  0.33991642  0.90059982  1
  Si  Si15  1  0.53580399  0.66008358  0.09940018  1
  Si  Si16  1  0.88331575  0.88331575  0.25000000  1
  Si  Si17  1  0.66008358  0.53580399  0.40059982  1
  O  O18  1  0.08074518  0.84125826  0.71301159  1
  O  O19  1  0.15874174  0.91925482  0.21301159  1
  O  O20  1  0.38577864  0.77874934  0.56518262  1
  O  O21  1  0.43133420  0.62862687  0.88859029  1
  O  O22  1  0.21952553  0.41084061  0.68818412  1
  O  O23  1  0.21904075  0.07744453  0.95192755  1
  O  O24  1  0.07744453  0.21904075  0.54807245  1
  O  O25  1  0.22125066  0.61422136  0.06518262  1
  O  O26  1  0.37137313  0.56866580  0.38859029  1
  O  O27  1  0.41084061  0.21952553  0.81181588  1
  O  O28  1  0.58915939  0.78047447  0.18818412  1
  O  O29  1  0.62862687  0.43133420  0.61140971  1
  O  O30  1  0.77874934  0.38577864  0.93481738  1
  O  O31  1  0.92255547  0.78095925  0.45192755  1
  O  O32  1  0.78095925  0.92255547  0.04807245  1
  O  O33  1  0.78047447  0.58915939  0.31181588  1
  O  O34  1  0.56866580  0.37137313  0.11140971  1
  O  O35  1  0.61422136  0.22125066  0.43481738  1
  O  O36  1  0.84125826  0.08074518  0.78698841  1
  O  O37  1  0.91925482  0.15874174  0.28698841  1
