# generated using pymatgen
data_Li2Mn(SO4)2
_symmetry_space_group_name_H-M   'P 1'
_cell_length_a   9.50235008
_cell_length_b   9.40920693
_cell_length_c   14.03736219
_cell_angle_alpha   90.00000000
_cell_angle_beta   90.00000000
_cell_angle_gamma   90.00000000
_symmetry_Int_Tables_number   1
_chemical_formula_structural   Li2Mn(SO4)2
_chemical_formula_sum   'Li16 Mn8 S16 O64'
_cell_volume   1255.07463279
_cell_formula_units_Z   8
loop_
 _symmetry_equiv_pos_site_id
 _symmetry_equiv_pos_as_xyz
  1  'x, y, z'
loop_
 _atom_site_type_symbol
 _atom_site_label
 _atom_site_symmetry_multiplicity
 _atom_site_fract_x
 _atom_site_fract_y
 _atom_site_fract_z
 _atom_site_occupancy
  Li  Li0  1  0.03331132  0.22028391  0.37412618  1
  Li  Li1  1  0.03331132  0.27971609  0.87412618  1
  Li  Li2  1  0.22382372  0.95401865  0.37257554  1
  Li  Li3  1  0.22382372  0.54598135  0.87257554  1
  Li  Li4  1  0.27617628  0.04598135  0.87257554  1
  Li  Li5  1  0.27617628  0.45401865  0.37257554  1
  Li  Li6  1  0.46668868  0.72028391  0.37412618  1
  Li  Li7  1  0.46668868  0.77971609  0.87412618  1
  Li  Li8  1  0.53331132  0.22028391  0.12587382  1
  Li  Li9  1  0.53331132  0.27971609  0.62587382  1
  Li  Li10  1  0.72382372  0.54598135  0.62742446  1
  Li  Li11  1  0.72382372  0.95401865  0.12742446  1
  Li  Li12  1  0.77617628  0.45401865  0.12742446  1
  Li  Li13  1  0.77617628  0.04598135  0.62742446  1
  Li  Li14  1  0.96668868  0.77971609  0.62587382  1
  Li  Li15  1  0.96668868  0.72028391  0.12587382  1
  Mn  Mn16  1  0.13965279  0.10238145  0.12361370  1
  Mn  Mn17  1  0.13965279  0.39761855  0.62361370  1
  Mn  Mn18  1  0.36034721  0.60238145  0.12361370  1
  Mn  Mn19  1  0.36034721  0.89761855  0.62361370  1
  Mn  Mn20  1  0.63965279  0.10238145  0.37638630  1
  Mn  Mn21  1  0.63965279  0.39761855  0.87638630  1
  Mn  Mn22  1  0.86034721  0.60238145  0.37638630  1
  Mn  Mn23  1  0.86034721  0.89761855  0.87638630  1
  S  S24  1  0.07414647  0.07018409  0.72871157  1
  S  S25  1  0.07414647  0.42981591  0.22871157  1
  S  S26  1  0.16106278  0.68781985  0.49042457  1
  S  S27  1  0.16106278  0.81218015  0.99042457  1
  S  S28  1  0.33893722  0.18781985  0.49042457  1
  S  S29  1  0.33893722  0.31218015  0.99042457  1
  S  S30  1  0.42585353  0.92981591  0.22871157  1
  S  S31  1  0.42585353  0.57018409  0.72871157  1
  S  S32  1  0.57414647  0.42981591  0.27128843  1
  S  S33  1  0.57414647  0.07018409  0.77128843  1
  S  S34  1  0.66106278  0.68781985  0.00957543  1
  S  S35  1  0.66106278  0.81218015  0.50957543  1
  S  S36  1  0.83893722  0.18781985  0.00957543  1
  S  S37  1  0.83893722  0.31218015  0.50957543  1
  S  S38  1  0.92585353  0.57018409  0.77128843  1
  S  S39  1  0.92585353  0.92981591  0.27128843  1
  O  O40  1  0.00613703  0.69999342  0.47717813  1
  O  O41  1  0.00613703  0.80000658  0.97717813  1
  O  O42  1  0.01679992  0.99717986  0.34420992  1
  O  O43  1  0.01679992  0.50282014  0.84420992  1
  O  O44  1  0.02501891  0.46179619  0.32838122  1
  O  O45  1  0.02501891  0.03820381  0.82838122  1
  O  O46  1  0.07207432  0.22864951  0.72277359  1
  O  O47  1  0.07207432  0.27135049  0.22277359  1
  O  O48  1  0.18843695  0.73307993  0.08094016  1
  O  O49  1  0.18843695  0.76692007  0.58094016  1
  O  O50  1  0.20522263  0.96381083  0.00100828  1
  O  O51  1  0.20522263  0.53618917  0.50100828  1
  O  O52  1  0.22133501  0.01553810  0.72292177  1
  O  O53  1  0.22133501  0.48446190  0.22292177  1
  O  O54  1  0.24084793  0.74708411  0.40827267  1
  O  O55  1  0.24084793  0.75291589  0.90827267  1
  O  O56  1  0.25915207  0.24708411  0.40827267  1
  O  O57  1  0.25915207  0.25291589  0.90827267  1
  O  O58  1  0.27866499  0.98446190  0.22292177  1
  O  O59  1  0.27866499  0.51553810  0.72292177  1
  O  O60  1  0.29477737  0.03618917  0.50100828  1
  O  O61  1  0.29477737  0.46381083  0.00100828  1
  O  O62  1  0.31156305  0.23307993  0.08094016  1
  O  O63  1  0.31156305  0.26692007  0.58094016  1
  O  O64  1  0.42792568  0.77135049  0.22277359  1
  O  O65  1  0.42792568  0.72864951  0.72277359  1
  O  O66  1  0.47498109  0.53820381  0.82838122  1
  O  O67  1  0.47498109  0.96179619  0.32838122  1
  O  O68  1  0.48320008  0.49717986  0.34420992  1
  O  O69  1  0.48320008  0.00282014  0.84420992  1
  O  O70  1  0.49386297  0.19999442  0.47717813  1
  O  O71  1  0.49386297  0.30000558  0.97717813  1
  O  O72  1  0.50613703  0.69999342  0.02282187  1
  O  O73  1  0.50613703  0.80000658  0.52282187  1
  O  O74  1  0.51679992  0.50282014  0.65579008  1
  O  O75  1  0.51679992  0.99717986  0.15579008  1
  O  O76  1  0.52501891  0.46179619  0.17161878  1
  O  O77  1  0.52501891  0.03820381  0.67161878  1
  O  O78  1  0.57207432  0.27135049  0.27722641  1
  O  O79  1  0.57207432  0.22864951  0.77722641  1
  O  O80  1  0.68843695  0.73307993  0.41905984  1
  O  O81  1  0.68843695  0.76692007  0.91905984  1
  O  O82  1  0.70522263  0.53618917  0.99899172  1
  O  O83  1  0.70522263  0.96381083  0.49899172  1
  O  O84  1  0.72133501  0.48446190  0.27707823  1
  O  O85  1  0.72133501  0.01553810  0.77707823  1
  O  O86  1  0.74084793  0.74708411  0.09172733  1
  O  O87  1  0.74084793  0.75291589  0.59172733  1
  O  O88  1  0.75915207  0.24708411  0.09172733  1
  O  O89  1  0.75915207  0.25291589  0.59172733  1
  O  O90  1  0.77866499  0.51553810  0.77707823  1
  O  O91  1  0.77866499  0.98446190  0.27707823  1
  O  O92  1  0.79477737  0.46381083  0.49899172  1
  O  O93  1  0.79477737  0.03618917  0.99899172  1
  O  O94  1  0.81156305  0.23307993  0.41905984  1
  O  O95  1  0.81156305  0.26692007  0.91905984  1
  O  O96  1  0.92792568  0.72864951  0.77722641  1
  O  O97  1  0.92792568  0.77135049  0.27722641  1
  O  O98  1  0.97498109  0.53820381  0.67161878  1
  O  O99  1  0.97498109  0.96179619  0.17161878  1
  O  O100  1  0.98320008  0.00282014  0.65579008  1
  O  O101  1  0.98320008  0.49717986  0.15579008  1
  O  O102  1  0.99386297  0.19999442  0.02282187  1
  O  O103  1  0.99386297  0.30000558  0.52282187  1
