# generated using pymatgen
data_Li2FeSiO4
_symmetry_space_group_name_H-M   'P 1'
_cell_length_a   6.28760254
_cell_length_b   10.96777649
_cell_length_c   5.07693849
_cell_angle_alpha   90.00000000
_cell_angle_beta   90.00000000
_cell_angle_gamma   90.00000000
_symmetry_Int_Tables_number   1
_chemical_formula_structural   Li2FeSiO4
_chemical_formula_sum   'Li8 Fe4 Si4 O16'
_cell_volume   350.11085328
_cell_formula_units_Z   4
loop_
 _symmetry_equiv_pos_site_id
 _symmetry_equiv_pos_as_xyz
  1  'x, y, z'
loop_
 _atom_site_type_symbol
 _atom_site_label
 _atom_site_symmetry_multiplicity
 _atom_site_fract_x
 _atom_site_fract_y
 _atom_site_fract_z
 _atom_site_occupancy
  Li  Li0  1  0.00078066  0.82730639  0.75808532  1
  Li  Li1  1  0.25399953  0.08930591  0.75823046  1
  Li  Li2  1  0.24600047  0.58930591  0.75823046  1
  Li  Li3  1  0.49921934  0.32730639  0.75808532  1
  Li  Li4  1  0.50078066  0.67269361  0.25808532  1
  Li  Li5  1  0.75399953  0.41069409  0.25823046  1
  Li  Li6  1  0.74600047  0.91069409  0.25823046  1
  Li  Li7  1  0.99921934  0.17269361  0.25808532  1
  Fe  Fe8  1  0.25006503  0.41665805  0.25740888  1
  Fe  Fe9  1  0.24993497  0.91665805  0.25740888  1
  Fe  Fe10  1  0.75006503  0.08334195  0.75740888  1
  Fe  Fe11  1  0.74993497  0.58334195  0.75740888  1
  Si  Si12  1  0.99963606  0.66566051  0.26411264  1
  Si  Si13  1  0.50036394  0.16566051  0.26411264  1
  Si  Si14  1  0.49963606  0.83433949  0.76411264  1
  Si  Si15  1  0.00036394  0.33433949  0.76411264  1
  O  O16  1  0.99750023  0.33304711  0.08786613  1
  O  O17  1  0.00174328  0.80872795  0.15589882  1
  O  O18  1  0.28256062  0.09441371  0.15787286  1
  O  O19  1  0.21908627  0.40677919  0.66364988  1
  O  O20  1  0.28091373  0.90677919  0.66364988  1
  O  O21  1  0.21743938  0.59441371  0.15787286  1
  O  O22  1  0.49825672  0.30872795  0.15589882  1
  O  O23  1  0.50249977  0.83304711  0.08786613  1
  O  O24  1  0.49750023  0.16695289  0.58786613  1
  O  O25  1  0.50174328  0.69127205  0.65589882  1
  O  O26  1  0.78256062  0.40558629  0.65787286  1
  O  O27  1  0.71908627  0.09322081  0.16364988  1
  O  O28  1  0.78091373  0.59322081  0.16364988  1
  O  O29  1  0.71743938  0.90558629  0.65787286  1
  O  O30  1  0.99825672  0.19127205  0.65589882  1
  O  O31  1  0.00249977  0.66695289  0.58786613  1
