# generated using pymatgen
data_LiVOF3
_symmetry_space_group_name_H-M   'P 1'
_cell_length_a   7.66826238
_cell_length_b   4.97392081
_cell_length_c   7.38751823
_cell_angle_alpha   90.00000000
_cell_angle_beta   103.01246510
_cell_angle_gamma   90.00000000
_symmetry_Int_Tables_number   1
_chemical_formula_structural   LiVOF3
_chemical_formula_sum   'Li4 V4 O4 F12'
_cell_volume   274.53423214
_cell_formula_units_Z   4
loop_
 _symmetry_equiv_pos_site_id
 _symmetry_equiv_pos_as_xyz
  1  'x, y, z'
loop_
 _atom_site_type_symbol
 _atom_site_label
 _atom_site_symmetry_multiplicity
 _atom_site_fract_x
 _atom_site_fract_y
 _atom_site_fract_z
 _atom_site_occupancy
  Li  Li0  1  0.13531550  0.74589274  0.84158698  1
  Li  Li1  1  0.13531550  0.75410726  0.34158698  1
  Li  Li2  1  0.86468450  0.24589274  0.65841302  1
  Li  Li3  1  0.86468450  0.25410726  0.15841302  1
  V  V4  1  0.32996007  0.25893250  0.69688323  1
  V  V5  1  0.32996007  0.24106750  0.19688323  1
  V  V6  1  0.67003993  0.75893250  0.80311677  1
  V  V7  1  0.67003993  0.74106750  0.30311677  1
  O  O8  1  0.45459462  0.53167668  0.79044645  1
  O  O9  1  0.45459462  0.96832332  0.29044645  1
  O  O10  1  0.54540538  0.03167668  0.70955355  1
  O  O11  1  0.54540538  0.46832332  0.20955355  1
  F  F12  1  0.09650000  0.41679655  0.69168482  1
  F  F13  1  0.09650000  0.08320345  0.19168482  1
  F  F14  1  0.19978409  0.94455618  0.58753066  1
  F  F15  1  0.19978409  0.55544382  0.08753066  1
  F  F16  1  0.30673737  0.09587657  0.93693168  1
  F  F17  1  0.30673737  0.40412343  0.43693168  1
  F  F18  1  0.69326263  0.59587657  0.56306832  1
  F  F19  1  0.69326263  0.90412343  0.06306832  1
  F  F20  1  0.80021591  0.44455618  0.91246934  1
  F  F21  1  0.80021591  0.05544382  0.41246934  1
  F  F22  1  0.90350000  0.91679655  0.80831518  1
  F  F23  1  0.90350000  0.58320345  0.30831518  1
