# generated using pymatgen
data_Li2CoSiO4
_symmetry_space_group_name_H-M   'P 1'
_cell_length_a   5.40196132
_cell_length_b   5.00890128
_cell_length_c   6.32302958
_cell_angle_alpha   90.00000000
_cell_angle_beta   89.43863027
_cell_angle_gamma   90.00000000
_symmetry_Int_Tables_number   1
_chemical_formula_structural   Li2CoSiO4
_chemical_formula_sum   'Li4 Co2 Si2 O8'
_cell_volume   171.07963310
_cell_formula_units_Z   2
loop_
 _symmetry_equiv_pos_site_id
 _symmetry_equiv_pos_as_xyz
  1  'x, y, z'
loop_
 _atom_site_type_symbol
 _atom_site_label
 _atom_site_symmetry_multiplicity
 _atom_site_fract_x
 _atom_site_fract_y
 _atom_site_fract_z
 _atom_site_occupancy
  Li  Li0  1  0.34241440  0.99973166  0.26767117  1
  Li  Li1  1  0.16501474  0.49930217  0.50019136  1
  Li  Li2  1  0.83498526  0.99930217  0.49980864  1
  Li  Li3  1  0.65758560  0.49973166  0.73232883  1
  Co  Co4  1  0.18090274  0.49893916  0.00686766  1
  Co  Co5  1  0.81909726  0.99893916  0.99313234  1
  Si  Si6  1  0.32483946  0.99334303  0.74364752  1
  Si  Si7  1  0.67516054  0.49334303  0.25635248  1
  O  O8  1  0.18059379  0.09550843  0.96848215  1
  O  O9  1  0.18380290  0.10432177  0.53667137  1
  O  O10  1  0.32109338  0.66279509  0.75185830  1
  O  O11  1  0.61502834  0.10002269  0.75174239  1
  O  O12  1  0.38497166  0.60002269  0.24825761  1
  O  O13  1  0.67890662  0.16279509  0.24814170  1
  O  O14  1  0.81619710  0.60432177  0.46332863  1
  O  O15  1  0.81940621  0.59550843  0.03151785  1
