# generated using pymatgen
data_V4O7F5
_symmetry_space_group_name_H-M   'P 1'
_cell_length_a   5.28055808
_cell_length_b   5.28777459
_cell_length_c   9.03957068
_cell_angle_alpha   73.66521771
_cell_angle_beta   89.15866693
_cell_angle_gamma   60.79392757
_symmetry_Int_Tables_number   1
_chemical_formula_structural   V4O7F5
_chemical_formula_sum   'V4 O7 F5'
_cell_volume   209.14984971
_cell_formula_units_Z   1
loop_
 _symmetry_equiv_pos_site_id
 _symmetry_equiv_pos_as_xyz
  1  'x, y, z'
loop_
 _atom_site_type_symbol
 _atom_site_label
 _atom_site_symmetry_multiplicity
 _atom_site_fract_x
 _atom_site_fract_y
 _atom_site_fract_z
 _atom_site_occupancy
  V  V0  1  0.68477668  0.51804196  0.24332880  1
  V  V1  1  0.45819069  0.01543431  0.47787540  1
  V  V2  1  0.27367685  0.52428630  0.74123356  1
  V  V3  1  0.96417926  0.00102190  0.98298521  1
  O  O4  1  0.56759535  0.74592738  0.37832134  1
  O  O5  1  0.40899987  0.75258731  0.09780202  1
  O  O6  1  0.42175240  0.74534477  0.66450500  1
  O  O7  1  0.59075678  0.25275476  0.34210803  1
  O  O8  1  0.60271338  0.24193751  0.91747188  1
  O  O9  1  0.05773847  0.75377972  0.88100921  1
  O  O10  1  0.10573127  0.23807291  0.41155341  1
  F  F11  1  0.93372353  0.72267889  0.59184817  1
  F  F12  1  0.91464270  0.75557772  0.16738164  1
  F  F13  1  0.94508261  0.26502194  0.12675372  1
  F  F14  1  0.47165115  0.22473517  0.62908565  1
  F  F15  1  0.09878900  0.24279645  0.84673696  1
