# generated using pymatgen
data_NaNi2P3O10
_symmetry_space_group_name_H-M   'P 1'
_cell_length_a   4.70003436
_cell_length_b   8.52737346
_cell_length_c   9.03820098
_cell_angle_alpha   90.00000000
_cell_angle_beta   98.02192074
_cell_angle_gamma   90.00000000
_symmetry_Int_Tables_number   1
_chemical_formula_structural   NaNi2P3O10
_chemical_formula_sum   'Na2 Ni4 P6 O20'
_cell_volume   358.69696487
_cell_formula_units_Z   2
loop_
 _symmetry_equiv_pos_site_id
 _symmetry_equiv_pos_as_xyz
  1  'x, y, z'
loop_
 _atom_site_type_symbol
 _atom_site_label
 _atom_site_symmetry_multiplicity
 _atom_site_fract_x
 _atom_site_fract_y
 _atom_site_fract_z
 _atom_site_occupancy
  Na  Na0  1  0.00000000  0.00000000  0.00000000  1
  Na  Na1  1  0.00000000  0.50000000  0.00000000  1
  Ni  Ni2  1  0.04302271  0.07101168  0.34195288  1
  Ni  Ni3  1  0.04302271  0.42898832  0.34195288  1
  Ni  Ni4  1  0.95697729  0.57101168  0.65804712  1
  Ni  Ni5  1  0.95697729  0.92898832  0.65804712  1
  P  P6  1  0.33378630  0.25000000  0.81508702  1
  P  P7  1  0.39215990  0.75000000  0.46319450  1
  P  P8  1  0.52327099  0.75000000  0.84647233  1
  P  P9  1  0.47672901  0.25000000  0.15352767  1
  P  P10  1  0.60784010  0.25000000  0.53680550  1
  P  P11  1  0.66621370  0.75000000  0.18491298  1
  O  O12  1  0.16459271  0.09943161  0.79758833  1
  O  O13  1  0.16459271  0.40056839  0.79758833  1
  O  O14  1  0.21023312  0.75000000  0.76653615  1
  O  O15  1  0.22640157  0.59871847  0.48808929  1
  O  O16  1  0.22640157  0.90128153  0.48808929  1
  O  O17  1  0.30134285  0.25000000  0.45125507  1
  O  O18  1  0.31517398  0.09940788  0.17721973  1
  O  O19  1  0.31517398  0.40059212  0.17721973  1
  O  O20  1  0.53510116  0.25000000  0.97592068  1
  O  O21  1  0.41705757  0.75000000  0.28694350  1
  O  O22  1  0.58294243  0.25000000  0.71305650  1
  O  O23  1  0.46489884  0.75000000  0.02407932  1
  O  O24  1  0.68482602  0.90059212  0.82278027  1
  O  O25  1  0.68482602  0.59940788  0.82278027  1
  O  O26  1  0.69865715  0.75000000  0.54874493  1
  O  O27  1  0.77359843  0.09871847  0.51191071  1
  O  O28  1  0.77359843  0.40128153  0.51191071  1
  O  O29  1  0.78976688  0.25000000  0.23346385  1
  O  O30  1  0.83540729  0.59943161  0.20241167  1
  O  O31  1  0.83540729  0.90056839  0.20241167  1
