# generated using pymatgen
data_Na4FeO5
_symmetry_space_group_name_H-M   'P 1'
_cell_length_a   10.02465712
_cell_length_b   10.00108465
_cell_length_c   5.66006718
_cell_angle_alpha   96.09334977
_cell_angle_beta   96.46288055
_cell_angle_gamma   113.15769716
_symmetry_Int_Tables_number   1
_chemical_formula_structural   Na4FeO5
_chemical_formula_sum   'Na16 Fe4 O20'
_cell_volume   511.35058319
_cell_formula_units_Z   4
loop_
 _symmetry_equiv_pos_site_id
 _symmetry_equiv_pos_as_xyz
  1  'x, y, z'
loop_
 _atom_site_type_symbol
 _atom_site_label
 _atom_site_symmetry_multiplicity
 _atom_site_fract_x
 _atom_site_fract_y
 _atom_site_fract_z
 _atom_site_occupancy
  Na  Na0  1  0.09830379  0.90388328  0.50270118  1
  Na  Na1  1  0.19393443  0.80472431  0.99484079  1
  Na  Na2  1  0.06154253  0.45434757  0.75317897  1
  Na  Na3  1  0.15886113  0.36107735  0.27567497  1
  Na  Na4  1  0.00000000  0.00000000  0.00000000  1
  Na  Na5  1  0.40322940  0.60542912  0.99878498  1
  Na  Na6  1  0.54795513  0.93821791  0.24182893  1
  Na  Na7  1  0.64618055  0.84511594  0.72466393  1
  Na  Na8  1  0.50000000  0.50000000  0.50000000  1
  Na  Na9  1  0.35381945  0.15488406  0.27533607  1
  Na  Na10  1  0.45204487  0.06178209  0.75817107  1
  Na  Na11  1  0.59677060  0.39457088  0.00121502  1
  Na  Na12  1  0.84113887  0.63892265  0.72432503  1
  Na  Na13  1  0.93845747  0.54565243  0.24682103  1
  Na  Na14  1  0.80606557  0.19527569  0.00515921  1
  Na  Na15  1  0.90169621  0.09611672  0.49729882  1
  Fe  Fe16  1  0.29232926  0.73448356  0.48804915  1
  Fe  Fe17  1  0.21835594  0.23751436  0.78859229  1
  Fe  Fe18  1  0.78164406  0.76248564  0.21140771  1
  Fe  Fe19  1  0.70767074  0.26551644  0.51195085  1
  O  O20  1  0.11798513  0.68397269  0.60153442  1
  O  O21  1  0.04889202  0.22559716  0.88399641  1
  O  O22  1  0.31735739  0.90448204  0.38326381  1
  O  O23  1  0.19035154  0.60318535  0.20758953  1
  O  O24  1  0.39528352  0.80803034  0.79622753  1
  O  O25  1  0.27624866  0.41252149  0.67709873  1
  O  O26  1  0.15210111  0.15226759  0.47085827  1
  O  O27  1  0.22768749  0.06928878  0.87296864  1
  O  O28  1  0.45240611  0.71031420  0.40611665  1
  O  O29  1  0.34991510  0.34827267  0.06102307  1
  O  O30  1  0.65008490  0.65172733  0.93897693  1
  O  O31  1  0.54759389  0.28968580  0.59388335  1
  O  O32  1  0.77231251  0.93071122  0.12703136  1
  O  O33  1  0.84789889  0.84773241  0.52914173  1
  O  O34  1  0.72375134  0.58747851  0.32290127  1
  O  O35  1  0.60471648  0.19196966  0.20377247  1
  O  O36  1  0.80964846  0.39681465  0.79241047  1
  O  O37  1  0.68264261  0.09551796  0.61673619  1
  O  O38  1  0.95110798  0.77440284  0.11600359  1
  O  O39  1  0.88201487  0.31602731  0.39846558  1
