# generated using pymatgen
data_Na2FeO3
_symmetry_space_group_name_H-M   'P 1'
_cell_length_a   5.35440477
_cell_length_b   5.35345988
_cell_length_c   11.02317838
_cell_angle_alpha   90.00617040
_cell_angle_beta   89.98062016
_cell_angle_gamma   59.98015787
_symmetry_Int_Tables_number   1
_chemical_formula_structural   Na2FeO3
_chemical_formula_sum   'Na8 Fe4 O12'
_cell_volume   273.58753277
_cell_formula_units_Z   4
loop_
 _symmetry_equiv_pos_site_id
 _symmetry_equiv_pos_as_xyz
  1  'x, y, z'
loop_
 _atom_site_type_symbol
 _atom_site_label
 _atom_site_symmetry_multiplicity
 _atom_site_fract_x
 _atom_site_fract_y
 _atom_site_fract_z
 _atom_site_occupancy
  Na  Na0  1  0.00028187  0.67974413  0.25007214  1
  Na  Na1  1  0.31995150  0.67974619  0.75004876  1
  Na  Na2  1  0.00026602  0.32001026  0.74992720  1
  Na  Na3  1  0.99999315  -0.00000538  0.00000178  1
  Na  Na4  1  0.00002232  -0.00001640  0.50000064  1
  Na  Na5  1  0.31995722  0.00028147  0.25005925  1
  Na  Na6  1  0.67974183  0.32000321  0.24994808  1
  Na  Na7  1  0.67978361  0.00023835  0.74994563  1
  Fe  Fe8  1  0.33331150  0.33345178  0.99999866  1
  Fe  Fe9  1  0.66665536  0.66662623  0.00000154  1
  Fe  Fe10  1  0.66666367  0.66662853  0.49999862  1
  Fe  Fe11  1  0.33334110  0.33346198  0.50000190  1
  O  O12  1  0.00067325  0.62188906  0.60125609  1
  O  O13  1  0.00074896  0.62170338  0.89877348  1
  O  O14  1  0.00030891  0.37777446  0.10122982  1
  O  O15  1  0.00024191  0.37766722  0.39874849  1
  O  O16  1  0.37742962  0.62192685  0.10124201  1
  O  O17  1  0.37754629  0.62180066  0.39871798  1
  O  O18  1  0.62202527  0.37775014  0.60128017  1
  O  O19  1  0.62199214  0.37753461  0.89875213  1
  O  O20  1  0.37769628  0.00040971  0.60121709  1
  O  O21  1  0.37776688  0.00039010  0.89880488  1
  O  O22  1  0.62168040  0.00066985  0.10119569  1
  O  O23  1  0.62192295  0.00041263  0.39877999  1
