# generated using pymatgen
data_Li2CoSiO4
_symmetry_space_group_name_H-M   'P 1'
_cell_length_a   6.20139233
_cell_length_b   10.95674547
_cell_length_c   5.10212326
_cell_angle_alpha   90.00000000
_cell_angle_beta   90.00000000
_cell_angle_gamma   90.00000000
_symmetry_Int_Tables_number   1
_chemical_formula_structural   Li2CoSiO4
_chemical_formula_sum   'Li8 Co4 Si4 O16'
_cell_volume   346.67436364
_cell_formula_units_Z   4
loop_
 _symmetry_equiv_pos_site_id
 _symmetry_equiv_pos_as_xyz
  1  'x, y, z'
loop_
 _atom_site_type_symbol
 _atom_site_label
 _atom_site_symmetry_multiplicity
 _atom_site_fract_x
 _atom_site_fract_y
 _atom_site_fract_z
 _atom_site_occupancy
  Li  Li0  1  0.99575563  0.33179904  0.19976544  1
  Li  Li1  1  0.99575563  0.83179904  0.30023456  1
  Li  Li2  1  0.50424437  0.33179904  0.19976544  1
  Li  Li3  1  0.50424437  0.83179904  0.30023456  1
  Li  Li4  1  0.49575563  0.16820096  0.69976544  1
  Li  Li5  1  0.49575563  0.66820096  0.80023456  1
  Li  Li6  1  0.00424437  0.66820096  0.80023456  1
  Li  Li7  1  0.00424437  0.16820096  0.69976544  1
  Co  Co8  1  0.25000000  0.42446906  0.80694378  1
  Co  Co9  1  0.25000000  0.92446906  0.69305622  1
  Co  Co10  1  0.75000000  0.07553094  0.30694378  1
  Co  Co11  1  0.75000000  0.57553094  0.19305622  1
  Si  Si12  1  0.25000000  0.08518384  0.18919844  1
  Si  Si13  1  0.25000000  0.58518384  0.31080156  1
  Si  Si14  1  0.75000000  0.41481616  0.68919844  1
  Si  Si15  1  0.75000000  0.91481616  0.81080156  1
  O  O16  1  0.03447244  0.15931525  0.29471382  1
  O  O17  1  0.03447244  0.65931525  0.20528618  1
  O  O18  1  0.25000000  0.08534397  0.86422305  1
  O  O19  1  0.25000000  0.44303348  0.20512866  1
  O  O20  1  0.25000000  0.94303348  0.29487134  1
  O  O21  1  0.25000000  0.58534397  0.63577695  1
  O  O22  1  0.46552756  0.15931525  0.29471382  1
  O  O23  1  0.46552756  0.65931525  0.20528618  1
  O  O24  1  0.53447244  0.84068475  0.70528618  1
  O  O25  1  0.53447244  0.34068475  0.79471382  1
  O  O26  1  0.75000000  0.05696652  0.70512866  1
  O  O27  1  0.75000000  0.41465603  0.36422305  1
  O  O28  1  0.75000000  0.55696652  0.79487134  1
  O  O29  1  0.75000000  0.91465603  0.13577695  1
  O  O30  1  0.96552756  0.34068475  0.79471382  1
  O  O31  1  0.96552756  0.84068475  0.70528618  1
