# generated using pymatgen
data_V4O7F5
_symmetry_space_group_name_H-M   'P 1'
_cell_length_a   5.24002490
_cell_length_b   5.31602693
_cell_length_c   9.15308603
_cell_angle_alpha   72.26877809
_cell_angle_beta   90.56025971
_cell_angle_gamma   118.52641032
_symmetry_Int_Tables_number   1
_chemical_formula_structural   V4O7F5
_chemical_formula_sum   'V4 O7 F5'
_cell_volume   210.55124847
_cell_formula_units_Z   1
loop_
 _symmetry_equiv_pos_site_id
 _symmetry_equiv_pos_as_xyz
  1  'x, y, z'
loop_
 _atom_site_type_symbol
 _atom_site_label
 _atom_site_symmetry_multiplicity
 _atom_site_fract_x
 _atom_site_fract_y
 _atom_site_fract_z
 _atom_site_occupancy
  V  V0  1  0.78651454  0.51238621  0.77127513  1
  V  V1  1  0.94927267  -0.00020244  0.01672220  1
  V  V2  1  0.54681731  0.99379265  0.50849354  1
  V  V3  1  0.25496582  0.45938511  0.25741883  1
  O  O4  1  0.88991128  0.23524293  0.40993233  1
  O  O5  1  0.90566853  0.24269785  0.83554772  1
  O  O6  1  0.39272114  0.23676029  0.34128867  1
  O  O7  1  0.59220459  0.73639799  0.65304271  1
  O  O8  1  0.58884164  0.75130776  0.08562406  1
  O  O9  1  0.04329280  0.24062581  0.11891017  1
  O  O10  1  0.94397525  0.73528252  0.87410839  1
  F  F11  1  0.52972152  0.22227130  0.62201570  1
  F  F12  1  0.42001716  0.25207437  0.90207341  1
  F  F13  1  0.43098697  0.74927275  0.37450555  1
  F  F14  1  0.08955512  0.75326775  0.15258689  1
  F  F15  1  0.07328266  0.72965416  0.58861269  1
