# generated using pymatgen
data_TiV15O24
_symmetry_space_group_name_H-M   'P 1'
_cell_length_a   5.55924721
_cell_length_b   9.16047820
_cell_length_c   9.14900850
_cell_angle_alpha   68.36808013
_cell_angle_beta   95.15198282
_cell_angle_gamma   95.10097643
_symmetry_Int_Tables_number   1
_chemical_formula_structural   TiV15O24
_chemical_formula_sum   'Ti1 V15 O24'
_cell_volume   430.56852100
_cell_formula_units_Z   1
loop_
 _symmetry_equiv_pos_site_id
 _symmetry_equiv_pos_as_xyz
  1  'x, y, z'
loop_
 _atom_site_type_symbol
 _atom_site_label
 _atom_site_symmetry_multiplicity
 _atom_site_fract_x
 _atom_site_fract_y
 _atom_site_fract_z
 _atom_site_occupancy
  Ti  Ti0  1  0.70633470  0.07100326  0.07221332  1
  V  V1  1  0.20110250  0.07292119  0.57789141  1
  V  V2  1  0.30147476  0.17324951  0.17861948  1
  V  V3  1  0.29923250  0.42664226  0.42499004  1
  V  V4  1  0.80339355  0.17813430  0.67226538  1
  V  V5  1  0.20061186  0.32387027  0.82393740  1
  V  V6  1  0.19907476  0.57411115  0.07409710  1
  V  V7  1  0.70149924  0.32489034  0.32477960  1
  V  V8  1  0.20315032  0.82504190  0.32430918  1
  V  V9  1  0.79684514  0.67342107  0.17216167  1
  V  V10  1  0.70216877  0.57629376  0.57345779  1
  V  V11  1  0.29872130  0.67556672  0.67530037  1
  V  V12  1  0.79611911  0.42451624  0.92533238  1
  V  V13  1  0.79738583  0.92676880  0.42707419  1
  V  V14  1  0.69667563  0.82325102  0.82733675  1
  V  V15  1  0.30130131  0.92500482  0.92459648  1
  O  O16  1  0.15216872  0.02633891  0.37667337  1
  O  O17  1  0.98983795  0.21446658  0.03129236  1
  O  O18  1  0.65505126  0.12734507  0.27419063  1
  O  O19  1  0.00284521  0.27796651  0.47135043  1
  O  O20  1  0.14937358  0.12869959  0.77644975  1
  O  O21  1  0.66112851  0.03205781  0.88172920  1
  O  O22  1  0.50373738  0.22467321  0.52707459  1
  O  O23  1  0.34606772  0.37429745  0.22234687  1
  O  O24  1  0.14996354  0.62694843  0.27711751  1
  O  O25  1  0.49832451  0.27320997  0.97404190  1
  O  O26  1  0.84656758  0.47003791  0.12392016  1
  O  O27  1  0.34901298  0.47480377  0.62404725  1
  O  O28  1  0.15054665  0.52308471  0.87524790  1
  O  O29  1  0.65329371  0.52855222  0.37324699  1
  O  O30  1  0.49938536  0.71973145  0.02956838  1
  O  O31  1  0.00189705  0.72447539  0.52497042  1
  O  O32  1  0.84737256  0.37644436  0.72340529  1
  O  O33  1  0.65082460  0.62467148  0.77631085  1
  O  O34  1  0.50381452  0.77858313  0.47144637  1
  O  O35  1  0.99526243  0.77352640  0.97492395  1
  O  O36  1  0.35289979  0.97406192  0.12918841  1
  O  O37  1  0.84207592  0.88367093  0.21625995  1
  O  O38  1  0.34956863  0.87471795  0.72006619  1
  O  O39  1  0.84388859  0.97294823  0.62676975  1
