# generated using pymatgen
data_Zn4Si2O9
_symmetry_space_group_name_H-M   'P 1'
_cell_length_a   5.19174089
_cell_length_b   7.36003027
_cell_length_c   7.36003027
_cell_angle_alpha   69.61004122
_cell_angle_beta   69.34754993
_cell_angle_gamma   69.34754993
_symmetry_Int_Tables_number   1
_chemical_formula_structural   Zn4Si2O9
_chemical_formula_sum   'Zn4 Si2 O9'
_cell_volume   238.05679072
_cell_formula_units_Z   1
loop_
 _symmetry_equiv_pos_site_id
 _symmetry_equiv_pos_as_xyz
  1  'x, y, z'
loop_
 _atom_site_type_symbol
 _atom_site_label
 _atom_site_symmetry_multiplicity
 _atom_site_fract_x
 _atom_site_fract_y
 _atom_site_fract_z
 _atom_site_occupancy
  Zn  Zn0  1  0.15440305  0.63430123  0.04660968  1
  Zn  Zn1  1  0.83531397  0.36569877  0.95339032  1
  Zn  Zn2  1  0.15440305  0.04660968  0.63430123  1
  Zn  Zn3  1  0.83531397  0.95339032  0.36569877  1
  Si  Si4  1  0.62942318  0.85446086  0.85446086  1
  Si  Si5  1  0.33834490  0.14553914  0.14553914  1
  O  O6  1  0.56081979  0.63315963  0.95646169  1
  O  O7  1  0.15044111  0.36684037  0.04353831  1
  O  O8  1  0.56081979  0.95646169  0.63315963  1
  O  O9  1  0.15044111  0.04353831  0.36684037  1
  O  O10  1  0.96216040  0.83435728  0.83435728  1
  O  O11  1  0.63087497  0.16564272  0.16564272  1
  O  O12  1  0.94614992  0.70058992  0.29941008  1
  O  O13  1  0.94614992  0.29941008  0.70058992  1
  O  O14  1  0.40044086  1.00000000  1.00000000  1
