# generated using pymatgen
data_VF5
_symmetry_space_group_name_H-M   'P 1'
_cell_length_a   6.63432973
_cell_length_b   8.71972341
_cell_length_c   6.33907715
_cell_angle_alpha   90.00000000
_cell_angle_beta   85.06349190
_cell_angle_gamma   90.00000000
_symmetry_Int_Tables_number   1
_chemical_formula_structural   VF5
_chemical_formula_sum   'V4 F20'
_cell_volume   365.35231305
_cell_formula_units_Z   4
loop_
 _symmetry_equiv_pos_site_id
 _symmetry_equiv_pos_as_xyz
  1  'x, y, z'
loop_
 _atom_site_type_symbol
 _atom_site_label
 _atom_site_symmetry_multiplicity
 _atom_site_fract_x
 _atom_site_fract_y
 _atom_site_fract_z
 _atom_site_occupancy
  V  V0  1  0.06186269  0.62934763  0.82251470  1
  V  V1  1  0.43813731  0.12934763  0.67748530  1
  V  V2  1  0.56186269  0.87065237  0.32251470  1
  V  V3  1  0.93813731  0.37065237  0.17748530  1
  F  F4  1  0.04117533  0.40006007  0.87447129  1
  F  F5  1  0.05667089  0.82827358  0.83900168  1
  F  F6  1  0.15319440  0.60098711  0.55920641  1
  F  F7  1  0.19594971  0.38355542  0.22924150  1
  F  F8  1  0.19485492  0.11343707  0.58362717  1
  F  F9  1  0.30405029  0.88355542  0.27075850  1
  F  F10  1  0.30514508  0.61343707  0.91637283  1
  F  F11  1  0.34680560  0.10098711  0.94079359  1
  F  F12  1  0.44332911  0.32827358  0.66099832  1
  F  F13  1  0.45882467  0.90006007  0.62552871  1
  F  F14  1  0.54117533  0.09993993  0.37447129  1
  F  F15  1  0.55667089  0.67172642  0.33900168  1
  F  F16  1  0.65319440  0.89901289  0.05920641  1
  F  F17  1  0.69485492  0.38656293  0.08362717  1
  F  F18  1  0.69594971  0.11644458  0.72924150  1
  F  F19  1  0.80514508  0.88656293  0.41637283  1
  F  F20  1  0.80405029  0.61644458  0.77075850  1
  F  F21  1  0.84680560  0.39901289  0.44079359  1
  F  F22  1  0.94332911  0.17172642  0.16099832  1
  F  F23  1  0.95882467  0.59993993  0.12552871  1
