# generated using pymatgen
data_Al11InO17
_symmetry_space_group_name_H-M   'P 1'
_cell_length_a   5.65615672
_cell_length_b   5.65613660
_cell_length_c   23.06173253
_cell_angle_alpha   90.00006695
_cell_angle_beta   90.00018385
_cell_angle_gamma   119.99984756
_symmetry_Int_Tables_number   1
_chemical_formula_structural   Al11InO17
_chemical_formula_sum   'Al22 In2 O34'
_cell_volume   638.94658563
_cell_formula_units_Z   2
loop_
 _symmetry_equiv_pos_site_id
 _symmetry_equiv_pos_as_xyz
  1  'x, y, z'
loop_
 _atom_site_type_symbol
 _atom_site_label
 _atom_site_symmetry_multiplicity
 _atom_site_fract_x
 _atom_site_fract_y
 _atom_site_fract_z
 _atom_site_occupancy
  Al  Al0  1  0.16737202  0.83273335  0.89435115  1
  Al  Al1  1  0.16736917  0.83273370  0.60564907  1
  Al  Al2  1  0.33336857  0.66667781  0.17543599  1
  Al  Al3  1  0.33333571  0.66670464  0.02463555  1
  Al  Al4  1  0.00001819  0.00004639  0.00000047  1
  Al  Al5  1  0.00000074  0.00002612  0.50000018  1
  Al  Al6  1  0.33335400  0.66665094  0.32456390  1
  Al  Al7  1  0.33333006  0.66669159  0.47536375  1
  Al  Al8  1  0.16731983  0.33470900  0.60563428  1
  Al  Al9  1  0.16732068  0.33471156  0.89436580  1
  Al  Al10  1  0.66532565  0.83270988  0.89435132  1
  Al  Al11  1  0.66532669  0.83271067  0.60564927  1
  Al  Al12  1  0.33467887  0.16740656  0.39435143  1
  Al  Al13  1  0.33469607  0.16739837  0.10564880  1
  Al  Al14  1  0.83265514  0.66535191  0.39435162  1
  Al  Al15  1  0.66664379  0.33331904  0.67543582  1
  Al  Al16  1  0.66664312  0.33331940  0.82456391  1
  Al  Al17  1  0.66667627  0.33337999  0.97536570  1
  Al  Al18  1  0.66667004  0.33337879  0.52463486  1
  Al  Al19  1  0.83266892  0.66535642  0.10564772  1
  Al  Al20  1  0.83267623  0.16737364  0.10563284  1
  Al  Al21  1  0.83265532  0.16735860  0.39436744  1
  In  In22  1  0.33263883  0.66529734  0.74999989  1
  In  In23  1  0.66736111  0.33265646  0.25000011  1
  O  O24  1  0.15720405  0.84287656  0.04917415  1
  O  O25  1  0.15720539  0.84287985  0.45082604  1
  O  O26  1  0.00314406  0.50160761  0.85593521  1
  O  O27  1  0.00314360  0.50160811  0.64406469  1
  O  O28  1  0.15716097  0.31440153  0.45082807  1
  O  O29  1  0.33326386  0.66675965  0.24999989  1
  O  O30  1  0.00000883  0.00004820  0.13973055  1
  O  O31  1  0.33333310  0.66669761  0.94491603  1
  O  O32  1  0.99999083  0.00003955  0.36026939  1
  O  O33  1  0.00001219  0.00005390  0.63972953  1
  O  O34  1  0.00000822  0.00005438  0.86027036  1
  O  O35  1  0.33332661  0.66668990  0.55508380  1
  O  O36  1  0.15719636  0.31440860  0.04917169  1
  O  O37  1  0.49842134  0.99686410  0.64405998  1
  O  O38  1  0.49842103  0.99686387  0.85593955  1
  O  O39  1  0.31436624  0.15723792  0.54917158  1
  O  O40  1  0.31436847  0.15723673  0.95082717  1
  O  O41  1  0.49840165  0.50158709  0.85593592  1
  O  O42  1  0.49840445  0.50158982  0.64406399  1
  O  O43  1  0.50160978  0.49845625  0.14406125  1
  O  O44  1  0.50160079  0.49845642  0.35593766  1
  O  O45  1  0.68563297  0.84284904  0.45082925  1
  O  O46  1  0.68564892  0.84284700  0.04917171  1
  O  O47  1  0.50157508  0.00317758  0.35593776  1
  O  O48  1  0.66667458  0.33337917  0.44491714  1
  O  O49  1  0.66673630  0.33350411  0.74999964  1
  O  O50  1  0.66669017  0.33336952  0.05508304  1
  O  O51  1  0.84283747  0.68568221  0.95082511  1
  O  O52  1  0.84283959  0.68568087  0.54917496  1
  O  O53  1  0.50160003  0.00318279  0.14406365  1
  O  O54  1  0.99686299  0.49844876  0.14406269  1
  O  O55  1  0.99686000  0.49844325  0.35593522  1
  O  O56  1  0.84279872  0.15720369  0.54917225  1
  O  O57  1  0.84280532  0.15720822  0.95082816  1
