# generated using pymatgen
data_Li3Sb17S27
_symmetry_space_group_name_H-M   'P 1'
_cell_length_a   8.84026596
_cell_length_b   8.84909548
_cell_length_c   15.49285901
_cell_angle_alpha   76.13715787
_cell_angle_beta   84.61753041
_cell_angle_gamma   96.31730557
_symmetry_Int_Tables_number   1
_chemical_formula_structural   Li3Sb17S27
_chemical_formula_sum   'Li3 Sb17 S27'
_cell_volume   1160.42963715
_cell_formula_units_Z   1
loop_
 _symmetry_equiv_pos_site_id
 _symmetry_equiv_pos_as_xyz
  1  'x, y, z'
loop_
 _atom_site_type_symbol
 _atom_site_label
 _atom_site_symmetry_multiplicity
 _atom_site_fract_x
 _atom_site_fract_y
 _atom_site_fract_z
 _atom_site_occupancy
  Li  Li0  1  0.83216478  0.82965913  0.50607647  1
  Li  Li1  1  0.49832252  0.50135183  0.50162885  1
  Li  Li2  1  0.16420978  0.16749433  0.50159202  1
  Sb  Sb3  1  0.37762190  0.66751458  0.92103907  1
  Sb  Sb4  1  0.87364260  0.40593670  0.61747789  1
  Sb  Sb5  1  0.11334320  0.99433978  0.80783202  1
  Sb  Sb6  1  0.46311915  0.94096906  0.38640215  1
  Sb  Sb7  1  0.94764198  0.66808657  0.06715835  1
  Sb  Sb8  1  0.18512595  0.71847291  0.61795373  1
  Sb  Sb9  1  0.71668318  0.00601084  0.92111906  1
  Sb  Sb10  1  0.46550358  0.34593044  0.80719327  1
  Sb  Sb11  1  0.53210325  0.68007046  0.18297580  1
  Sb  Sb12  1  0.28967829  0.99764330  0.06931442  1
  Sb  Sb13  1  0.79408253  0.27635835  0.38730862  1
  Sb  Sb14  1  0.04160736  0.33673947  0.92905864  1
  Sb  Sb15  1  0.54743379  0.04764085  0.61093352  1
  Sb  Sb16  1  0.86530623  0.00431535  0.18748185  1
  Sb  Sb17  1  0.12970998  0.61169971  0.38568465  1
  Sb  Sb18  1  0.62066036  0.34005868  0.06772293  1
  Sb  Sb19  1  0.20457640  0.34219930  0.18641892  1
  S  S20  1  0.84327692  0.98506684  0.77419611  1
  S  S21  1  0.89559436  0.67081728  0.65393615  1
  S  S22  1  0.77917430  0.98497147  0.35076159  1
  S  S23  1  0.43921545  0.97722075  0.87325518  1
  S  S24  1  0.83168400  0.69645088  0.22241873  1
  S  S25  1  0.81971623  0.53223497  0.46277695  1
  S  S26  1  0.52292514  0.80136168  0.53525676  1
  S  S27  1  0.49635240  0.63719416  0.77454844  1
  S  S28  1  0.76406563  0.31106366  0.88075131  1
  S  S29  1  0.90299812  0.35033958  0.12502030  1
  S  S30  1  0.15841291  0.87014342  0.46259114  1
  S  S31  1  0.56131440  0.35164142  0.64782930  1
  S  S32  1  0.44075383  0.65632770  0.35337018  1
  S  S33  1  0.84283037  0.12099116  0.53481859  1
  S  S34  1  0.10107516  0.64714875  0.87942452  1
  S  S35  1  0.67517431  0.65256597  0.01023766  1
  S  S36  1  0.24301906  0.68310446  0.13078532  1
  S  S37  1  0.49167970  0.35827012  0.22317621  1
  S  S38  1  0.48701786  0.20433127  0.46617377  1
  S  S39  1  0.18041535  0.46185809  0.53450181  1
  S  S40  1  0.17091641  0.30836715  0.77615025  1
  S  S41  1  0.56752199  0.00750610  0.13012279  1
  S  S42  1  0.21770363  0.00753670  0.64713469  1
  S  S43  1  0.10830979  0.32112463  0.35256000  1
  S  S44  1  0.33546338  0.32813092  0.00397696  1
  S  S45  1  0.16226838  0.02899513  0.22127736  1
  S  S46  1  0.00590909  0.99643010  0.00139567  1
