# generated using pymatgen
data_Li3Fe(BO3)2
_symmetry_space_group_name_H-M   'P 1'
_cell_length_a   5.03910206
_cell_length_b   6.42756898
_cell_length_c   8.04677191
_cell_angle_alpha   106.11937604
_cell_angle_beta   90.67146777
_cell_angle_gamma   89.32165519
_symmetry_Int_Tables_number   1
_chemical_formula_structural   Li3Fe(BO3)2
_chemical_formula_sum   'Li6 Fe2 B4 O12'
_cell_volume   250.35459988
_cell_formula_units_Z   2
loop_
 _symmetry_equiv_pos_site_id
 _symmetry_equiv_pos_as_xyz
  1  'x, y, z'
loop_
 _atom_site_type_symbol
 _atom_site_label
 _atom_site_symmetry_multiplicity
 _atom_site_fract_x
 _atom_site_fract_y
 _atom_site_fract_z
 _atom_site_occupancy
  Li  Li0  1  0.82504302  0.23781835  0.88771457  1
  Li  Li1  1  0.17551697  0.46429747  0.76339250  1
  Li  Li2  1  0.67696532  0.40305270  0.57582793  1
  Li  Li3  1  0.82701348  0.52060136  0.24453255  1
  Li  Li4  1  0.32287803  0.59669241  0.43034338  1
  Li  Li5  1  0.16666610  0.76002339  0.11692271  1
  Fe  Fe6  1  0.64778390  0.05444356  0.22899309  1
  Fe  Fe7  1  0.34660855  0.94559825  0.77537673  1
  B  B8  1  0.16419148  0.18124632  0.41553127  1
  B  B9  1  0.33369133  0.33277616  0.07374928  1
  B  B10  1  0.66104495  0.66827112  0.92882471  1
  B  B11  1  0.83301574  0.81832905  0.58930305  1
  O  O12  1  0.21761845  0.22184253  0.91390425  1
  O  O13  1  0.88583686  0.18100827  0.40852431  1
  O  O14  1  0.29794233  0.33717785  0.53375519  1
  O  O15  1  0.59912414  0.27290392  0.10408280  1
  O  O16  1  0.78962105  0.50252067  0.81736647  1
  O  O17  1  0.39390219  0.72673112  0.89972335  1
  O  O18  1  0.20297222  0.49468324  0.18796959  1
  O  O19  1  0.69976606  0.66071582  0.47156815  1
  O  O20  1  0.11104350  0.82293908  0.59352824  1
  O  O21  1  0.70228974  0.97962444  0.71759767  1
  O  O22  1  0.78104623  0.78502017  0.08532523  1
  O  O23  1  0.29408037  0.01782074  0.28820095  1
