# generated using pymatgen
data_Ba2LiTi11O24
_symmetry_space_group_name_H-M   'P 1'
_cell_length_a   7.33649255
_cell_length_b   8.96521791
_cell_length_c   7.39610699
_cell_angle_alpha   101.86263930
_cell_angle_beta   92.31807019
_cell_angle_gamma   78.08933890
_symmetry_Int_Tables_number   1
_chemical_formula_structural   Ba2LiTi11O24
_chemical_formula_sum   'Ba2 Li1 Ti11 O24'
_cell_volume   465.82604554
_cell_formula_units_Z   1
loop_
 _symmetry_equiv_pos_site_id
 _symmetry_equiv_pos_as_xyz
  1  'x, y, z'
loop_
 _atom_site_type_symbol
 _atom_site_label
 _atom_site_symmetry_multiplicity
 _atom_site_fract_x
 _atom_site_fract_y
 _atom_site_fract_z
 _atom_site_occupancy
  Ba  Ba0  1  0.99542783  0.22469087  0.00043151  1
  Ba  Ba1  1  0.99076178  0.78129244  0.00393337  1
  Li  Li2  1  0.50670439  0.94632667  0.19370504  1
  Ti  Ti3  1  0.52601237  0.61763135  0.18193410  1
  Ti  Ti4  1  0.51943315  0.26914657  0.18400592  1
  Ti  Ti5  1  0.81088058  0.11160512  0.50889436  1
  Ti  Ti6  1  0.82062410  0.45269822  0.53173917  1
  Ti  Ti7  1  0.81531932  0.78716727  0.51060962  1
  Ti  Ti8  1  0.19019685  0.21140254  0.47815813  1
  Ti  Ti9  1  0.18871486  0.54711293  0.47229461  1
  Ti  Ti10  1  0.19652446  0.88323784  0.48726059  1
  Ti  Ti11  1  0.48023217  0.72986535  0.82915647  1
  Ti  Ti12  1  0.49250114  0.05171651  0.83228338  1
  Ti  Ti13  1  0.47712326  0.38962452  0.81681220  1
  O  O14  1  0.66051753  0.07848558  0.03573235  1
  O  O15  1  0.64071619  0.40068548  0.04402432  1
  O  O16  1  0.64930038  0.71884190  0.03817031  1
  O  O17  1  0.71267643  0.27815737  0.37178116  1
  O  O18  1  0.71414408  0.94223413  0.37769075  1
  O  O19  1  0.70710363  0.61121858  0.37880794  1
  O  O20  1  0.95226808  0.28218160  0.64403717  1
  O  O21  1  0.95196106  0.61530784  0.64535118  1
  O  O22  1  0.95244413  0.95011683  0.64760807  1
  O  O23  1  0.37732203  0.48481305  0.29269326  1
  O  O24  1  0.36541384  0.80626102  0.29479923  1
  O  O25  1  0.36509672  0.16644419  0.28881656  1
  O  O26  1  0.62450225  0.18397255  0.70358675  1
  O  O27  1  0.61983497  0.51168509  0.70397880  1
  O  O28  1  0.62978069  0.84420727  0.71068470  1
  O  O29  1  0.04719636  0.05030778  0.35380503  1
  O  O30  1  0.04415021  0.38656099  0.35718434  1
  O  O31  1  0.04434382  0.71691962  0.35670805  1
  O  O32  1  0.28912286  0.71790273  0.62852094  1
  O  O33  1  0.29668825  0.05899226  0.62477975  1
  O  O34  1  0.29129999  0.38976517  0.62525107  1
  O  O35  1  0.34694980  0.93420977  0.93745888  1
  O  O36  1  0.35452999  0.26546157  0.95328635  1
  O  O37  1  0.35218145  0.60174941  0.95402358  1
