# generated using pymatgen
data_Mg3P2(HO)16
_symmetry_space_group_name_H-M   'P 1'
_cell_length_a   4.68227503
_cell_length_b   14.12049516
_cell_length_c   10.00757963
_cell_angle_alpha   91.88142151
_cell_angle_beta   78.57883134
_cell_angle_gamma   99.54354426
_symmetry_Int_Tables_number   1
_chemical_formula_structural   Mg3P2(HO)16
_chemical_formula_sum   'Mg6 P4 H32 O32'
_cell_volume   639.58324715
_cell_formula_units_Z   2
loop_
 _symmetry_equiv_pos_site_id
 _symmetry_equiv_pos_as_xyz
  1  'x, y, z'
loop_
 _atom_site_type_symbol
 _atom_site_label
 _atom_site_symmetry_multiplicity
 _atom_site_fract_x
 _atom_site_fract_y
 _atom_site_fract_z
 _atom_site_occupancy
  Mg  Mg0  1  0.18298488  0.86596977  0.75000000  1
  Mg  Mg1  1  0.07606380  0.65212760  0.75000000  1
  Mg  Mg2  1  0.62725704  0.75451307  0.25000000  1
  Mg  Mg3  1  0.37274296  0.24548693  0.75000000  1
  Mg  Mg4  1  0.81701512  0.13403023  0.25000000  1
  Mg  Mg5  1  0.92393620  0.34787240  0.25000000  1
  P  P6  1  0.44224413  0.23866874  0.06273109  1
  P  P7  1  0.29642461  0.23866874  0.43726891  1
  P  P8  1  0.70357539  0.76133126  0.56273109  1
  P  P9  1  0.55775587  0.76133126  0.93726891  1
  H  H10  1  0.08292107  0.67826324  0.12571280  1
  H  H11  1  0.15361366  0.83833243  0.12934718  1
  H  H12  1  0.18471977  0.83833243  0.37065282  1
  H  H13  1  0.09534317  0.67826324  0.37428720  1
  H  H14  1  0.19601572  0.52078889  0.34946614  1
  H  H15  1  0.50439978  0.96761729  0.20742710  1
  H  H16  1  0.33711172  0.65003153  0.45012419  1
  H  H17  1  0.46207780  0.87942152  0.43624802  1
  H  H18  1  0.13560353  0.05053585  0.37535255  1
  H  H19  1  0.32669420  0.42499689  0.37675087  1
  H  H20  1  0.17522683  0.47921111  0.84946614  1
  H  H21  1  0.03678149  0.03238271  0.70742710  1
  H  H22  1  0.18708019  0.34996847  0.95012419  1
  H  H23  1  0.08265628  0.12057748  0.93624802  1
  H  H24  1  0.59830269  0.42499689  0.12324913  1
  H  H25  1  0.41493232  0.05053585  0.12464745  1
  H  H26  1  0.58506768  0.94946415  0.87535255  1
  H  H27  1  0.40169731  0.57500311  0.87675087  1
  H  H28  1  0.91734372  0.87942152  0.06375198  1
  H  H29  1  0.81291981  0.65003153  0.04987581  1
  H  H30  1  0.96321851  0.96761729  0.29257290  1
  H  H31  1  0.82477317  0.52078889  0.15053386  1
  H  H32  1  0.67330580  0.57500311  0.62324913  1
  H  H33  1  0.86439647  0.94946415  0.62464745  1
  H  H34  1  0.53792220  0.12057748  0.56375198  1
  H  H35  1  0.66288828  0.34996847  0.54987581  1
  H  H36  1  0.49560022  0.03238271  0.79257290  1
  H  H37  1  0.80398428  0.47921111  0.65053386  1
  H  H38  1  0.90465683  0.32173676  0.62571280  1
  H  H39  1  0.81528023  0.16166757  0.62934718  1
  H  H40  1  0.84638634  0.16166757  0.87065282  1
  H  H41  1  0.91707893  0.32173676  0.87428720  1
  O  O42  1  0.05639274  0.97418287  0.65179364  1
  O  O43  1  0.40778455  0.75997552  0.09251132  1
  O  O44  1  0.05462642  0.23977434  0.35168304  1
  O  O45  1  0.15728310  0.44963574  0.35250606  1
  O  O46  1  0.39884483  0.86746253  0.34615572  1
  O  O47  1  0.28032965  0.64873645  0.35694025  1
  O  O48  1  0.29965984  0.33166721  0.09059241  1
  O  O49  1  0.20981367  0.14543014  0.09046673  1
  O  O50  1  0.14780904  0.24002448  0.59251132  1
  O  O51  1  0.41779013  0.97418287  0.84820636  1
  O  O52  1  0.31485208  0.76022566  0.85168304  1
  O  O53  1  0.20764637  0.55036426  0.85250606  1
  O  O54  1  0.03138230  0.13253747  0.84615572  1
  O  O55  1  0.13159320  0.35126355  0.85694025  1
  O  O56  1  0.46799263  0.66833279  0.59059241  1
  O  O57  1  0.56438353  0.85456986  0.59046673  1
  O  O58  1  0.43561647  0.14543014  0.40953327  1
  O  O59  1  0.53200737  0.33166721  0.40940759  1
  O  O60  1  0.86840580  0.64873645  0.14305975  1
  O  O61  1  0.96861770  0.86746253  0.15384428  1
  O  O62  1  0.79235363  0.44963574  0.14749394  1
  O  O63  1  0.68514792  0.23977434  0.14831696  1
  O  O64  1  0.58220987  0.02581713  0.15179364  1
  O  O65  1  0.85219096  0.75997552  0.40748868  1
  O  O66  1  0.79018633  0.85456986  0.90953327  1
  O  O67  1  0.70034016  0.66833279  0.90940759  1
  O  O68  1  0.71967035  0.35126355  0.64305975  1
  O  O69  1  0.60115517  0.13253747  0.65384428  1
  O  O70  1  0.84271690  0.55036426  0.64749394  1
  O  O71  1  0.94537358  0.76022566  0.64831696  1
  O  O72  1  0.59221545  0.24002448  0.90748868  1
  O  O73  1  0.94360726  0.02581713  0.34820636  1
