# generated using pymatgen
data_W5(O2F11)2
_symmetry_space_group_name_H-M   'P 1'
_cell_length_a   10.26930195
_cell_length_b   10.25944126
_cell_length_c   12.71145456
_cell_angle_alpha   66.17712499
_cell_angle_beta   66.25265479
_cell_angle_gamma   89.85624199
_symmetry_Int_Tables_number   1
_chemical_formula_structural   W5(O2F11)2
_chemical_formula_sum   'W10 O8 F44'
_cell_volume   1100.70540384
_cell_formula_units_Z   2
loop_
 _symmetry_equiv_pos_site_id
 _symmetry_equiv_pos_as_xyz
  1  'x, y, z'
loop_
 _atom_site_type_symbol
 _atom_site_label
 _atom_site_symmetry_multiplicity
 _atom_site_fract_x
 _atom_site_fract_y
 _atom_site_fract_z
 _atom_site_occupancy
  W  W0  1  0.88622204  0.05177597  0.30881640  1
  W  W1  1  0.44689898  0.19429264  0.19372759  1
  W  W2  1  0.37517739  0.12612533  0.74874709  1
  W  W3  1  0.69323739  0.36054193  0.69368823  1
  W  W4  1  0.85895739  0.61175212  0.19380922  1
  W  W5  1  0.14081203  0.39068249  0.80549561  1
  W  W6  1  0.30562718  0.64149436  0.30552824  1
  W  W7  1  0.62398183  0.87451160  0.25081539  1
  W  W8  1  0.55258613  0.80459533  0.80891112  1
  W  W9  1  0.11142339  0.94763975  0.69281904  1
  O  O10  1  0.55712378  0.05151518  0.24527010  1
  O  O11  1  0.20563172  0.05818041  0.74179717  1
  O  O12  1  0.54991764  0.19997903  0.74506720  1
  O  O13  1  0.30131381  0.29775090  0.75402017  1
  O  O14  1  0.69786691  0.70388143  0.24452406  1
  O  O15  1  0.44872175  0.80268286  0.25340556  1
  O  O16  1  0.79350554  0.94033407  0.25940347  1
  O  O17  1  0.44403439  0.94898388  0.75619105  1
  F  F18  1  0.07199844  0.05893371  0.18867544  1
  F  F19  1  0.44774642  0.12613809  0.07566218  1
  F  F20  1  0.27597991  0.05538216  0.31898011  1
  F  F21  1  0.70036439  0.04763932  0.42882494  1
  F  F22  1  0.87104721  0.22297729  0.18392051  1
  F  F23  1  0.96507828  0.16542517  0.36136198  1
  F  F24  1  0.61814539  0.32964948  0.06717349  1
  F  F25  1  0.33396826  0.32797669  0.14266216  1
  F  F26  1  0.09951147  0.11876518  0.56701492  1
  F  F27  1  0.44358477  0.26081338  0.31250923  1
  F  F28  1  0.28214797  0.03541542  0.92957937  1
  F  F29  1  0.46696302  0.21414962  0.56781450  1
  F  F30  1  0.74729950  0.42504364  0.31226614  1
  F  F31  1  0.83021620  0.31660516  0.56680777  1
  F  F32  1  0.02546044  0.53357522  0.14041883  1
  F  F33  1  0.81081256  0.59978963  0.06955313  1
  F  F34  1  0.76083895  0.24419061  0.81169045  1
  F  F35  1  0.17205601  0.47549115  0.36178121  1
  F  F36  1  0.02652511  0.20416857  0.92512995  1
  F  F37  1  0.44087205  0.59255759  0.18054226  1
  F  F38  1  0.09213314  0.37659108  0.68139109  1
  F  F39  1  0.37809958  0.52712471  0.42130707  1
  F  F40  1  0.62309244  0.47546116  0.57638360  1
  F  F41  1  0.90549452  0.62658765  0.31865719  1
  F  F42  1  0.55584597  0.40744755  0.81921843  1
  F  F43  1  0.97333813  0.79835970  0.07461369  1
  F  F44  1  0.82497575  0.52564775  0.64197555  1
  F  F45  1  0.23778490  0.75471889  0.18672786  1
  F  F46  1  0.18726038  0.40354716  0.93020704  1
  F  F47  1  0.97485079  0.47020366  0.85796452  1
  F  F48  1  0.16959869  0.68836148  0.43082328  1
  F  F49  1  0.25392597  0.57676317  0.68694541  1
  F  F50  1  0.53063011  0.78348221  0.43168716  1
  F  F51  1  0.71577167  0.96552241  0.06988598  1
  F  F52  1  0.55548643  0.73449260  0.69232876  1
  F  F53  1  0.90233570  0.88063416  0.43168054  1
  F  F54  1  0.66471177  0.67063261  0.86147615  1
  F  F55  1  0.37978765  0.67106439  0.93426420  1
  F  F56  1  0.02924638  0.83390542  0.64247716  1
  F  F57  1  0.12471059  0.77607871  0.81849507  1
  F  F58  1  0.29710117  0.94834130  0.57481682  1
  F  F59  1  0.72516857  0.94104684  0.68332166  1
  F  F60  1  0.55047227  0.87201361  0.92771838  1
  F  F61  1  0.92677681  0.94522948  0.81173611  1
