# generated using pymatgen
data_Li13Mn17O40
_symmetry_space_group_name_H-M   'P 1'
_cell_length_a   5.84741360
_cell_length_b   5.84892864
_cell_length_c   24.06521075
_cell_angle_alpha   90.26481576
_cell_angle_beta   96.97816089
_cell_angle_gamma   119.99143979
_symmetry_Int_Tables_number   1
_chemical_formula_structural   Li13Mn17O40
_chemical_formula_sum   'Li13 Mn17 O40'
_cell_volume   705.52175864
_cell_formula_units_Z   1
loop_
 _symmetry_equiv_pos_site_id
 _symmetry_equiv_pos_as_xyz
  1  'x, y, z'
loop_
 _atom_site_type_symbol
 _atom_site_label
 _atom_site_symmetry_multiplicity
 _atom_site_fract_x
 _atom_site_fract_y
 _atom_site_fract_z
 _atom_site_occupancy
  Li  Li0  1  0.85154035  0.68030414  0.02277655  1
  Li  Li1  1  0.30000000  0.40000000  0.20000000  1
  Li  Li2  1  0.94756798  0.72378118  0.17135379  1
  Li  Li3  1  0.99997319  0.50036167  0.49958472  1
  Li  Li4  1  0.24956480  0.87780170  0.62132691  1
  Li  Li5  1  0.45785038  0.48888236  0.42681941  1
  Li  Li6  1  0.65243202  0.07621882  0.22864621  1
  Li  Li7  1  0.54348381  0.51311007  0.57385654  1
  Li  Li8  1  0.35043520  0.92219830  0.77867309  1
  Li  Li9  1  0.74845965  0.11969586  0.37722345  1
  Li  Li10  1  0.05651619  0.28688993  0.82614346  1
  Li  Li11  1  0.14214962  0.31111764  0.97318059  1
  Li  Li12  1  0.60002681  0.29963833  0.90041528  1
  Mn  Mn13  1  0.39887423  0.69712828  0.10062019  1
  Mn  Mn14  1  0.09987278  0.79809158  0.40165399  1
  Mn  Mn15  1  0.39808616  0.20215667  0.10045147  1
  Mn  Mn16  1  0.20191384  0.59784333  0.29954853  1
  Mn  Mn17  1  0.50012722  0.00190842  0.99834601  1
  Mn  Mn18  1  0.69547802  0.59784333  0.29954853  1
  Mn  Mn19  1  0.20112577  0.10287172  0.29937981  1
  Mn  Mn20  1  0.90452198  0.20215667  0.10045147  1
  Mn  Mn21  1  0.99955223  0.99946894  0.49955311  1
  Mn  Mn22  1  0.10053018  0.80053106  0.90044689  1
  Mn  Mn23  1  0.49946982  0.99946894  0.49955311  1
  Mn  Mn24  1  0.30000000  0.40000000  0.70000000  1
  Mn  Mn25  1  0.80000000  0.90000000  0.70000000  1
  Mn  Mn26  1  0.80000000  0.40000000  0.70000000  1
  Mn  Mn27  1  0.60044777  0.80053106  0.90044689  1
  Mn  Mn28  1  0.89970258  0.20212026  0.59728490  1
  Mn  Mn29  1  0.70029742  0.59787974  0.80271510  1
  O  O30  1  0.24046557  0.86887006  0.05332207  1
  O  O31  1  0.68172656  0.86887006  0.05332207  1
  O  O32  1  0.10755460  0.53405345  0.14183787  1
  O  O33  1  0.20522727  0.35282940  0.05762514  1
  O  O34  1  0.00439906  0.75111217  0.25768694  1
  O  O35  1  0.35953443  0.93112994  0.34667793  1
  O  O36  1  0.56833773  0.53405345  0.14183787  1
  O  O37  1  0.10836139  0.07494594  0.14177783  1
  O  O38  1  0.03166227  0.26594655  0.25816113  1
  O  O39  1  0.49163861  0.72505406  0.25822217  1
  O  O40  1  0.68208114  0.31204939  0.05211289  1
  O  O41  1  0.20477633  0.86845438  0.54109928  1
  O  O42  1  0.29720736  0.68791067  0.44867402  1
  O  O43  1  0.49244540  0.26594655  0.25816113  1
  O  O44  1  0.59560094  0.04888783  0.14231306  1
  O  O45  1  0.39477273  0.44717060  0.34237486  1
  O  O46  1  0.91827344  0.93112994  0.34667793  1
  O  O47  1  0.16001770  0.31193036  0.55120293  1
  O  O48  1  0.91791886  0.48795061  0.34788711  1
  O  O49  1  0.71412594  0.88105357  0.54719930  1
  O  O50  1  0.08282520  0.51382224  0.65182716  1
  O  O51  1  0.83937733  0.68791067  0.44867402  1
  O  O52  1  0.28616305  0.11985439  0.45247270  1
  O  O53  1  0.08251591  0.06652357  0.65385685  1
  O  O54  1  0.51748409  0.73347643  0.74614315  1
  O  O55  1  0.70311559  0.31193036  0.55120293  1
  O  O56  1  0.61054548  0.56458921  0.65650276  1
  O  O57  1  0.39522367  0.93154562  0.85890072  1
  O  O58  1  0.79504600  0.13174884  0.45834417  1
  O  O59  1  0.96213549  0.73347643  0.74614315  1
  O  O60  1  0.51717480  0.28617776  0.74817284  1
  O  O61  1  0.31383695  0.68014561  0.94752730  1
  O  O62  1  0.88587406  0.91894643  0.85280070  1
  O  O63  1  0.43998230  0.48806964  0.84879707  1
  O  O64  1  0.63786451  0.06652357  0.65385685  1
  O  O65  1  0.80495400  0.66825116  0.94165583  1
  O  O66  1  0.98945452  0.23541079  0.74349724  1
  O  O67  1  0.89688441  0.48806964  0.84879707  1
  O  O68  1  0.30279264  0.11208933  0.95132598  1
  O  O69  1  0.76062267  0.11208933  0.95132598  1
