# generated using pymatgen
data_TiSn9O20
_symmetry_space_group_name_H-M   'P 1'
_cell_length_a   8.04112676
_cell_length_b   6.80702010
_cell_length_c   7.53538405
_cell_angle_alpha   90.00000000
_cell_angle_beta   87.65771963
_cell_angle_gamma   64.95924457
_symmetry_Int_Tables_number   1
_chemical_formula_structural   TiSn9O20
_chemical_formula_sum   'Ti1 Sn9 O20'
_cell_volume   373.30907811
_cell_formula_units_Z   1
loop_
 _symmetry_equiv_pos_site_id
 _symmetry_equiv_pos_as_xyz
  1  'x, y, z'
loop_
 _atom_site_type_symbol
 _atom_site_label
 _atom_site_symmetry_multiplicity
 _atom_site_fract_x
 _atom_site_fract_y
 _atom_site_fract_z
 _atom_site_occupancy
  Ti  Ti0  1  0.00000000  0.00000000  0.00000000  1
  Sn  Sn1  1  0.00000000  0.00000000  0.50000000  1
  Sn  Sn2  1  0.60446378  0.19776761  0.19869267  1
  Sn  Sn3  1  0.20137769  0.39931166  0.40050070  1
  Sn  Sn4  1  0.80275296  0.59862402  0.09829834  1
  Sn  Sn5  1  0.60137166  0.19931467  0.70176257  1
  Sn  Sn6  1  0.39862834  0.80068533  0.29823743  1
  Sn  Sn7  1  0.19724704  0.40137598  0.90170166  1
  Sn  Sn8  1  0.79862231  0.60068834  0.59949930  1
  Sn  Sn9  1  0.39553622  0.80223239  0.80130733  1
  O  O10  1  0.00000000  0.29881790  0.00000000  1
  O  O11  1  0.20078006  0.09366632  0.40291506  1
  O  O12  1  0.00000000  0.70118210  0.00000000  1
  O  O13  1  0.32404668  0.33797616  0.14496626  1
  O  O14  1  0.88683579  0.05658260  0.24562882  1
  O  O15  1  0.26467270  0.86766365  0.05644441  1
  O  O16  1  0.47974749  0.26012626  0.45492894  1
  O  O17  1  0.07670392  0.46164804  0.65569710  1
  O  O18  1  0.20078006  0.70555362  0.40291506  1
  O  O19  1  0.60035536  0.50602111  0.19812873  1
  O  O20  1  0.39964464  0.10637647  0.80187127  1
  O  O21  1  0.79921994  0.29444638  0.59708494  1
  O  O22  1  0.60035536  0.89362353  0.19812873  1
  O  O23  1  0.39964464  0.49397889  0.80187127  1
  O  O24  1  0.92329608  0.53835196  0.34430290  1
  O  O25  1  0.73532730  0.13233635  0.94355559  1
  O  O26  1  0.52025251  0.73987374  0.54507106  1
  O  O27  1  0.11316421  0.94341740  0.75437118  1
  O  O28  1  0.67595332  0.66202384  0.85503374  1
  O  O29  1  0.79921994  0.90633368  0.59708494  1
