# generated using pymatgen
data_LiMn2F9
_symmetry_space_group_name_H-M   'P 1'
_cell_length_a   5.22234069
_cell_length_b   5.26049547
_cell_length_c   15.05418333
_cell_angle_alpha   81.48273554
_cell_angle_beta   96.79676730
_cell_angle_gamma   61.28201081
_symmetry_Int_Tables_number   1
_chemical_formula_structural   LiMn2F9
_chemical_formula_sum   'Li2 Mn4 F18'
_cell_volume   350.03131674
_cell_formula_units_Z   2
loop_
 _symmetry_equiv_pos_site_id
 _symmetry_equiv_pos_as_xyz
  1  'x, y, z'
loop_
 _atom_site_type_symbol
 _atom_site_label
 _atom_site_symmetry_multiplicity
 _atom_site_fract_x
 _atom_site_fract_y
 _atom_site_fract_z
 _atom_site_occupancy
  Li  Li0  1  0.25259445  0.43447131  0.54049830  1
  Li  Li1  1  0.57797601  0.74568495  0.03792950  1
  Mn  Mn2  1  0.01724186  0.98318035  0.84474258  1
  Mn  Mn3  1  0.01573239  0.97981432  0.34368204  1
  Mn  Mn4  1  0.99618976  0.02486279  0.66072495  1
  Mn  Mn5  1  0.97869195  0.00117097  0.15997420  1
  F  F6  1  0.97042166  0.29149487  0.73860433  1
  F  F7  1  0.25069964  0.08265840  0.60234428  1
  F  F8  1  0.05134933  0.66738651  0.91592276  1
  F  F9  1  0.01100718  0.69016694  0.42166871  1
  F  F10  1  0.03950804  0.72092998  0.61129688  1
  F  F11  1  0.29365414  0.75812261  0.76847667  1
  F  F12  1  0.75413770  0.97604957  0.74152725  1
  F  F13  1  0.72464120  0.24035825  0.88658223  1
  F  F14  1  0.31122722  0.98323629  0.91930824  1
  F  F15  1  0.24026950  0.70228166  0.26843230  1
  F  F16  1  0.33542057  0.93943049  0.41205136  1
  F  F17  1  0.67391703  0.30428115  0.57421856  1
  F  F18  1  0.28890997  0.95444032  0.11006786  1
  F  F19  1  0.76124603  0.27313887  0.38539654  1
  F  F20  1  0.70314427  0.32535119  0.07293259  1
  F  F21  1  0.02768922  0.24011428  0.23847147  1
  F  F22  1  0.70664157  0.02988910  0.23898966  1
  F  F23  1  0.92108429  0.75060784  0.10305872  1
