# generated using pymatgen
data_Li2Co2(SO4)3
_symmetry_space_group_name_H-M   'P 1'
_cell_length_a   8.65126417
_cell_length_b   8.76094938
_cell_length_c   24.04798103
_cell_angle_alpha   90.00000000
_cell_angle_beta   89.99761088
_cell_angle_gamma   90.00000000
_symmetry_Int_Tables_number   1
_chemical_formula_structural   Li2Co2(SO4)3
_chemical_formula_sum   'Li16 Co16 S24 O96'
_cell_volume   1822.67553764
_cell_formula_units_Z   8
loop_
 _symmetry_equiv_pos_site_id
 _symmetry_equiv_pos_as_xyz
  1  'x, y, z'
loop_
 _atom_site_type_symbol
 _atom_site_label
 _atom_site_symmetry_multiplicity
 _atom_site_fract_x
 _atom_site_fract_y
 _atom_site_fract_z
 _atom_site_occupancy
  Li  Li0  1  0.03723605  0.62189025  0.29045583  1
  Li  Li1  1  0.03723605  0.87810975  0.79045583  1
  Li  Li2  1  0.14536452  0.56870232  0.50918380  1
  Li  Li3  1  0.14536452  0.93129768  0.00918380  1
  Li  Li4  1  0.35469763  0.06859872  0.50919325  1
  Li  Li5  1  0.35469763  0.43140128  0.00919325  1
  Li  Li6  1  0.46266819  0.12227077  0.29055899  1
  Li  Li7  1  0.46266819  0.37772923  0.79055899  1
  Li  Li8  1  0.53733181  0.62227077  0.20944101  1
  Li  Li9  1  0.53733181  0.87772923  0.70944101  1
  Li  Li10  1  0.64530237  0.56859872  0.99080675  1
  Li  Li11  1  0.64530237  0.93140128  0.49080675  1
  Li  Li12  1  0.85463548  0.43129768  0.49081620  1
  Li  Li13  1  0.85463548  0.06870232  0.99081620  1
  Li  Li14  1  0.96276395  0.12189025  0.20954417  1
  Li  Li15  1  0.96276395  0.37810975  0.70954417  1
  Co  Co16  1  0.00388846  0.39943184  0.06362226  1
  Co  Co17  1  0.00388846  0.10056816  0.56362226  1
  Co  Co18  1  0.99963170  0.79565723  0.17902396  1
  Co  Co19  1  0.99963170  0.70434277  0.67902396  1
  Co  Co20  1  0.50005184  0.29533319  0.17889514  1
  Co  Co21  1  0.50005184  0.20466681  0.67889514  1
  Co  Co22  1  0.49598425  0.60072667  0.56351941  1
  Co  Co23  1  0.49598425  0.89927333  0.06351941  1
  Co  Co24  1  0.50401575  0.39927333  0.43648059  1
  Co  Co25  1  0.50401575  0.10072667  0.93648059  1
  Co  Co26  1  0.49994816  0.70466681  0.82110486  1
  Co  Co27  1  0.49994816  0.79533319  0.32110486  1
  Co  Co28  1  0.00036830  0.29565723  0.32097604  1
  Co  Co29  1  0.00036830  0.20434277  0.82097604  1
  Co  Co30  1  0.99611154  0.89943184  0.43637774  1
  Co  Co31  1  0.99611154  0.60056816  0.93637774  1
  S  S32  1  0.14376302  0.94691742  0.29970793  1
  S  S33  1  0.14376302  0.55308258  0.79970793  1
  S  S34  1  0.14855615  0.25354670  0.44677071  1
  S  S35  1  0.14855615  0.24645330  0.94677071  1
  S  S36  1  0.19680705  0.09406363  0.11651106  1
  S  S37  1  0.19680705  0.40593637  0.61651106  1
  S  S38  1  0.30309778  0.59414241  0.11648473  1
  S  S39  1  0.30309778  0.90585759  0.61648473  1
  S  S40  1  0.35158302  0.75352711  0.44669542  1
  S  S41  1  0.35158302  0.74647289  0.94669542  1
  S  S42  1  0.35624788  0.44696684  0.29965800  1
  S  S43  1  0.35624788  0.05303316  0.79965800  1
  S  S44  1  0.64375212  0.55303316  0.70034200  1
  S  S45  1  0.64375212  0.94696684  0.20034200  1
  S  S46  1  0.64841698  0.24647289  0.55330458  1
  S  S47  1  0.64841698  0.25352711  0.05330458  1
  S  S48  1  0.69690222  0.09414241  0.38351527  1
  S  S49  1  0.69690222  0.40585759  0.88351527  1
  S  S50  1  0.80319295  0.59406363  0.38348894  1
  S  S51  1  0.80319295  0.90593637  0.88348894  1
  S  S52  1  0.85144385  0.75354670  0.05322929  1
  S  S53  1  0.85144385  0.74645330  0.55322929  1
  S  S54  1  0.85623698  0.44691742  0.20029207  1
  S  S55  1  0.85623698  0.05308258  0.70029207  1
  O  O56  1  0.06379683  0.39031102  0.46519785  1
  O  O57  1  0.06379683  0.10968898  0.96519785  1
  O  O58  1  0.08197213  0.09593706  0.27913181  1
  O  O59  1  0.08197213  0.40406294  0.77913181  1
  O  O60  1  0.08357898  0.11049265  0.47488348  1
  O  O61  1  0.08357898  0.38950735  0.97488348  1
  O  O62  1  0.08685969  0.91227119  0.35565356  1
  O  O63  1  0.08685969  0.58772881  0.85565356  1
  O  O64  1  0.09464492  0.19097020  0.08239727  1
  O  O65  1  0.09464492  0.30902980  0.58239727  1
  O  O66  1  0.09183355  0.82276644  0.26104650  1
  O  O67  1  0.09183355  0.67723356  0.76104650  1
  O  O68  1  0.09859516  0.00935727  0.15721237  1
  O  O69  1  0.09859516  0.49064273  0.65721237  1
  O  O70  1  0.13949937  0.23223675  0.38654569  1
  O  O71  1  0.13949937  0.26776325  0.88654569  1
  O  O72  1  0.18344580  0.45370611  0.29817260  1
  O  O73  1  0.18344580  0.04629389  0.79817260  1
  O  O74  1  0.18707639  0.68275477  0.14690607  1
  O  O75  1  0.18707639  0.81724523  0.64690607  1
  O  O76  1  0.18711545  0.76428973  0.46574660  1
  O  O77  1  0.18711545  0.73571027  0.96574660  1
  O  O78  1  0.22725315  0.48312973  0.07724738  1
  O  O79  1  0.22725315  0.01687027  0.57724738  1
  O  O80  1  0.27277855  0.98307412  0.07728894  1
  O  O81  1  0.27277855  0.51692588  0.57728894  1
  O  O82  1  0.31308435  0.23575740  0.96579467  1
  O  O83  1  0.31308435  0.26424260  0.46579467  1
  O  O84  1  0.31266799  0.18278750  0.14690932  1
  O  O85  1  0.31266799  0.31721250  0.64690932  1
  O  O86  1  0.31641479  0.95381714  0.29818575  1
  O  O87  1  0.31641479  0.54618286  0.79818575  1
  O  O88  1  0.36019458  0.73211782  0.38651965  1
  O  O89  1  0.36019458  0.76788218  0.88651965  1
  O  O90  1  0.40128326  0.50955980  0.15719618  1
  O  O91  1  0.40128326  0.99044020  0.65719618  1
  O  O92  1  0.40806800  0.32258804  0.26101496  1
  O  O93  1  0.40806800  0.17741196  0.76101496  1
  O  O94  1  0.40542828  0.69090452  0.08225318  1
  O  O95  1  0.40542828  0.80909548  0.58225318  1
  O  O96  1  0.41293847  0.08783397  0.85560482  1
  O  O97  1  0.41293847  0.41216603  0.35560482  1
  O  O98  1  0.41647012  0.61017448  0.47482210  1
  O  O99  1  0.41647012  0.88982552  0.97482210  1
  O  O100  1  0.41789184  0.59580786  0.27906452  1
  O  O101  1  0.41789184  0.90419214  0.77906452  1
  O  O102  1  0.43610128  0.60970046  0.96519190  1
  O  O103  1  0.43610128  0.89029954  0.46519190  1
  O  O104  1  0.56389872  0.39029954  0.03480810  1
  O  O105  1  0.56389872  0.10970046  0.53480810  1
  O  O106  1  0.58210816  0.09580786  0.22093548  1
  O  O107  1  0.58210816  0.40419214  0.72093548  1
  O  O108  1  0.58352988  0.11017448  0.02517790  1
  O  O109  1  0.58352988  0.38982552  0.52517790  1
  O  O110  1  0.58706153  0.58783397  0.64439518  1
  O  O111  1  0.58706153  0.91216603  0.14439518  1
  O  O112  1  0.59457172  0.19090452  0.41774682  1
  O  O113  1  0.59457172  0.30909548  0.91774682  1
  O  O114  1  0.59193200  0.67741196  0.73898504  1
  O  O115  1  0.59193200  0.82258804  0.23898504  1
  O  O116  1  0.59871674  0.00955980  0.34280382  1
  O  O117  1  0.59871674  0.49044020  0.84280382  1
  O  O118  1  0.63980542  0.23211782  0.11348035  1
  O  O119  1  0.63980542  0.26788218  0.61348035  1
  O  O120  1  0.68358521  0.45381714  0.20181425  1
  O  O121  1  0.68358521  0.04618286  0.70181425  1
  O  O122  1  0.68733201  0.68278750  0.35309068  1
  O  O123  1  0.68733201  0.81721250  0.85309068  1
  O  O124  1  0.68691565  0.76424260  0.03420533  1
  O  O125  1  0.68691565  0.73575740  0.53420533  1
  O  O126  1  0.72722145  0.48307412  0.42271106  1
  O  O127  1  0.72722145  0.01692588  0.92271106  1
  O  O128  1  0.77274685  0.98312973  0.42275262  1
  O  O129  1  0.77274685  0.51687027  0.92275262  1
  O  O130  1  0.81288455  0.26428973  0.03425340  1
  O  O131  1  0.81288455  0.23571027  0.53425340  1
  O  O132  1  0.81292361  0.18275477  0.35309393  1
  O  O133  1  0.81292361  0.31724523  0.85309393  1
  O  O134  1  0.81655420  0.54629389  0.70182740  1
  O  O135  1  0.81655420  0.95370611  0.20182740  1
  O  O136  1  0.86050063  0.73223675  0.11345431  1
  O  O137  1  0.86050063  0.76776325  0.61345431  1
  O  O138  1  0.90140484  0.50935727  0.34278763  1
  O  O139  1  0.90140484  0.99064273  0.84278763  1
  O  O140  1  0.90816645  0.32276644  0.23895350  1
  O  O141  1  0.90816645  0.17723356  0.73895350  1
  O  O142  1  0.90535508  0.69097020  0.41760273  1
  O  O143  1  0.90535508  0.80902980  0.91760273  1
  O  O144  1  0.91314031  0.41227119  0.14434644  1
  O  O145  1  0.91314031  0.08772881  0.64434644  1
  O  O146  1  0.91642102  0.61049265  0.02511652  1
  O  O147  1  0.91642102  0.88950735  0.52511652  1
  O  O148  1  0.91802787  0.59593706  0.22086819  1
  O  O149  1  0.91802787  0.90406294  0.72086819  1
  O  O150  1  0.93620317  0.60968898  0.53480215  1
  O  O151  1  0.93620317  0.89031102  0.03480215  1
