# generated using pymatgen
data_Na2FePCO7
_symmetry_space_group_name_H-M   'P 1'
_cell_length_a   8.95342817
_cell_length_b   10.48296209
_cell_length_c   6.53242969
_cell_angle_alpha   89.80159736
_cell_angle_beta   90.71431033
_cell_angle_gamma   89.55078663
_symmetry_Int_Tables_number   1
_chemical_formula_structural   Na2FePCO7
_chemical_formula_sum   'Na8 Fe4 P4 C4 O28'
_cell_volume   613.05333574
_cell_formula_units_Z   4
loop_
 _symmetry_equiv_pos_site_id
 _symmetry_equiv_pos_as_xyz
  1  'x, y, z'
loop_
 _atom_site_type_symbol
 _atom_site_label
 _atom_site_symmetry_multiplicity
 _atom_site_fract_x
 _atom_site_fract_y
 _atom_site_fract_z
 _atom_site_occupancy
  Na  Na0  1  0.08169099  0.38120964  0.25939481  1
  Na  Na1  1  0.08135150  0.88228633  0.26217895  1
  Na  Na2  1  0.26379454  0.12666481  0.01386905  1
  Na  Na3  1  0.26387925  0.62746486  0.48497058  1
  Na  Na4  1  0.73685608  0.37378402  0.98873831  1
  Na  Na5  1  0.73656983  0.87573587  0.98843094  1
  Na  Na6  1  0.91921630  0.11860598  0.72229344  1
  Na  Na7  1  0.91832958  0.61830759  0.74040746  1
  Fe  Fe8  1  0.34535652  0.39189705  0.75312860  1
  Fe  Fe9  1  0.34537711  0.89204825  0.74644620  1
  Fe  Fe10  1  0.65464077  0.10771819  0.26492234  1
  Fe  Fe11  1  0.65477231  0.60779555  0.26189192  1
  P  P12  1  0.42480575  0.35482366  0.25043292  1
  P  P13  1  0.42490698  0.85460595  0.24818198  1
  P  P14  1  0.57528379  0.14502330  0.75498096  1
  P  P15  1  0.57543225  0.64501370  0.75333930  1
  C  C16  1  0.06474839  0.36513858  0.75118929  1
  C  C17  1  0.06437879  0.86482091  0.75602034  1
  C  C18  1  0.93497582  0.13494525  0.23841570  1
  C  C19  1  0.93509276  0.63510243  0.24593663  1
  O  O20  1  0.07520449  0.14878108  0.23242464  1
  O  O21  1  0.07506662  0.64902447  0.25927981  1
  O  O22  1  0.12723235  0.47737516  0.72739255  1
  O  O23  1  0.12763867  0.97785298  0.76371428  1
  O  O24  1  0.15812352  0.26812584  0.75661225  1
  O  O25  1  0.15754700  0.76867369  0.73384801  1
  O  O26  1  0.31958370  0.37669183  0.06181578  1
  O  O27  1  0.32954583  0.39028225  0.43878953  1
  O  O28  1  0.32247637  0.88933664  0.06210379  1
  O  O29  1  0.32667423  0.87756659  0.43924706  1
  O  O30  1  0.43133650  0.06479660  0.75714100  1
  O  O31  1  0.43161769  0.56470152  0.74298359  1
  O  O32  1  0.47047393  0.21100458  0.25111614  1
  O  O33  1  0.47021324  0.71083863  0.24796891  1
  O  O34  1  0.53033665  0.28881522  0.76460034  1
  O  O35  1  0.53018998  0.78874892  0.76466415  1
  O  O36  1  0.56797888  0.43563144  0.23875674  1
  O  O37  1  0.56847202  0.93539063  0.24591930  1
  O  O38  1  0.67303060  0.11803593  0.56599517  1
  O  O39  1  0.67832628  0.11360160  0.94239549  1
  O  O40  1  0.67552191  0.62039767  0.56472405  1
  O  O41  1  0.67585687  0.61131758  0.94139043  1
  O  O42  1  0.84145702  0.23188041  0.24575821  1
  O  O43  1  0.84122316  0.73200014  0.24070047  1
  O  O44  1  0.87207237  0.02181976  0.24430632  1
  O  O45  1  0.87218379  0.52186161  0.24131570  1
  O  O46  1  0.92457332  0.35204793  0.76737800  1
  O  O47  1  0.92458468  0.85040837  0.76756158  1
