# generated using pymatgen
data_LiCo2(PO4)2
_symmetry_space_group_name_H-M   'P 1'
_cell_length_a   8.48014309
_cell_length_b   5.15519543
_cell_length_c   16.73510646
_cell_angle_alpha   90.00000000
_cell_angle_beta   78.70966117
_cell_angle_gamma   90.00000000
_symmetry_Int_Tables_number   1
_chemical_formula_structural   LiCo2(PO4)2
_chemical_formula_sum   'Li4 Co8 P8 O32'
_cell_volume   717.44696178
_cell_formula_units_Z   4
loop_
 _symmetry_equiv_pos_site_id
 _symmetry_equiv_pos_as_xyz
  1  'x, y, z'
loop_
 _atom_site_type_symbol
 _atom_site_label
 _atom_site_symmetry_multiplicity
 _atom_site_fract_x
 _atom_site_fract_y
 _atom_site_fract_z
 _atom_site_occupancy
  Li  Li0  1  0.00361682  0.32713896  0.25106885  1
  Li  Li1  1  0.00361682  0.67286104  0.75106885  1
  Li  Li2  1  0.60813402  0.83076332  0.49172188  1
  Li  Li3  1  0.60813402  0.16923668  0.99172188  1
  Co  Co4  1  0.36527786  0.32617075  0.12793887  1
  Co  Co5  1  0.36527786  0.67382925  0.62793887  1
  Co  Co6  1  0.46969653  0.18715239  0.36502055  1
  Co  Co7  1  0.46969653  0.81284761  0.86502055  1
  Co  Co8  1  0.87690764  0.69101478  0.11607097  1
  Co  Co9  1  0.87690764  0.30898522  0.61607097  1
  Co  Co10  1  0.97882291  0.82594812  0.37490205  1
  Co  Co11  1  0.97882291  0.17405188  0.87490205  1
  P  P12  1  0.17706441  0.81408165  0.18749259  1
  P  P13  1  0.17706441  0.18591835  0.68749259  1
  P  P14  1  0.29752698  0.69195564  0.43561361  1
  P  P15  1  0.29752698  0.30804436  0.93561361  1
  P  P16  1  0.68714751  0.19094773  0.18063853  1
  P  P17  1  0.68714751  0.80905227  0.68063853  1
  P  P18  1  0.78812594  0.31788655  0.43177925  1
  P  P19  1  0.78812594  0.68211345  0.93177925  1
  O  O20  1  0.08978355  0.75331332  0.11427497  1
  O  O21  1  0.06469742  0.69871813  0.26402344  1
  O  O22  1  0.19484654  0.11170083  0.19716061  1
  O  O23  1  0.12207726  0.77760673  0.45054346  1
  O  O24  1  0.08978355  0.24668668  0.61427497  1
  O  O25  1  0.06469742  0.30128187  0.76402344  1
  O  O26  1  0.37548882  0.27661296  0.01071840  1
  O  O27  1  0.34125595  0.68108043  0.16837176  1
  O  O28  1  0.30518785  0.39868071  0.40971393  1
  O  O29  1  0.19484654  0.88829917  0.69716061  1
  O  O30  1  0.12207726  0.22239327  0.95054346  1
  O  O31  1  0.40621348  0.84205956  0.36426707  1
  O  O32  1  0.37548882  0.72338704  0.51071840  1
  O  O33  1  0.34125595  0.31891957  0.66837176  1
  O  O34  1  0.30518785  0.60131929  0.90971393  1
  O  O35  1  0.60199146  0.23890571  0.10846004  1
  O  O36  1  0.57118215  0.27019781  0.25996532  1
  O  O37  1  0.40621348  0.15794044  0.86426707  1
  O  O38  1  0.73244250  0.90138002  0.18635644  1
  O  O39  1  0.61820751  0.18962576  0.43880914  1
  O  O40  1  0.60199146  0.76109429  0.60846004  1
  O  O41  1  0.57118215  0.72980219  0.75996532  1
  O  O42  1  0.84185717  0.75296515  0.01249772  1
  O  O43  1  0.84503642  0.35686488  0.16992387  1
  O  O44  1  0.77935708  0.61383850  0.41956843  1
  O  O45  1  0.73244250  0.09861998  0.68635644  1
  O  O46  1  0.61820751  0.81037424  0.93880914  1
  O  O47  1  0.90768623  0.19106899  0.36041425  1
  O  O48  1  0.84185717  0.24703485  0.51249772  1
  O  O49  1  0.84503642  0.64313512  0.66992387  1
  O  O50  1  0.77935708  0.38616150  0.91956843  1
  O  O51  1  0.90768623  0.80893101  0.86041425  1
