# generated using pymatgen
data_Na10(WO3)13
_symmetry_space_group_name_H-M   'P 1'
_cell_length_a   14.24040071
_cell_length_b   6.85810381
_cell_length_c   8.83482792
_cell_angle_alpha   104.99027889
_cell_angle_beta   104.18303797
_cell_angle_gamma   80.78243619
_symmetry_Int_Tables_number   1
_chemical_formula_structural   Na10(WO3)13
_chemical_formula_sum   'Na10 W13 O39'
_cell_volume   803.73145754
_cell_formula_units_Z   1
loop_
 _symmetry_equiv_pos_site_id
 _symmetry_equiv_pos_as_xyz
  1  'x, y, z'
loop_
 _atom_site_type_symbol
 _atom_site_label
 _atom_site_symmetry_multiplicity
 _atom_site_fract_x
 _atom_site_fract_y
 _atom_site_fract_z
 _atom_site_occupancy
  Na  Na0  1  0.92264433  0.22959367  0.61549740  1
  Na  Na1  1  0.30737240  0.07657210  0.53891055  1
  Na  Na2  1  0.76958511  0.69319211  0.84453626  1
  Na  Na3  1  0.53890653  0.38430677  0.69136631  1
  Na  Na4  1  0.15372716  0.53949376  0.76904153  1
  Na  Na5  1  0.46197167  0.61656033  0.30757960  1
  Na  Na6  1  0.84570947  0.46184723  0.23171069  1
  Na  Na7  1  0.61503089  0.15296189  0.07854074  1
  Na  Na8  1  0.23088784  0.30666024  0.15403547  1
  Na  Na9  1  0.07724360  0.76958190  0.38416645  1
  W  W10  1  0.15338013  0.03538680  0.77306743  1
  W  W11  1  0.38423904  0.34550371  0.92134700  1
  W  W12  1  0.77001844  0.19275991  0.84564968  1
  W  W13  1  0.07681163  0.26702272  0.38438192  1
  W  W14  1  0.69230800  0.42307700  0.46153800  1
  W  W15  1  0.46316962  0.11312742  0.30725850  1
  W  W16  1  0.30780337  0.57913128  0.53869508  1
  W  W17  1  0.92144538  0.73302658  0.61581850  1
  W  W18  1  0.53892238  0.88431078  0.69203299  1
  W  W19  1  0.61459756  0.65339409  0.07742732  1
  W  W20  1  0.84569362  0.96184322  0.23104401  1
  W  W21  1  0.00037596  0.50065029  0.00173000  1
  W  W22  1  0.23123487  0.81076720  0.15000957  1
  O  O23  1  0.26916562  0.19783393  0.84807783  1
  O  O24  1  0.07749403  0.27673145  0.88513065  1
  O  O25  1  0.65133320  0.03698918  0.77259037  1
  O  O26  1  0.46042262  0.12350166  0.80970089  1
  O  O27  1  0.69230800  0.42307700  0.96153800  1
  O  O28  1  0.88509727  0.35237442  0.92317638  1
  O  O29  1  0.19230800  0.92307700  0.96153800  1
  O  O30  1  0.34703677  0.45557939  0.73366886  1
  O  O31  1  0.96127540  0.61160166  0.80532023  1
  O  O32  1  0.58128638  0.76455808  0.88879206  1
  O  O33  1  0.73226670  0.30956850  0.66251382  1
  O  O34  1  0.11585715  0.15253135  0.57916872  1
  O  O35  1  0.49674719  0.00406753  0.49641973  1
  O  O36  1  0.95784004  0.10894239  0.30727728  1
  O  O37  1  0.57501688  0.27395450  0.38201040  1
  O  O38  1  0.19230800  0.42307700  0.46153800  1
  O  O39  1  0.15328844  0.03965234  0.27166418  1
  O  O40  1  0.61662894  0.64691434  0.57690249  1
  O  O41  1  0.84521708  0.96528585  0.73349007  1
  O  O42  1  0.00195912  0.49466340  0.49681637  1
  O  O43  1  0.23132756  0.80650166  0.65141282  1
  O  O44  1  0.38265688  0.35149060  0.42626063  1
  O  O45  1  0.76798606  0.19923966  0.34617451  1
  O  O46  1  0.42677596  0.73721061  0.61579972  1
  O  O47  1  0.80959812  0.57219950  0.54106660  1
  O  O48  1  0.04086770  0.88488222  0.69091994  1
  O  O49  1  0.26875785  0.69362165  0.34390828  1
  O  O50  1  0.65234930  0.53658550  0.26056318  1
  O  O51  1  0.80332862  0.08159492  0.03428494  1
  O  O52  1  0.88786781  0.84208647  0.42665727  1
  O  O53  1  0.03757923  0.39057461  0.18940814  1
  O  O54  1  0.42333960  0.23455234  0.11775677  1
  O  O55  1  0.30712097  0.56942255  0.03794535  1
  O  O56  1  0.92419238  0.72265134  0.11337611  1
  O  O57  1  0.53939892  0.88086815  0.18958693  1
  O  O58  1  0.34374730  0.96127178  0.23215706  1
  O  O59  1  0.11544938  0.64832007  0.07499917  1
  O  O60  1  0.73328280  0.80916482  0.15048663  1
  O  O61  1  0.49951773  0.49377958  -0.00009938  1
