# generated using pymatgen
data_Mg(SnO2)2
_symmetry_space_group_name_H-M   'P 1'
_cell_length_a   6.52467227
_cell_length_b   6.52467171
_cell_length_c   6.36047465
_cell_angle_alpha   60.82902539
_cell_angle_beta   60.82903330
_cell_angle_gamma   65.22896909
_symmetry_Int_Tables_number   1
_chemical_formula_structural   Mg(SnO2)2
_chemical_formula_sum   'Mg2 Sn4 O8'
_cell_volume   200.51513044
_cell_formula_units_Z   2
loop_
 _symmetry_equiv_pos_site_id
 _symmetry_equiv_pos_as_xyz
  1  'x, y, z'
loop_
 _atom_site_type_symbol
 _atom_site_label
 _atom_site_symmetry_multiplicity
 _atom_site_fract_x
 _atom_site_fract_y
 _atom_site_fract_z
 _atom_site_occupancy
  Mg  Mg0  1  0.12500000  0.62500000  0.62500000  1
  Mg  Mg1  1  0.62500000  0.12500000  0.62500000  1
  Sn  Sn2  1  0.01031762  0.01031762  0.98968238  1
  Sn  Sn3  1  0.23968238  0.23968238  0.26031762  1
  Sn  Sn4  1  0.62500000  0.62500000  0.12500000  1
  Sn  Sn5  1  0.62500000  0.62500000  0.62500000  1
  O  O6  1  0.39106901  0.39106901  0.38151362  1
  O  O7  1  0.41199730  0.80822961  0.38988655  1
  O  O8  1  0.39106901  0.39106901  0.83634937  1
  O  O9  1  0.80822961  0.41199730  0.38988655  1
  O  O10  1  0.44177039  0.83800270  0.86011345  1
  O  O11  1  0.83800270  0.44177039  0.86011345  1
  O  O12  1  0.85893099  0.85893099  0.41365063  1
  O  O13  1  0.85893099  0.85893099  0.86848638  1
