# generated using pymatgen
data_MnFe(PO4)2
_symmetry_space_group_name_H-M   'P 1'
_cell_length_a   14.72173795
_cell_length_b   9.88322917
_cell_length_c   5.98917753
_cell_angle_alpha   90.00000000
_cell_angle_beta   90.00000000
_cell_angle_gamma   90.04933862
_symmetry_Int_Tables_number   1
_chemical_formula_structural   MnFe(PO4)2
_chemical_formula_sum   'Mn6 Fe6 P12 O48'
_cell_volume   871.41488578
_cell_formula_units_Z   6
loop_
 _symmetry_equiv_pos_site_id
 _symmetry_equiv_pos_as_xyz
  1  'x, y, z'
loop_
 _atom_site_type_symbol
 _atom_site_label
 _atom_site_symmetry_multiplicity
 _atom_site_fract_x
 _atom_site_fract_y
 _atom_site_fract_z
 _atom_site_occupancy
  Mn  Mn0  1  0.02127838  0.71669493  0.75000000  1
  Mn  Mn1  1  0.14645653  0.21807402  0.75000000  1
  Mn  Mn2  1  0.18665568  0.78286808  0.25000000  1
  Mn  Mn3  1  0.35474183  0.71867853  0.75000000  1
  Mn  Mn4  1  0.48013097  0.21969083  0.75000000  1
  Mn  Mn5  1  0.68835565  0.71689039  0.75000000  1
  Fe  Fe6  1  0.32077516  0.27515374  0.25000000  1
  Fe  Fe7  1  0.51395675  0.77710081  0.25000000  1
  Fe  Fe8  1  0.65435382  0.27603339  0.25000000  1
  Fe  Fe9  1  0.82029039  0.22617299  0.75000000  1
  Fe  Fe10  1  0.84659888  0.77609023  0.25000000  1
  Fe  Fe11  1  0.98728449  0.27400613  0.25000000  1
  P  P12  1  0.02810940  0.59775036  0.25000000  1
  P  P13  1  0.13874313  0.09518118  0.25000000  1
  P  P14  1  0.19350854  0.90127483  0.75000000  1
  P  P15  1  0.30657903  0.40083334  0.75000000  1
  P  P16  1  0.36085246  0.59907970  0.25000000  1
  P  P17  1  0.47154417  0.09718900  0.25000000  1
  P  P18  1  0.52692192  0.90150969  0.75000000  1
  P  P19  1  0.63904493  0.40258906  0.75000000  1
  P  P20  1  0.69492671  0.59698385  0.25000000  1
  P  P21  1  0.80420635  0.09761984  0.25000000  1
  P  P22  1  0.86054359  0.89974333  0.75000000  1
  P  P23  1  0.97328468  0.40168241  0.75000000  1
  O  O24  1  0.04985589  0.44563213  0.25000000  1
  O  O25  1  0.07623747  0.67041772  0.04907532  1
  O  O26  1  0.07623747  0.67041772  0.45092468  1
  O  O27  1  0.07695966  0.38107729  0.75000000  1
  O  O28  1  0.08997189  0.88129627  0.75000000  1
  O  O29  1  0.08915585  0.16960145  0.05146729  1
  O  O30  1  0.08915585  0.16960145  0.44853271  1
  O  O31  1  0.11494200  0.94407161  0.25000000  1
  O  O32  1  0.21416739  0.05431300  0.75000000  1
  O  O33  1  0.24170125  0.83052111  0.54919997  1
  O  O34  1  0.24170125  0.83052111  0.95080003  1
  O  O35  1  0.24088581  0.11756050  0.25000000  1
  O  O36  1  0.25774408  0.62055961  0.25000000  1
  O  O37  1  0.25986156  0.32947426  0.54686076  1
  O  O38  1  0.25986156  0.32947426  0.95313924  1
  O  O39  1  0.28643001  0.55390931  0.75000000  1
  O  O40  1  0.38278539  0.44881816  0.25000000  1
  O  O41  1  0.40993294  0.67364506  0.05155485  1
  O  O42  1  0.40993294  0.67364506  0.44844515  1
  O  O43  1  0.41071412  0.38239471  0.75000000  1
  O  O44  1  0.42248002  0.88247492  0.75000000  1
  O  O45  1  0.42208492  0.17274758  0.44842978  1
  O  O46  1  0.42208492  0.17274758  0.05157022  1
  O  O47  1  0.44735712  0.94709563  0.25000000  1
  O  O48  1  0.54687969  0.05456308  0.75000000  1
  O  O49  1  0.57286681  0.83082081  0.54627450  1
  O  O50  1  0.57286681  0.83082081  0.95372550  1
  O  O51  1  0.57364681  0.11967003  0.25000000  1
  O  O52  1  0.59248696  0.61977003  0.25000000  1
  O  O53  1  0.59248629  0.33101854  0.95358424  1
  O  O54  1  0.59248629  0.33101854  0.54641576  1
  O  O55  1  0.61704316  0.55557909  0.75000000  1
  O  O56  1  0.71879742  0.44714143  0.25000000  1
  O  O57  1  0.74383488  0.67232251  0.05145411  1
  O  O58  1  0.74383488  0.67232251  0.44854589  1
  O  O59  1  0.74248626  0.38311391  0.75000000  1
  O  O60  1  0.75615604  0.88045232  0.75000000  1
  O  O61  1  0.75681360  0.17320022  0.45073169  1
  O  O62  1  0.75681360  0.17320022  0.04926831  1
  O  O63  1  0.78123589  0.94725724  0.25000000  1
  O  O64  1  0.88004343  0.05223228  0.75000000  1
  O  O65  1  0.90653339  0.82821666  0.54651968  1
  O  O66  1  0.90653339  0.82821666  0.95348032  1
  O  O67  1  0.90714192  0.11990935  0.25000000  1
  O  O68  1  0.92537958  0.61863507  0.25000000  1
  O  O69  1  0.92522411  0.32823472  0.95030473  1
  O  O70  1  0.92522411  0.32823472  0.54969527  1
  O  O71  1  0.95180191  0.55314007  0.75000000  1
