# generated using pymatgen
data_Li4V3CrO8
_symmetry_space_group_name_H-M   'P 1'
_cell_length_a   5.16193304
_cell_length_b   5.97065314
_cell_length_c   5.22475855
_cell_angle_alpha   90.43369692
_cell_angle_beta   81.17880057
_cell_angle_gamma   73.49953271
_symmetry_Int_Tables_number   1
_chemical_formula_structural   Li4V3CrO8
_chemical_formula_sum   'Li4 V3 Cr1 O8'
_cell_volume   152.34759617
_cell_formula_units_Z   1
loop_
 _symmetry_equiv_pos_site_id
 _symmetry_equiv_pos_as_xyz
  1  'x, y, z'
loop_
 _atom_site_type_symbol
 _atom_site_label
 _atom_site_symmetry_multiplicity
 _atom_site_fract_x
 _atom_site_fract_y
 _atom_site_fract_z
 _atom_site_occupancy
  Li  Li0  1  0.00249810  0.99774917  0.00617835  1
  Li  Li1  1  -0.00119500  0.24870719  0.49582554  1
  Li  Li2  1  0.00112102  0.50148813  0.00423340  1
  Li  Li3  1  0.99756938  0.75199642  0.49367594  1
  V  V4  1  0.50092501  0.12423717  0.75032407  1
  V  V5  1  0.49994793  0.37503961  0.25022807  1
  V  V6  1  0.49901005  0.62570207  0.74960269  1
  Cr  Cr7  1  0.49999093  0.87507519  0.24992343  1
  O  O8  1  0.27146224  0.18070717  0.12819697  1
  O  O9  1  0.73029385  0.06276885  0.37670977  1
  O  O10  1  0.27536804  0.43004657  0.62069384  1
  O  O11  1  0.72448835  0.31983880  0.87923628  1
  O  O12  1  0.26953401  0.68747290  0.12338253  1
  O  O13  1  0.72879478  0.56934483  0.37172087  1
  O  O14  1  0.27786732  0.93008838  0.61884247  1
  O  O15  1  0.72232697  0.81974055  0.88122678  1
