# generated using pymatgen
data_Li13Nb14ZnO42
_symmetry_space_group_name_H-M   'P 1'
_cell_length_a   9.27378844
_cell_length_b   9.06565554
_cell_length_c   9.88988040
_cell_angle_alpha   81.25429319
_cell_angle_beta   103.60887820
_cell_angle_gamma   80.61794315
_symmetry_Int_Tables_number   1
_chemical_formula_structural   Li13Nb14ZnO42
_chemical_formula_sum   'Li13 Nb14 Zn1 O42'
_cell_volume   781.44160656
_cell_formula_units_Z   1
loop_
 _symmetry_equiv_pos_site_id
 _symmetry_equiv_pos_as_xyz
  1  'x, y, z'
loop_
 _atom_site_type_symbol
 _atom_site_label
 _atom_site_symmetry_multiplicity
 _atom_site_fract_x
 _atom_site_fract_y
 _atom_site_fract_z
 _atom_site_occupancy
  Li  Li0  1  0.69187686  0.89682639  0.92623444  1
  Li  Li1  1  0.76392027  0.25404343  0.71173200  1
  Li  Li2  1  0.83394467  0.61200125  0.49683482  1
  Li  Li3  1  0.90563064  0.96867979  0.28272849  1
  Li  Li4  1  0.97645746  0.32558656  0.06886539  1
  Li  Li5  1  0.54842184  0.18246831  0.35412447  1
  Li  Li6  1  0.40627873  0.46922503  0.78325990  1
  Li  Li7  1  0.47673398  0.82566713  0.56873364  1
  Li  Li8  1  0.33404402  0.11123796  0.99768306  1
  Li  Li9  1  0.62046143  0.54018958  0.13968191  1
  Li  Li10  1  0.19127352  0.39641829  0.42577095  1
  Li  Li11  1  0.04838743  0.68400260  0.85472338  1
  Li  Li12  1  0.26230843  0.75467607  0.21128988  1
  Nb  Nb13  1  0.92772304  0.64385830  0.21483193  1
  Nb  Nb14  1  0.85414894  0.28911475  0.42834037  1
  Nb  Nb15  1  0.77877905  0.93012413  0.64392741  1
  Nb  Nb16  1  0.71471513  0.57129567  0.85877653  1
  Nb  Nb17  1  0.43170322  0.14585431  0.71995668  1
  Nb  Nb18  1  0.50008041  0.50175917  0.50107075  1
  Nb  Nb19  1  0.64154258  0.21460577  0.07295091  1
  Nb  Nb20  1  0.35790433  0.78115855  0.93295345  1
  Nb  Nb21  1  0.57193803  0.85703890  0.28663728  1
  Nb  Nb22  1  0.07175361  0.36037354  0.79207744  1
  Nb  Nb23  1  0.28622241  0.42747051  0.14760777  1
  Nb  Nb24  1  0.14165211  0.70985957  0.57277872  1
  Nb  Nb25  1  0.21520366  0.07174171  0.35756579  1
  Nb  Nb26  1  0.99942763  0.00050402  0.00137638  1
  Zn  Zn27  1  0.11935636  0.04013899  0.64194664  1
  O  O28  1  0.99702715  0.87244988  0.65285207  1
  O  O29  1  0.99027124  0.24150322  0.65008126  1
  O  O30  1  0.99491974  0.11834384  0.40365171  1
  O  O31  1  0.85198771  0.40444197  0.82896509  1
  O  O32  1  0.98787479  0.74564638  0.39758171  1
  O  O33  1  0.84529880  0.03183692  0.82667337  1
  O  O34  1  0.81393106  0.73307185  0.81093910  1
  O  O35  1  0.95632526  0.44791924  0.38274241  1
  O  O36  1  0.74174448  0.12641559  0.52537231  1
  O  O37  1  0.59850367  0.41206520  0.95361578  1
  O  O38  1  0.88381510  0.84107121  0.09646638  1
  O  O39  1  0.71137135  0.43965364  0.50948286  1
  O  O40  1  0.85263488  0.15427232  0.08061002  1
  O  O41  1  0.56699412  0.72715045  0.93740612  1
  O  O42  1  0.55823918  0.10154646  0.93242303  1
  O  O43  1  0.70279960  0.81614099  0.50481210  1
  O  O44  1  0.84463138  0.53110668  0.07645555  1
  O  O45  1  0.56772304  0.97544559  0.68627369  1
  O  O46  1  0.70951071  0.68951100  0.25908606  1
  O  O47  1  0.70143067  0.31800520  0.25434385  1
  O  O48  1  0.55874301  0.60254453  0.68374754  1
  O  O49  1  0.52869812  0.30560764  0.66761666  1
  O  O50  1  0.67025788  0.01988427  0.23949886  1
  O  O51  1  0.45535039  0.69843957  0.38184113  1
  O  O52  1  0.30873168  0.98383609  0.80901873  1
  O  O53  1  0.28054544  0.29768944  0.79197513  1
  O  O54  1  0.42470419  0.01214133  0.36616950  1
  O  O55  1  0.41712816  0.38853720  0.36246690  1
  O  O56  1  0.27407383  0.67466121  0.79099855  1
  O  O57  1  0.28195760  0.54615313  0.54450138  1
  O  O58  1  0.42424932  0.26184219  0.11575708  1
  O  O59  1  0.13784628  0.83338977  0.97341756  1
  O  O60  1  0.27211620  0.17252888  0.54181253  1
  O  O61  1  0.13156210  0.45929828  0.96829729  1
  O  O62  1  0.41652921  0.88934484  0.11205281  1
  O  O63  1  0.38453810  0.59145051  0.09595871  1
  O  O64  1  0.09909275  0.16244804  0.95320173  1
  O  O65  1  0.24056407  0.87697973  0.52652854  1
  O  O66  1  0.16929487  0.27021164  0.23831316  1
  O  O67  1  0.02660803  0.55711105  0.66713832  1
  O  O68  1  0.13803719  0.58320889  0.22281119  1
  O  O69  1  0.13126885  0.95944886  0.22011382  1
