# generated using pymatgen
data_Na2FePCO7
_symmetry_space_group_name_H-M   'P 1'
_cell_length_a   10.36318098
_cell_length_b   10.49619103
_cell_length_c   6.53056659
_cell_angle_alpha   90.00000000
_cell_angle_beta   90.00000000
_cell_angle_gamma   59.78899909
_symmetry_Int_Tables_number   1
_chemical_formula_structural   Na2FePCO7
_chemical_formula_sum   'Na8 Fe4 P4 C4 O28'
_cell_volume   613.87363297
_cell_formula_units_Z   4
loop_
 _symmetry_equiv_pos_site_id
 _symmetry_equiv_pos_as_xyz
  1  'x, y, z'
loop_
 _atom_site_type_symbol
 _atom_site_label
 _atom_site_symmetry_multiplicity
 _atom_site_fract_x
 _atom_site_fract_y
 _atom_site_fract_z
 _atom_site_occupancy
  Na  Na0  1  0.91973433  0.42264028  0.73946873  1
  Na  Na1  1  0.91973433  0.92264028  0.76053127  1
  Na  Na2  1  0.73649441  0.25856325  0.51355606  1
  Na  Na3  1  0.73649441  0.75856325  0.98644394  1
  Na  Na4  1  0.26350559  0.24143675  0.01355606  1
  Na  Na5  1  0.26350559  0.74143675  0.48644394  1
  Na  Na6  1  0.08026567  0.07735972  0.23946873  1
  Na  Na7  1  0.08026567  0.57735972  0.26053127  1
  Fe  Fe8  1  0.65450597  0.06458212  0.24688292  1
  Fe  Fe9  1  0.65450597  0.56458212  0.25311708  1
  Fe  Fe10  1  0.34549403  0.43541788  0.74688292  1
  Fe  Fe11  1  0.34549403  0.93541788  0.75311708  1
  P  P12  1  0.57577019  0.06673657  0.74816136  1
  P  P13  1  0.57577019  0.56673657  0.75183864  1
  P  P14  1  0.42422981  0.43326343  0.24816136  1
  P  P15  1  0.42422981  0.93326343  0.25183864  1
  C  C16  1  0.93535508  0.39702690  0.24328367  1
  C  C17  1  0.93535508  0.89702690  0.25671633  1
  C  C18  1  0.06464492  0.10297310  0.74328367  1
  C  C19  1  0.06464492  0.60297310  0.75671633  1
  O  O20  1  0.92428444  0.18679940  0.73791217  1
  O  O21  1  0.92428444  0.68679940  0.76208783  1
  O  O22  1  0.87132997  0.04151368  0.26633383  1
  O  O23  1  0.87132997  0.54151368  0.23366617  1
  O  O24  1  0.84300101  0.34679254  0.26022040  1
  O  O25  1  0.84300101  0.84679254  0.23977960  1
  O  O26  1  0.67753088  0.03816071  0.93852649  1
  O  O27  1  0.67380639  0.05380563  0.56134589  1
  O  O28  1  0.67380639  0.55380563  0.93865411  1
  O  O29  1  0.67753088  0.53816071  0.56147351  1
  O  O30  1  0.56805642  0.28086246  0.25780452  1
  O  O31  1  0.56805642  0.78086246  0.24219548  1
  O  O32  1  0.53090946  0.44534485  0.75157497  1
  O  O33  1  0.53090946  0.94534485  0.74842503  1
  O  O34  1  0.46909054  0.05465515  0.25157497  1
  O  O35  1  0.46909054  0.55465515  0.24842503  1
  O  O36  1  0.43194358  0.21913754  0.75780452  1
  O  O37  1  0.43194358  0.71913754  0.74219548  1
  O  O38  1  0.32246912  0.46183929  0.43852649  1
  O  O39  1  0.32619361  0.44619437  0.06134589  1
  O  O40  1  0.32246912  0.96183929  0.06147351  1
  O  O41  1  0.32619361  0.94619437  0.43865411  1
  O  O42  1  0.15699899  0.15320746  0.76022040  1
  O  O43  1  0.15699899  0.65320746  0.73977960  1
  O  O44  1  0.12867003  0.45848632  0.76633383  1
  O  O45  1  0.12867003  0.95848632  0.73366617  1
  O  O46  1  0.07571556  0.31320060  0.23791217  1
  O  O47  1  0.07571556  0.81320060  0.26208783  1
