# generated using pymatgen
data_Li5Fe11O16
_symmetry_space_group_name_H-M   'P 1'
_cell_length_a   6.09275414
_cell_length_b   12.09918125
_cell_length_c   8.53458413
_cell_angle_alpha   90.00000000
_cell_angle_beta   89.98101106
_cell_angle_gamma   90.00000000
_symmetry_Int_Tables_number   1
_chemical_formula_structural   Li5Fe11O16
_chemical_formula_sum   'Li10 Fe22 O32'
_cell_volume   629.14677654
_cell_formula_units_Z   2
loop_
 _symmetry_equiv_pos_site_id
 _symmetry_equiv_pos_as_xyz
  1  'x, y, z'
loop_
 _atom_site_type_symbol
 _atom_site_label
 _atom_site_symmetry_multiplicity
 _atom_site_fract_x
 _atom_site_fract_y
 _atom_site_fract_z
 _atom_site_occupancy
  Li  Li0  1  0.75289051  0.00166390  0.11636506  1
  Li  Li1  1  0.74710949  0.50166390  0.13363494  1
  Li  Li2  1  0.50787202  0.62102310  0.37434287  1
  Li  Li3  1  0.50000000  0.37500000  0.37500000  1
  Li  Li4  1  0.49212798  0.12897690  0.37565713  1
  Li  Li5  1  0.24710949  0.74833610  0.63363494  1
  Li  Li6  1  0.25289051  0.24833610  0.61636506  1
  Li  Li7  1  0.00000000  0.87500000  0.87500000  1
  Li  Li8  1  0.99212798  0.12102310  0.87565713  1
  Li  Li9  1  0.00787202  0.62897690  0.87434287  1
  Fe  Fe10  1  0.24725351  0.00288289  0.11533225  1
  Fe  Fe11  1  0.24970559  0.24880112  0.12945184  1
  Fe  Fe12  1  0.25029441  0.74880112  0.12054816  1
  Fe  Fe13  1  0.25274649  0.50288289  0.13466775  1
  Fe  Fe14  1  0.74827408  0.24663955  0.13332810  1
  Fe  Fe15  1  0.75172592  0.74663955  0.11667190  1
  Fe  Fe16  1  0.00530476  0.62420450  0.37499974  1
  Fe  Fe17  1  0.99469524  0.12579550  0.37500026  1
  Fe  Fe18  1  0.50000000  0.87500000  0.37500000  1
  Fe  Fe19  1  0.00000000  0.87500000  0.37500000  1
  Fe  Fe20  1  0.00000000  0.37500000  0.37500000  1
  Fe  Fe21  1  0.75029441  0.50119888  0.62054816  1
  Fe  Fe22  1  0.74970559  0.00119888  0.62945184  1
  Fe  Fe23  1  0.25172592  0.50336045  0.61667190  1
  Fe  Fe24  1  0.75274649  0.74711711  0.63466775  1
  Fe  Fe25  1  0.74725351  0.24711711  0.61533225  1
  Fe  Fe26  1  0.24827408  0.00336045  0.63332810  1
  Fe  Fe27  1  0.50000000  0.87500000  0.87500000  1
  Fe  Fe28  1  0.50000000  0.37500000  0.87500000  1
  Fe  Fe29  1  0.50530476  0.62579550  0.87499974  1
  Fe  Fe30  1  0.49469524  0.12420450  0.87500026  1
  Fe  Fe31  1  0.00000000  0.37500000  0.87500000  1
  O  O32  1  0.01636615  0.37686179  0.12149807  1
  O  O33  1  0.01504912  0.12485635  0.11991463  1
  O  O34  1  0.02090764  0.62428632  0.12056730  1
  O  O35  1  0.01555368  0.87579767  0.13290883  1
  O  O36  1  0.48444632  0.37579767  0.11709117  1
  O  O37  1  0.48363385  0.87686179  0.12850193  1
  O  O38  1  0.47909236  0.12428632  0.12943270  1
  O  O39  1  0.48495088  0.62485635  0.13008537  1
  O  O40  1  0.76608889  0.50029233  0.38600687  1
  O  O41  1  0.76467790  0.99592678  0.38485740  1
  O  O42  1  0.23838662  0.99473276  0.37450637  1
  O  O43  1  0.26089120  0.49916995  0.37132536  1
  O  O44  1  0.23532210  0.75407322  0.36514260  1
  O  O45  1  0.76161338  0.75526724  0.37549363  1
  O  O46  1  0.23391111  0.24970767  0.36399313  1
  O  O47  1  0.73910880  0.25083005  0.37867464  1
  O  O48  1  0.51504912  0.12514365  0.61991463  1
  O  O49  1  0.51636615  0.87313821  0.62149807  1
  O  O50  1  0.52090764  0.62571368  0.62056730  1
  O  O51  1  0.51555368  0.37420233  0.63290883  1
  O  O52  1  0.97909236  0.12571368  0.62943270  1
  O  O53  1  0.98444632  0.87420233  0.61709117  1
  O  O54  1  0.98495088  0.62514365  0.63008537  1
  O  O55  1  0.98363385  0.37313821  0.62850193  1
  O  O56  1  0.26467790  0.25407322  0.88485740  1
  O  O57  1  0.76089120  0.75083005  0.87132536  1
  O  O58  1  0.73838662  0.25526724  0.87450637  1
  O  O59  1  0.26608889  0.74970767  0.88600687  1
  O  O60  1  0.26161338  0.49473276  0.87549363  1
  O  O61  1  0.73391111  0.00029233  0.86399313  1
  O  O62  1  0.73532210  0.49592678  0.86514260  1
  O  O63  1  0.23910880  0.99916995  0.87867464  1
