# generated using pymatgen
data_Li17Ni11O28
_symmetry_space_group_name_H-M   'P 1'
_cell_length_a   13.19099124
_cell_length_b   5.79632156
_cell_length_c   6.40416100
_cell_angle_alpha   104.04455794
_cell_angle_beta   95.64854361
_cell_angle_gamma   82.89332162
_symmetry_Int_Tables_number   1
_chemical_formula_structural   Li17Ni11O28
_chemical_formula_sum   'Li17 Ni11 O28'
_cell_volume   470.17920343
_cell_formula_units_Z   1
loop_
 _symmetry_equiv_pos_site_id
 _symmetry_equiv_pos_as_xyz
  1  'x, y, z'
loop_
 _atom_site_type_symbol
 _atom_site_label
 _atom_site_symmetry_multiplicity
 _atom_site_fract_x
 _atom_site_fract_y
 _atom_site_fract_z
 _atom_site_occupancy
  Li  Li0  1  0.93007661  0.85462778  0.36692120  1
  Li  Li1  1  0.78648785  0.56850166  0.07113991  1
  Li  Li2  1  0.85532113  0.21573292  0.70467550  1
  Li  Li3  1  0.71428600  0.42857100  0.42857100  1
  Li  Li4  1  0.71428600  0.92857100  0.42857100  1
  Li  Li5  1  0.57324987  0.64141008  0.15246750  1
  Li  Li6  1  0.64208415  0.28864034  0.78600209  1
  Li  Li7  1  0.49849539  0.00251522  0.49022080  1
  Li  Li8  1  0.35681866  0.21046328  0.21104800  1
  Li  Li9  1  0.42592449  0.35009106  0.85695706  1
  Li  Li10  1  0.35643462  0.71707475  0.20867326  1
  Li  Li11  1  0.28382056  0.06762559  0.56910664  1
  Li  Li12  1  0.21428600  0.42857100  0.92857100  1
  Li  Li13  1  0.14475144  0.78951741  0.28803636  1
  Li  Li14  1  0.07175334  0.64667972  0.64609400  1
  Li  Li15  1  0.07213738  0.14006825  0.64846974  1
  Li  Li16  1  0.00264651  0.50705194  0.00018594  1
  Ni  Ni17  1  0.92979761  0.36225068  0.35853979  1
  Ni  Ni18  1  0.78625285  0.07239573  0.07022757  1
  Ni  Ni19  1  0.85721716  0.71667678  0.71343405  1
  Ni  Ni20  1  0.64231815  0.78474727  0.78691543  1
  Ni  Ni21  1  0.57135384  0.14046622  0.14370895  1
  Ni  Ni22  1  0.49877339  0.49489232  0.49860321  1
  Ni  Ni23  1  0.42706961  0.84918412  0.85850872  1
  Ni  Ni24  1  0.28488997  0.56372053  0.57123301  1
  Ni  Ni25  1  0.21428600  0.92857100  0.92857100  1
  Ni  Ni26  1  0.14368203  0.29342247  0.28590899  1
  Ni  Ni27  1  0.00150139  0.00795888  0.99863328  1
  O  O28  1  0.90099870  0.28001347  0.05459855  1
  O  O29  1  0.95280759  0.44016654  0.66269359  1
  O  O30  1  0.88690133  0.79959394  0.01680397  1
  O  O31  1  0.95759609  0.92010427  0.69543342  1
  O  O32  1  0.83177388  0.63270339  0.40799736  1
  O  O33  1  0.83048225  0.15174715  0.36953072  1
  O  O34  1  0.67769851  0.32325953  0.10567143  1
  O  O35  1  0.75087349  0.53388347  0.75147157  1
  O  O36  1  0.75713349  0.98717377  0.75806891  1
  O  O37  1  0.67143751  0.86996823  0.09907309  1
  O  O38  1  0.59679812  0.22443961  0.44914564  1
  O  O39  1  0.59808875  0.70539585  0.48761128  1
  O  O40  1  0.47097491  0.93703873  0.16170958  1
  O  O41  1  0.47576441  0.41697646  0.19444941  1
  O  O42  1  0.54166967  0.05754906  0.84033903  1
  O  O43  1  0.52757230  0.57712953  0.80254445  1
  O  O44  1  0.39370074  0.31068491  0.53120799  1
  O  O45  1  0.39118480  0.75051607  0.54074232  1
  O  O46  1  0.24025645  0.01855956  0.23645167  1
  O  O47  1  0.32406069  0.10348278  0.88979247  1
  O  O48  1  0.24336185  0.49482689  0.27277000  1
  O  O49  1  0.31805864  0.62959226  0.87365876  1
  O  O50  1  0.18520915  0.36231611  0.58437300  1
  O  O51  1  0.18831555  0.83858344  0.62069133  1
  O  O52  1  0.03487126  0.54645809  0.32593501  1
  O  O53  1  0.03738720  0.10662693  0.31639968  1
  O  O54  1  0.10451131  0.75366022  0.96735053  1
  O  O55  1  0.11051336  0.22755074  0.98348424  1
