# generated using pymatgen
data_Li24Mn5Cr7O36
_symmetry_space_group_name_H-M   'P 1'
_cell_length_a   5.00496596
_cell_length_b   13.31092125
_cell_length_c   9.74726651
_cell_angle_alpha   97.17720490
_cell_angle_beta   94.48296462
_cell_angle_gamma   100.57244003
_symmetry_Int_Tables_number   1
_chemical_formula_structural   Li24Mn5Cr7O36
_chemical_formula_sum   'Li24 Mn5 Cr7 O36'
_cell_volume   629.93323819
_cell_formula_units_Z   1
loop_
 _symmetry_equiv_pos_site_id
 _symmetry_equiv_pos_as_xyz
  1  'x, y, z'
loop_
 _atom_site_type_symbol
 _atom_site_label
 _atom_site_symmetry_multiplicity
 _atom_site_fract_x
 _atom_site_fract_y
 _atom_site_fract_z
 _atom_site_occupancy
  Li  Li0  1  0.83421458  0.16683138  0.00065173  1
  Li  Li1  1  0.95447049  0.38744046  0.99916913  1
  Li  Li2  1  0.00015758  0.75009559  0.24970127  1
  Li  Li3  1  0.66665669  0.08409120  0.24959604  1
  Li  Li4  1  0.95350665  0.88747410  0.49893013  1
  Li  Li5  1  0.61851717  0.21977468  0.50107518  1
  Li  Li6  1  0.83570231  0.66671430  0.49984608  1
  Li  Li7  1  0.50174193  0.00088366  0.49979950  1
  Li  Li8  1  0.71355905  0.44610999  0.49998899  1
  Li  Li9  1  0.66516967  0.58333830  0.75003789  1
  Li  Li10  1  0.50377370  0.49997031  0.00012963  1
  Li  Li11  1  0.71527368  0.94576137  0.00141569  1
  Li  Li12  1  0.38000580  0.27728493  0.99939230  1
  Li  Li13  1  0.61577875  0.72026134  0.99850650  1
  Li  Li14  1  0.28472492  0.05573417  0.00053449  1
  Li  Li15  1  0.33162695  0.41686709  0.25035064  1
  Li  Li16  1  0.28256251  0.55323675  0.49923762  1
  Li  Li17  1  0.16450859  0.33314377  0.50015253  1
  Li  Li18  1  0.38243301  0.77931665  0.50068545  1
  Li  Li19  1  0.04817256  0.11347712  0.50003810  1
  Li  Li20  1  0.33158420  0.91606628  0.75020019  1
  Li  Li21  1  0.16339036  0.83406091  0.99950475  1
  Li  Li22  1  0.99950371  0.24900556  0.74958235  1
  Li  Li23  1  0.05080543  0.61303719  0.00102737  1
  Mn  Mn24  1  0.89196607  0.52819091  0.25143454  1
  Mn  Mn25  1  0.77787059  0.80464385  0.75029715  1
  Mn  Mn26  1  0.44202920  0.13850472  0.74855592  1
  Mn  Mn27  1  0.22093392  0.19411684  0.24863403  1
  Mn  Mn28  1  0.22552385  0.69546193  0.75128668  1
  Cr  Cr29  1  0.88554568  0.02523939  0.74988797  1
  Cr  Cr30  1  0.77224129  0.30679185  0.25034390  1
  Cr  Cr31  1  0.55794217  0.35834097  0.74948886  1
  Cr  Cr32  1  0.55652869  0.85893246  0.25029822  1
  Cr  Cr33  1  0.44238328  0.63664103  0.24921196  1
  Cr  Cr34  1  0.10677872  0.47491956  0.75027262  1
  Cr  Cr35  1  0.11159793  0.97475268  0.25032952  1
  O  O36  1  0.99909159  0.07248167  0.13797853  1
  O  O37  1  0.93059896  0.21581958  0.36339172  1
  O  O38  1  0.00358780  0.57213368  0.63919894  1
  O  O39  1  0.84785407  0.35793294  0.63723335  1
  O  O40  1  0.73370465  0.11914696  0.63480887  1
  O  O41  1  0.67124457  0.40420753  0.13875703  1
  O  O42  1  0.92898628  0.71454600  0.86346295  1
  O  O43  1  0.81785859  0.47570744  0.86270490  1
  O  O44  1  0.60057402  0.04944627  0.86304700  1
  O  O45  1  0.85092014  0.85770864  0.13779819  1
  O  O46  1  0.74235095  0.61765376  0.13610057  1
  O  O47  1  0.51879904  0.18892886  0.13679688  1
  O  O48  1  0.66462282  0.26173154  0.86111360  1
  O  O49  1  0.81647725  0.97563985  0.36245309  1
  O  O50  1  0.59773894  0.54844761  0.36399373  1
  O  O51  1  0.47910405  0.30862892  0.36138277  1
  O  O52  1  0.66231388  0.76123193  0.36219603  1
  O  O53  1  0.33354867  0.09717312  0.36117448  1
  O  O54  1  0.66953530  0.90370869  0.63853628  1
  O  O55  1  0.32974689  0.23600459  0.63772094  1
  O  O56  1  0.52433151  0.69009384  0.63843213  1
  O  O57  1  0.39983439  0.45078611  0.63544207  1
  O  O58  1  0.18847735  0.02470261  0.63852069  1
  O  O59  1  0.33560303  0.73581449  0.13786115  1
  O  O60  1  0.47615843  0.81026012  0.86120380  1
  O  O61  1  0.26761990  0.38355139  0.86446504  1
  O  O62  1  0.14428335  0.14318134  0.86194692  1
  O  O63  1  0.39743830  0.95047298  0.13548854  1
  O  O64  1  0.19124586  0.52388171  0.13850380  1
  O  O65  1  0.07029805  0.28513739  0.13631933  1
  O  O66  1  0.33686479  0.59853264  0.86283050  1
  O  O67  1  0.26834274  0.88278942  0.36509745  1
  O  O68  1  0.13845248  0.64292109  0.36231739  1
  O  O69  1  0.00381895  0.43115826  0.36330150  1
  O  O70  1  0.07129446  0.78531054  0.63647301  1
  O  O71  1  0.99809431  0.92661224  0.86234790  1
