# generated using pymatgen
data_Be3Si3(MoO6)2
_symmetry_space_group_name_H-M   'P 1'
_cell_length_a   7.78422093
_cell_length_b   8.16688145
_cell_length_c   14.09094429
_cell_angle_alpha   89.94048532
_cell_angle_beta   90.00000000
_cell_angle_gamma   90.00000000
_symmetry_Int_Tables_number   1
_chemical_formula_structural   Be3Si3(MoO6)2
_chemical_formula_sum   'Be12 Si12 Mo8 O48'
_cell_volume   895.80043356
_cell_formula_units_Z   4
loop_
 _symmetry_equiv_pos_site_id
 _symmetry_equiv_pos_as_xyz
  1  'x, y, z'
loop_
 _atom_site_type_symbol
 _atom_site_label
 _atom_site_symmetry_multiplicity
 _atom_site_fract_x
 _atom_site_fract_y
 _atom_site_fract_z
 _atom_site_occupancy
  Be  Be0  1  0.85407525  0.93113119  0.76190788  1
  Be  Be1  1  0.65013665  0.92055883  0.40117569  1
  Be  Be2  1  0.15013765  0.57944117  0.09882431  1
  Be  Be3  1  0.34986335  0.07944017  0.59882431  1
  Be  Be4  1  0.84986335  0.42055883  0.90117569  1
  Be  Be5  1  0.14664064  0.61153381  0.41278654  1
  Be  Be6  1  0.64664064  0.88846619  0.08721346  1
  Be  Be7  1  0.85336036  0.38846619  0.58721346  1
  Be  Be8  1  0.35335936  0.11153281  0.91278654  1
  Be  Be9  1  0.64592475  0.43113019  0.26190788  1
  Be  Be10  1  0.14592475  0.06886881  0.23809212  1
  Be  Be11  1  0.35407625  0.56886881  0.73809212  1
  Si  Si12  1  0.23338300  0.93124661  0.76491175  1
  Si  Si13  1  0.73338300  0.56875339  0.73508825  1
  Si  Si14  1  0.76661700  0.06875339  0.23508925  1
  Si  Si15  1  0.26661800  0.43124561  0.26491075  1
  Si  Si16  1  0.72946189  0.11143947  0.91680883  1
  Si  Si17  1  0.22946189  0.38856153  0.58319117  1
  Si  Si18  1  0.27053911  0.88856053  0.08319117  1
  Si  Si19  1  0.77053811  0.61143947  0.41680883  1
  Si  Si20  1  0.23270088  0.43354802  0.90210064  1
  Si  Si21  1  0.73270188  0.06645098  0.59789936  1
  Si  Si22  1  0.76729912  0.56645298  0.09789936  1
  Si  Si23  1  0.26729812  0.93354702  0.40210064  1
  Mo  Mo24  1  0.45307188  0.24784361  0.08899886  1
  Mo  Mo25  1  0.04692812  0.74784461  0.58899886  1
  Mo  Mo26  1  0.54692912  0.75215639  0.91100114  1
  Mo  Mo27  1  0.95307188  0.25215539  0.41100114  1
  Mo  Mo28  1  0.55493520  0.24836401  0.42372526  1
  Mo  Mo29  1  0.05493620  0.25163499  0.07627474  1
  Mo  Mo30  1  0.44506480  0.75163599  0.57627474  1
  Mo  Mo31  1  0.94506380  0.74836501  0.92372526  1
  O  O32  1  0.13200673  0.75341642  0.03987038  1
  O  O33  1  0.04335382  0.90423211  0.81414169  1
  O  O34  1  0.54335382  0.59576789  0.68585831  1
  O  O35  1  0.95664618  0.09576789  0.18585831  1
  O  O36  1  0.45664518  0.40423111  0.31414169  1
  O  O37  1  0.54002288  0.17805970  0.95223176  1
  O  O38  1  0.04002288  0.32194030  0.54776924  1
  O  O39  1  0.45997712  0.82194130  0.04776824  1
  O  O40  1  0.95997612  0.67805870  0.45223076  1
  O  O41  1  0.03809122  0.51202837  0.88985336  1
  O  O42  1  0.53809122  0.98797163  0.61014664  1
  O  O43  1  0.96190878  0.48797263  0.11014664  1
  O  O44  1  0.13282170  0.06982667  0.35513392  1
  O  O45  1  0.63282070  0.43017433  0.14486608  1
  O  O46  1  0.86717830  0.93017333  0.64486608  1
  O  O47  1  0.36717830  0.56982667  0.85513392  1
  O  O48  1  0.63200773  0.74658358  0.46012962  1
  O  O49  1  0.46190978  0.01202837  0.38985336  1
  O  O50  1  0.36799327  0.25341642  0.53987038  1
  O  O51  1  0.86799327  0.24658258  0.96012962  1
  O  O52  1  0.75694917  0.07535698  0.47727879  1
  O  O53  1  0.62807884  0.06285080  0.14545749  1
  O  O54  1  0.87192216  0.56284980  0.64545749  1
  O  O55  1  0.37192116  0.93714920  0.85454251  1
  O  O56  1  0.73990086  0.42511028  0.81114334  1
  O  O57  1  0.23990086  0.07488872  0.68885666  1
  O  O58  1  0.26009914  0.57488972  0.18885666  1
  O  O59  1  0.76009814  0.92511028  0.31114334  1
  O  O60  1  0.74471116  0.06620078  0.80764471  1
  O  O61  1  0.24471116  0.43380022  0.69235529  1
  O  O62  1  0.25528784  0.93379922  0.19235529  1
  O  O63  1  0.75528884  0.56620078  0.30764471  1
  O  O64  1  0.24519534  0.24825618  0.86848449  1
  O  O65  1  0.74519434  0.25174382  0.63151651  1
  O  O66  1  0.75480466  0.75174282  0.13151451  1
  O  O67  1  0.25480466  0.74825718  0.36848449  1
  O  O68  1  0.76175361  0.74273723  0.80086358  1
  O  O69  1  0.26175261  0.75726277  0.69913642  1
  O  O70  1  0.23824639  0.25726177  0.19913642  1
  O  O71  1  0.73824739  0.24273823  0.30086358  1
  O  O72  1  0.74615496  0.92646569  0.97320533  1
  O  O73  1  0.24615396  0.57353431  0.52679467  1
  O  O74  1  0.25384404  0.07353431  0.02679467  1
  O  O75  1  0.75384504  0.42646469  0.47320533  1
  O  O76  1  0.74305183  0.57535598  0.97727879  1
  O  O77  1  0.24305183  0.92464302  0.52272121  1
  O  O78  1  0.25694817  0.42464402  0.02272121  1
  O  O79  1  0.12807884  0.43714920  0.35454251  1
