# generated using pymatgen
data_Cs5YO4
_symmetry_space_group_name_H-M   'P 1'
_cell_length_a   9.94427180
_cell_length_b   8.61926099
_cell_length_c   7.00746815
_cell_angle_alpha   90.00000000
_cell_angle_beta   90.00000000
_cell_angle_gamma   90.00000000
_symmetry_Int_Tables_number   1
_chemical_formula_structural   Cs5YO4
_chemical_formula_sum   'Cs10 Y2 O8'
_cell_volume   600.62603012
_cell_formula_units_Z   2
loop_
 _symmetry_equiv_pos_site_id
 _symmetry_equiv_pos_as_xyz
  1  'x, y, z'
loop_
 _atom_site_type_symbol
 _atom_site_label
 _atom_site_symmetry_multiplicity
 _atom_site_fract_x
 _atom_site_fract_y
 _atom_site_fract_z
 _atom_site_occupancy
  Cs  Cs0  1  0.06285460  0.01300838  0.74496186  1
  Cs  Cs1  1  0.06285460  0.48699162  0.74496186  1
  Cs  Cs2  1  0.25000000  0.75000000  0.18317684  1
  Cs  Cs3  1  0.43714540  0.01300838  0.74496186  1
  Cs  Cs4  1  0.43714540  0.48699162  0.74496186  1
  Cs  Cs5  1  0.56285460  0.98699162  0.25503814  1
  Cs  Cs6  1  0.56285460  0.51300838  0.25503814  1
  Cs  Cs7  1  0.75000000  0.25000000  0.81682316  1
  Cs  Cs8  1  0.93714540  0.98699162  0.25503814  1
  Cs  Cs9  1  0.93714540  0.51300838  0.25503814  1
  Y  Y10  1  0.25000000  0.25000000  0.22242223  1
  Y  Y11  1  0.75000000  0.75000000  0.77757777  1
  O  O12  1  0.06342623  0.25000000  0.05360861  1
  O  O13  1  0.25000000  0.03504746  0.38696944  1
  O  O14  1  0.25000000  0.46495254  0.38696944  1
  O  O15  1  0.43657377  0.25000000  0.05360861  1
  O  O16  1  0.56342623  0.75000000  0.94639139  1
  O  O17  1  0.75000000  0.96495254  0.61303056  1
  O  O18  1  0.75000000  0.53504746  0.61303056  1
  O  O19  1  0.93657377  0.75000000  0.94639139  1
