# generated using pymatgen
data_Na3VPCO7
_symmetry_space_group_name_H-M   'P 1'
_cell_length_a   8.97978347
_cell_length_b   5.32302505
_cell_length_c   6.82034368
_cell_angle_alpha   90.00000000
_cell_angle_beta   90.00000000
_cell_angle_gamma   87.79910701
_symmetry_Int_Tables_number   1
_chemical_formula_structural   Na3VPCO7
_chemical_formula_sum   'Na6 V2 P2 C2 O14'
_cell_volume   325.76929288
_cell_formula_units_Z   2
loop_
 _symmetry_equiv_pos_site_id
 _symmetry_equiv_pos_as_xyz
  1  'x, y, z'
loop_
 _atom_site_type_symbol
 _atom_site_label
 _atom_site_symmetry_multiplicity
 _atom_site_fract_x
 _atom_site_fract_y
 _atom_site_fract_z
 _atom_site_occupancy
  Na  Na0  1  0.08614507  0.77989181  0.25000000  1
  Na  Na1  1  0.27838053  0.26170076  0.48785221  1
  Na  Na2  1  0.27838053  0.26170076  0.01214779  1
  Na  Na3  1  0.72161947  0.73829924  0.98785221  1
  Na  Na4  1  0.72161947  0.73829924  0.51214779  1
  Na  Na5  1  0.91385493  0.22010819  0.75000000  1
  V  V6  1  0.33971047  0.77640184  0.75000000  1
  V  V7  1  0.66028953  0.22359816  0.25000000  1
  P  P8  1  0.41563699  0.72280588  0.25000000  1
  P  P9  1  0.58436301  0.27719512  0.75000000  1
  C  C10  1  0.05454555  0.70122929  0.75000000  1
  C  C11  1  0.94545445  0.29877071  0.25000000  1
  O  O12  1  0.10775355  0.92649246  0.75000000  1
  O  O13  1  0.08701208  0.33177746  0.25000000  1
  O  O14  1  0.15114680  0.51026711  0.75000000  1
  O  O15  1  0.31847606  0.79663582  0.06803160  1
  O  O16  1  0.31847606  0.79663582  0.43196840  1
  O  O17  1  0.43420739  0.14219230  0.75000000  1
  O  O18  1  0.44889179  0.43251789  0.25000000  1
  O  O19  1  0.55110821  0.56748211  0.75000000  1
  O  O20  1  0.56579261  0.85780770  0.25000000  1
  O  O21  1  0.68152394  0.20336418  0.56803160  1
  O  O22  1  0.68152394  0.20336418  0.93196840  1
  O  O23  1  0.84885320  0.48973289  0.25000000  1
  O  O24  1  0.91298792  0.66822254  0.75000000  1
  O  O25  1  0.89224645  0.07350754  0.25000000  1
