# generated using pymatgen
data_Li4Cr3NiO8
_symmetry_space_group_name_H-M   'P 1'
_cell_length_a   5.10054374
_cell_length_b   5.90945564
_cell_length_c   5.91730356
_cell_angle_alpha   59.95575712
_cell_angle_beta   90.00113003
_cell_angle_gamma   73.15407414
_symmetry_Int_Tables_number   1
_chemical_formula_structural   Li4Cr3NiO8
_chemical_formula_sum   'Li4 Cr3 Ni1 O8'
_cell_volume   145.48231145
_cell_formula_units_Z   1
loop_
 _symmetry_equiv_pos_site_id
 _symmetry_equiv_pos_as_xyz
  1  'x, y, z'
loop_
 _atom_site_type_symbol
 _atom_site_label
 _atom_site_symmetry_multiplicity
 _atom_site_fract_x
 _atom_site_fract_y
 _atom_site_fract_z
 _atom_site_occupancy
  Li  Li0  1  0.00283913  0.99701457  0.00144429  1
  Li  Li1  1  0.99715659  0.00298521  0.49855494  1
  Li  Li2  1  0.49999177  0.00000225  0.24999475  1
  Li  Li3  1  0.49999498  0.00000740  0.75000205  1
  Cr  Cr4  1  0.00002542  0.49999350  0.00106426  1
  Cr  Cr5  1  0.00001247  0.49998757  0.49893467  1
  Cr  Cr6  1  0.49993319  0.49997227  0.75002094  1
  Ni  Ni7  1  0.50000546  0.50000136  0.25000617  1
  O  O8  1  0.23514396  0.26989406  0.36505506  1
  O  O9  1  0.24676645  0.27260011  0.86370753  1
  O  O10  1  0.74096020  0.27439881  0.09734735  1
  O  O11  1  0.25905226  0.72560944  0.40265162  1
  O  O12  1  0.25903901  0.72564397  0.87173063  1
  O  O13  1  0.76486352  0.73009950  0.13493744  1
  O  O14  1  0.74096734  0.27437412  0.62826414  1
  O  O15  1  0.75324926  0.72741486  0.63628516  1
