# generated using pymatgen
data_Sb2(SO4)3
_symmetry_space_group_name_H-M   'P 1'
_cell_length_a   9.30824409
_cell_length_b   9.30824409
_cell_length_c   9.30824446
_cell_angle_alpha   59.96523962
_cell_angle_beta   59.96523962
_cell_angle_gamma   59.96523918
_symmetry_Int_Tables_number   1
_chemical_formula_structural   Sb2(SO4)3
_chemical_formula_sum   'Sb4 S6 O24'
_cell_volume   569.83068015
_cell_formula_units_Z   2
loop_
 _symmetry_equiv_pos_site_id
 _symmetry_equiv_pos_as_xyz
  1  'x, y, z'
loop_
 _atom_site_type_symbol
 _atom_site_label
 _atom_site_symmetry_multiplicity
 _atom_site_fract_x
 _atom_site_fract_y
 _atom_site_fract_z
 _atom_site_occupancy
  Sb  Sb0  1  0.36129113  0.36129113  0.36129113  1
  Sb  Sb1  1  0.13870887  0.13870887  0.13870887  1
  Sb  Sb2  1  0.63870887  0.63870887  0.63870887  1
  Sb  Sb3  1  0.86129113  0.86129113  0.86129113  1
  S  S4  1  0.04527745  0.75000000  0.45472255  1
  S  S5  1  0.54527745  0.95472255  0.25000000  1
  S  S6  1  0.25000000  0.54527745  0.95472255  1
  S  S7  1  0.75000000  0.45472255  0.04527745  1
  S  S8  1  0.45472255  0.04527745  0.75000000  1
  S  S9  1  0.95472255  0.25000000  0.54527745  1
  O  O10  1  0.05951289  0.89760240  0.28173017  1
  O  O11  1  0.10239760  0.71826983  0.94048711  1
  O  O12  1  0.49214500  0.90509902  0.69132948  1
  O  O13  1  0.59490098  0.00785500  0.80867052  1
  O  O14  1  0.21826983  0.60239760  0.44048711  1
  O  O15  1  0.55951289  0.78173017  0.39760240  1
  O  O16  1  0.71826983  0.94048711  0.10239760  1
  O  O17  1  0.99214500  0.19132948  0.40509902  1
  O  O18  1  0.30867052  0.50785500  0.09490098  1
  O  O19  1  0.09490098  0.30867052  0.50785500  1
  O  O20  1  0.19132948  0.40509902  0.99214500  1
  O  O21  1  0.39760240  0.55951289  0.78173017  1
  O  O22  1  0.60239760  0.44048711  0.21826983  1
  O  O23  1  0.90509902  0.69132948  0.49214500  1
  O  O24  1  0.80867052  0.59490098  0.00785500  1
  O  O25  1  0.00785500  0.80867052  0.59490098  1
  O  O26  1  0.69132948  0.49214500  0.90509902  1
  O  O27  1  0.28173017  0.05951289  0.89760240  1
  O  O28  1  0.44048711  0.21826983  0.60239760  1
  O  O29  1  0.78173017  0.39760240  0.55951289  1
  O  O30  1  0.50785500  0.09490098  0.30867052  1
  O  O31  1  0.40509902  0.99214500  0.19132948  1
  O  O32  1  0.89760240  0.28173017  0.05951289  1
  O  O33  1  0.94048711  0.10239760  0.71826983  1
