# generated using pymatgen
data_Li24Mn5Cr7O36
_symmetry_space_group_name_H-M   'P 1'
_cell_length_a   5.03676556
_cell_length_b   13.25991659
_cell_length_c   9.75458212
_cell_angle_alpha   96.85031411
_cell_angle_beta   95.10874831
_cell_angle_gamma   100.51657922
_symmetry_Int_Tables_number   1
_chemical_formula_structural   Li24Mn5Cr7O36
_chemical_formula_sum   'Li24 Mn5 Cr7 O36'
_cell_volume   631.85291675
_cell_formula_units_Z   1
loop_
 _symmetry_equiv_pos_site_id
 _symmetry_equiv_pos_as_xyz
  1  'x, y, z'
loop_
 _atom_site_type_symbol
 _atom_site_label
 _atom_site_symmetry_multiplicity
 _atom_site_fract_x
 _atom_site_fract_y
 _atom_site_fract_z
 _atom_site_occupancy
  Li  Li0  1  0.83332048  0.16677801  0.00041498  1
  Li  Li1  1  0.95238256  0.38601665  0.99880796  1
  Li  Li2  1  0.99790915  0.74873210  0.24967763  1
  Li  Li3  1  0.66707600  0.08489702  0.24986381  1
  Li  Li4  1  0.95292471  0.88695065  0.50133035  1
  Li  Li5  1  0.61994713  0.21954834  0.50067158  1
  Li  Li6  1  0.83461107  0.66744342  0.49920657  1
  Li  Li7  1  0.50413928  0.00141059  0.50042411  1
  Li  Li8  1  0.72032171  0.44633954  0.49964585  1
  Li  Li9  1  0.66638023  0.58394487  0.74949466  1
  Li  Li10  1  0.50046595  0.50018321  0.00006620  1
  Li  Li11  1  0.71864510  0.94764228  0.99922295  1
  Li  Li12  1  0.38058853  0.27848774  0.99979440  1
  Li  Li13  1  0.61663275  0.71937779  0.00043261  1
  Li  Li14  1  0.28070491  0.05404751  0.00087604  1
  Li  Li15  1  0.32998930  0.41621099  0.25031741  1
  Li  Li16  1  0.28047449  0.55429152  0.50080372  1
  Li  Li17  1  0.16406248  0.33268188  0.50050160  1
  Li  Li18  1  0.37953526  0.77816092  0.49915344  1
  Li  Li19  1  0.04799787  0.11281752  0.49888046  1
  Li  Li20  1  0.32931594  0.91625049  0.75039783  1
  Li  Li21  1  0.16774641  0.83337145  0.99865134  1
  Li  Li22  1  0.99926297  0.25011689  0.75008358  1
  Li  Li23  1  0.05003325  0.61353694  0.99985809  1
  Mn  Mn24  1  0.88917974  0.02783449  0.75038699  1
  Mn  Mn25  1  0.88996172  0.52823968  0.25011649  1
  Mn  Mn26  1  0.22114838  0.19306280  0.24886089  1
  Mn  Mn27  1  0.21982754  0.69326585  0.74820826  1
  Mn  Mn28  1  0.11294259  0.47248988  0.75089754  1
  Cr  Cr29  1  0.77148966  0.30679201  0.25017900  1
  Cr  Cr30  1  0.77012923  0.80588033  0.75042002  1
  Cr  Cr31  1  0.56310583  0.36322753  0.75192332  1
  Cr  Cr32  1  0.43759314  0.13813298  0.74833948  1
  Cr  Cr33  1  0.56117238  0.86417146  0.25212521  1
  Cr  Cr34  1  0.43866715  0.63855360  0.24891386  1
  Cr  Cr35  1  0.11082030  0.96904798  0.25022301  1
  O  O36  1  0.99949599  0.07157957  0.13922187  1
  O  O37  1  0.93267989  0.21523766  0.36385680  1
  O  O38  1  0.99678376  0.57135468  0.63854825  1
  O  O39  1  0.86142528  0.35815965  0.63816743  1
  O  O40  1  0.73938683  0.11810801  0.63519440  1
  O  O41  1  0.66954643  0.40451070  0.13824821  1
  O  O42  1  0.93270434  0.71599065  0.86339718  1
  O  O43  1  0.81215191  0.47671844  0.86160871  1
  O  O44  1  0.59944771  0.04945898  0.86310573  1
  O  O45  1  0.86464233  0.85951750  0.13749254  1
  O  O46  1  0.73952803  0.61856198  0.13454635  1
  O  O47  1  0.51638798  0.18847742  0.13694431  1
  O  O48  1  0.66290553  0.26392123  0.86318006  1
  O  O49  1  0.80330873  0.97457009  0.36305711  1
  O  O50  1  0.59917161  0.54938617  0.36299852  1
  O  O51  1  0.48126256  0.30848657  0.36141504  1
  O  O52  1  0.66545281  0.76290128  0.36270101  1
  O  O53  1  0.33361798  0.09517985  0.36169991  1
  O  O54  1  0.67079890  0.90389860  0.63843974  1
  O  O55  1  0.33987448  0.23702420  0.63771548  1
  O  O56  1  0.51672757  0.68857421  0.63736630  1
  O  O57  1  0.40083786  0.45006931  0.63678128  1
  O  O58  1  0.18709620  0.02278334  0.63804850  1
  O  O59  1  0.33780672  0.73723504  0.13809766  1
  O  O60  1  0.47756961  0.80815945  0.86122561  1
  O  O61  1  0.26029003  0.38245629  0.86555670  1
  O  O62  1  0.14131853  0.14244412  0.86107608  1
  O  O63  1  0.40728678  0.94856139  0.13468843  1
  O  O64  1  0.18773021  0.52317943  0.13831583  1
  O  O65  1  0.06796794  0.28473168  0.13653427  1
  O  O66  1  0.33513834  0.59527399  0.86177554  1
  O  O67  1  0.26083087  0.88415246  0.36621507  1
  O  O68  1  0.14104404  0.64305694  0.36134171  1
  O  O69  1  0.00414965  0.43118241  0.36311837  1
  O  O70  1  0.07000363  0.78466803  0.63576851  1
  O  O71  1  0.00311973  0.93049382  0.86338324  1
