# generated using pymatgen
data_LiMn2(SO4)3
_symmetry_space_group_name_H-M   'P 1'
_cell_length_a   8.83485092
_cell_length_b   8.83485092
_cell_length_c   8.83485110
_cell_angle_alpha   59.42299328
_cell_angle_beta   59.42299328
_cell_angle_gamma   59.42299640
_symmetry_Int_Tables_number   1
_chemical_formula_structural   LiMn2(SO4)3
_chemical_formula_sum   'Li2 Mn4 S6 O24'
_cell_volume   481.21945325
_cell_formula_units_Z   2
loop_
 _symmetry_equiv_pos_site_id
 _symmetry_equiv_pos_as_xyz
  1  'x, y, z'
loop_
 _atom_site_type_symbol
 _atom_site_label
 _atom_site_symmetry_multiplicity
 _atom_site_fract_x
 _atom_site_fract_y
 _atom_site_fract_z
 _atom_site_occupancy
  Li  Li0  1  0.00000000  0.00000000  0.00000000  1
  Li  Li1  1  0.50000000  0.50000000  0.50000000  1
  Mn  Mn2  1  0.35515928  0.35515928  0.35515928  1
  Mn  Mn3  1  0.14484072  0.14484072  0.14484072  1
  Mn  Mn4  1  0.64484072  0.64484072  0.64484072  1
  Mn  Mn5  1  0.85515928  0.85515928  0.85515928  1
  S  S6  1  0.04645757  0.75000000  0.45354243  1
  S  S7  1  0.54645757  0.95354243  0.25000000  1
  S  S8  1  0.25000000  0.54645757  0.95354243  1
  S  S9  1  0.75000000  0.45354243  0.04645757  1
  S  S10  1  0.45354243  0.04645757  0.75000000  1
  S  S11  1  0.95354243  0.25000000  0.54645757  1
  O  O12  1  0.05938329  0.90660320  0.27099941  1
  O  O13  1  0.09339680  0.72900059  0.94061671  1
  O  O14  1  0.49106778  0.89747665  0.69200026  1
  O  O15  1  0.60252335  0.00893222  0.80799974  1
  O  O16  1  0.22900059  0.59339680  0.44061671  1
  O  O17  1  0.55938329  0.77099941  0.40660320  1
  O  O18  1  0.72900059  0.94061671  0.09339680  1
  O  O19  1  0.99106778  0.19200026  0.39747665  1
  O  O20  1  0.30799974  0.50893222  0.10252335  1
  O  O21  1  0.10252335  0.30799974  0.50893222  1
  O  O22  1  0.19200026  0.39747665  0.99106778  1
  O  O23  1  0.40660320  0.55938329  0.77099941  1
  O  O24  1  0.59339680  0.44061671  0.22900059  1
  O  O25  1  0.89747665  0.69200026  0.49106778  1
  O  O26  1  0.80799974  0.60252335  0.00893222  1
  O  O27  1  0.00893222  0.80799974  0.60252335  1
  O  O28  1  0.69200026  0.49106778  0.89747665  1
  O  O29  1  0.27099941  0.05938329  0.90660320  1
  O  O30  1  0.44061671  0.22900059  0.59339680  1
  O  O31  1  0.77099941  0.40660320  0.55938329  1
  O  O32  1  0.50893222  0.10252335  0.30799974  1
  O  O33  1  0.39747665  0.99106778  0.19200026  1
  O  O34  1  0.90660320  0.27099941  0.05938329  1
  O  O35  1  0.94061671  0.09339680  0.72900059  1
