# generated using pymatgen
data_Li10Zn3(GeO4)4
_symmetry_space_group_name_H-M   'P 1'
_cell_length_a   10.99876996
_cell_length_b   6.39117048
_cell_length_c   5.23128469
_cell_angle_alpha   89.57667937
_cell_angle_beta   90.37444918
_cell_angle_gamma   89.78523801
_symmetry_Int_Tables_number   1
_chemical_formula_structural   Li10Zn3(GeO4)4
_chemical_formula_sum   'Li10 Zn3 Ge4 O16'
_cell_volume   367.71269012
_cell_formula_units_Z   1
loop_
 _symmetry_equiv_pos_site_id
 _symmetry_equiv_pos_as_xyz
  1  'x, y, z'
loop_
 _atom_site_type_symbol
 _atom_site_label
 _atom_site_symmetry_multiplicity
 _atom_site_fract_x
 _atom_site_fract_y
 _atom_site_fract_z
 _atom_site_occupancy
  Li  Li0  1  0.07200047  0.25466643  0.69089703  1
  Li  Li1  1  0.16425196  0.50281021  0.32278204  1
  Li  Li2  1  0.33154535  0.00383780  0.82180895  1
  Li  Li3  1  0.42458906  0.75662155  0.19260595  1
  Li  Li4  1  0.58105873  0.23582947  0.80635010  1
  Li  Li5  1  0.66229340  0.00154918  0.19200800  1
  Li  Li6  1  0.80835300  0.77824679  0.98305736  1
  Li  Li7  1  0.83261136  0.02648498  0.64399443  1
  Li  Li8  1  0.83626905  0.47929488  0.65894336  1
  Li  Li9  1  0.93526921  0.75008618  0.35892703  1
  Zn  Zn10  1  0.16552300  0.99817645  0.32370396  1
  Zn  Zn11  1  0.33056203  0.49761827  0.81946524  1
  Zn  Zn12  1  0.66141051  0.49296752  0.19514247  1
  Ge  Ge13  1  0.08142965  0.75068507  0.82989461  1
  Ge  Ge14  1  0.41111366  0.25117945  0.32456798  1
  Ge  Ge15  1  0.58699760  0.75072013  0.68513579  1
  Ge  Ge16  1  0.91302237  0.24233185  0.15833269  1
  O  O17  1  0.06199911  0.25289731  0.29612041  1
  O  O18  1  0.08788735  0.74980261  0.17178996  1
  O  O19  1  0.15957318  0.52494397  0.71122451  1
  O  O20  1  0.16022765  0.97569453  0.71217326  1
  O  O21  1  0.33568942  0.02352260  0.21083493  1
  O  O22  1  0.33595264  0.48060557  0.21027926  1
  O  O23  1  0.41290609  0.25053716  0.66622433  1
  O  O24  1  0.43449341  0.75328649  0.79621439  1
  O  O25  1  0.56176601  0.24171617  0.20563886  1
  O  O26  1  0.58855911  0.74856280  0.34208603  1
  O  O27  1  0.66820099  0.52455388  0.80150436  1
  O  O28  1  0.67185470  0.96483026  0.80462217  1
  O  O29  1  0.83808182  0.00918777  0.26569054  1
  O  O30  1  0.83792070  0.48059669  0.27148007  1
  O  O31  1  0.91230817  0.24785906  0.82180118  1
  O  O32  1  0.92788123  0.74829493  0.72579875  1
