# generated using pymatgen
data_Li24Mn5Cr7O36
_symmetry_space_group_name_H-M   'P 1'
_cell_length_a   5.01628000
_cell_length_b   13.26678554
_cell_length_c   9.74095998
_cell_angle_alpha   97.02865720
_cell_angle_beta   94.80966154
_cell_angle_gamma   100.52481518
_symmetry_Int_Tables_number   1
_chemical_formula_structural   Li24Mn5Cr7O36
_chemical_formula_sum   'Li24 Mn5 Cr7 O36'
_cell_volume   628.80658910
_cell_formula_units_Z   1
loop_
 _symmetry_equiv_pos_site_id
 _symmetry_equiv_pos_as_xyz
  1  'x, y, z'
loop_
 _atom_site_type_symbol
 _atom_site_label
 _atom_site_symmetry_multiplicity
 _atom_site_fract_x
 _atom_site_fract_y
 _atom_site_fract_z
 _atom_site_occupancy
  Li  Li0  1  0.83213175  0.16626674  0.00016756  1
  Li  Li1  1  0.94845313  0.38605965  0.99906293  1
  Li  Li2  1  0.99814865  0.74917107  0.25006472  1
  Li  Li3  1  0.66709130  0.08460034  0.25033950  1
  Li  Li4  1  0.95396429  0.88799803  0.50125185  1
  Li  Li5  1  0.62140218  0.22099150  0.49992351  1
  Li  Li6  1  0.83403102  0.66727736  0.49936136  1
  Li  Li7  1  0.50095968  0.00117963  0.50067672  1
  Li  Li8  1  0.71288595  0.44461396  0.50015942  1
  Li  Li9  1  0.66336501  0.58387161  0.74991903  1
  Li  Li10  1  0.50131950  0.49979203  0.00018839  1
  Li  Li11  1  0.71818390  0.94813471  0.99950353  1
  Li  Li12  1  0.38622440  0.28027573  0.00066650  1
  Li  Li13  1  0.61584914  0.71853313  0.99922213  1
  Li  Li14  1  0.28279381  0.05306672  0.00059348  1
  Li  Li15  1  0.33395160  0.41640918  0.24968493  1
  Li  Li16  1  0.28612705  0.55500595  0.50085623  1
  Li  Li17  1  0.16660345  0.33268337  0.50003317  1
  Li  Li18  1  0.38006149  0.77780355  0.49957153  1
  Li  Li19  1  0.04677352  0.11141933  0.49852282  1
  Li  Li20  1  0.33003575  0.91757598  0.75003203  1
  Li  Li21  1  0.16635590  0.83320560  0.99923708  1
  Li  Li22  1  0.99628876  0.25067808  0.75000803  1
  Li  Li23  1  0.05225283  0.61423907  0.00051004  1
  Mn  Mn24  1  0.88976646  0.02750554  0.74993817  1
  Mn  Mn25  1  0.88838813  0.52768358  0.24863093  1
  Mn  Mn26  1  0.55681409  0.36075800  0.74995328  1
  Mn  Mn27  1  0.22296907  0.19358908  0.25070081  1
  Mn  Mn28  1  0.22367765  0.69433888  0.74996440  1
  Cr  Cr29  1  0.78009640  0.30741523  0.24989957  1
  Cr  Cr30  1  0.77208578  0.80681397  0.74999438  1
  Cr  Cr31  1  0.43791980  0.14011052  0.75028785  1
  Cr  Cr32  1  0.56014462  0.86448683  0.25139107  1
  Cr  Cr33  1  0.43859096  0.63894325  0.24950252  1
  Cr  Cr34  1  0.10551321  0.47356225  0.75005132  1
  Cr  Cr35  1  0.10901255  0.96884360  0.24964626  1
  O  O36  1  0.00157944  0.07171158  0.13921615  1
  O  O37  1  0.93360939  0.21376524  0.36517776  1
  O  O38  1  0.00324317  0.57069302  0.63865751  1
  O  O39  1  0.85145561  0.35516730  0.63673610  1
  O  O40  1  0.73611983  0.11782055  0.63660307  1
  O  O41  1  0.66641968  0.40609656  0.13759503  1
  O  O42  1  0.93191222  0.71550493  0.86364875  1
  O  O43  1  0.81303754  0.47548551  0.86098552  1
  O  O44  1  0.59848537  0.04875880  0.86360676  1
  O  O45  1  0.86500431  0.85931239  0.13682502  1
  O  O46  1  0.74037711  0.61865455  0.13564599  1
  O  O47  1  0.52100438  0.18975714  0.13753477  1
  O  O48  1  0.67042523  0.26455965  0.86366861  1
  O  O49  1  0.80152938  0.97417280  0.36290654  1
  O  O50  1  0.59813167  0.54896576  0.36365336  1
  O  O51  1  0.47911040  0.30847789  0.36139210  1
  O  O52  1  0.66484249  0.76325095  0.36267974  1
  O  O53  1  0.33457463  0.09536782  0.36164914  1
  O  O54  1  0.66970503  0.90393826  0.63870109  1
  O  O55  1  0.33731311  0.23726999  0.63892543  1
  O  O56  1  0.51788234  0.68850785  0.63684912  1
  O  O57  1  0.40243207  0.45100057  0.63604547  1
  O  O58  1  0.18441842  0.02181938  0.63667938  1
  O  O59  1  0.33716918  0.73693829  0.13837726  1
  O  O60  1  0.47961994  0.80876589  0.86138582  1
  O  O61  1  0.26502265  0.38208631  0.86365222  1
  O  O62  1  0.14581910  0.14200336  0.86115204  1
  O  O63  1  0.40782807  0.94871493  0.13409078  1
  O  O64  1  0.18698766  0.52293413  0.13778329  1
  O  O65  1  0.06571040  0.28379109  0.13663372  1
  O  O66  1  0.33701922  0.59775338  0.86332328  1
  O  O67  1  0.25869639  0.88460987  0.36534038  1
  O  O68  1  0.14136239  0.64273194  0.36166448  1
  O  O69  1  0.99915166  0.42911773  0.36200988  1
  O  O70  1  0.06941583  0.78458058  0.63627491  1
  O  O71  1  0.00335286  0.93101195  0.86341652  1
