# generated using pymatgen
data_Li24Mn5Cr7O36
_symmetry_space_group_name_H-M   'P 1'
_cell_length_a   5.02761217
_cell_length_b   13.27310592
_cell_length_c   9.76979861
_cell_angle_alpha   96.92629817
_cell_angle_beta   94.94423450
_cell_angle_gamma   100.50049872
_symmetry_Int_Tables_number   1
_chemical_formula_structural   Li24Mn5Cr7O36
_chemical_formula_sum   'Li24 Mn5 Cr7 O36'
_cell_volume   632.44281955
_cell_formula_units_Z   1
loop_
 _symmetry_equiv_pos_site_id
 _symmetry_equiv_pos_as_xyz
  1  'x, y, z'
loop_
 _atom_site_type_symbol
 _atom_site_label
 _atom_site_symmetry_multiplicity
 _atom_site_fract_x
 _atom_site_fract_y
 _atom_site_fract_z
 _atom_site_occupancy
  Li  Li0  1  0.83193640  0.16690410  0.00050255  1
  Li  Li1  1  0.94859014  0.38684796  0.99961581  1
  Li  Li2  1  0.99934790  0.74937673  0.24963401  1
  Li  Li3  1  0.66329084  0.08320543  0.24972030  1
  Li  Li4  1  0.95046854  0.88798787  0.50147872  1
  Li  Li5  1  0.61395949  0.22004526  0.50041845  1
  Li  Li6  1  0.83283754  0.66657949  0.50027272  1
  Li  Li7  1  0.49875575  0.99964950  0.50063247  1
  Li  Li8  1  0.71706489  0.44649465  0.50013777  1
  Li  Li9  1  0.66651518  0.58339308  0.75002805  1
  Li  Li10  1  0.50520811  0.50084561  0.99842900  1
  Li  Li11  1  0.71321933  0.94605110  0.99961218  1
  Li  Li12  1  0.38280981  0.27869926  0.00001946  1
  Li  Li13  1  0.61865883  0.71983063  0.99949543  1
  Li  Li14  1  0.28770003  0.05368545  0.00065923  1
  Li  Li15  1  0.32953733  0.41595786  0.25039772  1
  Li  Li16  1  0.28161621  0.55388414  0.50055227  1
  Li  Li17  1  0.16905239  0.33389788  0.49959719  1
  Li  Li18  1  0.38584113  0.77935310  0.50007007  1
  Li  Li19  1  0.05299743  0.11229728  0.49828645  1
  Li  Li20  1  0.33584374  0.91790105  0.74971749  1
  Li  Li21  1  0.16305215  0.83361599  0.00042923  1
  Li  Li22  1  0.00043119  0.25009848  0.75002584  1
  Li  Li23  1  0.04812198  0.61352610  0.00011156  1
  Mn  Mn24  1  0.89117943  0.52804113  0.25146480  1
  Mn  Mn25  1  0.77737625  0.80537593  0.74915662  1
  Mn  Mn26  1  0.55440872  0.36080361  0.74925120  1
  Mn  Mn27  1  0.44594087  0.13945355  0.75119339  1
  Mn  Mn28  1  0.22297327  0.19457031  0.24929972  1
  Cr  Cr29  1  0.89517892  0.02882973  0.75003766  1
  Cr  Cr30  1  0.77187789  0.30619427  0.25035850  1
  Cr  Cr31  1  0.55667752  0.85856271  0.24926168  1
  Cr  Cr32  1  0.43979166  0.63581760  0.24889935  1
  Cr  Cr33  1  0.22775865  0.69599788  0.75155674  1
  Cr  Cr34  1  0.10476466  0.47146179  0.74908509  1
  Cr  Cr35  1  0.10735018  0.97413656  0.25074101  1
  O  O36  1  0.00185810  0.07146484  0.13849529  1
  O  O37  1  0.93317601  0.21628370  0.36319373  1
  O  O38  1  0.00550147  0.57022946  0.63890053  1
  O  O39  1  0.85386139  0.35647368  0.63835774  1
  O  O40  1  0.73428213  0.11675511  0.63694443  1
  O  O41  1  0.67190858  0.40408614  0.13904319  1
  O  O42  1  0.92607843  0.71603724  0.86500847  1
  O  O43  1  0.80693709  0.47485944  0.86185881  1
  O  O44  1  0.59409288  0.04907923  0.86498244  1
  O  O45  1  0.84743808  0.85754242  0.13752002  1
  O  O46  1  0.74088023  0.61742140  0.13537744  1
  O  O47  1  0.51870450  0.18926730  0.13773144  1
  O  O48  1  0.66838799  0.26203118  0.86173628  1
  O  O49  1  0.81934894  0.97610507  0.36229520  1
  O  O50  1  0.59885907  0.54892746  0.36335400  1
  O  O51  1  0.47875481  0.30913649  0.36105807  1
  O  O52  1  0.66172035  0.76146300  0.36114293  1
  O  O53  1  0.33798235  0.09818623  0.36281337  1
  O  O54  1  0.66543682  0.90377965  0.63750457  1
  O  O55  1  0.33195974  0.23809400  0.63890983  1
  O  O56  1  0.52748409  0.69103591  0.63759313  1
  O  O57  1  0.40638558  0.45072316  0.63532470  1
  O  O58  1  0.19304313  0.02490124  0.63820232  1
  O  O59  1  0.33525350  0.73558789  0.13729286  1
  O  O60  1  0.47690907  0.80924452  0.86078445  1
  O  O61  1  0.26627152  0.38299655  0.86370176  1
  O  O62  1  0.14571437  0.14295935  0.86134106  1
  O  O63  1  0.39830263  0.95116375  0.13535247  1
  O  O64  1  0.18941834  0.52387608  0.13889649  1
  O  O65  1  0.07037384  0.28504160  0.13586017  1
  O  O66  1  0.32815589  0.59642622  0.86203196  1
  O  O67  1  0.26838196  0.88322462  0.36354574  1
  O  O68  1  0.13850675  0.64270763  0.36230246  1
  O  O69  1  0.00401523  0.43072164  0.36349508  1
  O  O70  1  0.06781885  0.78360703  0.63659469  1
  O  O71  1  0.99466392  0.92918368  0.86130715  1
