# generated using pymatgen
data_Mg3(AsO4)2
_symmetry_space_group_name_H-M   'P 1'
_cell_length_a   6.62373994
_cell_length_b   8.90910646
_cell_length_c   11.17449570
_cell_angle_alpha   90.00000000
_cell_angle_beta   92.88431479
_cell_angle_gamma   90.00000000
_symmetry_Int_Tables_number   1
_chemical_formula_structural   Mg3(AsO4)2
_chemical_formula_sum   'Mg12 As8 O32'
_cell_volume   658.58953926
_cell_formula_units_Z   4
loop_
 _symmetry_equiv_pos_site_id
 _symmetry_equiv_pos_as_xyz
  1  'x, y, z'
loop_
 _atom_site_type_symbol
 _atom_site_label
 _atom_site_symmetry_multiplicity
 _atom_site_fract_x
 _atom_site_fract_y
 _atom_site_fract_z
 _atom_site_occupancy
  Mg  Mg0  1  0.09045885  0.79595910  0.57247333  1
  Mg  Mg1  1  0.09045885  0.70404090  0.07247333  1
  Mg  Mg2  1  0.24114421  0.15619052  0.63656394  1
  Mg  Mg3  1  0.24114421  0.34380948  0.13656394  1
  Mg  Mg4  1  0.38197187  0.53276103  0.61668420  1
  Mg  Mg5  1  0.38197187  0.96723897  0.11668420  1
  Mg  Mg6  1  0.61802813  0.03276103  0.88331580  1
  Mg  Mg7  1  0.61802813  0.46723897  0.38331580  1
  Mg  Mg8  1  0.75885479  0.65619052  0.86343606  1
  Mg  Mg9  1  0.75885479  0.84380948  0.36343606  1
  Mg  Mg10  1  0.90954115  0.29595910  0.92752667  1
  Mg  Mg11  1  0.90954115  0.20404090  0.42752667  1
  As  As12  1  0.10506010  0.94525975  0.85325599  1
  As  As13  1  0.10506010  0.55474025  0.35325599  1
  As  As14  1  0.40999427  0.38468431  0.86605536  1
  As  As15  1  0.40999427  0.11531569  0.36605536  1
  As  As16  1  0.59000573  0.88468431  0.63394464  1
  As  As17  1  0.59000573  0.61531569  0.13394464  1
  As  As18  1  0.89493990  0.44525975  0.64674401  1
  As  As19  1  0.89493990  0.05474025  0.14674401  1
  O  O20  1  0.04269669  0.76559276  0.89278212  1
  O  O21  1  0.04269669  0.73440724  0.39278212  1
  O  O22  1  0.07741959  0.57765222  0.61926954  1
  O  O23  1  0.07741959  0.92234778  0.11926954  1
  O  O24  1  0.13248224  0.95852321  0.70115986  1
  O  O25  1  0.13248224  0.54147679  0.20115986  1
  O  O26  1  0.20667890  0.36543615  0.95703124  1
  O  O27  1  0.20667890  0.13456385  0.45703124  1
  O  O28  1  0.32695375  0.00235654  0.92730549  1
  O  O29  1  0.33073085  0.34261050  0.71988670  1
  O  O30  1  0.32695375  0.49764346  0.42730549  1
  O  O31  1  0.33073085  0.15738950  0.21988670  1
  O  O32  1  0.40059981  0.76106399  0.58872715  1
  O  O33  1  0.40059981  0.73893601  0.08872715  1
  O  O34  1  0.47734667  0.56757892  0.85383228  1
  O  O35  1  0.47734667  0.93242108  0.35383228  1
  O  O36  1  0.52265333  0.06757892  0.64616772  1
  O  O37  1  0.52265333  0.43242108  0.14616772  1
  O  O38  1  0.59940019  0.26106399  0.91127285  1
  O  O39  1  0.59940019  0.23893601  0.41127285  1
  O  O40  1  0.66926915  0.84261050  0.78011330  1
  O  O41  1  0.67304625  0.50235654  0.57269451  1
  O  O42  1  0.66926915  0.65738950  0.28011330  1
  O  O43  1  0.67304625  0.99764346  0.07269451  1
  O  O44  1  0.79332110  0.86543615  0.54296876  1
  O  O45  1  0.79332110  0.63456385  0.04296876  1
  O  O46  1  0.86751776  0.45852321  0.79884014  1
  O  O47  1  0.86751776  0.04147679  0.29884014  1
  O  O48  1  0.92258041  0.07765222  0.88073046  1
  O  O49  1  0.92258041  0.42234778  0.38073046  1
  O  O50  1  0.95730331  0.26559276  0.60721788  1
  O  O51  1  0.95730331  0.23440724  0.10721788  1
