# generated using pymatgen
data_Li24Mn5Cr7O36
_symmetry_space_group_name_H-M   'P 1'
_cell_length_a   5.01683131
_cell_length_b   13.26759462
_cell_length_c   9.73880845
_cell_angle_alpha   96.99252262
_cell_angle_beta   94.82358193
_cell_angle_gamma   100.44130695
_symmetry_Int_Tables_number   1
_chemical_formula_structural   Li24Mn5Cr7O36
_chemical_formula_sum   'Li24 Mn5 Cr7 O36'
_cell_volume   628.99944308
_cell_formula_units_Z   1
loop_
 _symmetry_equiv_pos_site_id
 _symmetry_equiv_pos_as_xyz
  1  'x, y, z'
loop_
 _atom_site_type_symbol
 _atom_site_label
 _atom_site_symmetry_multiplicity
 _atom_site_fract_x
 _atom_site_fract_y
 _atom_site_fract_z
 _atom_site_occupancy
  Li  Li0  1  0.83315367  0.16675065  0.99991206  1
  Li  Li1  1  0.94786118  0.38588442  0.99898074  1
  Li  Li2  1  0.00022221  0.74973183  0.24960115  1
  Li  Li3  1  0.66397155  0.08319678  0.24976877  1
  Li  Li4  1  0.95422204  0.88913159  0.50221036  1
  Li  Li5  1  0.61778935  0.21938011  0.49937671  1
  Li  Li6  1  0.83288950  0.66680328  0.50050902  1
  Li  Li7  1  0.49966680  -0.00000444  0.50043439  1
  Li  Li8  1  0.71627362  0.44669562  0.50007696  1
  Li  Li9  1  0.66663572  0.58396698  0.74989459  1
  Li  Li10  1  0.50523857  0.50080345  0.99880938  1
  Li  Li11  1  0.71371325  0.94616414  0.99880293  1
  Li  Li12  1  0.38379220  0.27952466  0.00073823  1
  Li  Li13  1  0.61913830  0.71982411  0.99974881  1
  Li  Li14  1  0.28714844  0.05298932  0.00088813  1
  Li  Li15  1  0.32955734  0.41596720  0.25030775  1
  Li  Li16  1  0.28271791  0.55362567  0.50009255  1
  Li  Li17  1  0.16958350  0.33400055  0.49909981  1
  Li  Li18  1  0.38238553  0.77928543  0.49936749  1
  Li  Li19  1  0.04837504  0.11114407  0.49897116  1
  Li  Li20  1  0.33356807  0.91807518  0.74983464  1
  Li  Li21  1  0.16429983  0.83352798  0.00081776  1
  Li  Li22  1  0.99666086  0.24920267  0.75017918  1
  Li  Li23  1  0.04750764  0.61409876  0.00047115  1
  Mn  Mn24  1  0.88699116  0.02612200  0.74844138  1
  Mn  Mn25  1  0.89066341  0.52814650  0.25133859  1
  Mn  Mn26  1  0.77867882  0.80549187  0.75056482  1
  Mn  Mn27  1  0.55683047  0.36156716  0.75063691  1
  Mn  Mn28  1  0.22324700  0.19404995  0.24944049  1
  Cr  Cr29  1  0.77240207  0.30664847  0.25023888  1
  Cr  Cr30  1  0.43724487  0.13991695  0.75047396  1
  Cr  Cr31  1  0.55775655  0.85878691  0.24929964  1
  Cr  Cr32  1  0.43886460  0.63633311  0.24855247  1
  Cr  Cr33  1  0.22827365  0.69692150  0.75198042  1
  Cr  Cr34  1  0.10550056  0.47165573  0.74859888  1
  Cr  Cr35  1  0.10763624  0.97410352  0.25095125  1
  O  O36  1  0.00186490  0.07162996  0.13856123  1
  O  O37  1  0.93231805  0.21591229  0.36359159  1
  O  O38  1  0.00583292  0.57058443  0.63855872  1
  O  O39  1  0.85557257  0.35656068  0.63806297  1
  O  O40  1  0.73594830  0.11774736  0.63645705  1
  O  O41  1  0.67071405  0.40425301  0.13900171  1
  O  O42  1  0.92559774  0.71617328  0.86551945  1
  O  O43  1  0.80692953  0.47577421  0.86195599  1
  O  O44  1  0.59863744  0.04866298  0.86388371  1
  O  O45  1  0.84887830  0.85753799  0.13710038  1
  O  O46  1  0.74098919  0.61777395  0.13520151  1
  O  O47  1  0.51912661  0.18887640  0.13710371  1
  O  O48  1  0.67018793  0.26419321  0.86347548  1
  O  O49  1  0.81809827  0.97619372  0.36236468  1
  O  O50  1  0.59810211  0.54892058  0.36370743  1
  O  O51  1  0.47907194  0.30913603  0.36131292  1
  O  O52  1  0.66214952  0.76180282  0.36140913  1
  O  O53  1  0.33806694  0.09812815  0.36326767  1
  O  O54  1  0.66428896  0.90459525  0.63841904  1
  O  O55  1  0.33715228  0.23753799  0.63891262  1
  O  O56  1  0.52917851  0.69160757  0.63736643  1
  O  O57  1  0.40729601  0.45111327  0.63500331  1
  O  O58  1  0.18416343  0.02185426  0.63695093  1
  O  O59  1  0.33459236  0.73553039  0.13676674  1
  O  O60  1  0.47672310  0.80944797  0.86151897  1
  O  O61  1  0.26550256  0.38291683  0.86373795  1
  O  O62  1  0.14536874  0.14116069  0.86130983  1
  O  O63  1  0.39942523  0.95124153  0.13525996  1
  O  O64  1  0.18907227  0.52330593  0.13837292  1
  O  O65  1  0.07053506  0.28498892  0.13586431  1
  O  O66  1  0.32896191  0.59659304  0.86230263  1
  O  O67  1  0.26738554  0.88290118  0.36408733  1
  O  O68  1  0.13825075  0.64290077  0.36232074  1
  O  O69  1  0.00388543  0.43072157  0.36366405  1
  O  O70  1  0.06867288  0.78362893  0.63648930  1
  O  O71  1  0.00099912  0.92858121  0.86170818  1
