# generated using pymatgen
data_Li4TiCrO6
_symmetry_space_group_name_H-M   'P 1'
_cell_length_a   5.06572580
_cell_length_b   8.76887908
_cell_length_c   9.79793422
_cell_angle_alpha   98.65268165
_cell_angle_beta   94.72785420
_cell_angle_gamma   90.20596424
_symmetry_Int_Tables_number   1
_chemical_formula_structural   Li4TiCrO6
_chemical_formula_sum   'Li16 Ti4 Cr4 O24'
_cell_volume   428.75730030
_cell_formula_units_Z   4
loop_
 _symmetry_equiv_pos_site_id
 _symmetry_equiv_pos_as_xyz
  1  'x, y, z'
loop_
 _atom_site_type_symbol
 _atom_site_label
 _atom_site_symmetry_multiplicity
 _atom_site_fract_x
 _atom_site_fract_y
 _atom_site_fract_z
 _atom_site_occupancy
  Li  Li0  1  0.98849775  0.16682285  0.49913041  1
  Li  Li1  1  0.87541745  0.37586059  0.75007990  1
  Li  Li2  1  0.74864081  0.24951713  0.00029114  1
  Li  Li3  1  0.74739364  0.92185428  0.00097479  1
  Li  Li4  1  0.75341655  0.57794162  0.99868181  1
  Li  Li5  1  0.62716791  0.12595383  0.25005647  1
  Li  Li6  1  0.51176296  0.33240572  0.50044595  1
  Li  Li7  1  0.49467638  0.00057541  0.49975288  1
  Li  Li8  1  0.49309789  0.66830384  0.50049628  1
  Li  Li9  1  0.37515481  0.87404654  0.75000096  1
  Li  Li10  1  0.24437156  0.75101449  0.99961304  1
  Li  Li11  1  0.24727255  0.42096634  0.00080841  1
  Li  Li12  1  0.25735052  0.07955212  0.99956722  1
  Li  Li13  1  0.12705099  0.62595686  0.24997185  1
  Li  Li14  1  0.01145731  0.83312983  0.50045742  1
  Li  Li15  1  0.99962610  0.49930409  0.50077973  1
  Ti  Ti16  1  0.87294803  0.03830426  0.74961271  1
  Ti  Ti17  1  0.62164957  0.79004351  0.24916285  1
  Ti  Ti18  1  0.37123352  0.21187315  0.74938506  1
  Ti  Ti19  1  0.12291890  0.29028616  0.24964720  1
  Cr  Cr20  1  0.87556682  0.70294790  0.75022118  1
  Cr  Cr21  1  0.62761321  0.45954381  0.25058020  1
  Cr  Cr22  1  0.37653084  0.54754873  0.75089670  1
  Cr  Cr23  1  0.12663524  0.95912213  0.25033026  1
  O  O24  1  0.96141065  0.10739123  0.13576165  1
  O  O25  1  0.93129239  0.78618141  0.13794532  1
  O  O26  1  0.92027485  0.42880050  0.13558210  1
  O  O27  1  0.82659764  0.96584326  0.36165768  1
  O  O28  1  0.82518896  0.32134767  0.36660870  1
  O  O29  1  0.78632253  0.63898100  0.36220674  1
  O  O30  1  0.71409024  0.85226959  0.63754516  1
  O  O31  1  0.68543146  0.53841879  0.63797267  1
  O  O32  1  0.67861191  0.17647416  0.63380504  1
  O  O33  1  0.46060323  0.60760603  0.13540280  1
  O  O34  1  0.56499578  0.71283003  0.86269704  1
  O  O35  1  0.57118347  0.07326744  0.86587624  1
  O  O36  1  0.42014584  0.92862850  0.13548608  1
  O  O37  1  0.43189636  0.28667650  0.13832224  1
  O  O38  1  0.53623184  0.39788980  0.86171454  1
  O  O39  1  0.32478810  0.82080835  0.36643509  1
  O  O40  1  0.32733703  0.46617353  0.36214958  1
  O  O41  1  0.28590918  0.13893631  0.36205610  1
  O  O42  1  0.21425423  0.35939247  0.63759356  1
  O  O43  1  0.18523167  0.67346563  0.63630952  1
  O  O44  1  0.17874538  0.03432726  0.63574624  1
  O  O45  1  0.06495013  0.57553465  0.86412923  1
  O  O46  1  0.07116435  0.21573192  0.86431948  1
  O  O47  1  0.03589047  0.89015078  0.86173479  1
