# generated using pymatgen
data_Li2Mn3CrO8
_symmetry_space_group_name_H-M   'P 1'
_cell_length_a   5.91737305
_cell_length_b   5.91737305
_cell_length_c   5.91737305
_cell_angle_alpha   60.18455233
_cell_angle_beta   60.18455233
_cell_angle_gamma   60.18455233
_symmetry_Int_Tables_number   1
_chemical_formula_structural   Li2Mn3CrO8
_chemical_formula_sum   'Li2 Mn3 Cr1 O8'
_cell_volume   147.12387173
_cell_formula_units_Z   1
loop_
 _symmetry_equiv_pos_site_id
 _symmetry_equiv_pos_as_xyz
  1  'x, y, z'
loop_
 _atom_site_type_symbol
 _atom_site_label
 _atom_site_symmetry_multiplicity
 _atom_site_fract_x
 _atom_site_fract_y
 _atom_site_fract_z
 _atom_site_occupancy
  Li  Li0  1  0.12194968  0.12194968  0.12194968  1
  Li  Li1  1  0.87805032  0.87805032  0.87805032  1
  Mn  Mn2  1  0.00000000  0.50000000  0.50000000  1
  Mn  Mn3  1  0.50000000  0.00000000  0.50000000  1
  Mn  Mn4  1  0.50000000  0.50000000  0.00000000  1
  Cr  Cr5  1  0.50000000  0.50000000  0.50000000  1
  O  O6  1  0.25993037  0.25993037  0.25993037  1
  O  O7  1  0.70805631  0.26001032  0.26001032  1
  O  O8  1  0.26001032  0.70805631  0.26001032  1
  O  O9  1  0.26001032  0.26001032  0.70805631  1
  O  O10  1  0.73998968  0.73998968  0.29194369  1
  O  O11  1  0.73998968  0.29194369  0.73998968  1
  O  O12  1  0.74006963  0.74006963  0.74006963  1
  O  O13  1  0.29194369  0.73998968  0.73998968  1
