# generated using pymatgen
data_CaP3W3O13
_symmetry_space_group_name_H-M   'P 1'
_cell_length_a   6.72175357
_cell_length_b   7.86348738
_cell_length_c   10.75517654
_cell_angle_alpha   99.43506803
_cell_angle_beta   90.00000000
_cell_angle_gamma   90.00000000
_symmetry_Int_Tables_number   1
_chemical_formula_structural   CaP3W3O13
_chemical_formula_sum   'Ca2 P6 W6 O26'
_cell_volume   560.78978289
_cell_formula_units_Z   2
loop_
 _symmetry_equiv_pos_site_id
 _symmetry_equiv_pos_as_xyz
  1  'x, y, z'
loop_
 _atom_site_type_symbol
 _atom_site_label
 _atom_site_symmetry_multiplicity
 _atom_site_fract_x
 _atom_site_fract_y
 _atom_site_fract_z
 _atom_site_occupancy
  Ca  Ca0  1  0.75000000  0.64706723  0.19379750  1
  Ca  Ca1  1  0.25000000  0.35293277  0.80620250  1
  P  P2  1  0.25000000  0.21394401  0.49467099  1
  P  P3  1  0.75000000  0.78605599  0.50532901  1
  P  P4  1  0.25000000  0.73716850  0.76691254  1
  P  P5  1  0.75000000  0.26283150  0.23308746  1
  P  P6  1  0.75000000  0.31726487  0.88829885  1
  P  P7  1  0.25000000  0.68273513  0.11170115  1
  W  W8  1  0.25000000  0.36108190  0.20643834  1
  W  W9  1  0.75000000  0.63891810  0.79356166  1
  W  W10  1  0.25000000  0.76983477  0.44232876  1
  W  W11  1  0.50000000  0.00000000  0.00000000  1
  W  W12  1  0.75000000  0.23016523  0.55767124  1
  W  W13  1  -0.00000000  0.00000000  0.00000000  1
  O  O14  1  0.75000000  0.35413014  0.74783666  1
  O  O15  1  0.56914376  0.75125398  0.41303838  1
  O  O16  1  0.25000000  0.80283110  0.64221718  1
  O  O17  1  0.55414274  0.22028064  0.90400382  1
  O  O18  1  0.75000000  0.65400315  0.59715743  1
  O  O19  1  0.75000000  0.87939550  0.90439227  1
  O  O20  1  0.25000000  0.34599685  0.40284257  1
  O  O21  1  0.05414274  0.77971936  0.09599618  1
  O  O22  1  0.25000000  0.02977399  0.41836549  1
  O  O23  1  0.75000000  0.97022601  0.58163451  1
  O  O24  1  0.07136176  0.61938628  0.78654465  1
  O  O25  1  0.25000000  0.12060450  0.09560773  1
  O  O26  1  0.57136176  0.38061372  0.21345535  1
  O  O27  1  0.75000000  0.50267631  0.96552387  1
  O  O28  1  0.75000000  0.19716890  0.35778282  1
  O  O29  1  0.44585726  0.77971936  0.09599618  1
  O  O30  1  0.93085624  0.75125398  0.41303838  1
  O  O31  1  0.43085624  0.24874602  0.58696162  1
  O  O32  1  0.42863824  0.61938628  0.78654465  1
  O  O33  1  0.25000000  0.64586986  0.25216334  1
  O  O34  1  0.75000000  0.09809132  0.12616244  1
  O  O35  1  0.25000000  0.90190868  0.87383756  1
  O  O36  1  0.92863824  0.38061372  0.21345535  1
  O  O37  1  0.94585726  0.22028064  0.90400382  1
  O  O38  1  0.06914376  0.24874602  0.58696162  1
  O  O39  1  0.25000000  0.49732369  0.03447613  1
