# generated using pymatgen
data_Li5Ni3(SnO5)2
_symmetry_space_group_name_H-M   'P 1'
_cell_length_a   5.18683300
_cell_length_b   5.21494068
_cell_length_c   7.97763525
_cell_angle_alpha   108.09386137
_cell_angle_beta   101.22345354
_cell_angle_gamma   100.94108772
_symmetry_Int_Tables_number   1
_chemical_formula_structural   Li5Ni3(SnO5)2
_chemical_formula_sum   'Li5 Ni3 Sn2 O10'
_cell_volume   193.81133065
_cell_formula_units_Z   1
loop_
 _symmetry_equiv_pos_site_id
 _symmetry_equiv_pos_as_xyz
  1  'x, y, z'
loop_
 _atom_site_type_symbol
 _atom_site_label
 _atom_site_symmetry_multiplicity
 _atom_site_fract_x
 _atom_site_fract_y
 _atom_site_fract_z
 _atom_site_occupancy
  Li  Li0  1  0.22204476  0.90552962  0.39390378  1
  Li  Li1  1  0.41682990  0.29463205  0.79832801  1
  Li  Li2  1  0.50000000  0.50000000  0.50000000  1
  Li  Li3  1  0.58317010  0.70536795  0.20167199  1
  Li  Li4  1  0.77795524  0.09447038  0.60609622  1
  Ni  Ni5  1  0.00000000  0.50000000  0.00000000  1
  Ni  Ni6  1  0.70102720  0.89608273  0.90108294  1
  Ni  Ni7  1  0.29897280  0.10391727  0.09891706  1
  Sn  Sn8  1  0.10527028  0.70908034  0.69901655  1
  Sn  Sn9  1  0.89472972  0.29091966  0.30098345  1
  O  O10  1  0.05246990  0.09131492  0.85540688  1
  O  O11  1  0.33203292  0.70250315  0.94842473  1
  O  O12  1  0.13994430  0.31217630  0.54609333  1
  O  O13  1  0.22264437  0.48490195  0.22430393  1
  O  O14  1  0.45978897  0.89530017  0.66406946  1
  O  O15  1  0.54021103  0.10469983  0.33593054  1
  O  O16  1  0.77735563  0.51509805  0.77569607  1
  O  O17  1  0.86005570  0.68782370  0.45390667  1
  O  O18  1  0.66796708  0.29749685  0.05157527  1
  O  O19  1  0.94753010  0.90868508  0.14459312  1
