# generated using pymatgen
data_Li5V4(PO4)6
_symmetry_space_group_name_H-M   'P 1'
_cell_length_a   8.69277549
_cell_length_b   8.80156756
_cell_length_c   12.18576878
_cell_angle_alpha   90.00000000
_cell_angle_beta   90.11896937
_cell_angle_gamma   90.00000000
_symmetry_Int_Tables_number   1
_chemical_formula_structural   Li5V4(PO4)6
_chemical_formula_sum   'Li10 V8 P12 O48'
_cell_volume   932.33177747
_cell_formula_units_Z   2
loop_
 _symmetry_equiv_pos_site_id
 _symmetry_equiv_pos_as_xyz
  1  'x, y, z'
loop_
 _atom_site_type_symbol
 _atom_site_label
 _atom_site_symmetry_multiplicity
 _atom_site_fract_x
 _atom_site_fract_y
 _atom_site_fract_z
 _atom_site_occupancy
  Li  Li0  1  0.08835265  0.70411274  0.76700322  1
  Li  Li1  1  0.21737466  0.77236454  0.18129938  1
  Li  Li2  1  0.29311028  0.27370898  0.31747863  1
  Li  Li3  1  0.38910335  0.20850307  0.72289268  1
  Li  Li4  1  0.42455889  0.59236311  0.80119332  1
  Li  Li5  1  0.58835265  0.79588726  0.26700322  1
  Li  Li6  1  0.71737466  0.72763546  0.68129938  1
  Li  Li7  1  0.79311028  0.22629102  0.81747863  1
  Li  Li8  1  0.88910335  0.29149693  0.22289268  1
  Li  Li9  1  0.92455889  0.90763689  0.30119332  1
  V  V10  1  0.25552765  0.03094926  0.88603347  1
  V  V11  1  0.25501755  0.96149894  0.38950657  1
  V  V12  1  0.25086171  0.45917437  0.11405771  1
  V  V13  1  0.24415100  0.52949401  0.61149386  1
  V  V14  1  0.75552765  0.46905074  0.38603347  1
  V  V15  1  0.75501755  0.53850106  0.88950657  1
  V  V16  1  0.75086171  0.04082563  0.61405771  1
  V  V17  1  0.74415100  0.97050599  0.11149386  1
  P  P18  1  0.03615762  0.24909190  0.49512171  1
  P  P19  1  0.10718776  0.38635690  0.85686363  1
  P  P20  1  0.10934194  0.09916208  0.14635790  1
  P  P21  1  0.39465970  0.59911219  0.35324832  1
  P  P22  1  0.39676442  0.88522690  0.64957042  1
  P  P23  1  0.46178014  0.74999377  0.00643841  1
  P  P24  1  0.53615762  0.25090810  0.99512171  1
  P  P25  1  0.60718776  0.11364310  0.35686363  1
  P  P26  1  0.60934194  0.40083792  0.64635790  1
  P  P27  1  0.89465970  0.90088781  0.85324832  1
  P  P28  1  0.89676442  0.61477310  0.14957042  1
  P  P29  1  0.96178014  0.75000623  0.50643841  1
  O  O30  1  0.05341905  0.85848939  0.43051561  1
  O  O31  1  0.06172289  0.66775695  0.59239534  1
  O  O32  1  0.07602901  0.90158115  0.85066757  1
  O  O33  1  0.07284178  0.60040441  0.16366826  1
  O  O34  1  0.11872614  0.35325052  0.57622161  1
  O  O35  1  0.14192966  0.42182975  0.97597039  1
  O  O36  1  0.15662500  0.22169058  0.82506357  1
  O  O37  1  0.15608956  0.97557138  0.23230583  1
  O  O38  1  0.15798843  0.16729359  0.42338314  1
  O  O39  1  0.16156103  0.25853185  0.18381217  1
  O  O40  1  0.17478003  0.05322262  0.03438333  1
  O  O41  1  0.19555508  0.50484340  0.78293509  1
  O  O42  1  0.31951496  0.00345163  0.72889335  1
  O  O43  1  0.33270205  0.56000957  0.46500609  1
  O  O44  1  0.35364896  0.76457206  0.31650863  1
  O  O45  1  0.33648214  0.66644717  0.07064499  1
  O  O46  1  0.33508498  0.48186223  0.26951299  1
  O  O47  1  0.34936352  0.72095456  0.68200403  1
  O  O48  1  0.34631077  0.92333182  0.53321627  1
  O  O49  1  0.37811165  0.85837638  0.92433019  1
  O  O50  1  0.43180208  0.09650992  0.33523661  1
  O  O51  1  0.43082348  0.39623455  0.64787644  1
  O  O52  1  0.43482231  0.15850479  0.90985453  1
  O  O53  1  0.43801510  0.36259247  0.05943672  1
  O  O54  1  0.55341905  0.64151061  0.93051561  1
  O  O55  1  0.56172289  0.83224305  0.09239534  1
  O  O56  1  0.57602901  0.59841885  0.35066757  1
  O  O57  1  0.57284178  0.89959559  0.66366826  1
  O  O58  1  0.61872614  0.14674948  0.07622161  1
  O  O59  1  0.64192966  0.07817025  0.47597039  1
  O  O60  1  0.65662500  0.27830942  0.32506357  1
  O  O61  1  0.65608956  0.52442862  0.73230583  1
  O  O62  1  0.65798843  0.33270641  0.92338314  1
  O  O63  1  0.66156103  0.24146815  0.68381217  1
  O  O64  1  0.67478003  0.44677738  0.53438333  1
  O  O65  1  0.69555508  0.99515660  0.28293509  1
  O  O66  1  0.81951496  0.49654837  0.22889335  1
  O  O67  1  0.83270205  0.93999043  0.96500609  1
  O  O68  1  0.85364896  0.73542794  0.81650863  1
  O  O69  1  0.83648214  0.83355283  0.57064499  1
  O  O70  1  0.83508498  0.01813777  0.76951299  1
  O  O71  1  0.84936352  0.77904544  0.18200403  1
  O  O72  1  0.84631077  0.57666818  0.03321627  1
  O  O73  1  0.87811165  0.64162362  0.42433019  1
  O  O74  1  0.93180208  0.40349008  0.83523661  1
  O  O75  1  0.93082348  0.10376545  0.14787644  1
  O  O76  1  0.93482231  0.34149521  0.40985453  1
  O  O77  1  0.93801510  0.13740753  0.55943672  1
