# generated using pymatgen
data_Lu2(WO4)3
_symmetry_space_group_name_H-M   'P 1'
_cell_length_a   10.08906767
_cell_length_b   13.80250557
_cell_length_c   9.96935307
_cell_angle_alpha   90.00000000
_cell_angle_beta   90.00000000
_cell_angle_gamma   90.00000000
_symmetry_Int_Tables_number   1
_chemical_formula_structural   Lu2(WO4)3
_chemical_formula_sum   'Lu8 W12 O48'
_cell_volume   1388.27640687
_cell_formula_units_Z   4
loop_
 _symmetry_equiv_pos_site_id
 _symmetry_equiv_pos_as_xyz
  1  'x, y, z'
loop_
 _atom_site_type_symbol
 _atom_site_label
 _atom_site_symmetry_multiplicity
 _atom_site_fract_x
 _atom_site_fract_y
 _atom_site_fract_z
 _atom_site_occupancy
  Lu  Lu0  1  0.03909021  0.62168659  0.24880403  1
  Lu  Lu1  1  0.03909021  0.87831341  0.74880403  1
  Lu  Lu2  1  0.46090979  0.12168659  0.74880403  1
  Lu  Lu3  1  0.46090979  0.37831341  0.24880403  1
  Lu  Lu4  1  0.53909021  0.87831341  0.25119597  1
  Lu  Lu5  1  0.53909021  0.62168659  0.75119597  1
  Lu  Lu6  1  0.96090979  0.12168659  0.25119597  1
  Lu  Lu7  1  0.96090979  0.37831341  0.75119597  1
  W  W8  1  0.11365137  0.35560314  0.39823121  1
  W  W9  1  0.11365137  0.14439686  0.89823121  1
  W  W10  1  0.25000000  0.00000000  0.46660109  1
  W  W11  1  0.25000000  0.50000000  0.96660109  1
  W  W12  1  0.38634863  0.64439686  0.39823121  1
  W  W13  1  0.38634863  0.85560314  0.89823121  1
  W  W14  1  0.61365137  0.14439686  0.10176879  1
  W  W15  1  0.61365137  0.35560314  0.60176879  1
  W  W16  1  0.75000000  0.00000000  0.53339891  1
  W  W17  1  0.75000000  0.50000000  0.03339891  1
  W  W18  1  0.88634863  0.85560314  0.10176879  1
  W  W19  1  0.88634863  0.64439686  0.60176879  1
  O  O20  1  0.99755587  0.76719293  0.17460020  1
  O  O21  1  0.99755587  0.73280707  0.67460020  1
  O  O22  1  0.07548824  0.02539377  0.83192918  1
  O  O23  1  0.07548824  0.47460623  0.33192918  1
  O  O24  1  0.09322891  0.14647197  0.07878219  1
  O  O25  1  0.09322891  0.35352803  0.57878219  1
  O  O26  1  0.13024926  0.06314566  0.36319154  1
  O  O27  1  0.13024926  0.43685434  0.86319154  1
  O  O28  1  0.16525323  0.91387872  0.57346339  1
  O  O29  1  0.16525323  0.58612128  0.07346339  1
  O  O30  1  0.21640705  0.82585046  0.85630267  1
  O  O31  1  0.21640705  0.67414954  0.35630267  1
  O  O32  1  0.28359295  0.17414954  0.85630267  1
  O  O33  1  0.28359295  0.32585046  0.35630267  1
  O  O34  1  0.33474677  0.08612128  0.57346339  1
  O  O35  1  0.33474677  0.41387872  0.07346339  1
  O  O36  1  0.36975074  0.56314566  0.86319154  1
  O  O37  1  0.36975074  0.93685434  0.36319154  1
  O  O38  1  0.40677109  0.64647197  0.57878219  1
  O  O39  1  0.40677109  0.85352803  0.07878219  1
  O  O40  1  0.42451176  0.52539377  0.33192918  1
  O  O41  1  0.42451176  0.97460623  0.83192918  1
  O  O42  1  0.50244413  0.26719293  0.67460020  1
  O  O43  1  0.50244413  0.23280707  0.17460020  1
  O  O44  1  0.49755587  0.73280707  0.32539980  1
  O  O45  1  0.49755587  0.76719293  0.82539980  1
  O  O46  1  0.57548824  0.02539377  0.16807082  1
  O  O47  1  0.57548824  0.47460623  0.66807082  1
  O  O48  1  0.59322891  0.35352803  0.42121781  1
  O  O49  1  0.59322891  0.14647197  0.92121781  1
  O  O50  1  0.63024926  0.06314566  0.63680846  1
  O  O51  1  0.63024926  0.43685434  0.13680846  1
  O  O52  1  0.66525323  0.91387872  0.42653661  1
  O  O53  1  0.66525323  0.58612128  0.92653661  1
  O  O54  1  0.71640705  0.67414954  0.64369733  1
  O  O55  1  0.71640705  0.82585046  0.14369733  1
  O  O56  1  0.78359295  0.17414954  0.14369733  1
  O  O57  1  0.78359295  0.32585046  0.64369733  1
  O  O58  1  0.83474677  0.41387872  0.92653661  1
  O  O59  1  0.83474677  0.08612128  0.42653661  1
  O  O60  1  0.86975074  0.93685434  0.63680846  1
  O  O61  1  0.86975074  0.56314566  0.13680846  1
  O  O62  1  0.90677109  0.85352803  0.92121781  1
  O  O63  1  0.90677109  0.64647197  0.42121781  1
  O  O64  1  0.92451176  0.97460623  0.16807082  1
  O  O65  1  0.92451176  0.52539377  0.66807082  1
  O  O66  1  0.00244413  0.23280707  0.82539980  1
  O  O67  1  0.00244413  0.26719293  0.32539980  1
