# generated using pymatgen
data_Li24Ti7Cr5O36
_symmetry_space_group_name_H-M   'P 1'
_cell_length_a   5.06417984
_cell_length_b   13.43608650
_cell_length_c   9.81643836
_cell_angle_alpha   97.30500107
_cell_angle_beta   94.74427339
_cell_angle_gamma   100.76394467
_symmetry_Int_Tables_number   1
_chemical_formula_structural   Li24Ti7Cr5O36
_chemical_formula_sum   'Li24 Ti7 Cr5 O36'
_cell_volume   646.96335456
_cell_formula_units_Z   1
loop_
 _symmetry_equiv_pos_site_id
 _symmetry_equiv_pos_as_xyz
  1  'x, y, z'
loop_
 _atom_site_type_symbol
 _atom_site_label
 _atom_site_symmetry_multiplicity
 _atom_site_fract_x
 _atom_site_fract_y
 _atom_site_fract_z
 _atom_site_occupancy
  Li  Li0  1  0.83600922  0.16560547  0.00145512  1
  Li  Li1  1  0.95182541  0.38912326  0.00154129  1
  Li  Li2  1  0.00007199  0.74950439  0.25027540  1
  Li  Li3  1  0.66541285  0.08369772  0.25049685  1
  Li  Li4  1  0.95092596  0.88670053  0.50104227  1
  Li  Li5  1  0.61604555  0.22021290  0.50066737  1
  Li  Li6  1  0.83171508  0.66647615  0.49992062  1
  Li  Li7  1  0.49738564  0.00049530  0.50083279  1
  Li  Li8  1  0.71295066  0.44712843  0.50033871  1
  Li  Li9  1  0.66848289  0.58305482  0.75052863  1
  Li  Li10  1  0.50566802  0.49830602  0.99863673  1
  Li  Li11  1  0.71171561  0.94468764  0.99845615  1
  Li  Li12  1  0.37569289  0.27942823  0.99909451  1
  Li  Li13  1  0.61922738  0.72107070  0.99715266  1
  Li  Li14  1  0.28923436  0.05488816  0.00026589  1
  Li  Li15  1  0.33306407  0.41634135  0.24931562  1
  Li  Li16  1  0.28207695  0.55280517  0.49931350  1
  Li  Li17  1  0.17385345  0.33271526  0.49896060  1
  Li  Li18  1  0.38771935  0.78165914  0.50174843  1
  Li  Li19  1  0.04960157  0.11195290  0.49807738  1
  Li  Li20  1  0.33452376  0.91761866  0.74963409  1
  Li  Li21  1  0.16168652  0.83382016  -0.00003566  1
  Li  Li22  1  0.00013578  0.24993439  0.75008019  1
  Li  Li23  1  0.04886392  0.61291129  0.00221962  1
  Ti  Ti24  1  0.88286609  0.02642274  0.74428274  1
  Ti  Ti25  1  0.77419428  0.30668864  0.24659556  1
  Ti  Ti26  1  0.55746182  0.85961573  0.24840816  1
  Ti  Ti27  1  0.44398894  0.63621895  0.25033460  1
  Ti  Ti28  1  0.22384675  0.69430512  0.75202269  1
  Ti  Ti29  1  0.11207170  0.47237781  0.75243355  1
  Ti  Ti30  1  0.11464809  0.97400433  0.25327947  1
  Cr  Cr31  1  0.89256319  0.52823048  0.25113222  1
  Cr  Cr32  1  0.78175256  0.80669933  0.75012051  1
  Cr  Cr33  1  0.56185990  0.35911407  0.75065523  1
  Cr  Cr34  1  0.43697746  0.14069382  0.75003613  1
  Cr  Cr35  1  0.21788699  0.19419688  0.24990774  1
  O  O36  1  0.00098498  0.07471464  0.13787774  1
  O  O37  1  0.93884203  0.21544724  0.36433157  1
  O  O38  1  0.00282401  0.57124270  0.63636732  1
  O  O39  1  0.84842690  0.35520941  0.63673678  1
  O  O40  1  0.73401859  0.11922049  0.63616639  1
  O  O41  1  0.66558358  0.40590895  0.13779038  1
  O  O42  1  0.93179879  0.71412165  0.86554707  1
  O  O43  1  0.81306477  0.47699496  0.86341899  1
  O  O44  1  0.59691879  0.05074065  0.86478457  1
  O  O45  1  0.85632841  0.85683583  0.13664134  1
  O  O46  1  0.74112816  0.61573349  0.13648648  1
  O  O47  1  0.51932794  0.19028180  0.13831558  1
  O  O48  1  0.66817893  0.26593377  0.86126259  1
  O  O49  1  0.81050574  0.97765760  0.36325474  1
  O  O50  1  0.59333343  0.54730175  0.36596264  1
  O  O51  1  0.47330246  0.30857390  0.36232632  1
  O  O52  1  0.66746070  0.76184909  0.36306617  1
  O  O53  1  0.33845129  0.09559278  0.36309658  1
  O  O54  1  0.66204372  0.90512438  0.63574470  1
  O  O55  1  0.33092343  0.23421958  0.63940046  1
  O  O56  1  0.52675836  0.69144581  0.63840488  1
  O  O57  1  0.40409979  0.44936310  0.63589003  1
  O  O58  1  0.18666271  0.02282444  0.63629437  1
  O  O59  1  0.33210250  0.73677136  0.13647048  1
  O  O60  1  0.48127750  0.81152980  0.86101416  1
  O  O61  1  0.26521603  0.38020377  0.86357275  1
  O  O62  1  0.15176835  0.14353030  0.86300188  1
  O  O63  1  0.40309194  0.95198937  0.13407074  1
  O  O64  1  0.19029185  0.52214496  0.13690775  1
  O  O65  1  0.06693922  0.28570059  0.13393741  1
  O  O66  1  0.33457951  0.59573694  0.86472167  1
  O  O67  1  0.26284487  0.88202076  0.36554601  1
  O  O68  1  0.13802003  0.64177472  0.36202305  1
  O  O69  1  -0.00066858  0.43103479  0.36223638  1
  O  O70  1  0.06297161  0.78654590  0.63607697  1
  O  O71  1  0.99659202  0.92597575  0.86202772  1
