# generated using pymatgen
data_RbLi2Fe2(BO3)3
_symmetry_space_group_name_H-M   'P 1'
_cell_length_a   6.44630363
_cell_length_b   5.08282063
_cell_length_c   13.05877990
_cell_angle_alpha   90.00000000
_cell_angle_beta   91.39095144
_cell_angle_gamma   90.00000000
_symmetry_Int_Tables_number   1
_chemical_formula_structural   RbLi2Fe2(BO3)3
_chemical_formula_sum   'Rb2 Li4 Fe4 B6 O18'
_cell_volume   427.75013326
_cell_formula_units_Z   2
loop_
 _symmetry_equiv_pos_site_id
 _symmetry_equiv_pos_as_xyz
  1  'x, y, z'
loop_
 _atom_site_type_symbol
 _atom_site_label
 _atom_site_symmetry_multiplicity
 _atom_site_fract_x
 _atom_site_fract_y
 _atom_site_fract_z
 _atom_site_occupancy
  Rb  Rb0  1  0.00000000  0.20829161  0.75000000  1
  Rb  Rb1  1  0.00000000  0.79170839  0.25000000  1
  Li  Li2  1  0.49742425  0.17232959  0.86538926  1
  Li  Li3  1  0.50257575  0.17232959  0.63461074  1
  Li  Li4  1  0.49742425  0.82767041  0.36538926  1
  Li  Li5  1  0.50257575  0.82767041  0.13461074  1
  Fe  Fe6  1  0.23428847  0.68432540  0.56331917  1
  Fe  Fe7  1  0.23428847  0.31567460  0.06331917  1
  Fe  Fe8  1  0.76571153  0.68432540  0.93668083  1
  Fe  Fe9  1  0.76571153  0.31567460  0.43668083  1
  B  B10  1  0.19659954  0.81781163  0.95766205  1
  B  B11  1  0.19659954  0.18218837  0.45766205  1
  B  B12  1  0.50000000  0.66723315  0.75000000  1
  B  B13  1  0.50000000  0.33276685  0.25000000  1
  B  B14  1  0.80340046  0.81781163  0.54233795  1
  B  B15  1  0.80340046  0.18218837  0.04233795  1
  O  O16  1  0.04602754  0.70316864  0.89496327  1
  O  O17  1  0.04602754  0.29683136  0.39496327  1
  O  O18  1  0.24257522  0.08516818  0.94737237  1
  O  O19  1  0.24257522  0.91483182  0.44737237  1
  O  O20  1  0.30037219  0.32590882  0.53306682  1
  O  O21  1  0.30037219  0.67409118  0.03306682  1
  O  O22  1  0.40252680  0.81839836  0.67200900  1
  O  O23  1  0.40252680  0.18160164  0.17200900  1
  O  O24  1  0.50000000  0.40176426  0.75000000  1
  O  O25  1  0.50000000  0.59823574  0.25000000  1
  O  O26  1  0.59747320  0.81839836  0.82799100  1
  O  O27  1  0.59747320  0.18160164  0.32799100  1
  O  O28  1  0.69962781  0.32590882  0.96693318  1
  O  O29  1  0.69962781  0.67409118  0.46693318  1
  O  O30  1  0.75742478  0.08516818  0.55262763  1
  O  O31  1  0.75742478  0.91483182  0.05262763  1
  O  O32  1  0.95397246  0.70316864  0.60503673  1
  O  O33  1  0.95397246  0.29683136  0.10503673  1
