# generated using pymatgen
data_Ba3LaI9
_symmetry_space_group_name_H-M   'P 1'
_cell_length_a   8.69131711
_cell_length_b   33.89918305
_cell_length_c   8.08942939
_cell_angle_alpha   90.00000000
_cell_angle_beta   90.00000000
_cell_angle_gamma   92.08353497
_symmetry_Int_Tables_number   1
_chemical_formula_structural   Ba3LaI9
_chemical_formula_sum   'Ba12 La4 I36'
_cell_volume   2381.80115614
_cell_formula_units_Z   4
loop_
 _symmetry_equiv_pos_site_id
 _symmetry_equiv_pos_as_xyz
  1  'x, y, z'
loop_
 _atom_site_type_symbol
 _atom_site_label
 _atom_site_symmetry_multiplicity
 _atom_site_fract_x
 _atom_site_fract_y
 _atom_site_fract_z
 _atom_site_occupancy
  Ba  Ba0  1  0.32110553  0.93300237  0.96980089  1
  Ba  Ba1  1  0.29368175  0.69205913  0.00259538  1
  Ba  Ba2  1  0.32110553  0.43300237  0.03019911  1
  Ba  Ba3  1  0.29368175  0.19205913  0.99740462  1
  Ba  Ba4  1  0.68328284  0.57015524  0.98554854  1
  Ba  Ba5  1  0.71566119  0.80838670  0.98219911  1
  Ba  Ba6  1  0.68328284  0.07015524  0.01445146  1
  Ba  Ba7  1  0.71566119  0.30838670  0.01780089  1
  Ba  Ba8  1  0.78453732  0.69215588  0.52652643  1
  Ba  Ba9  1  0.82151256  0.93074011  0.51747789  1
  Ba  Ba10  1  0.78453732  0.19215588  0.47347357  1
  Ba  Ba11  1  0.82151256  0.43074011  0.48252211  1
  La  La12  1  0.20216333  0.80651963  0.52016617  1
  La  La13  1  0.17852644  0.56718133  0.54614963  1
  La  La14  1  0.20216333  0.30651963  0.47983383  1
  La  La15  1  0.17852644  0.06718133  0.45385037  1
  I  I16  1  0.02167417  0.86849100  0.79706837  1
  I  I17  1  0.01621228  0.75255702  0.81601829  1
  I  I18  1  0.00720631  0.62740670  0.81221840  1
  I  I19  1  0.02167417  0.36849100  0.20293163  1
  I  I20  1  0.01621228  0.25255702  0.18398171  1
  I  I21  1  0.10943832  0.99368158  0.70247531  1
  I  I22  1  0.00720631  0.12740670  0.18778160  1
  I  I23  1  0.15359134  0.89241995  0.33330473  1
  I  I24  1  0.10943832  0.49368158  0.29752469  1
  I  I25  1  0.15853708  0.70767374  0.39927488  1
  I  I26  1  0.15359134  0.39241995  0.66669527  1
  I  I27  1  0.15853708  0.20767374  0.60072512  1
  I  I28  1  0.35396747  0.79598002  0.16229846  1
  I  I29  1  0.34940900  0.59924232  0.21099802  1
  I  I30  1  0.35396747  0.29598002  0.83770154  1
  I  I31  1  0.34940900  0.09924232  0.78900198  1
  I  I32  1  0.41186297  0.51110613  0.74302979  1
  I  I33  1  0.49163399  0.86690047  0.67702246  1
  I  I34  1  0.48552688  0.75217443  0.69051965  1
  I  I35  1  0.47268179  0.62785783  0.69708813  1
  I  I36  1  0.41186297  0.01110613  0.25697021  1
  I  I37  1  0.49163399  0.36690047  0.32297754  1
  I  I38  1  0.48552688  0.25217443  0.30948035  1
  I  I39  1  0.47268179  0.12785783  0.30291187  1
  I  I40  1  0.60208114  0.99024415  0.76213213  1
  I  I41  1  0.60208114  0.49024415  0.23786787  1
  I  I42  1  0.65626644  0.90076652  0.15075963  1
  I  I43  1  0.67784841  0.69872139  0.11143999  1
  I  I44  1  0.65626644  0.40076652  0.84924037  1
  I  I45  1  0.67784841  0.19872139  0.88856001  1
  I  I46  1  0.85234263  0.79750264  0.39280105  1
  I  I47  1  0.87579854  0.59856657  0.35591868  1
  I  I48  1  0.85234263  0.29750264  0.60719895  1
  I  I49  1  0.87579854  0.09856657  0.64408132  1
  I  I50  1  0.93418328  0.51031813  0.75533428  1
  I  I51  1  0.93418328  0.01031813  0.24466572  1
