# generated using pymatgen
data_CaLaCrCoO6
_symmetry_space_group_name_H-M   'P 1'
_cell_length_a   5.47474655
_cell_length_b   5.52243432
_cell_length_c   7.75430378
_cell_angle_alpha   90.00000000
_cell_angle_beta   90.27448300
_cell_angle_gamma   90.00000000
_symmetry_Int_Tables_number   1
_chemical_formula_structural   CaLaCrCoO6
_chemical_formula_sum   'Ca2 La2 Cr2 Co2 O12'
_cell_volume   234.44037375
_cell_formula_units_Z   2
loop_
 _symmetry_equiv_pos_site_id
 _symmetry_equiv_pos_as_xyz
  1  'x, y, z'
loop_
 _atom_site_type_symbol
 _atom_site_label
 _atom_site_symmetry_multiplicity
 _atom_site_fract_x
 _atom_site_fract_y
 _atom_site_fract_z
 _atom_site_occupancy
  Ca  Ca0  1  0.49061490  0.45753878  0.75000437  1
  Ca  Ca1  1  0.99061490  0.04246122  0.25000437  1
  La  La2  1  0.00659332  0.96721037  0.74980700  1
  La  La3  1  0.50659332  0.53278963  0.24980700  1
  Cr  Cr4  1  0.50024606  0.00029907  0.49959097  1
  Cr  Cr5  1  0.00024606  0.49970093  0.99959097  1
  Co  Co6  1  0.50020163  0.99958048  0.00086419  1
  Co  Co7  1  0.00020163  0.50041952  0.50086419  1
  O  O8  1  0.07102250  0.48180341  0.25343718  1
  O  O9  1  0.21957243  0.21223586  0.96260158  1
  O  O10  1  0.21288068  0.21877168  0.53935586  1
  O  O11  1  0.29336318  0.71380996  0.95729925  1
  O  O12  1  0.28524913  0.70822264  0.54097775  1
  O  O13  1  0.42025317  0.98491171  0.24606185  1
  O  O14  1  0.57102250  0.01819659  0.75343718  1
  O  O15  1  0.71957243  0.28776414  0.46260158  1
  O  O16  1  0.71288068  0.28122832  0.03935586  1
  O  O17  1  0.79336318  0.78619004  0.45729925  1
  O  O18  1  0.78524913  0.79177736  0.04097775  1
  O  O19  1  0.92025317  0.51508829  0.74606185  1
