# generated using pymatgen
data_Li3Ti6Zn3O16
_symmetry_space_group_name_H-M   'P 1'
_cell_length_a   8.47176148
_cell_length_b   8.47411959
_cell_length_c   8.47041268
_cell_angle_alpha   89.99665334
_cell_angle_beta   89.98387373
_cell_angle_gamma   89.92916686
_symmetry_Int_Tables_number   1
_chemical_formula_structural   Li3Ti6Zn3O16
_chemical_formula_sum   'Li6 Ti12 Zn6 O32'
_cell_volume   608.09653467
_cell_formula_units_Z   2
loop_
 _symmetry_equiv_pos_site_id
 _symmetry_equiv_pos_as_xyz
  1  'x, y, z'
loop_
 _atom_site_type_symbol
 _atom_site_label
 _atom_site_symmetry_multiplicity
 _atom_site_fract_x
 _atom_site_fract_y
 _atom_site_fract_z
 _atom_site_occupancy
  Li  Li0  1  0.12471693  0.87554665  0.37504026  1
  Li  Li1  1  0.37531557  0.12455196  0.87498367  1
  Li  Li2  1  0.50198013  0.00180238  0.49791522  1
  Li  Li3  1  0.62485097  0.62508357  0.62472440  1
  Li  Li4  1  0.87511258  0.37481385  0.12481591  1
  Li  Li5  1  0.99802291  0.99821384  0.99794476  1
  Ti  Ti6  1  0.11917673  0.62781150  0.13043649  1
  Ti  Ti7  1  0.12393019  0.36448431  0.88112174  1
  Ti  Ti8  1  0.13494873  0.11682961  0.62678549  1
  Ti  Ti9  1  0.36502001  0.88326822  0.12699271  1
  Ti  Ti10  1  0.37630565  0.63548544  0.38122685  1
  Ti  Ti11  1  0.38078126  0.37208315  0.63037185  1
  Ti  Ti12  1  0.62179053  0.87651659  0.86633367  1
  Ti  Ti13  1  0.62966043  0.12957520  0.12215551  1
  Ti  Ti14  1  0.63031267  0.37720455  0.37524643  1
  Ti  Ti15  1  0.86960427  0.62275878  0.87500258  1
  Ti  Ti16  1  0.87041203  0.87050040  0.62215400  1
  Ti  Ti17  1  0.87816693  0.12361785  0.36643779  1
  Zn  Zn18  1  0.00095832  0.49861972  0.50088041  1
  Zn  Zn19  1  0.24942310  0.74932047  0.75214348  1
  Zn  Zn20  1  0.25054953  0.25072400  0.25208735  1
  Zn  Zn21  1  0.49896728  0.50130485  0.00095233  1
  Zn  Zn22  1  0.74778608  0.75226262  0.24926112  1
  Zn  Zn23  1  0.75225608  0.24779005  0.74932429  1
  O  O24  1  0.10677606  0.12761760  0.39098107  1
  O  O25  1  0.11109780  0.89285039  0.62719200  1
  O  O26  1  0.11316765  0.61297852  0.88706827  1
  O  O27  1  0.12327025  0.14445825  0.85732168  1
  O  O28  1  0.12799340  0.38994160  0.10741773  1
  O  O29  1  0.13654719  0.36379374  0.63724454  1
  O  O30  1  0.13951685  0.62192941  0.35772639  1
  O  O31  1  0.14495697  0.85771672  0.12303235  1
  O  O32  1  0.35508965  0.14232254  0.62300687  1
  O  O33  1  0.36054108  0.37813566  0.85774013  1
  O  O34  1  0.36341733  0.63624397  0.13732036  1
  O  O35  1  0.37198393  0.61004033  0.60745469  1
  O  O36  1  0.37675055  0.85542426  0.35731498  1
  O  O37  1  0.38673551  0.38700458  0.38702399  1
  O  O38  1  0.38895776  0.10716478  0.12716339  1
  O  O39  1  0.39319394  0.87236464  0.89094820  1
  O  O40  1  0.60806772  0.37241884  0.61151877  1
  O  O41  1  0.61017636  0.60721485  0.37249468  1
  O  O42  1  0.61213749  0.88759907  0.11243278  1
  O  O43  1  0.62261768  0.35785343  0.13876860  1
  O  O44  1  0.62646045  0.11093638  0.89240335  1
  O  O45  1  0.63907556  0.13885454  0.36166092  1
  O  O46  1  0.64192318  0.87637315  0.64414914  1
  O  O47  1  0.64205128  0.63844197  0.87655330  1
  O  O48  1  0.85793098  0.36161111  0.37655351  1
  O  O49  1  0.85815429  0.12368308  0.14410365  1
  O  O50  1  0.86077343  0.86110886  0.86161808  1
  O  O51  1  0.87353641  0.88904007  0.39234526  1
  O  O52  1  0.87740872  0.64214942  0.63869776  1
  O  O53  1  0.88792462  0.11246299  0.61243404  1
  O  O54  1  0.88987000  0.39276023  0.87252650  1
  O  O55  1  0.89205102  0.62753544  0.11144269  1
