# generated using pymatgen
data_Na3CrBPO7
_symmetry_space_group_name_H-M   'P 1'
_cell_length_a   8.95760666
_cell_length_b   6.56812971
_cell_length_c   5.26059435
_cell_angle_alpha   90.00000000
_cell_angle_beta   88.35334599
_cell_angle_gamma   90.00000000
_symmetry_Int_Tables_number   1
_chemical_formula_structural   Na3CrBPO7
_chemical_formula_sum   'Na6 Cr2 B2 P2 O14'
_cell_volume   309.37779759
_cell_formula_units_Z   2
loop_
 _symmetry_equiv_pos_site_id
 _symmetry_equiv_pos_as_xyz
  1  'x, y, z'
loop_
 _atom_site_type_symbol
 _atom_site_label
 _atom_site_symmetry_multiplicity
 _atom_site_fract_x
 _atom_site_fract_y
 _atom_site_fract_z
 _atom_site_occupancy
  Na  Na0  1  0.07360888  0.25000000  0.75843121  1
  Na  Na1  1  0.25419792  0.00338419  0.25106421  1
  Na  Na2  1  0.25419792  0.49661581  0.25106421  1
  Na  Na3  1  0.74580208  0.50338419  0.74893579  1
  Na  Na4  1  0.74580208  0.99661581  0.74893579  1
  Na  Na5  1  0.92639112  0.75000000  0.24156879  1
  Cr  Cr6  1  0.33654534  0.75000000  0.78036291  1
  Cr  Cr7  1  0.66345466  0.25000000  0.21963709  1
  B  B8  1  0.06757491  0.75000000  0.73204304  1
  B  B9  1  0.93242509  0.25000000  0.26795696  1
  P  P10  1  0.42239008  0.25000000  0.71448505  1
  P  P11  1  0.57760992  0.75000000  0.28551495  1
  O  O12  1  0.08085272  0.25000000  0.29670536  1
  O  O13  1  0.13834762  0.75000000  0.96735094  1
  O  O14  1  0.17431639  0.75000000  0.53021429  1
  O  O15  1  0.32217732  0.06299599  0.78137654  1
  O  O16  1  0.32217732  0.43700401  0.78137654  1
  O  O17  1  0.46302199  0.25000000  0.42390154  1
  O  O18  1  0.43349348  0.75000000  0.13240262  1
  O  O19  1  0.56650652  0.25000000  0.86759738  1
  O  O20  1  0.53697801  0.75000000  0.57609846  1
  O  O21  1  0.67782268  0.56299599  0.21862346  1
  O  O22  1  0.67782268  0.93700401  0.21862346  1
  O  O23  1  0.82568361  0.25000000  0.46978571  1
  O  O24  1  0.86165238  0.25000000  0.03264906  1
  O  O25  1  0.91914728  0.75000000  0.70329464  1
