# generated using pymatgen
data_Gd2W2O9
_symmetry_space_group_name_H-M   'P 1'
_cell_length_a   7.71717115
_cell_length_b   9.82959932
_cell_length_c   9.28450062
_cell_angle_alpha   90.00000000
_cell_angle_beta   108.14753038
_cell_angle_gamma   90.00000000
_symmetry_Int_Tables_number   1
_chemical_formula_structural   Gd2W2O9
_chemical_formula_sum   'Gd8 W8 O36'
_cell_volume   669.25848308
_cell_formula_units_Z   4
loop_
 _symmetry_equiv_pos_site_id
 _symmetry_equiv_pos_as_xyz
  1  'x, y, z'
loop_
 _atom_site_type_symbol
 _atom_site_label
 _atom_site_symmetry_multiplicity
 _atom_site_fract_x
 _atom_site_fract_y
 _atom_site_fract_z
 _atom_site_occupancy
  Gd  Gd0  1  0.22688841  0.94404536  0.65436284  1
  Gd  Gd1  1  0.28891753  0.54998883  0.57092257  1
  Gd  Gd2  1  0.22688841  0.55595464  0.15436284  1
  Gd  Gd3  1  0.28891753  0.95001117  0.07092257  1
  Gd  Gd4  1  0.71108247  0.04998883  0.92907743  1
  Gd  Gd5  1  0.77311159  0.44404536  0.84563716  1
  Gd  Gd6  1  0.71108247  0.45001117  0.42907743  1
  Gd  Gd7  1  0.77311159  0.05595464  0.34563716  1
  W  W8  1  0.07094674  0.25147699  0.73724234  1
  W  W9  1  0.07094674  0.24852301  0.23724234  1
  W  W10  1  0.57441029  0.72751541  0.96390836  1
  W  W11  1  0.42558971  0.22751541  0.53609164  1
  W  W12  1  0.57441029  0.77248459  0.46390836  1
  W  W13  1  0.42558971  0.27248459  0.03609164  1
  W  W14  1  0.92905326  0.75147699  0.76275766  1
  W  W15  1  0.92905326  0.74852301  0.26275766  1
  O  O16  1  0.00590543  0.61595721  0.90629302  1
  O  O17  1  0.05686964  0.91134658  0.84934333  1
  O  O18  1  0.10456012  0.71831806  0.66438271  1
  O  O19  1  0.00590543  0.88404279  0.40629302  1
  O  O20  1  0.05686964  0.58865342  0.34934333  1
  O  O21  1  0.22705875  0.38149584  0.91976294  1
  O  O22  1  0.26831022  0.13515221  0.86100444  1
  O  O23  1  0.10456012  0.78168194  0.16438271  1
  O  O24  1  0.25855959  0.31791220  0.63899810  1
  O  O25  1  0.22705875  0.11850416  0.41976294  1
  O  O26  1  0.44122138  0.89704683  0.89078814  1
  O  O27  1  0.26831022  0.36484779  0.36100444  1
  O  O28  1  0.49597035  0.59384567  0.81807495  1
  O  O29  1  0.25855959  0.18208780  0.13899810  1
  O  O30  1  0.40329826  0.79551714  0.56702437  1
  O  O31  1  0.59670174  0.29551714  0.93297563  1
  O  O32  1  0.50402965  0.09384567  0.68192505  1
  O  O33  1  0.44122138  0.60295317  0.39078814  1
  O  O34  1  0.55877862  0.39704683  0.60921186  1
  O  O35  1  0.49597035  0.90615433  0.31807495  1
  O  O36  1  0.40329826  0.70448286  0.06702437  1
  O  O37  1  0.59670174  0.20448286  0.43297563  1
  O  O38  1  0.74144041  0.81791220  0.86100190  1
  O  O39  1  0.50402965  0.40615433  0.18192505  1
  O  O40  1  0.73168978  0.63515221  0.63899556  1
  O  O41  1  0.55877862  0.10295317  0.10921186  1
  O  O42  1  0.77294125  0.88149584  0.58023706  1
  O  O43  1  0.74144041  0.68208780  0.36100190  1
  O  O44  1  0.89543988  0.21831806  0.83561729  1
  O  O45  1  0.73168978  0.86484779  0.13899556  1
  O  O46  1  0.77294125  0.61850416  0.08023706  1
  O  O47  1  0.94313036  0.41134658  0.65065667  1
  O  O48  1  0.99409457  0.11595721  0.59370698  1
  O  O49  1  0.89543988  0.28168194  0.33561729  1
  O  O50  1  0.94313036  0.08865342  0.15065667  1
  O  O51  1  0.99409457  0.38404279  0.09370698  1
