# generated using pymatgen
data_Li4Ti3Nb2Ni3O16
_symmetry_space_group_name_H-M   'P 1'
_cell_length_a   5.97154081
_cell_length_b   5.96437666
_cell_length_c   9.78159480
_cell_angle_alpha   89.99927159
_cell_angle_beta   89.92316876
_cell_angle_gamma   119.96036966
_symmetry_Int_Tables_number   1
_chemical_formula_structural   Li4Ti3Nb2Ni3O16
_chemical_formula_sum   'Li4 Ti3 Nb2 Ni3 O16'
_cell_volume   301.83148118
_cell_formula_units_Z   1
loop_
 _symmetry_equiv_pos_site_id
 _symmetry_equiv_pos_as_xyz
  1  'x, y, z'
loop_
 _atom_site_type_symbol
 _atom_site_label
 _atom_site_symmetry_multiplicity
 _atom_site_fract_x
 _atom_site_fract_y
 _atom_site_fract_z
 _atom_site_occupancy
  Li  Li0  1  0.33230800  0.66615916  0.90048939  1
  Li  Li1  1  0.99408342  0.99706239  0.98580359  1
  Li  Li2  1  0.00072040  0.00037152  0.49610146  1
  Li  Li3  1  0.66489916  0.33246059  0.40660787  1
  Ti  Ti4  1  0.18767346  0.84199023  0.21990983  1
  Ti  Ti5  1  0.18768728  0.34571488  0.21990592  1
  Ti  Ti6  1  0.35686310  0.17842941  0.73224409  1
  Nb  Nb7  1  0.33465928  0.66733805  0.50121510  1
  Nb  Nb8  1  0.70340024  0.35171935  0.98763971  1
  Ni  Ni9  1  0.66101491  0.83052643  0.20945407  1
  Ni  Ni10  1  0.82793291  0.66035755  0.70968201  1
  Ni  Ni11  1  0.82794123  0.16759406  0.70968367  1
  O  O12  1  0.17328343  0.83461570  0.59004314  1
  O  O13  1  0.03463022  0.51732555  0.33282789  1
  O  O14  1  0.30828529  0.65416066  0.10540444  1
  O  O15  1  0.00770022  0.00386280  0.30599364  1
  O  O16  1  0.01210606  0.00605576  0.79897605  1
  O  O17  1  0.17328326  0.33867895  0.59004277  1
  O  O18  1  0.46789458  0.96312833  0.33834483  1
  O  O19  1  0.46789993  0.50479442  0.33834417  1
  O  O20  1  0.32876407  0.16440038  0.10175604  1
  O  O21  1  0.66348017  0.83174282  0.58584068  1
  O  O22  1  0.50266090  0.47076025  0.84861473  1
  O  O23  1  0.50267227  0.03191571  0.84861801  1
  O  O24  1  0.64174279  0.32087676  0.60700927  1
  O  O25  1  0.83640654  0.66770155  0.09410903  1
  O  O26  1  0.96360211  0.48181634  0.84906774  1
  O  O27  1  0.83640578  0.16873942  0.09410887  1
