# generated using pymatgen
data_Li7Fe5O12
_symmetry_space_group_name_H-M   'P 1'
_cell_length_a   5.10713081
_cell_length_b   5.10713137
_cell_length_c   9.66784870
_cell_angle_alpha   85.54020786
_cell_angle_beta   94.45979645
_cell_angle_gamma   61.78974338
_symmetry_Int_Tables_number   1
_chemical_formula_structural   Li7Fe5O12
_chemical_formula_sum   'Li7 Fe5 O12'
_cell_volume   219.64913934
_cell_formula_units_Z   1
loop_
 _symmetry_equiv_pos_site_id
 _symmetry_equiv_pos_as_xyz
  1  'x, y, z'
loop_
 _atom_site_type_symbol
 _atom_site_label
 _atom_site_symmetry_multiplicity
 _atom_site_fract_x
 _atom_site_fract_y
 _atom_site_fract_z
 _atom_site_occupancy
  Li  Li0  1  0.25148047  0.25148047  0.75000000  1
  Li  Li1  1  0.17176982  0.65605011  0.50799055  1
  Li  Li2  1  0.33294098  0.84069740  0.99420442  1
  Li  Li3  1  0.65605011  0.17176982  0.99200945  1
  Li  Li4  1  0.84069740  0.33294098  0.50579558  1
  Li  Li5  1  0.74608092  0.74608092  0.25000000  1
  Li  Li6  1  0.92296214  0.92296214  0.75000000  1
  Fe  Fe7  1  0.07803823  0.07803823  0.25000000  1
  Fe  Fe8  1  0.00002552  0.51176464  0.99187011  1
  Fe  Fe9  1  0.51176464  0.00002552  0.50812989  1
  Fe  Fe10  1  0.42067279  0.42067279  0.25000000  1
  Fe  Fe11  1  0.57887374  0.57887374  0.75000000  1
  O  O12  1  0.92504447  0.25395941  0.86624292  1
  O  O13  1  0.25395941  0.92504447  0.63375708  1
  O  O14  1  0.15713402  0.33999108  0.37949719  1
  O  O15  1  0.33999108  0.15713402  0.12050281  1
  O  O16  1  0.29057910  0.54696134  0.87244768  1
  O  O17  1  0.54696134  0.29057910  0.62755232  1
  O  O18  1  0.43542303  0.72944093  0.36691361  1
  O  O19  1  0.72944093  0.43542303  0.13308639  1
  O  O20  1  0.63985285  0.83907660  0.87698369  1
  O  O21  1  0.83907660  0.63985285  0.62301631  1
  O  O22  1  0.77273478  0.05844664  0.37072078  1
  O  O23  1  0.05844664  0.77273478  0.12927922  1
