# generated using pymatgen
data_Li3Ni5O8
_symmetry_space_group_name_H-M   'P 1'
_cell_length_a   5.84059919
_cell_length_b   5.84059924
_cell_length_c   5.85781700
_cell_angle_alpha   90.00000534
_cell_angle_beta   60.09718338
_cell_angle_gamma   60.00000269
_symmetry_Int_Tables_number   1
_chemical_formula_structural   Li3Ni5O8
_chemical_formula_sum   'Li3 Ni5 O8'
_cell_volume   141.50506932
_cell_formula_units_Z   1
loop_
 _symmetry_equiv_pos_site_id
 _symmetry_equiv_pos_as_xyz
  1  'x, y, z'
loop_
 _atom_site_type_symbol
 _atom_site_label
 _atom_site_symmetry_multiplicity
 _atom_site_fract_x
 _atom_site_fract_y
 _atom_site_fract_z
 _atom_site_occupancy
  Li  Li0  1  0.00000000  0.00000000  0.50000000  1
  Li  Li1  1  0.50000000  0.00000000  0.50000000  1
  Li  Li2  1  0.50000000  0.50000000  0.50000000  1
  Ni  Ni3  1  0.00000000  0.50000000  0.50000000  1
  Ni  Ni4  1  0.00000000  0.00000000  0.00000000  1
  Ni  Ni5  1  0.50000000  0.00000000  0.00000000  1
  Ni  Ni6  1  0.00000000  0.50000000  0.00000000  1
  Ni  Ni7  1  0.50000000  0.50000000  0.00000000  1
  O  O8  1  0.47642673  0.26178713  0.78536040  1
  O  O9  1  0.99248413  0.25746295  0.75756880  1
  O  O10  1  0.49989415  0.75005293  0.75756880  1
  O  O11  1  0.99248413  0.75005293  0.75756880  1
  O  O12  1  0.00751587  0.24994707  0.24243120  1
  O  O13  1  0.50010585  0.24994707  0.24243120  1
  O  O14  1  0.00751587  0.74253705  0.24243120  1
  O  O15  1  0.52357327  0.73821287  0.21463960  1
