# generated using pymatgen
data_Ba2SrI6
_symmetry_space_group_name_H-M   'P 1'
_cell_length_a   8.29727899
_cell_length_b   8.29727899
_cell_length_c   24.89701096
_cell_angle_alpha   90.00000000
_cell_angle_beta   90.00000000
_cell_angle_gamma   90.00000000
_symmetry_Int_Tables_number   1
_chemical_formula_structural   Ba2SrI6
_chemical_formula_sum   'Ba8 Sr4 I24'
_cell_volume   1714.03070211
_cell_formula_units_Z   4
loop_
 _symmetry_equiv_pos_site_id
 _symmetry_equiv_pos_as_xyz
  1  'x, y, z'
loop_
 _atom_site_type_symbol
 _atom_site_label
 _atom_site_symmetry_multiplicity
 _atom_site_fract_x
 _atom_site_fract_y
 _atom_site_fract_z
 _atom_site_occupancy
  Ba  Ba0  1  0.00000000  0.50000000  0.16516244  1
  Ba  Ba1  1  0.00000000  0.00000000  0.33440985  1
  Ba  Ba2  1  0.00000000  0.00000000  0.66559015  1
  Ba  Ba3  1  0.00000000  0.50000000  0.83483756  1
  Ba  Ba4  1  0.50000000  0.50000000  0.33440985  1
  Ba  Ba5  1  0.50000000  0.00000000  0.16516244  1
  Ba  Ba6  1  0.50000000  0.00000000  0.83483756  1
  Ba  Ba7  1  0.50000000  0.50000000  0.66559015  1
  Sr  Sr8  1  0.00000000  0.00000000  0.00000000  1
  Sr  Sr9  1  0.00000000  0.50000000  0.50000000  1
  Sr  Sr10  1  0.50000000  0.00000000  0.50000000  1
  Sr  Sr11  1  0.50000000  0.50000000  0.00000000  1
  I  I12  1  0.23557663  0.73824271  0.58081366  1
  I  I13  1  0.22551858  0.76987385  0.08087742  1
  I  I14  1  0.23012615  0.22551858  0.91912258  1
  I  I15  1  0.23824271  0.73557663  0.41918634  1
  I  I16  1  0.24680570  0.24821686  0.24981956  1
  I  I17  1  0.25178314  0.25319430  0.75018044  1
  I  I18  1  0.24821686  0.75319430  0.75018044  1
  I  I19  1  0.25319430  0.74821686  0.24981956  1
  I  I20  1  0.26987385  0.72551858  0.91912258  1
  I  I21  1  0.26175729  0.23557663  0.41918634  1
  I  I22  1  0.27448142  0.26987385  0.08087742  1
  I  I23  1  0.26442337  0.23824271  0.58081366  1
  I  I24  1  0.73557663  0.76175729  0.58081366  1
  I  I25  1  0.72551858  0.73012615  0.08087742  1
  I  I26  1  0.73824271  0.76442337  0.41918634  1
  I  I27  1  0.73012615  0.27448142  0.91912258  1
  I  I28  1  0.74680570  0.25178314  0.24981956  1
  I  I29  1  0.75178314  0.24680570  0.75018044  1
  I  I30  1  0.74821686  0.74680570  0.75018044  1
  I  I31  1  0.75319430  0.75178314  0.24981956  1
  I  I32  1  0.76175729  0.26442337  0.41918634  1
  I  I33  1  0.76987385  0.77448142  0.91912258  1
  I  I34  1  0.77448142  0.23012615  0.08087742  1
  I  I35  1  0.76442337  0.26175729  0.58081366  1
