# generated using pymatgen
data_Co(NiO2)4
_symmetry_space_group_name_H-M   'P 1'
_cell_length_a   10.19614800
_cell_length_b   10.19614800
_cell_length_c   14.46867593
_cell_angle_alpha   18.85191008
_cell_angle_beta   18.85191008
_cell_angle_gamma   32.46643431
_symmetry_Int_Tables_number   1
_chemical_formula_structural   Co(NiO2)4
_chemical_formula_sum   'Co1 Ni4 O8'
_cell_volume   136.28502990
_cell_formula_units_Z   1
loop_
 _symmetry_equiv_pos_site_id
 _symmetry_equiv_pos_as_xyz
  1  'x, y, z'
loop_
 _atom_site_type_symbol
 _atom_site_label
 _atom_site_symmetry_multiplicity
 _atom_site_fract_x
 _atom_site_fract_y
 _atom_site_fract_z
 _atom_site_occupancy
  Co  Co0  1  0.50000000  0.50000000  0.00000000  1
  Ni  Ni1  1  0.00000000  0.50000000  0.00000000  1
  Ni  Ni2  1  0.00000000  0.00000000  0.00000000  1
  Ni  Ni3  1  0.00000000  0.00000000  0.50000000  1
  Ni  Ni4  1  0.50000000  0.00000000  0.00000000  1
  O  O5  1  0.00142902  0.53917220  0.70898818  1
  O  O6  1  0.99857098  0.46082780  0.29101182  1
  O  O7  1  0.00354692  0.00354692  0.26301133  1
  O  O8  1  0.99645308  0.99645308  0.73698867  1
  O  O9  1  0.45881431  0.45881431  0.79158303  1
  O  O10  1  0.54118569  0.54118569  0.20841697  1
  O  O11  1  0.53917220  0.00142902  0.70898818  1
  O  O12  1  0.46082780  0.99857098  0.29101182  1
