# generated using pymatgen
data_SrSc2O4
_symmetry_space_group_name_H-M   'P 1'
_cell_length_a   5.67134665
_cell_length_b   5.67134665
_cell_length_c   20.51194824
_cell_angle_alpha   90.22114373
_cell_angle_beta   89.77885627
_cell_angle_gamma   118.70310694
_symmetry_Int_Tables_number   1
_chemical_formula_structural   SrSc2O4
_chemical_formula_sum   'Sr6 Sc12 O24'
_cell_volume   578.67404290
_cell_formula_units_Z   6
loop_
 _symmetry_equiv_pos_site_id
 _symmetry_equiv_pos_as_xyz
  1  'x, y, z'
loop_
 _atom_site_type_symbol
 _atom_site_label
 _atom_site_symmetry_multiplicity
 _atom_site_fract_x
 _atom_site_fract_y
 _atom_site_fract_z
 _atom_site_occupancy
  Sr  Sr0  1  0.44516874  0.77525969  0.14604209  1
  Sr  Sr1  1  0.22474031  0.55483126  0.64604209  1
  Sr  Sr2  1  0.10953257  0.10953257  0.25000000  1
  Sr  Sr3  1  0.89046743  0.89046743  0.75000000  1
  Sr  Sr4  1  0.55483126  0.22474031  0.85395791  1
  Sr  Sr5  1  0.77525969  0.44516874  0.35395791  1
  Sc  Sc6  1  0.44314197  0.78052254  0.30570872  1
  Sc  Sc7  1  0.21947746  0.55685803  0.80570872  1
  Sc  Sc8  1  0.45698545  0.78411559  0.44777392  1
  Sc  Sc9  1  0.21588441  0.54301455  0.94777392  1
  Sc  Sc10  1  0.11516563  0.12112396  0.42888275  1
  Sc  Sc11  1  0.87887604  0.88483437  0.92888275  1
  Sc  Sc12  1  0.12112396  0.11516563  0.07111725  1
  Sc  Sc13  1  0.88483437  0.87887604  0.57111725  1
  Sc  Sc14  1  0.78411559  0.45698545  0.05222608  1
  Sc  Sc15  1  0.54301455  0.21588441  0.55222608  1
  Sc  Sc16  1  0.78052254  0.44314197  0.19429128  1
  Sc  Sc17  1  0.55685803  0.21947746  0.69429128  1
  O  O18  1  0.20464179  0.90124441  0.50312972  1
  O  O19  1  0.09875559  0.79535821  0.00312972  1
  O  O20  1  0.35509878  0.01750920  0.37441292  1
  O  O21  1  0.98249080  0.64490122  0.87441292  1
  O  O22  1  0.32934440  0.89568935  0.75190290  1
  O  O23  1  0.10431065  0.67065560  0.25190290  1
  O  O24  1  0.22054608  0.47128748  0.38057693  1
  O  O25  1  0.52871252  0.77945392  0.88057693  1
  O  O26  1  0.77536239  0.88025092  0.37526731  1
  O  O27  1  0.11974908  0.22463761  0.87526731  1
  O  O28  1  0.53679299  0.53679299  0.25000000  1
  O  O29  1  0.50000000  0.50000000  0.00000000  1
  O  O30  1  0.50000000  0.50000000  0.50000000  1
  O  O31  1  0.46320701  0.46320701  0.75000000  1
  O  O32  1  0.88025092  0.77536239  0.12473269  1
  O  O33  1  0.22463761  0.11974908  0.62473269  1
  O  O34  1  0.47128748  0.22054608  0.11942307  1
  O  O35  1  0.77945392  0.52871252  0.61942307  1
  O  O36  1  0.67065560  0.10431065  0.24809710  1
  O  O37  1  0.89568935  0.32934440  0.74809710  1
  O  O38  1  0.01750920  0.35509878  0.12558708  1
  O  O39  1  0.64490122  0.98249080  0.62558708  1
  O  O40  1  0.79535821  0.09875559  0.49687028  1
  O  O41  1  0.90124441  0.20464179  0.99687028  1
