# generated using pymatgen
data_Li2TiMn3O8
_symmetry_space_group_name_H-M   'P 1'
_cell_length_a   8.80691436
_cell_length_b   8.24693214
_cell_length_c   8.33361143
_cell_angle_alpha   90.16068603
_cell_angle_beta   90.06513109
_cell_angle_gamma   89.58008989
_symmetry_Int_Tables_number   1
_chemical_formula_structural   Li2TiMn3O8
_chemical_formula_sum   'Li8 Ti4 Mn12 O32'
_cell_volume   605.25139496
_cell_formula_units_Z   4
loop_
 _symmetry_equiv_pos_site_id
 _symmetry_equiv_pos_as_xyz
  1  'x, y, z'
loop_
 _atom_site_type_symbol
 _atom_site_label
 _atom_site_symmetry_multiplicity
 _atom_site_fract_x
 _atom_site_fract_y
 _atom_site_fract_z
 _atom_site_occupancy
  Li  Li0  1  0.99991374  0.99576348  0.99758985  1
  Li  Li1  1  0.25055444  0.25394734  0.25356891  1
  Li  Li2  1  0.25418299  0.74519266  0.75008710  1
  Li  Li3  1  0.49138438  0.00358769  0.49573832  1
  Li  Li4  1  0.50405774  0.50465128  0.00739580  1
  Li  Li5  1  0.75151199  0.24417383  0.74511322  1
  Li  Li6  1  0.75608742  0.75804825  0.24447491  1
  Li  Li7  1  0.99373954  0.49644569  0.50722432  1
  Ti  Ti8  1  0.12712724  0.86872409  0.37676154  1
  Ti  Ti9  1  0.37308624  0.13457300  0.88446567  1
  Ti  Ti10  1  0.62754969  0.62715735  0.61407192  1
  Ti  Ti11  1  0.87325293  0.37042564  0.11843102  1
  Mn  Mn12  1  0.13090192  0.12416488  0.62439263  1
  Mn  Mn13  1  0.11894924  0.37601948  0.87190758  1
  Mn  Mn14  1  0.11684300  0.62686506  0.12664854  1
  Mn  Mn15  1  0.37835095  0.37303318  0.62237234  1
  Mn  Mn16  1  0.37715349  0.62336906  0.37120958  1
  Mn  Mn17  1  0.37427523  0.87070786  0.12418838  1
  Mn  Mn18  1  0.63085166  0.37258408  0.37512926  1
  Mn  Mn19  1  0.62652321  0.12478507  0.12439314  1
  Mn  Mn20  1  0.62158924  0.87503770  0.87549274  1
  Mn  Mn21  1  0.87985752  0.12623282  0.37681939  1
  Mn  Mn22  1  0.87864899  0.87746475  0.62825112  1
  Mn  Mn23  1  0.86505328  0.62541850  0.87738479  1
  O  O24  1  0.12508468  0.11460116  0.39565195  1
  O  O25  1  0.13053320  0.89089864  0.61269854  1
  O  O26  1  0.08886040  0.61403881  0.88046833  1
  O  O27  1  0.14466405  0.13413575  0.86059268  1
  O  O28  1  0.10225929  0.39022277  0.11137363  1
  O  O29  1  0.12986202  0.35903924  0.64117052  1
  O  O30  1  0.12371815  0.63928531  0.37002541  1
  O  O31  1  0.12147764  0.85917766  0.14251281  1
  O  O32  1  0.35356008  0.13839605  0.63505036  1
  O  O33  1  0.37822539  0.35978672  0.86299284  1
  O  O34  1  0.36384330  0.63541862  0.13966320  1
  O  O35  1  0.39829055  0.60862329  0.61188639  1
  O  O36  1  0.35693636  0.86140618  0.36059606  1
  O  O37  1  0.40742520  0.38634575  0.38208508  1
  O  O38  1  0.36917347  0.11057634  0.10666540  1
  O  O39  1  0.40032594  0.88027761  0.88834233  1
  O  O40  1  0.62859787  0.38670659  0.60546408  1
  O  O41  1  0.63444628  0.61144626  0.38964655  1
  O  O42  1  0.62377243  0.89203523  0.10594537  1
  O  O43  1  0.64140848  0.36284897  0.14119949  1
  O  O44  1  0.60516234  0.11015858  0.88302458  1
  O  O45  1  0.63264988  0.14031945  0.36044219  1
  O  O46  1  0.62067772  0.86016582  0.64227890  1
  O  O47  1  0.64286432  0.63900153  0.86547203  1
  O  O48  1  0.85441678  0.36179113  0.36405472  1
  O  O49  1  0.87779937  0.14342852  0.13424711  1
  O  O50  1  0.84844941  0.86377447  0.86321035  1
  O  O51  1  0.89429356  0.89161508  0.39179245  1
  O  O52  1  0.85637139  0.63915593  0.64241014  1
  O  O53  1  0.90636067  0.11257441  0.62078881  1
  O  O54  1  0.86479525  0.39164024  0.88956760  1
  O  O55  1  0.87224847  0.61287516  0.10570802  1
