# generated using pymatgen
data_Fe10OF19
_symmetry_space_group_name_H-M   'P 1'
_cell_length_a   17.41728531
_cell_length_b   6.80343439
_cell_length_c   3.27023003
_cell_angle_alpha   90.00000000
_cell_angle_beta   90.00000000
_cell_angle_gamma   78.73734363
_symmetry_Int_Tables_number   1
_chemical_formula_structural   Fe10OF19
_chemical_formula_sum   'Fe10 O1 F19'
_cell_volume   380.05094346
_cell_formula_units_Z   1
loop_
 _symmetry_equiv_pos_site_id
 _symmetry_equiv_pos_as_xyz
  1  'x, y, z'
loop_
 _atom_site_type_symbol
 _atom_site_label
 _atom_site_symmetry_multiplicity
 _atom_site_fract_x
 _atom_site_fract_y
 _atom_site_fract_z
 _atom_site_occupancy
  Fe  Fe0  1  0.00000000  0.01198117  0.00000000  1
  Fe  Fe1  1  0.00000000  0.47171453  0.50000000  1
  Fe  Fe2  1  0.19963629  0.40112249  0.00000000  1
  Fe  Fe3  1  0.20007324  0.89983123  0.50000000  1
  Fe  Fe4  1  0.40019761  0.29991660  0.50000000  1
  Fe  Fe5  1  0.40001750  0.80009823  0.00000000  1
  Fe  Fe6  1  0.59998250  0.20011473  0.00000000  1
  Fe  Fe7  1  0.79992676  0.09990447  0.50000000  1
  Fe  Fe8  1  0.59980239  0.70011420  0.50000000  1
  Fe  Fe9  1  0.80036371  0.60075978  0.00000000  1
  O  O10  1  0.00000000  0.31423958  0.00000000  1
  F  F11  1  0.00000000  0.69388738  0.00000000  1
  F  F12  1  0.20031028  0.10256031  0.00000000  1
  F  F13  1  0.11751288  0.44864281  0.50000000  1
  F  F14  1  0.08122267  0.95290979  0.50000000  1
  F  F15  1  0.28042893  0.35917593  0.50000000  1
  F  F16  1  0.20228851  0.69756211  0.00000000  1
  F  F17  1  0.40022512  0.09910367  0.00000000  1
  F  F18  1  0.40011908  0.50094256  0.00000000  1
  F  F19  1  0.31980470  0.84126141  0.50000000  1
  F  F20  1  0.51959164  0.24024829  0.50000000  1
  F  F21  1  0.48040836  0.75983993  0.50000000  1
  F  F22  1  0.68019530  0.16106612  0.50000000  1
  F  F23  1  0.59977488  0.49932879  0.00000000  1
  F  F24  1  0.59988092  0.90106165  0.00000000  1
  F  F25  1  0.79968972  0.30287059  0.00000000  1
  F  F26  1  0.71957107  0.63960486  0.50000000  1
  F  F27  1  0.91877733  0.03413246  0.50000000  1
  F  F28  1  0.88248712  0.56615569  0.50000000  1
  F  F29  1  0.79771149  0.89985063  0.00000000  1
