# generated using pymatgen
data_Li4V3CrO8
_symmetry_space_group_name_H-M   'P 1'
_cell_length_a   5.19659712
_cell_length_b   5.97231866
_cell_length_c   5.21031761
_cell_angle_alpha   90.00699708
_cell_angle_beta   70.06538382
_cell_angle_gamma   89.99796726
_symmetry_Int_Tables_number   1
_chemical_formula_structural   Li4V3CrO8
_chemical_formula_sum   'Li4 V3 Cr1 O8'
_cell_volume   152.01697746
_cell_formula_units_Z   1
loop_
 _symmetry_equiv_pos_site_id
 _symmetry_equiv_pos_as_xyz
  1  'x, y, z'
loop_
 _atom_site_type_symbol
 _atom_site_label
 _atom_site_symmetry_multiplicity
 _atom_site_fract_x
 _atom_site_fract_y
 _atom_site_fract_z
 _atom_site_occupancy
  Li  Li0  1  0.00000033  0.00205810  0.99997447  1
  Li  Li1  1  0.00000106  0.49796184  0.00001142  1
  Li  Li2  1  -0.00001349  0.25010940  0.50001692  1
  Li  Li3  1  0.00000742  0.74992512  0.49999560  1
  V  V4  1  0.50008383  0.74979833  0.00001456  1
  V  V5  1  0.50008222  0.00025334  0.49995409  1
  V  V6  1  0.50003096  0.49978496  0.49999634  1
  Cr  Cr7  1  0.49999340  0.25015892  -0.00007862  1
  O  O8  1  0.27056846  0.00319482  0.23907662  1
  O  O9  1  0.27052355  0.49673348  0.23892106  1
  O  O10  1  0.72203982  0.25002578  0.25677108  1
  O  O11  1  0.27784711  0.25004782  0.74329347  1
  O  O12  1  0.72516176  0.74994178  0.25825731  1
  O  O13  1  0.72940229  0.00325494  0.76088330  1
  O  O14  1  0.27489458  0.74998844  0.74170644  1
  O  O15  1  0.72937471  0.49676192  0.76120694  1
