# generated using pymatgen
data_Na2FePCO7
_symmetry_space_group_name_H-M   'P 1'
_cell_length_a   10.35370931
_cell_length_b   10.47698909
_cell_length_c   6.54783889
_cell_angle_alpha   90.20074904
_cell_angle_beta   90.72960246
_cell_angle_gamma   59.88904030
_symmetry_Int_Tables_number   1
_chemical_formula_structural   Na2FePCO7
_chemical_formula_sum   'Na8 Fe4 P4 C4 O28'
_cell_volume   614.37958530
_cell_formula_units_Z   4
loop_
 _symmetry_equiv_pos_site_id
 _symmetry_equiv_pos_as_xyz
  1  'x, y, z'
loop_
 _atom_site_type_symbol
 _atom_site_label
 _atom_site_symmetry_multiplicity
 _atom_site_fract_x
 _atom_site_fract_y
 _atom_site_fract_z
 _atom_site_occupancy
  Na  Na0  1  0.91867705  0.42205175  0.74104682  1
  Na  Na1  1  0.91900736  0.92294557  0.73844319  1
  Na  Na2  1  0.73637672  0.25823587  0.98716029  1
  Na  Na3  1  0.73634133  0.75889079  0.51431715  1
  Na  Na4  1  0.26313027  0.24339480  0.01047436  1
  Na  Na5  1  0.26279381  0.74357922  0.01085766  1
  Na  Na6  1  0.08009717  0.07847452  0.27692969  1
  Na  Na7  1  0.08138882  0.57747532  0.25887859  1
  Fe  Fe8  1  0.65398212  0.06524025  0.25423379  1
  Fe  Fe9  1  0.65393052  0.56499012  0.24615040  1
  Fe  Fe10  1  0.34587488  0.43467749  0.73555834  1
  Fe  Fe11  1  0.34598369  0.93469009  0.73570683  1
  P  P12  1  0.57569987  0.06650949  0.75178747  1
  P  P13  1  0.57576560  0.56665690  0.74928931  1
  P  P14  1  0.42399470  0.43319972  0.24678377  1
  P  P15  1  0.42396869  0.93334314  0.24532853  1
  C  C16  1  0.93591316  0.39724205  0.24922123  1
  C  C17  1  0.93599494  0.89694792  0.24436907  1
  C  C18  1  0.06495178  0.10237592  0.76166432  1
  C  C19  1  0.06483074  0.60252459  0.75333233  1
  O  O20  1  0.92396966  0.18645601  0.76619631  1
  O  O21  1  0.92394134  0.68676998  0.74176437  1
  O  O22  1  0.87213322  0.04178686  0.23661948  1
  O  O23  1  0.87251153  0.54119512  0.27177107  1
  O  O24  1  0.84289795  0.34656910  0.24398569  1
  O  O25  1  0.84347609  0.84681583  0.26535233  1
  O  O26  1  0.67759424  0.05079024  0.93775242  1
  O  O27  1  0.67363875  0.04095144  0.56101373  1
  O  O28  1  0.68024196  0.53692615  0.93817453  1
  O  O29  1  0.67108650  0.55475264  0.56150364  1
  O  O30  1  0.56884127  0.28111498  0.24549117  1
  O  O31  1  0.56855895  0.78113138  0.25521539  1
  O  O32  1  0.53064063  0.44537174  0.74938822  1
  O  O33  1  0.53096537  0.94501118  0.75167774  1
  O  O34  1  0.46862098  0.05491398  0.23554824  1
  O  O35  1  0.46845272  0.55492791  0.23682642  1
  O  O36  1  0.43155029  0.21890295  0.75389925  1
  O  O37  1  0.43209115  0.71900897  0.75987157  1
  O  O38  1  0.32643276  0.45484390  0.43508108  1
  O  O39  1  0.32185704  0.45195844  0.05932272  1
  O  O40  1  0.32321439  0.95007296  0.05819446  1
  O  O41  1  0.32528208  0.95709244  0.43429052  1
  O  O42  1  0.15746527  0.15325848  0.75631692  1
  O  O43  1  0.15763218  0.65318990  0.75678987  1
  O  O44  1  0.12793981  0.45792130  0.75768687  1
  O  O45  1  0.12825842  0.95778273  0.75583648  1
  O  O46  1  0.07590424  0.31427238  0.23389341  1
  O  O47  1  0.07609799  0.81276646  0.23392595  1
