# generated using pymatgen
data_Tm2(WO4)3
_symmetry_space_group_name_H-M   'P 1'
_cell_length_a   10.04477609
_cell_length_b   10.16168157
_cell_length_c   13.98755988
_cell_angle_alpha   90.00000000
_cell_angle_beta   90.41526221
_cell_angle_gamma   90.00000000
_symmetry_Int_Tables_number   1
_chemical_formula_structural   Tm2(WO4)3
_chemical_formula_sum   'Tm8 W12 O48'
_cell_volume   1427.69814059
_cell_formula_units_Z   4
loop_
 _symmetry_equiv_pos_site_id
 _symmetry_equiv_pos_as_xyz
  1  'x, y, z'
loop_
 _atom_site_type_symbol
 _atom_site_label
 _atom_site_symmetry_multiplicity
 _atom_site_fract_x
 _atom_site_fract_y
 _atom_site_fract_z
 _atom_site_occupancy
  Tm  Tm0  1  0.24841941  0.97041813  0.88172539  1
  Tm  Tm1  1  0.24467789  0.03433961  0.38175654  1
  Tm  Tm2  1  0.25532211  0.53433961  0.11824346  1
  Tm  Tm3  1  0.25158059  0.47041813  0.61827461  1
  Tm  Tm4  1  0.74841941  0.52958187  0.38172539  1
  Tm  Tm5  1  0.74467789  0.46566039  0.88175654  1
  Tm  Tm6  1  0.75532211  0.96566039  0.61824346  1
  Tm  Tm7  1  0.75158059  0.02958187  0.11827461  1
  W  W8  1  0.02597253  0.74920829  0.49995044  1
  W  W9  1  0.10352922  0.61937289  0.85663134  1
  W  W10  1  0.10741367  0.88032578  0.14290335  1
  W  W11  1  0.39258633  0.38032578  0.35709665  1
  W  W12  1  0.39647078  0.11937289  0.64336866  1
  W  W13  1  0.47402747  0.24920829  0.00004956  1
  W  W14  1  0.52597253  0.75079171  0.99995044  1
  W  W15  1  0.60352922  0.88062711  0.35663134  1
  W  W16  1  0.60741367  0.61967422  0.64290335  1
  W  W17  1  0.89258633  0.11967422  0.85709665  1
  W  W18  1  0.89647078  0.38062711  0.14336866  1
  W  W19  1  0.97402747  0.25079171  0.50004956  1
  O  O20  1  0.07108684  0.09675710  0.86687392  1
  O  O21  1  0.07777845  0.34392737  0.58241236  1
  O  O22  1  0.07838892  0.17411695  0.41092771  1
  O  O23  1  0.07414997  0.41126535  0.13724925  1
  O  O24  1  0.11535057  0.87498137  0.43488256  1
  O  O25  1  0.13428418  0.79289027  0.83448904  1
  O  O26  1  0.14261887  0.70881038  0.16774263  1
  O  O27  1  0.14293221  0.64035335  0.55888665  1
  O  O28  1  0.17242753  0.98311764  0.23815009  1
  O  O29  1  0.17662271  0.52163569  0.76168615  1
  O  O30  1  0.18131435  0.57558030  0.96932949  1
  O  O31  1  0.18380789  0.92690227  0.03120815  1
  O  O32  1  0.31619211  0.42690227  0.46879185  1
  O  O33  1  0.31868565  0.07558030  0.53067051  1
  O  O34  1  0.32337729  0.02163569  0.73831385  1
  O  O35  1  0.32757247  0.48311764  0.26184991  1
  O  O36  1  0.35706779  0.14035335  0.94111335  1
  O  O37  1  0.35738113  0.20881038  0.33225737  1
  O  O38  1  0.36571682  0.29289027  0.66551096  1
  O  O39  1  0.38464943  0.37498137  0.06511744  1
  O  O40  1  0.42222155  0.84392737  0.91758764  1
  O  O41  1  0.42585003  0.91126535  0.36275075  1
  O  O42  1  0.42161108  0.67411695  0.08907229  1
  O  O43  1  0.42891316  0.59675710  0.63312608  1
  O  O44  1  0.57108684  0.40324290  0.36687392  1
  O  O45  1  0.57838892  0.32588305  0.91092771  1
  O  O46  1  0.57414997  0.08873465  0.63724925  1
  O  O47  1  0.57777845  0.15607263  0.08241236  1
  O  O48  1  0.61535057  0.62501863  0.93488256  1
  O  O49  1  0.63428318  0.70710973  0.33448904  1
  O  O50  1  0.64261887  0.79118962  0.66774263  1
  O  O51  1  0.64293221  0.85964665  0.05888665  1
  O  O52  1  0.67242753  0.51688236  0.73815009  1
  O  O53  1  0.67662271  0.97836431  0.26168615  1
  O  O54  1  0.68131435  0.92441970  0.46932949  1
  O  O55  1  0.68380789  0.57309773  0.53120815  1
  O  O56  1  0.81619211  0.07309773  0.96879185  1
  O  O57  1  0.81868565  0.42441970  0.03067051  1
  O  O58  1  0.82337729  0.47836431  0.23831385  1
  O  O59  1  0.82757247  0.01688236  0.76184991  1
  O  O60  1  0.85706779  0.35964665  0.44111335  1
  O  O61  1  0.85738113  0.29118962  0.83225737  1
  O  O62  1  0.86571682  0.20710973  0.16551096  1
  O  O63  1  0.88464943  0.12501863  0.56511744  1
  O  O64  1  0.92585003  0.58873465  0.86275075  1
  O  O65  1  0.92161108  0.82588305  0.58907229  1
  O  O66  1  0.92222155  0.65607263  0.41758764  1
  O  O67  1  0.92891316  0.90324290  0.13312608  1
