# generated using pymatgen
data_Na2NiAsCO7
_symmetry_space_group_name_H-M   'P 1'
_cell_length_a   9.11720063
_cell_length_b   6.71199494
_cell_length_c   5.28103077
_cell_angle_alpha   90.00000000
_cell_angle_beta   87.57486025
_cell_angle_gamma   90.00000000
_symmetry_Int_Tables_number   1
_chemical_formula_structural   Na2NiAsCO7
_chemical_formula_sum   'Na4 Ni2 As2 C2 O14'
_cell_volume   322.88114463
_cell_formula_units_Z   2
loop_
 _symmetry_equiv_pos_site_id
 _symmetry_equiv_pos_as_xyz
  1  'x, y, z'
loop_
 _atom_site_type_symbol
 _atom_site_label
 _atom_site_symmetry_multiplicity
 _atom_site_fract_x
 _atom_site_fract_y
 _atom_site_fract_z
 _atom_site_occupancy
  Na  Na0  1  0.23285420  0.49526343  0.23275801  1
  Na  Na1  1  0.23285420  0.00473657  0.23275801  1
  Na  Na2  1  0.76714580  0.50473657  0.76724199  1
  Na  Na3  1  0.76714580  0.99526343  0.76724199  1
  Ni  Ni4  1  0.34733309  0.75000000  0.78559075  1
  Ni  Ni5  1  0.65266691  0.25000000  0.21440925  1
  As  As6  1  0.42692685  0.25000000  0.70953736  1
  As  As7  1  0.57307315  0.75000000  0.29046264  1
  C  C8  1  0.07773170  0.75000000  0.71945860  1
  C  C9  1  0.92226830  0.25000000  0.28054140  1
  O  O10  1  0.06007253  0.25000000  0.28741950  1
  O  O11  1  0.14198127  0.75000000  0.93698307  1
  O  O12  1  0.16692831  0.75000000  0.52333020  1
  O  O13  1  0.31770156  0.04998677  0.79133347  1
  O  O14  1  0.31770156  0.45001323  0.79133347  1
  O  O15  1  0.40594196  0.75000000  0.15426120  1
  O  O16  1  0.45633259  0.25000000  0.37912317  1
  O  O17  1  0.54366741  0.75000000  0.62087683  1
  O  O18  1  0.59405804  0.25000000  0.84573880  1
  O  O19  1  0.68229844  0.54998677  0.20866653  1
  O  O20  1  0.68229844  0.95001323  0.20866653  1
  O  O21  1  0.83307169  0.25000000  0.47666980  1
  O  O22  1  0.85801873  0.25000000  0.06301693  1
  O  O23  1  0.93992747  0.75000000  0.71258050  1
