# generated using pymatgen
data_Na5Ni2P2(CO7)2
_symmetry_space_group_name_H-M   'P 1'
_cell_length_a   10.20654298
_cell_length_b   10.48063985
_cell_length_c   6.56776105
_cell_angle_alpha   90.28169681
_cell_angle_beta   90.29194445
_cell_angle_gamma   60.59367567
_symmetry_Int_Tables_number   1
_chemical_formula_structural   Na5Ni2P2(CO7)2
_chemical_formula_sum   'Na10 Ni4 P4 C4 O28'
_cell_volume   612.03215536
_cell_formula_units_Z   2
loop_
 _symmetry_equiv_pos_site_id
 _symmetry_equiv_pos_as_xyz
  1  'x, y, z'
loop_
 _atom_site_type_symbol
 _atom_site_label
 _atom_site_symmetry_multiplicity
 _atom_site_fract_x
 _atom_site_fract_y
 _atom_site_fract_z
 _atom_site_occupancy
  Na  Na0  1  0.00024877  0.26880127  0.48802005  1
  Na  Na1  1  0.00027077  0.26828794  0.01177370  1
  Na  Na2  1  0.49563084  0.24071142  0.99607962  1
  Na  Na3  1  0.49720942  0.23753588  0.50620551  1
  Na  Na4  1  0.85042972  0.06276500  0.74020823  1
  Na  Na5  1  0.34429184  0.57258085  0.74070248  1
  Na  Na6  1  0.15139415  0.92741354  0.25847839  1
  Na  Na7  1  0.51439460  0.75277948  0.01146206  1
  Na  Na8  1  0.51447463  0.75261125  0.48637357  1
  Na  Na9  1  0.98646802  0.73835218  0.97520576  1
  Ni  Ni10  1  0.28274216  0.06216469  0.75038953  1
  Ni  Ni11  1  0.21276781  0.44193434  0.25379909  1
  Ni  Ni12  1  0.78571621  0.56209311  0.75039742  1
  Ni  Ni13  1  0.72066090  0.93454817  0.25291341  1
  P  P14  1  0.35010848  0.06912832  0.24950246  1
  P  P15  1  0.14849414  0.43000596  0.75081560  1
  P  P16  1  0.85433615  0.57177473  0.25190088  1
  P  P17  1  0.64682524  0.93443914  0.75041253  1
  C  C18  1  0.82569467  0.11048088  0.24666633  1
  C  C19  1  0.31926040  0.61120348  0.24818701  1
  C  C20  1  0.67632053  0.38961212  0.74980423  1
  C  C21  1  0.17885216  0.88747945  0.75521525  1
  O  O22  1  0.09328175  0.03003984  0.74809243  1
  O  O23  1  0.26233835  0.05394069  0.06370563  1
  O  O24  1  0.26340755  0.05506124  0.43587151  1
  O  O25  1  0.14591248  0.28380761  0.75139195  1
  O  O26  1  0.02013497  0.44080789  0.25072805  1
  O  O27  1  0.48018156  0.06312090  0.75704744  1
  O  O28  1  0.35159126  0.21553750  0.24939490  1
  O  O29  1  0.23552687  0.44624192  0.93720110  1
  O  O30  1  0.23621718  0.44199257  0.56494902  1
  O  O31  1  0.68098208  0.16054310  0.25023418  1
  O  O32  1  0.17519611  0.66348694  0.24258041  1
  O  O33  1  0.39925400  0.46913005  0.25541518  1
  O  O34  1  0.61488543  0.30815058  0.75102511  1
  O  O35  1  0.12206417  0.80384242  0.76799976  1
  O  O36  1  0.88480401  0.19325377  0.24899896  1
  O  O37  1  0.37890506  0.69400445  0.24888111  1
  O  O38  1  0.59467994  0.53214464  0.74931946  1
  O  O39  1  0.82183064  0.33416998  0.74891718  1
  O  O40  1  0.32454770  0.83641794  0.74790008  1
  O  O41  1  0.77170881  0.55272382  0.06354477  1
  O  O42  1  0.77175625  0.55495216  0.43913215  1
  O  O43  1  0.64649465  0.78734569  0.74849055  1
  O  O44  1  0.51547267  0.93889095  0.24953032  1
  O  O45  1  0.98336594  0.55695046  0.75646960  1
  O  O46  1  0.85446561  0.71783827  0.24696578  1
  O  O47  1  0.72265513  0.95905436  0.56171225  1
  O  O48  1  0.73417412  0.94784508  0.93750049  1
  O  O49  1  0.91037613  0.96887096  0.24264251  1
