# generated using pymatgen
data_Na5LiMn2P2(CO7)2
_symmetry_space_group_name_H-M   'P 1'
_cell_length_a   8.98197352
_cell_length_b   6.76177515
_cell_length_c   10.38745138
_cell_angle_alpha   90.00000000
_cell_angle_beta   89.95805034
_cell_angle_gamma   90.00000000
_symmetry_Int_Tables_number   1
_chemical_formula_structural   Na5LiMn2P2(CO7)2
_chemical_formula_sum   'Na10 Li2 Mn4 P4 C4 O28'
_cell_volume   630.87218959
_cell_formula_units_Z   2
loop_
 _symmetry_equiv_pos_site_id
 _symmetry_equiv_pos_as_xyz
  1  'x, y, z'
loop_
 _atom_site_type_symbol
 _atom_site_label
 _atom_site_symmetry_multiplicity
 _atom_site_fract_x
 _atom_site_fract_y
 _atom_site_fract_z
 _atom_site_occupancy
  Na  Na0  1  0.08252763  0.25045561  0.87883725  1
  Na  Na1  1  0.08384458  0.25413393  0.38014117  1
  Na  Na2  1  0.25611739  0.00111297  0.62447413  1
  Na  Na3  1  0.25865714  0.00078985  0.12355962  1
  Na  Na4  1  0.25820082  0.49987833  0.12308675  1
  Na  Na5  1  0.74388261  0.50111297  0.87552587  1
  Na  Na6  1  0.74134286  0.50078985  0.37644038  1
  Na  Na7  1  0.74179918  0.99987833  0.37691325  1
  Na  Na8  1  0.91747237  0.75045561  0.62116275  1
  Na  Na9  1  0.91615542  0.75413393  0.11985883  1
  Li  Li10  1  0.27424995  0.48219980  0.61539218  1
  Li  Li11  1  0.72575005  0.98219980  0.88460782  1
  Mn  Mn12  1  0.36018347  0.74754721  0.88566238  1
  Mn  Mn13  1  0.36252535  0.74740419  0.39284098  1
  Mn  Mn14  1  0.63981653  0.24754721  0.61433762  1
  Mn  Mn15  1  0.63747465  0.24740419  0.10715902  1
  P  P16  1  0.41311545  0.24840508  0.84800402  1
  P  P17  1  0.41258470  0.24947645  0.35419029  1
  P  P18  1  0.58688455  0.74840508  0.65199598  1
  P  P19  1  0.58741530  0.74947645  0.14580971  1
  C  C20  1  0.05491991  0.75733529  0.86736845  1
  C  C21  1  0.06057794  0.74930357  0.36805954  1
  C  C22  1  0.94508009  0.25733529  0.63263155  1
  C  C23  1  0.93942206  0.24930357  0.13194046  1
  O  O24  1  0.08897186  0.27449544  0.64235364  1
  O  O25  1  0.08307934  0.24973752  0.14299083  1
  O  O26  1  0.11825323  0.74993063  0.98042085  1
  O  O27  1  0.12278245  0.75066998  0.48122533  1
  O  O28  1  0.13846153  0.74646943  0.76500583  1
  O  O29  1  0.14487678  0.74734110  0.26554980  1
  O  O30  1  0.31785272  0.06472284  0.88515244  1
  O  O31  1  0.32895191  0.43231163  0.90008993  1
  O  O32  1  0.32106580  0.06366144  0.39374747  1
  O  O33  1  0.31958862  0.43166196  0.39957031  1
  O  O34  1  0.42278571  0.26492801  0.69767503  1
  O  O35  1  0.42558045  0.73181822  0.59747169  1
  O  O36  1  0.42929776  0.25317943  0.20428160  1
  O  O37  1  0.43004121  0.75102811  0.08542432  1
  O  O38  1  0.57441955  0.23181822  0.90252831  1
  O  O39  1  0.57721429  0.76492801  0.80232497  1
  O  O40  1  0.56995879  0.25102811  0.41457568  1
  O  O41  1  0.57070224  0.75317943  0.29571840  1
  O  O42  1  0.68214728  0.56472284  0.61484756  1
  O  O43  1  0.67104809  0.93231163  0.59991007  1
  O  O44  1  0.67893420  0.56366144  0.10625253  1
  O  O45  1  0.68041138  0.93166196  0.10042969  1
  O  O46  1  0.86153847  0.24646943  0.73499417  1
  O  O47  1  0.85512322  0.24734110  0.23445020  1
  O  O48  1  0.88174677  0.24993063  0.51957915  1
  O  O49  1  0.87721755  0.25066998  0.01877467  1
  O  O50  1  0.91102814  0.77449544  0.85764636  1
  O  O51  1  0.91692066  0.74973752  0.35700917  1
