# generated using pymatgen
data_LiMnVO4
_symmetry_space_group_name_H-M   'P 1'
_cell_length_a   6.30019430
_cell_length_b   10.80657675
_cell_length_c   5.01490307
_cell_angle_alpha   90.00000000
_cell_angle_beta   90.00000000
_cell_angle_gamma   90.00000000
_symmetry_Int_Tables_number   1
_chemical_formula_structural   LiMnVO4
_chemical_formula_sum   'Li4 Mn4 V4 O16'
_cell_volume   341.43231988
_cell_formula_units_Z   4
loop_
 _symmetry_equiv_pos_site_id
 _symmetry_equiv_pos_as_xyz
  1  'x, y, z'
loop_
 _atom_site_type_symbol
 _atom_site_label
 _atom_site_symmetry_multiplicity
 _atom_site_fract_x
 _atom_site_fract_y
 _atom_site_fract_z
 _atom_site_occupancy
  Li  Li0  1  0.00000000  0.00000000  0.00000000  1
  Li  Li1  1  0.00000000  0.50000000  0.50000000  1
  Li  Li2  1  0.50000000  0.00000000  0.00000000  1
  Li  Li3  1  0.50000000  0.50000000  0.50000000  1
  Mn  Mn4  1  0.25000000  0.27350290  0.98398221  1
  Mn  Mn5  1  0.25000000  0.77350290  0.51601779  1
  Mn  Mn6  1  0.75000000  0.22649710  0.48398221  1
  Mn  Mn7  1  0.75000000  0.72649710  0.01601779  1
  V  V8  1  0.25000000  0.09126878  0.42526383  1
  V  V9  1  0.25000000  0.59126878  0.07473617  1
  V  V10  1  0.75000000  0.40873122  0.92526383  1
  V  V11  1  0.75000000  0.90873122  0.57473617  1
  O  O12  1  0.03072116  0.16498233  0.27800195  1
  O  O13  1  0.03072116  0.66498233  0.22199805  1
  O  O14  1  0.25000000  0.44319343  0.21089678  1
  O  O15  1  0.25000000  0.09454416  0.77308155  1
  O  O16  1  0.25000000  0.59454416  0.72691845  1
  O  O17  1  0.25000000  0.94319343  0.28910322  1
  O  O18  1  0.46927884  0.16498233  0.27800195  1
  O  O19  1  0.46927884  0.66498233  0.22199805  1
  O  O20  1  0.53072116  0.83501767  0.72199805  1
  O  O21  1  0.53072116  0.33501767  0.77800195  1
  O  O22  1  0.75000000  0.55680657  0.78910322  1
  O  O23  1  0.75000000  0.05680657  0.71089678  1
  O  O24  1  0.75000000  0.40545584  0.27308155  1
  O  O25  1  0.75000000  0.90545584  0.22691845  1
  O  O26  1  0.96927884  0.33501767  0.77800195  1
  O  O27  1  0.96927884  0.83501767  0.72199805  1
