# generated using pymatgen
data_Cu6OF11
_symmetry_space_group_name_H-M   'P 1'
_cell_length_a   3.27614083
_cell_length_b   10.39573413
_cell_length_c   6.43031124
_cell_angle_alpha   107.12494793
_cell_angle_beta   85.76759224
_cell_angle_gamma   86.43242156
_symmetry_Int_Tables_number   1
_chemical_formula_structural   Cu6OF11
_chemical_formula_sum   'Cu6 O1 F11'
_cell_volume   207.91109658
_cell_formula_units_Z   1
loop_
 _symmetry_equiv_pos_site_id
 _symmetry_equiv_pos_as_xyz
  1  'x, y, z'
loop_
 _atom_site_type_symbol
 _atom_site_label
 _atom_site_symmetry_multiplicity
 _atom_site_fract_x
 _atom_site_fract_y
 _atom_site_fract_z
 _atom_site_occupancy
  Cu  Cu0  1  0.50125908  0.66670383  0.83410448  1
  Cu  Cu1  1  0.47886203  0.00021217  0.47095020  1
  Cu  Cu2  1  0.49933355  0.33317868  0.16632236  1
  Cu  Cu3  1  -0.00031244  0.66732478  0.33368124  1
  Cu  Cu4  1  0.00002242  0.33301010  0.66638910  1
  Cu  Cu5  1  0.00215101  0.00022400  0.01369810  1
  O  O6  1  0.97402166  0.99904045  0.29993387  1
  F  F7  1  0.97289796  0.66658240  0.63238388  1
  F  F8  1  0.97573533  0.33330237  0.96571725  1
  F  F9  1  0.44716817  0.86295580  0.93478819  1
  F  F10  1  0.53100338  0.46940565  0.73493437  1
  F  F11  1  0.53516426  0.80301376  0.40049849  1
  F  F12  1  0.46251571  0.19676671  0.59557580  1
  F  F13  1  0.46874723  0.53071255  0.26494417  1
  F  F14  1  0.55618041  0.13611204  0.07229925  1
  F  F15  1  0.02531440  0.66628929  0.03394957  1
  F  F16  1  0.04489199  0.00089467  0.71224029  1
  F  F17  1  0.02504383  0.33427175  0.36758937  1
