# generated using pymatgen
data_Li24Mn5Cr7O36
_symmetry_space_group_name_H-M   'P 1'
_cell_length_a   5.00204893
_cell_length_b   13.29953344
_cell_length_c   9.73985975
_cell_angle_alpha   97.06281073
_cell_angle_beta   94.47931919
_cell_angle_gamma   100.40374703
_symmetry_Int_Tables_number   1
_chemical_formula_structural   Li24Mn5Cr7O36
_chemical_formula_sum   'Li24 Mn5 Cr7 O36'
_cell_volume   629.10708090
_cell_formula_units_Z   1
loop_
 _symmetry_equiv_pos_site_id
 _symmetry_equiv_pos_as_xyz
  1  'x, y, z'
loop_
 _atom_site_type_symbol
 _atom_site_label
 _atom_site_symmetry_multiplicity
 _atom_site_fract_x
 _atom_site_fract_y
 _atom_site_fract_z
 _atom_site_occupancy
  Li  Li0  1  0.83405942  0.16627534  0.00088911  1
  Li  Li1  1  0.95284667  0.38561833  0.99865897  1
  Li  Li2  1  0.00010504  0.75037719  0.24999669  1
  Li  Li3  1  0.66582899  0.08377147  0.24988923  1
  Li  Li4  1  0.95344326  0.88805381  0.50041364  1
  Li  Li5  1  0.62035151  0.22040558  0.50112278  1
  Li  Li6  1  0.83570950  0.66716051  0.49963394  1
  Li  Li7  1  0.49974068  0.00026906  0.49963422  1
  Li  Li8  1  0.71503914  0.44532701  0.50051321  1
  Li  Li9  1  0.66376404  0.58411454  0.75030633  1
  Li  Li10  1  0.50182855  0.49985574  0.99962435  1
  Li  Li11  1  0.71255641  0.94626486  0.00034123  1
  Li  Li12  1  0.38129612  0.27834870  0.99909843  1
  Li  Li13  1  0.61536121  0.71951879  0.99829140  1
  Li  Li14  1  0.29008652  0.05528579  0.00167697  1
  Li  Li15  1  0.33017590  0.41648353  0.25025067  1
  Li  Li16  1  0.28373680  0.55275400  0.49855359  1
  Li  Li17  1  0.16495880  0.33277052  0.50104655  1
  Li  Li18  1  0.38410449  0.78066039  0.50146327  1
  Li  Li19  1  0.04526142  0.11236617  0.49858394  1
  Li  Li20  1  0.33387714  0.91673215  0.74985387  1
  Li  Li21  1  0.16429819  0.83399351  0.99955514  1
  Li  Li22  1  0.99806973  0.25032731  0.74960654  1
  Li  Li23  1  0.05126271  0.61430672  0.00163351  1
  Mn  Mn24  1  0.89084531  0.52763550  0.25110564  1
  Mn  Mn25  1  0.77593688  0.80466863  0.74890238  1
  Mn  Mn26  1  0.55590016  0.36094436  0.74932929  1
  Mn  Mn27  1  0.22197999  0.19416149  0.24892495  1
  Mn  Mn28  1  0.22548632  0.69551226  0.75151877  1
  Cr  Cr29  1  0.89107675  0.02475941  0.74918361  1
  Cr  Cr30  1  0.77160451  0.30692450  0.25008181  1
  Cr  Cr31  1  0.44119580  0.14129167  0.75060141  1
  Cr  Cr32  1  0.55797091  0.85858915  0.25036427  1
  Cr  Cr33  1  0.43979992  0.63696721  0.24911895  1
  Cr  Cr34  1  0.10547899  0.47436705  0.75031386  1
  Cr  Cr35  1  0.11045502  0.97480195  0.25048274  1
  O  O36  1  0.00106689  0.07230546  0.13823040  1
  O  O37  1  0.93085822  0.21541557  0.36345320  1
  O  O38  1  0.00659761  0.57168104  0.63929941  1
  O  O39  1  0.85196100  0.35558407  0.63670041  1
  O  O40  1  0.73150212  0.11695447  0.63541228  1
  O  O41  1  0.67165200  0.40448694  0.13895527  1
  O  O42  1  0.92973087  0.71464312  0.86340955  1
  O  O43  1  0.81226056  0.47498057  0.86126597  1
  O  O44  1  0.60117139  0.04908527  0.86430168  1
  O  O45  1  0.84982711  0.85772709  0.13725674  1
  O  O46  1  0.74166845  0.61784831  0.13585012  1
  O  O47  1  0.51911209  0.18884090  0.13683674  1
  O  O48  1  0.66946221  0.26442213  0.86238108  1
  O  O49  1  0.81777988  0.97592338  0.36255531  1
  O  O50  1  0.59798890  0.54876410  0.36400990  1
  O  O51  1  0.47864619  0.30823551  0.36107681  1
  O  O52  1  0.66245529  0.76145636  0.36216624  1
  O  O53  1  0.33515916  0.09748241  0.36204266  1
  O  O54  1  0.66416714  0.90194541  0.63746652  1
  O  O55  1  0.33483960  0.23844943  0.63877445  1
  O  O56  1  0.52478868  0.69015545  0.63862916  1
  O  O57  1  0.40322206  0.45142691  0.63642003  1
  O  O58  1  0.18096495  0.02388755  0.63713133  1
  O  O59  1  0.33618604  0.73573095  0.13778045  1
  O  O60  1  0.47571113  0.81012356  0.86103473  1
  O  O61  1  0.26435343  0.38247847  0.86382787  1
  O  O62  1  0.15119160  0.14202174  0.86240786  1
  O  O63  1  0.39753810  0.95076594  0.13522941  1
  O  O64  1  0.18921831  0.52340221  0.13810459  1
  O  O65  1  0.06967486  0.28480463  0.13638634  1
  O  O66  1  0.33610101  0.59812692  0.86335486  1
  O  O67  1  0.26860902  0.88276578  0.36476387  1
  O  O68  1  0.13866091  0.64267544  0.36182662  1
  O  O69  1  0.00331840  0.43091805  0.36343393  1
  O  O70  1  0.07113854  0.78538617  0.63651864  1
  O  O71  1  0.99592746  0.92743655  0.86113837  1
