# generated using pymatgen
data_Ti3CrCu2(PO4)6
_symmetry_space_group_name_H-M   'P 1'
_cell_length_a   8.61383604
_cell_length_b   8.61383604
_cell_length_c   8.61383629
_cell_angle_alpha   60.02523195
_cell_angle_beta   60.02523628
_cell_angle_gamma   60.02523876
_symmetry_Int_Tables_number   1
_chemical_formula_structural   Ti3CrCu2(PO4)6
_chemical_formula_sum   'Ti3 Cr1 Cu2 P6 O24'
_cell_volume   452.19232906
_cell_formula_units_Z   1
loop_
 _symmetry_equiv_pos_site_id
 _symmetry_equiv_pos_as_xyz
  1  'x, y, z'
loop_
 _atom_site_type_symbol
 _atom_site_label
 _atom_site_symmetry_multiplicity
 _atom_site_fract_x
 _atom_site_fract_y
 _atom_site_fract_z
 _atom_site_occupancy
  Ti  Ti0  1  0.14244519  0.14244519  0.14244519  1
  Ti  Ti1  1  0.35690299  0.35690299  0.35690299  1
  Ti  Ti2  1  0.64352284  0.64352284  0.64352284  1
  Cr  Cr3  1  0.85826061  0.85826061  0.85826061  1
  Cu  Cu4  1  0.99895655  0.99895655  0.99895655  1
  Cu  Cu5  1  0.49973733  0.49973733  0.49973733  1
  P  P6  1  0.24858371  0.54267461  0.95811753  1
  P  P7  1  0.54267461  0.95811753  0.24858371  1
  P  P8  1  0.95811753  0.24858371  0.54267461  1
  P  P9  1  0.04085614  0.75079574  0.46073674  1
  P  P10  1  0.46073674  0.04085614  0.75079574  1
  P  P11  1  0.75079574  0.46073674  0.04085614  1
  O  O12  1  0.12250266  0.30661332  0.49871396  1
  O  O13  1  0.30661332  0.49871396  0.12250266  1
  O  O14  1  0.05729635  0.91560996  0.26635418  1
  O  O15  1  0.49871396  0.12250266  0.30661332  1
  O  O16  1  0.00834809  0.80316247  0.62062247  1
  O  O17  1  0.23292265  0.58362457  0.43855087  1
  O  O18  1  0.26635418  0.05729635  0.91560996  1
  O  O19  1  0.43855087  0.23292265  0.58362457  1
  O  O20  1  0.19435380  0.37626437  0.99984390  1
  O  O21  1  0.58362457  0.43855087  0.23292265  1
  O  O22  1  0.08459459  0.73391255  0.94456696  1
  O  O23  1  0.37626437  0.99984390  0.19435380  1
  O  O24  1  0.62062247  0.00834809  0.80316247  1
  O  O25  1  0.91560996  0.26635418  0.05729635  1
  O  O26  1  0.41653438  0.55610073  0.76716722  1
  O  O27  1  0.80316247  0.62062247  0.00834809  1
  O  O28  1  0.55610073  0.76716722  0.41653438  1
  O  O29  1  0.73391255  0.94456696  0.08459459  1
  O  O30  1  0.76716722  0.41653438  0.55610073  1
  O  O31  1  0.99984390  0.19435380  0.37626437  1
  O  O32  1  0.49995190  0.87585102  0.69495006  1
  O  O33  1  0.94456696  0.08459459  0.73391255  1
  O  O34  1  0.69495006  0.49995190  0.87585102  1
  O  O35  1  0.87585102  0.69495006  0.49995190  1
