# generated using pymatgen
data_Li2VPO4F
_symmetry_space_group_name_H-M   'P 1'
_cell_length_a   10.75210424
_cell_length_b   6.51064460
_cell_length_c   11.17077482
_cell_angle_alpha   90.00000000
_cell_angle_beta   90.00000000
_cell_angle_gamma   90.00000000
_symmetry_Int_Tables_number   1
_chemical_formula_structural   Li2VPO4F
_chemical_formula_sum   'Li16 V8 P8 O32 F8'
_cell_volume   781.98919532
_cell_formula_units_Z   8
loop_
 _symmetry_equiv_pos_site_id
 _symmetry_equiv_pos_as_xyz
  1  'x, y, z'
loop_
 _atom_site_type_symbol
 _atom_site_label
 _atom_site_symmetry_multiplicity
 _atom_site_fract_x
 _atom_site_fract_y
 _atom_site_fract_z
 _atom_site_occupancy
  Li  Li0  1  0.02656796  0.75000000  0.27071110  1
  Li  Li1  1  0.23123140  0.25000000  0.08422123  1
  Li  Li2  1  0.23969169  0.50589599  0.33206934  1
  Li  Li3  1  0.23969169  0.99410401  0.33206934  1
  Li  Li4  1  0.26030831  0.00589599  0.83206934  1
  Li  Li5  1  0.26030831  0.49410401  0.83206934  1
  Li  Li6  1  0.26876860  0.75000000  0.58422123  1
  Li  Li7  1  0.47343204  0.25000000  0.77071110  1
  Li  Li8  1  0.52656796  0.75000000  0.22928890  1
  Li  Li9  1  0.73123140  0.25000000  0.41577877  1
  Li  Li10  1  0.73969169  0.50589599  0.16793066  1
  Li  Li11  1  0.73969169  0.99410401  0.16793066  1
  Li  Li12  1  0.76030831  0.00589599  0.66793066  1
  Li  Li13  1  0.76030831  0.49410401  0.66793066  1
  Li  Li14  1  0.76876860  0.75000000  0.91577877  1
  Li  Li15  1  0.97343204  0.25000000  0.72928890  1
  V  V16  1  0.00000000  0.00000000  0.00000000  1
  V  V17  1  0.00000000  0.50000000  0.00000000  1
  V  V18  1  0.00000000  0.00000000  0.50000000  1
  V  V19  1  0.00000000  0.50000000  0.50000000  1
  V  V20  1  0.50000000  0.00000000  0.50000000  1
  V  V21  1  0.50000000  0.50000000  0.50000000  1
  V  V22  1  0.50000000  0.00000000  0.00000000  1
  V  V23  1  0.50000000  0.50000000  0.00000000  1
  P  P24  1  0.02076247  0.75000000  0.74612820  1
  P  P25  1  0.24586733  0.75000000  0.08006966  1
  P  P26  1  0.25413267  0.25000000  0.58006966  1
  P  P27  1  0.47923753  0.25000000  0.24612820  1
  P  P28  1  0.52076247  0.75000000  0.75387180  1
  P  P29  1  0.74586733  0.75000000  0.41993034  1
  P  P30  1  0.75413267  0.25000000  0.91993034  1
  P  P31  1  0.97923753  0.25000000  0.25387180  1
  O  O32  1  0.02899025  0.25000000  0.12229195  1
  O  O33  1  0.03495738  0.05606974  0.31486503  1
  O  O34  1  0.03495738  0.44393026  0.31486503  1
  O  O35  1  0.11043218  0.25000000  0.56165197  1
  O  O36  1  0.16526136  0.75000000  0.74462033  1
  O  O37  1  0.19585478  0.55369533  0.01668805  1
  O  O38  1  0.19585478  0.94630467  0.01668805  1
  O  O39  1  0.21579134  0.75000000  0.21569449  1
  O  O40  1  0.28420866  0.25000000  0.71569449  1
  O  O41  1  0.30414522  0.05369533  0.51668805  1
  O  O42  1  0.30414522  0.44630467  0.51668805  1
  O  O43  1  0.33473864  0.25000000  0.24462033  1
  O  O44  1  0.38956782  0.75000000  0.06165197  1
  O  O45  1  0.46504262  0.55606974  0.81486503  1
  O  O46  1  0.46504262  0.94393026  0.81486503  1
  O  O47  1  0.47100975  0.75000000  0.62229195  1
  O  O48  1  0.52899025  0.25000000  0.37770805  1
  O  O49  1  0.53495738  0.05606974  0.18513497  1
  O  O50  1  0.53495738  0.44393026  0.18513497  1
  O  O51  1  0.61043218  0.25000000  0.93834803  1
  O  O52  1  0.66526136  0.75000000  0.75537967  1
  O  O53  1  0.69585478  0.55369533  0.48331195  1
  O  O54  1  0.69585478  0.94630467  0.48331195  1
  O  O55  1  0.71579134  0.75000000  0.28430551  1
  O  O56  1  0.78420866  0.25000000  0.78430551  1
  O  O57  1  0.80414522  0.05369533  0.98331195  1
  O  O58  1  0.80414522  0.44630467  0.98331195  1
  O  O59  1  0.83473864  0.25000000  0.25537967  1
  O  O60  1  0.88956782  0.75000000  0.43834803  1
  O  O61  1  0.96504262  0.55606974  0.68513497  1
  O  O62  1  0.96504262  0.94393026  0.68513497  1
  O  O63  1  0.97100975  0.75000000  0.87770805  1
  F  F64  1  0.05211847  0.25000000  0.88335165  1
  F  F65  1  0.12896826  0.75000000  0.46871792  1
  F  F66  1  0.37103174  0.25000000  0.96871792  1
  F  F67  1  0.44788153  0.75000000  0.38335165  1
  F  F68  1  0.55211847  0.25000000  0.61664835  1
  F  F69  1  0.62896826  0.75000000  0.03128208  1
  F  F70  1  0.87103174  0.25000000  0.53128208  1
  F  F71  1  0.94788153  0.75000000  0.11664835  1
