# generated using pymatgen
data_TePO5
_symmetry_space_group_name_H-M   'P 1'
_cell_length_a   7.56232169
_cell_length_b   6.61792585
_cell_length_c   7.59623586
_cell_angle_alpha   90.00000000
_cell_angle_beta   90.00000000
_cell_angle_gamma   90.00000000
_symmetry_Int_Tables_number   1
_chemical_formula_structural   TePO5
_chemical_formula_sum   'Te4 P4 O20'
_cell_volume   380.16793643
_cell_formula_units_Z   4
loop_
 _symmetry_equiv_pos_site_id
 _symmetry_equiv_pos_as_xyz
  1  'x, y, z'
loop_
 _atom_site_type_symbol
 _atom_site_label
 _atom_site_symmetry_multiplicity
 _atom_site_fract_x
 _atom_site_fract_y
 _atom_site_fract_z
 _atom_site_occupancy
  Te  Te0  1  0.13791064  0.25000000  0.74330964  1
  Te  Te1  1  0.36208936  0.75000000  0.24330964  1
  Te  Te2  1  0.63791064  0.25000000  0.75669036  1
  Te  Te3  1  0.86208936  0.75000000  0.25669036  1
  P  P4  1  0.12506282  0.75000000  0.62676997  1
  P  P5  1  0.37493718  0.25000000  0.12676997  1
  P  P6  1  0.62506282  0.75000000  0.87323003  1
  P  P7  1  0.87493718  0.25000000  0.37323003  1
  O  O8  1  0.05255840  0.25000000  0.47593605  1
  O  O9  1  0.11011284  0.75000000  0.17499315  1
  O  O10  1  0.13375210  0.56548049  0.75185226  1
  O  O11  1  0.13375210  0.93451951  0.75185226  1
  O  O12  1  0.20984958  0.25000000  0.00468684  1
  O  O13  1  0.29015042  0.75000000  0.50468684  1
  O  O14  1  0.36624790  0.06548049  0.25185226  1
  O  O15  1  0.36624790  0.43451951  0.25185226  1
  O  O16  1  0.38988716  0.25000000  0.67499315  1
  O  O17  1  0.44744160  0.75000000  0.97593605  1
  O  O18  1  0.55255840  0.25000000  0.02406395  1
  O  O19  1  0.61011284  0.75000000  0.32500685  1
  O  O20  1  0.63375210  0.56548049  0.74814774  1
  O  O21  1  0.63375210  0.93451951  0.74814774  1
  O  O22  1  0.70984958  0.25000000  0.49531316  1
  O  O23  1  0.79015042  0.75000000  0.99531316  1
  O  O24  1  0.86624790  0.06548049  0.24814774  1
  O  O25  1  0.86624790  0.43451951  0.24814774  1
  O  O26  1  0.88988716  0.25000000  0.82500685  1
  O  O27  1  0.94744160  0.75000000  0.52406395  1
