# generated using pymatgen
data_Li2MnSiO4
_symmetry_space_group_name_H-M   'P 1'
_cell_length_a   5.40010014
_cell_length_b   5.40010014
_cell_length_c   6.36563380
_cell_angle_alpha   90.00000000
_cell_angle_beta   90.00000000
_cell_angle_gamma   92.89993602
_symmetry_Int_Tables_number   1
_chemical_formula_structural   Li2MnSiO4
_chemical_formula_sum   'Li4 Mn2 Si2 O8'
_cell_volume   185.39105258
_cell_formula_units_Z   2
loop_
 _symmetry_equiv_pos_site_id
 _symmetry_equiv_pos_as_xyz
  1  'x, y, z'
loop_
 _atom_site_type_symbol
 _atom_site_label
 _atom_site_symmetry_multiplicity
 _atom_site_fract_x
 _atom_site_fract_y
 _atom_site_fract_z
 _atom_site_occupancy
  Li  Li0  1  0.31048427  0.68951573  0.50000000  1
  Li  Li1  1  0.17936166  0.17936166  0.75000000  1
  Li  Li2  1  0.82063834  0.82063834  0.25000000  1
  Li  Li3  1  0.68951573  0.31048427  0.00000000  1
  Mn  Mn4  1  0.32090139  0.67909861  0.00000000  1
  Mn  Mn5  1  0.67909861  0.32090139  0.50000000  1
  Si  Si6  1  0.17395527  0.17395527  0.25000000  1
  Si  Si7  1  0.82604473  0.82604473  0.75000000  1
  O  O8  1  0.20478236  0.87042535  0.25602409  1
  O  O9  1  0.12957465  0.79521764  0.74397591  1
  O  O10  1  0.30778892  0.29273917  0.03585599  1
  O  O11  1  0.70726083  0.69221108  0.96414401  1
  O  O12  1  0.29273917  0.30778892  0.46414401  1
  O  O13  1  0.69221108  0.70726083  0.53585599  1
  O  O14  1  0.79521764  0.12957465  0.75602409  1
  O  O15  1  0.87042535  0.20478236  0.24397591  1
