# generated using pymatgen
data_Rb2O
_symmetry_space_group_name_H-M   'P 1'
_cell_length_a   13.51169898
_cell_length_b   7.06921790
_cell_length_c   6.87977948
_cell_angle_alpha   90.00000000
_cell_angle_beta   90.00000000
_cell_angle_gamma   90.00000000
_symmetry_Int_Tables_number   1
_chemical_formula_structural   Rb2O
_chemical_formula_sum   'Rb16 O8'
_cell_volume   657.13688927
_cell_formula_units_Z   8
loop_
 _symmetry_equiv_pos_site_id
 _symmetry_equiv_pos_as_xyz
  1  'x, y, z'
loop_
 _atom_site_type_symbol
 _atom_site_label
 _atom_site_symmetry_multiplicity
 _atom_site_fract_x
 _atom_site_fract_y
 _atom_site_fract_z
 _atom_site_occupancy
  Rb  Rb0  1  0.02392396  0.73877421  0.99902552  1
  Rb  Rb1  1  0.02392396  0.76122579  0.49902552  1
  Rb  Rb2  1  0.20413462  0.11803617  0.14799994  1
  Rb  Rb3  1  0.20413462  0.38196383  0.64799994  1
  Rb  Rb4  1  0.29586538  0.88196383  0.64799994  1
  Rb  Rb5  1  0.29586538  0.61803617  0.14799994  1
  Rb  Rb6  1  0.47607604  0.23877421  0.99902552  1
  Rb  Rb7  1  0.47607604  0.26122579  0.49902552  1
  Rb  Rb8  1  0.52392396  0.73877421  0.50097448  1
  Rb  Rb9  1  0.52392396  0.76122579  0.00097448  1
  Rb  Rb10  1  0.70413462  0.11803617  0.35200006  1
  Rb  Rb11  1  0.70413462  0.38196383  0.85200006  1
  Rb  Rb12  1  0.79586538  0.61803617  0.35200006  1
  Rb  Rb13  1  0.79586538  0.88196383  0.85200006  1
  Rb  Rb14  1  0.97607604  0.23877421  0.50097448  1
  Rb  Rb15  1  0.97607604  0.26122579  0.00097448  1
  O  O16  1  0.11400552  0.03962993  0.76997451  1
  O  O17  1  0.11400552  0.46037007  0.26997451  1
  O  O18  1  0.38599448  0.96037007  0.26997451  1
  O  O19  1  0.38599448  0.53962993  0.76997451  1
  O  O20  1  0.61400552  0.03962993  0.73002549  1
  O  O21  1  0.61400552  0.46037007  0.23002549  1
  O  O22  1  0.88599448  0.53962993  0.73002549  1
  O  O23  1  0.88599448  0.96037007  0.23002549  1
