# generated using pymatgen
data_Na3Mn3O8
_symmetry_space_group_name_H-M   'P 1'
_cell_length_a   8.76913317
_cell_length_b   8.76913317
_cell_length_c   8.76913317
_cell_angle_alpha   90.00000000
_cell_angle_beta   90.00000000
_cell_angle_gamma   90.00000000
_symmetry_Int_Tables_number   1
_chemical_formula_structural   Na3Mn3O8
_chemical_formula_sum   'Na12 Mn12 O32'
_cell_volume   674.32614154
_cell_formula_units_Z   4
loop_
 _symmetry_equiv_pos_site_id
 _symmetry_equiv_pos_as_xyz
  1  'x, y, z'
loop_
 _atom_site_type_symbol
 _atom_site_label
 _atom_site_symmetry_multiplicity
 _atom_site_fract_x
 _atom_site_fract_y
 _atom_site_fract_z
 _atom_site_occupancy
  Na  Na0  1  0.01336002  0.01336002  0.01336002  1
  Na  Na1  1  0.12500000  0.87500000  0.37500000  1
  Na  Na2  1  0.23663998  0.23663998  0.23663998  1
  Na  Na3  1  0.26336002  0.76336002  0.73663998  1
  Na  Na4  1  0.37500000  0.12500000  0.87500000  1
  Na  Na5  1  0.48663998  0.98663998  0.51336002  1
  Na  Na6  1  0.51336002  0.48663998  0.98663998  1
  Na  Na7  1  0.62500000  0.62500000  0.62500000  1
  Na  Na8  1  0.73663998  0.26336002  0.76336002  1
  Na  Na9  1  0.76336002  0.73663998  0.26336002  1
  Na  Na10  1  0.87500000  0.37500000  0.12500000  1
  Na  Na11  1  0.98663998  0.51336002  0.48663998  1
  Mn  Mn12  1  0.10413606  0.14586394  0.62500000  1
  Mn  Mn13  1  0.12500000  0.39586394  0.85413606  1
  Mn  Mn14  1  0.14586394  0.62500000  0.10413606  1
  Mn  Mn15  1  0.35413606  0.37500000  0.60413606  1
  Mn  Mn16  1  0.37500000  0.60413606  0.35413606  1
  Mn  Mn17  1  0.39586394  0.85413606  0.12500000  1
  Mn  Mn18  1  0.60413606  0.35413606  0.37500000  1
  Mn  Mn19  1  0.62500000  0.10413606  0.14586394  1
  Mn  Mn20  1  0.64586394  0.87500000  0.89586394  1
  Mn  Mn21  1  0.85413606  0.12500000  0.39586394  1
  Mn  Mn22  1  0.87500000  0.89586394  0.64586394  1
  Mn  Mn23  1  0.89586394  0.64586394  0.87500000  1
  O  O24  1  0.06928177  0.14166125  0.40681291  1
  O  O25  1  0.09318709  0.93071823  0.64166125  1
  O  O26  1  0.12028418  0.62028418  0.87971582  1
  O  O27  1  0.14166125  0.40681291  0.06928177  1
  O  O28  1  0.10833875  0.18071823  0.84318709  1
  O  O29  1  0.12971582  0.37028418  0.62971582  1
  O  O30  1  0.15681291  0.60833875  0.31928177  1
  O  O31  1  0.18071823  0.84318709  0.10833875  1
  O  O32  1  0.31928177  0.15681291  0.60833875  1
  O  O33  1  0.34318709  0.39166125  0.81928177  1
  O  O34  1  0.37028418  0.62971582  0.12971582  1
  O  O35  1  0.39166125  0.81928177  0.34318709  1
  O  O36  1  0.35833875  0.59318709  0.56928177  1
  O  O37  1  0.37971582  0.37971582  0.37971582  1
  O  O38  1  0.40681291  0.06928177  0.14166125  1
  O  O39  1  0.43071823  0.85833875  0.90681291  1
  O  O40  1  0.56928177  0.35833875  0.59318709  1
  O  O41  1  0.59318709  0.56928177  0.35833875  1
  O  O42  1  0.62028418  0.87971582  0.12028418  1
  O  O43  1  0.64166125  0.09318709  0.93071823  1
  O  O44  1  0.60833875  0.31928177  0.15681291  1
  O  O45  1  0.62971582  0.12971582  0.37028418  1
  O  O46  1  0.65681291  0.89166125  0.68071823  1
  O  O47  1  0.68071823  0.65681291  0.89166125  1
  O  O48  1  0.81928177  0.34318709  0.39166125  1
  O  O49  1  0.84318709  0.10833875  0.18071823  1
  O  O50  1  0.87028418  0.87028418  0.87028418  1
  O  O51  1  0.89166125  0.68071823  0.65681291  1
  O  O52  1  0.85833875  0.90681291  0.43071823  1
  O  O53  1  0.87971582  0.12028418  0.62028418  1
  O  O54  1  0.90681291  0.43071823  0.85833875  1
  O  O55  1  0.93071823  0.64166125  0.09318709  1
