# generated using pymatgen
data_Li2MnF6
_symmetry_space_group_name_H-M   'P 1'
_cell_length_a   5.04273934
_cell_length_b   5.04308962
_cell_length_c   9.00366088
_cell_angle_alpha   89.99943941
_cell_angle_beta   90.00564454
_cell_angle_gamma   119.99896629
_symmetry_Int_Tables_number   1
_chemical_formula_structural   Li2MnF6
_chemical_formula_sum   'Li4 Mn2 F12'
_cell_volume   198.29761381
_cell_formula_units_Z   2
loop_
 _symmetry_equiv_pos_site_id
 _symmetry_equiv_pos_as_xyz
  1  'x, y, z'
loop_
 _atom_site_type_symbol
 _atom_site_label
 _atom_site_symmetry_multiplicity
 _atom_site_fract_x
 _atom_site_fract_y
 _atom_site_fract_z
 _atom_site_occupancy
  Li  Li0  1  0.33317791  0.66668333  0.25903388  1
  Li  Li1  1  0.99998760  0.99999362  0.00294847  1
  Li  Li2  1  0.99999236  0.00001829  0.50290753  1
  Li  Li3  1  0.66683843  0.33331174  0.74755354  1
  Mn  Mn4  1  0.33343798  0.66667634  0.75253795  1
  Mn  Mn5  1  0.66649791  0.33332278  0.25322709  1
  F  F6  1  0.33388316  0.96938950  0.63647123  1
  F  F7  1  0.36542762  0.02812975  0.13861391  1
  F  F8  1  0.97169166  0.33752043  0.13862215  1
  F  F9  1  0.03074876  0.36433013  0.63644858  1
  F  F10  1  0.33746708  0.36548957  0.86718785  1
  F  F11  1  0.36403750  0.33341359  0.36928727  1
  F  F12  1  0.63580456  0.66624367  0.63646050  1
  F  F13  1  0.66227588  0.63432900  0.13862626  1
  F  F14  1  0.96907218  0.63579921  0.36929644  1
  F  F15  1  0.02840408  0.66272306  0.86723164  1
  F  F16  1  0.63476408  0.97174783  0.86720535  1
  F  F17  1  0.66639224  0.03077714  0.36929238  1
