# generated using pymatgen
data_Li2Ti2MnCr2(PO4)6
_symmetry_space_group_name_H-M   'P 1'
_cell_length_a   8.63886713
_cell_length_b   8.64446019
_cell_length_c   8.64746117
_cell_angle_alpha   119.96890134
_cell_angle_beta   59.94630374
_cell_angle_gamma   120.31074116
_symmetry_Int_Tables_number   1
_chemical_formula_structural   Li2Ti2MnCr2(PO4)6
_chemical_formula_sum   'Li2 Ti2 Mn1 Cr2 P6 O24'
_cell_volume   455.47408694
_cell_formula_units_Z   1
loop_
 _symmetry_equiv_pos_site_id
 _symmetry_equiv_pos_as_xyz
  1  'x, y, z'
loop_
 _atom_site_type_symbol
 _atom_site_label
 _atom_site_symmetry_multiplicity
 _atom_site_fract_x
 _atom_site_fract_y
 _atom_site_fract_z
 _atom_site_occupancy
  Li  Li0  1  0.00849556  0.99525125  0.98868375  1
  Li  Li1  1  0.74872800  0.23745722  0.35224004  1
  Ti  Ti2  1  0.14861680  0.43206862  0.13871834  1
  Ti  Ti3  1  0.85985070  0.57585705  0.85811733  1
  Mn  Mn4  1  0.49182356  0.50357588  0.50231716  1
  Cr  Cr5  1  0.35456135  0.06986697  0.35676058  1
  Cr  Cr6  1  0.64211663  0.92691148  0.64512411  1
  P  P7  1  0.03968321  0.24890430  0.46068041  1
  P  P8  1  0.54663047  0.75698129  0.25188366  1
  P  P9  1  0.25067264  0.75341603  0.95961688  1
  P  P10  1  0.74972668  0.24920804  0.03976749  1
  P  P11  1  0.45923163  0.24805317  0.75135671  1
  P  P12  1  0.95553189  0.74711404  0.54063162  1
  O  O13  1  0.30718590  0.93286284  0.11712924  1
  O  O14  1  0.11821774  0.92488341  0.50367406  1
  O  O15  1  0.04831197  0.24659994  0.27503244  1
  O  O16  1  0.99936472  0.42813387  0.62543915  1
  O  O17  1  0.08512884  0.75548233  0.93749104  1
  O  O18  1  0.52352610  0.94411059  0.30588418  1
  O  O19  1  0.37563894  0.58219272  0.19709107  1
  O  O20  1  0.23610273  0.26473146  0.44034351  1
  O  O21  1  0.55414071  0.73555812  0.41547566  1
  O  O22  1  0.73440353  0.75535550  0.08501003  1
  O  O23  1  0.19113776  0.57335897  0.00419174  1
  O  O24  1  0.41297876  0.73313814  0.76563879  1
  O  O25  1  0.59085177  0.26570820  0.24021225  1
  O  O26  1  0.80626840  0.42831229  0.00014057  1
  O  O27  1  0.26629407  0.24659855  0.91353500  1
  O  O28  1  0.45889745  0.26508854  0.57882948  1
  O  O29  1  0.76152553  0.73270776  0.55650081  1
  O  O30  1  0.49099674  0.06780308  0.69726295  1
  O  O31  1  0.62366126  0.42775914  0.80872301  1
  O  O32  1  0.91004544  0.24516668  0.07209298  1
  O  O33  1  0.98857638  0.56176556  0.37944434  1
  O  O34  1  0.93618424  0.75230674  0.73149942  1
  O  O35  1  0.87961042  0.06812032  0.49305979  1
  O  O36  1  0.69528047  0.06758793  0.88340046  1
