# generated using pymatgen
data_Er(BRh)4
_symmetry_space_group_name_H-M   'P 1'
_cell_length_a   5.33630442
_cell_length_b   5.33630442
_cell_length_c   7.44528017
_cell_angle_alpha   90.00000000
_cell_angle_beta   90.00000000
_cell_angle_gamma   90.00000000
_symmetry_Int_Tables_number   1
_chemical_formula_structural   Er(BRh)4
_chemical_formula_sum   'Er2 B8 Rh8'
_cell_volume   212.01287667
_cell_formula_units_Z   2
loop_
 _symmetry_equiv_pos_site_id
 _symmetry_equiv_pos_as_xyz
  1  'x, y, z'
loop_
 _atom_site_type_symbol
 _atom_site_label
 _atom_site_symmetry_multiplicity
 _atom_site_fract_x
 _atom_site_fract_y
 _atom_site_fract_z
 _atom_site_occupancy
  B  B0  1  0.91859072  0.75000000  0.39884046  1
  B  B1  1  0.58140928  0.75000000  0.39884046  1
  B  B2  1  0.75000000  0.91859072  0.89884046  1
  B  B3  1  0.08140928  0.25000000  0.60115954  1
  B  B4  1  0.41859072  0.25000000  0.60115954  1
  B  B5  1  0.25000000  0.08140928  0.10115954  1
  B  B6  1  0.25000000  0.41859072  0.10115954  1
  B  B7  1  0.75000000  0.58140928  0.89884046  1
  Rh  Rh8  1  0.49858322  0.75000000  0.10439109  1
  Rh  Rh9  1  0.00141678  0.75000000  0.10439109  1
  Rh  Rh10  1  0.75000000  0.00141678  0.60439109  1
  Rh  Rh11  1  0.99858322  0.25000000  0.89560891  1
  Rh  Rh12  1  0.50141678  0.25000000  0.89560891  1
  Rh  Rh13  1  0.25000000  0.99858322  0.39560891  1
  Rh  Rh14  1  0.25000000  0.50141678  0.39560891  1
  Rh  Rh15  1  0.75000000  0.49858322  0.60439109  1
  Er  Er16  1  0.25000000  0.75000000  0.75000000  1
  Er  Er17  1  0.75000000  0.25000000  0.25000000  1
