# generated using pymatgen
data_Li(CoO2)4
_symmetry_space_group_name_H-M   'P 1'
_cell_length_a   5.62967818
_cell_length_b   5.62967818
_cell_length_c   5.94128478
_cell_angle_alpha   61.72030389
_cell_angle_beta   61.72030389
_cell_angle_gamma   59.99999908
_symmetry_Int_Tables_number   1
_chemical_formula_structural   Li(CoO2)4
_chemical_formula_sum   'Li1 Co4 O8'
_cell_volume   136.50507585
_cell_formula_units_Z   1
loop_
 _symmetry_equiv_pos_site_id
 _symmetry_equiv_pos_as_xyz
  1  'x, y, z'
loop_
 _atom_site_type_symbol
 _atom_site_label
 _atom_site_symmetry_multiplicity
 _atom_site_fract_x
 _atom_site_fract_y
 _atom_site_fract_z
 _atom_site_occupancy
  Li  Li0  1  0.50000000  0.00000000  0.00000000  1
  Co  Co1  1  0.50000000  0.00000000  0.50000000  1
  Co  Co2  1  0.00000000  0.00000000  0.50000000  1
  Co  Co3  1  0.50000000  0.50000000  0.50000000  1
  Co  Co4  1  0.00000000  0.50000000  0.50000000  1
  O  O5  1  0.73028056  0.23028056  0.30915933  1
  O  O6  1  0.76561974  0.26561974  0.69622473  1
  O  O7  1  0.23438026  0.22746422  0.30377527  1
  O  O8  1  0.27253578  0.26561974  0.69622473  1
  O  O9  1  0.72746422  0.73438026  0.30377527  1
  O  O10  1  0.76561974  0.77253578  0.69622473  1
  O  O11  1  0.23438026  0.73438026  0.30377527  1
  O  O12  1  0.26971944  0.76971944  0.69084067  1
