# generated using pymatgen
data_LiV2(PO4)3
_symmetry_space_group_name_H-M   'P 1'
_cell_length_a   8.53684454
_cell_length_b   12.13000007
_cell_length_c   8.57074446
_cell_angle_alpha   90.00000000
_cell_angle_beta   90.00000000
_cell_angle_gamma   89.85390840
_symmetry_Int_Tables_number   1
_chemical_formula_structural   LiV2(PO4)3
_chemical_formula_sum   'Li4 V8 P12 O48'
_cell_volume   887.51420116
_cell_formula_units_Z   4
loop_
 _symmetry_equiv_pos_site_id
 _symmetry_equiv_pos_as_xyz
  1  'x, y, z'
loop_
 _atom_site_type_symbol
 _atom_site_label
 _atom_site_symmetry_multiplicity
 _atom_site_fract_x
 _atom_site_fract_y
 _atom_site_fract_z
 _atom_site_occupancy
  Li  Li0  1  0.06894443  0.70309081  0.08865321  1
  Li  Li1  1  0.43105557  0.79690919  0.58865321  1
  Li  Li2  1  0.56894443  0.20308981  0.41134679  1
  Li  Li3  1  0.93105557  0.29690919  0.91134679  1
  V  V4  1  0.25407527  0.88884369  0.03242385  1
  V  V5  1  0.24592473  0.61115631  0.53242385  1
  V  V6  1  0.25757049  0.38342771  0.96879878  1
  V  V7  1  0.24242951  0.11657229  0.46879878  1
  V  V8  1  0.75757049  0.88342771  0.53120122  1
  V  V9  1  0.74242951  0.61657229  0.03120122  1
  V  V10  1  0.75407527  0.38884369  0.46757615  1
  V  V11  1  0.74592473  0.11115631  0.96757615  1
  P  P12  1  0.03400689  0.49460353  0.24755086  1
  P  P13  1  0.11046805  0.85383886  0.39095036  1
  P  P14  1  0.10723184  0.14452888  0.10901097  1
  P  P15  1  0.38953195  0.64616114  0.89095036  1
  P  P16  1  0.39276816  0.35547112  0.60901097  1
  P  P17  1  0.46599311  0.00539647  0.74755086  1
  P  P18  1  0.53400689  0.99460353  0.25244914  1
  P  P19  1  0.60723184  0.64452888  0.39098903  1
  P  P20  1  0.61046805  0.35383886  0.10904964  1
  P  P21  1  0.89276816  0.85547112  0.89098903  1
  P  P22  1  0.88953195  0.14616114  0.60904964  1
  P  P23  1  0.96599311  0.50539647  0.75244914  1
  O  O24  1  0.05605475  0.42982071  0.86689471  1
  O  O25  1  0.07385543  0.86910368  0.89694444  1
  O  O26  1  0.07460728  0.59177161  0.67571249  1
  O  O27  1  0.06384173  0.17049071  0.57763169  1
  O  O28  1  0.10916956  0.57577158  0.36270711  1
  O  O29  1  0.15447202  0.97236474  0.43036486  1
  O  O30  1  0.13358521  0.83065156  0.21351486  1
  O  O31  1  0.14360098  0.24158018  0.99814426  1
  O  O32  1  0.16016165  0.17192884  0.27721090  1
  O  O33  1  0.16536509  0.43298739  0.16000393  1
  O  O34  1  0.19160051  0.04020519  0.05453726  1
  O  O35  1  0.21217555  0.77516549  0.49270335  1
  O  O36  1  0.28782445  0.72483451  0.99270335  1
  O  O37  1  0.30839949  0.45979481  0.55453726  1
  O  O38  1  0.33463491  0.06701261  0.66000393  1
  O  O39  1  0.33983835  0.32807116  0.77721090  1
  O  O40  1  0.36641479  0.66934844  0.71351486  1
  O  O41  1  0.34552798  0.52763526  0.93036486  1
  O  O42  1  0.35639902  0.25841982  0.49814426  1
  O  O43  1  0.39083044  0.92422842  0.86270711  1
  O  O44  1  0.42539272  0.90822839  0.17571249  1
  O  O45  1  0.42614457  0.63089632  0.39694444  1
  O  O46  1  0.43615827  0.32950929  0.07763169  1
  O  O47  1  0.44394525  0.07017929  0.36689471  1
  O  O48  1  0.55605475  0.92982071  0.63310529  1
  O  O49  1  0.56384173  0.67049071  0.92236831  1
  O  O50  1  0.57385543  0.36910368  0.60305556  1
  O  O51  1  0.57460728  0.09177161  0.82428751  1
  O  O52  1  0.60916956  0.07577158  0.13729289  1
  O  O53  1  0.64360098  0.74158018  0.50185574  1
  O  O54  1  0.65447202  0.47236474  0.06963514  1
  O  O55  1  0.63358521  0.33065156  0.28648514  1
  O  O56  1  0.66016165  0.67192884  0.22278910  1
  O  O57  1  0.66536509  0.93298739  0.33999607  1
  O  O58  1  0.69160051  0.54020519  0.44546274  1
  O  O59  1  0.71217555  0.27516549  0.00729665  1
  O  O60  1  0.78782445  0.22483451  0.50729665  1
  O  O61  1  0.80839949  0.95979481  0.94546274  1
  O  O62  1  0.83463491  0.56701261  0.83999607  1
  O  O63  1  0.83983835  0.82807116  0.72278910  1
  O  O64  1  0.85639902  0.75841982  0.00185574  1
  O  O65  1  0.86641479  0.16934844  0.78648514  1
  O  O66  1  0.84552798  0.02763526  0.56963514  1
  O  O67  1  0.89083044  0.42422842  0.63729289  1
  O  O68  1  0.93615827  0.82950929  0.42236831  1
  O  O69  1  0.92539272  0.40822839  0.32428751  1
  O  O70  1  0.92614457  0.13089632  0.10305556  1
  O  O71  1  0.94394525  0.57017929  0.13310529  1
