# generated using pymatgen
data_CoPO4
_symmetry_space_group_name_H-M   'P 1'
_cell_length_a   10.38209757
_cell_length_b   10.38209708
_cell_length_c   24.72789260
_cell_angle_alpha   90.00000000
_cell_angle_beta   90.00000000
_cell_angle_gamma   60.00000397
_symmetry_Int_Tables_number   1
_chemical_formula_structural   CoPO4
_chemical_formula_sum   'Co24 P24 O96'
_cell_volume   2308.27711888
_cell_formula_units_Z   24
loop_
 _symmetry_equiv_pos_site_id
 _symmetry_equiv_pos_as_xyz
  1  'x, y, z'
loop_
 _atom_site_type_symbol
 _atom_site_label
 _atom_site_symmetry_multiplicity
 _atom_site_fract_x
 _atom_site_fract_y
 _atom_site_fract_z
 _atom_site_occupancy
  Co  Co0  1  0.30492922  0.88526152  0.84644841  1
  Co  Co1  1  0.14824392  0.68484565  0.68378218  1
  Co  Co2  1  0.31515435  0.83308957  0.51711518  1
  Co  Co3  1  0.19018973  0.69507078  0.01311441  1
  Co  Co4  1  0.16525937  0.63270534  0.37754186  1
  Co  Co5  1  0.36729466  0.79796470  0.21087486  1
  Co  Co6  1  0.11473848  0.19018973  0.67978141  1
  Co  Co7  1  0.79796470  0.83474063  0.54420886  1
  Co  Co8  1  0.83308957  0.85175608  0.85044818  1
  Co  Co9  1  0.65393510  0.66558203  0.65559101  1
  Co  Co10  1  0.31951714  0.34606490  0.82225801  1
  Co  Co11  1  0.33441797  0.31951714  0.48892401  1
  Co  Co12  1  0.66558203  0.68048286  0.98892401  1
  Co  Co13  1  0.68048286  0.65393510  0.32225801  1
  Co  Co14  1  0.34606490  0.33441797  0.15559101  1
  Co  Co15  1  0.16691043  0.14824392  0.35044818  1
  Co  Co16  1  0.20203530  0.16525937  0.04420886  1
  Co  Co17  1  0.88526152  0.80981027  0.17978141  1
  Co  Co18  1  0.63270534  0.20203530  0.71087486  1
  Co  Co19  1  0.83474063  0.36729466  0.87754186  1
  Co  Co20  1  0.80981027  0.30492922  0.51311441  1
  Co  Co21  1  0.68484565  0.16691043  0.01711518  1
  Co  Co22  1  0.85175608  0.31515435  0.18378218  1
  Co  Co23  1  0.69507078  0.11473848  0.34644841  1
  P  P24  1  0.32537173  0.88410622  0.97319273  1
  P  P25  1  0.30518745  0.85575536  0.64322646  1
  P  P26  1  0.16094281  0.69481255  0.80989246  1
  P  P27  1  0.13096705  0.65466807  0.50391151  1
  P  P28  1  0.20947895  0.67462827  0.13985973  1
  P  P29  1  0.34533193  0.78563412  0.33724551  1
  P  P30  1  0.11589378  0.20947895  0.80652673  1
  P  P31  1  0.78563412  0.86903295  0.67057851  1
  P  P32  1  0.64632188  0.68159014  0.85477960  1
  P  P33  1  0.32791201  0.35367812  0.02144560  1
  P  P34  1  0.14424464  0.16094281  0.47655946  1
  P  P35  1  0.31840986  0.32791201  0.68811260  1
  P  P36  1  0.68159014  0.67208799  0.18811260  1
  P  P37  1  0.85575536  0.83905719  0.97655946  1
  P  P38  1  0.67208799  0.64632188  0.52144560  1
  P  P39  1  0.35367812  0.31840986  0.35477960  1
  P  P40  1  0.21436588  0.13096705  0.17057851  1
  P  P41  1  0.88410622  0.79052105  0.30652673  1
  P  P42  1  0.65466807  0.21436588  0.83724551  1
  P  P43  1  0.79052105  0.32537173  0.63985973  1
  P  P44  1  0.86903295  0.34533193  0.00391151  1
  P  P45  1  0.83905719  0.30518745  0.30989246  1
  P  P46  1  0.69481255  0.14424464  0.14322646  1
  P  P47  1  0.67462827  0.11589378  0.47319273  1
  O  O48  1  0.18224453  0.98711749  0.67583032  1
  O  O49  1  0.20074076  0.00739188  0.00776966  1
  O  O50  1  0.22171175  0.95075935  0.33903797  1
  O  O51  1  0.99534502  0.73524086  0.80524460  1
  O  O52  1  0.16936102  0.81775547  0.84249732  1
  O  O53  1  0.00002849  0.69163237  0.54298394  1
  O  O54  1  0.17247210  0.77828825  0.50570497  1
  O  O55  1  0.32540809  0.94352812  0.91554309  1
  O  O56  1  0.20813264  0.79925924  0.17443666  1
  O  O57  1  0.04807728  0.70350898  0.13468463  1
  O  O58  1  0.31471995  0.90894603  0.58542462  1
  O  O59  1  0.08575352  0.63804201  0.44534167  1
  O  O60  1  0.22366598  0.68528005  0.75209162  1
  O  O61  1  0.26475914  0.73058588  0.63857760  1
  O  O62  1  0.26893521  0.67459191  0.08220909  1
  O  O63  1  0.29649102  0.75158626  0.96801863  1
  O  O64  1  0.47616960  0.83639239  0.00156778  1
  O  O65  1  0.30836763  0.69166086  0.37631694  1
  O  O66  1  0.45592182  0.79763338  0.67266517  1
  O  O67  1  0.19181755  0.48945215  0.67815029  1
  O  O68  1  0.36195799  0.72379554  0.27867567  1
  O  O69  1  0.49608342  0.76918256  0.35569635  1
  O  O70  1  0.69166086  0.99997151  0.70964994  1
  O  O71  1  0.22194924  0.50644295  0.99571059  1
  O  O72  1  0.73058588  0.00465498  0.97191060  1
  O  O73  1  0.25355520  0.54407818  0.83933117  1
  O  O74  1  0.23281841  0.46870069  0.32999743  1
  O  O75  1  0.26526597  0.50391658  0.52236335  1
  O  O76  1  0.05647188  0.26893521  0.74887609  1
  O  O77  1  0.49355705  0.72839118  0.82904359  1
  O  O78  1  0.72379554  0.91424648  0.61200867  1
  O  O79  1  0.75158626  0.95192272  0.30135163  1
  O  O80  1  0.31256199  0.52383040  0.16823378  1
  O  O81  1  0.16360761  0.31256199  0.83490078  1
  O  O82  1  0.68127069  0.80818245  0.84481729  1
  O  O83  1  0.99260812  0.20813264  0.84110266  1
  O  O84  1  0.09105397  0.22366598  0.41875862  1
  O  O85  1  0.51054785  0.68127069  0.51148429  1
  O  O86  1  0.53129931  0.70151910  0.16333143  1
  O  O87  1  0.70151910  0.76718159  0.49666443  1
  O  O88  1  0.01288251  0.16936102  0.50916332  1
  O  O89  1  0.29067686  0.35681878  0.08248314  1
  O  O90  1  0.64749564  0.70932314  0.24914914  1
  O  O91  1  0.04924065  0.17247210  0.17237097  1
  O  O92  1  0.20236662  0.25355520  0.50599817  1
  O  O93  1  0.23081744  0.26526597  0.18902935  1
  O  O94  1  0.72839118  0.77805076  0.16237759  1
  O  O95  1  0.64318122  0.64749564  0.91581614  1
  O  O96  1  0.35681878  0.35250436  0.41581614  1
  O  O97  1  0.27160882  0.22194924  0.66237759  1
  O  O98  1  0.76918256  0.73473403  0.68902935  1
  O  O99  1  0.79763338  0.74644480  0.00599817  1
  O  O100  1  0.95075935  0.82752790  0.67237097  1
  O  O101  1  0.35250436  0.29067686  0.74914914  1
  O  O102  1  0.70932314  0.64318122  0.58248314  1
  O  O103  1  0.98711749  0.83063898  0.00916332  1
  O  O104  1  0.29848090  0.23281841  0.99666443  1
  O  O105  1  0.46870069  0.29848090  0.66333143  1
  O  O106  1  0.48945215  0.31872931  0.01148429  1
  O  O107  1  0.90894603  0.77633402  0.91875862  1
  O  O108  1  0.00739188  0.79186736  0.34110266  1
  O  O109  1  0.31872931  0.19181755  0.34481729  1
  O  O110  1  0.83639239  0.68743801  0.33490078  1
  O  O111  1  0.68743801  0.47616960  0.66823378  1
  O  O112  1  0.24841374  0.04807728  0.80135163  1
  O  O113  1  0.27620446  0.08575352  0.11200867  1
  O  O114  1  0.50644295  0.27160882  0.32904359  1
  O  O115  1  0.94352812  0.73106479  0.24887609  1
  O  O116  1  0.73473403  0.49608342  0.02236335  1
  O  O117  1  0.76718159  0.53129931  0.82999743  1
  O  O118  1  0.74644480  0.45592182  0.33933117  1
  O  O119  1  0.26941412  0.99534502  0.47191060  1
  O  O120  1  0.77805076  0.49355705  0.49571059  1
  O  O121  1  0.30833914  0.00002849  0.20964994  1
  O  O122  1  0.50391658  0.23081744  0.85569635  1
  O  O123  1  0.63804201  0.27620446  0.77867567  1
  O  O124  1  0.80818245  0.51054785  0.17815029  1
  O  O125  1  0.54407818  0.20236662  0.17266517  1
  O  O126  1  0.69163237  0.30833914  0.87631694  1
  O  O127  1  0.52383040  0.16360761  0.50156778  1
  O  O128  1  0.70350898  0.24841374  0.46801863  1
  O  O129  1  0.73106479  0.32540809  0.58220909  1
  O  O130  1  0.73524086  0.26941412  0.13857760  1
  O  O131  1  0.77633402  0.31471995  0.25209162  1
  O  O132  1  0.91424648  0.36195799  0.94534167  1
  O  O133  1  0.68528005  0.09105397  0.08542462  1
  O  O134  1  0.95192272  0.29649102  0.63468463  1
  O  O135  1  0.79186736  0.20074076  0.67443666  1
  O  O136  1  0.67459191  0.05647188  0.41554309  1
  O  O137  1  0.82752790  0.22171175  0.00570497  1
  O  O138  1  0.99997151  0.30836763  0.04298394  1
  O  O139  1  0.83063898  0.18224453  0.34249732  1
  O  O140  1  0.00465498  0.26475914  0.30524460  1
  O  O141  1  0.77828825  0.04924065  0.83903797  1
  O  O142  1  0.79925924  0.99260812  0.50776966  1
  O  O143  1  0.81775547  0.01288251  0.17583032  1
