# generated using pymatgen
data_Li2FeF4
_symmetry_space_group_name_H-M   'P 1'
_cell_length_a   6.05341108
_cell_length_b   6.05177842
_cell_length_c   8.57785765
_cell_angle_alpha   89.93094605
_cell_angle_beta   89.97744644
_cell_angle_gamma   90.01834861
_symmetry_Int_Tables_number   1
_chemical_formula_structural   Li2FeF4
_chemical_formula_sum   'Li8 Fe4 F16'
_cell_volume   314.24013241
_cell_formula_units_Z   4
loop_
 _symmetry_equiv_pos_site_id
 _symmetry_equiv_pos_as_xyz
  1  'x, y, z'
loop_
 _atom_site_type_symbol
 _atom_site_label
 _atom_site_symmetry_multiplicity
 _atom_site_fract_x
 _atom_site_fract_y
 _atom_site_fract_z
 _atom_site_occupancy
  Li  Li0  1  0.25613472  0.25711987  0.37519151  1
  Li  Li1  1  0.25690395  0.74353554  0.12491049  1
  Li  Li2  1  0.26939231  0.49983085  0.74781463  1
  Li  Li3  1  0.49962011  0.27057349  -0.00021264  1
  Li  Li4  1  0.49985374  0.72964079  0.49911503  1
  Li  Li5  1  0.72863345  0.50054781  0.24760818  1
  Li  Li6  1  0.74304106  0.25565547  0.62501892  1
  Li  Li7  1  0.74341370  0.74270961  0.87475490  1
  Fe  Fe8  1  0.00018303  0.26111960  0.00017889  1
  Fe  Fe9  1  -0.00019933  0.73849646  0.50030650  1
  Fe  Fe10  1  0.26218138  0.00029987  0.75114739  1
  Fe  Fe11  1  0.73910438  0.00049861  0.25100036  1
  F  F12  1  0.01966333  0.24825639  0.75071750  1
  F  F13  1  0.01680969  0.74727006  0.74871538  1
  F  F14  1  0.25444630  0.01428209  -0.00141895  1
  F  F15  1  0.24544234  0.97969011  0.50114557  1
  F  F16  1  0.24815459  0.48371590  0.99294077  1
  F  F17  1  0.25587229  0.51032977  0.50889158  1
  F  F18  1  0.48645096  0.25639893  0.75890421  1
  F  F19  1  0.48331413  0.74919509  0.74221850  1
  F  F20  1  0.51309681  0.24754702  0.24203511  1
  F  F21  1  0.51042629  0.74706554  0.25906693  1
  F  F22  1  0.75140313  0.51635571  0.49197283  1
  F  F23  1  0.74382125  0.48906642  0.00950855  1
  F  F24  1  0.74677958  0.98635093  0.49860497  1
  F  F25  1  0.75630978  0.01847764  0.00048865  1
  F  F26  1  0.98635335  0.25001484  0.24843216  1
  F  F27  1  0.98339368  0.75595558  0.25094206  1
