# generated using pymatgen
data_Li3Co4SbO8
_symmetry_space_group_name_H-M   'P 1'
_cell_length_a   10.55624394
_cell_length_b   10.55624380
_cell_length_c   14.79397331
_cell_angle_alpha   19.60174684
_cell_angle_beta   19.60174807
_cell_angle_gamma   33.93110296
_symmetry_Int_Tables_number   1
_chemical_formula_structural   Li3Co4SbO8
_chemical_formula_sum   'Li3 Co4 Sb1 O8'
_cell_volume   159.25863340
_cell_formula_units_Z   1
loop_
 _symmetry_equiv_pos_site_id
 _symmetry_equiv_pos_as_xyz
  1  'x, y, z'
loop_
 _atom_site_type_symbol
 _atom_site_label
 _atom_site_symmetry_multiplicity
 _atom_site_fract_x
 _atom_site_fract_y
 _atom_site_fract_z
 _atom_site_occupancy
  Li  Li0  1  0.00000000  0.50000000  0.50000000  1
  Li  Li1  1  0.50000000  0.00000000  0.50000000  1
  Li  Li2  1  0.50000000  0.50000000  0.50000000  1
  Co  Co3  1  0.00000000  0.00000000  0.00000000  1
  Co  Co4  1  0.00000000  0.50000000  0.00000000  1
  Co  Co5  1  0.50000000  0.00000000  0.00000000  1
  Co  Co6  1  0.00000000  0.00000000  0.50000000  1
  Sb  Sb7  1  0.50000000  0.50000000  0.00000000  1
  O  O8  1  0.98495534  0.98495534  0.27483109  1
  O  O9  1  0.04262018  0.50819700  0.22072479  1
  O  O10  1  0.50819700  0.04262018  0.22072479  1
  O  O11  1  0.01504466  0.01504466  0.72516891  1
  O  O12  1  0.51927700  0.51927700  0.23066471  1
  O  O13  1  0.95737982  0.49180300  0.77927521  1
  O  O14  1  0.49180300  0.95737982  0.77927521  1
  O  O15  1  0.48072300  0.48072300  0.76933529  1
