# generated using pymatgen
data_Na6Ni2P(CO4)4
_symmetry_space_group_name_H-M   'P 1'
_cell_length_a   9.81049234
_cell_length_b   9.81049208
_cell_length_c   9.81049187
_cell_angle_alpha   90.00000287
_cell_angle_beta   60.00000177
_cell_angle_gamma   60.00000250
_symmetry_Int_Tables_number   1
_chemical_formula_structural   Na6Ni2P(CO4)4
_chemical_formula_sum   'Na12 Ni4 P2 C8 O32'
_cell_volume   667.66313280
_cell_formula_units_Z   2
loop_
 _symmetry_equiv_pos_site_id
 _symmetry_equiv_pos_as_xyz
  1  'x, y, z'
loop_
 _atom_site_type_symbol
 _atom_site_label
 _atom_site_symmetry_multiplicity
 _atom_site_fract_x
 _atom_site_fract_y
 _atom_site_fract_z
 _atom_site_occupancy
  Na  Na0  1  0.75000000  0.66235710  0.91235710  1
  Na  Na1  1  0.67528580  0.91235710  0.66235710  1
  Na  Na2  1  0.75000000  0.66235710  0.33764290  1
  Na  Na3  1  0.75000000  0.08764290  0.91235710  1
  Na  Na4  1  0.82471420  0.33764290  0.08764290  1
  Na  Na5  1  0.25000000  0.91235710  0.66235710  1
  Na  Na6  1  0.17528580  0.66235710  0.91235710  1
  Na  Na7  1  0.75000000  0.08764290  0.33764290  1
  Na  Na8  1  0.25000000  0.91235710  0.08764290  1
  Na  Na9  1  0.25000000  0.33764290  0.66235710  1
  Na  Na10  1  0.32471420  0.08764290  0.33764290  1
  Na  Na11  1  0.25000000  0.33764290  0.08764290  1
  Ni  Ni12  1  0.50000000  0.50000000  0.50000000  1
  Ni  Ni13  1  0.50000000  0.50000000  0.00000000  1
  Ni  Ni14  1  0.00000000  0.50000000  0.50000000  1
  Ni  Ni15  1  0.00000000  0.00000000  0.50000000  1
  P  P16  1  0.75000000  0.87500000  0.12500000  1
  P  P17  1  0.25000000  0.12500000  0.87500000  1
  C  C18  1  0.93373092  0.28313504  0.71686496  1
  C  C19  1  0.56626908  0.65059589  0.71686496  1
  C  C20  1  0.93373092  0.28313504  0.34940411  1
  C  C21  1  0.56626908  0.28313504  0.71686496  1
  C  C22  1  0.43373092  0.71686496  0.28313504  1
  C  C23  1  0.06626908  0.71686496  0.65059589  1
  C  C24  1  0.43373092  0.34940411  0.28313504  1
  C  C25  1  0.06626908  0.71686496  0.28313504  1
  O  O26  1  0.94605518  0.86050813  0.65332275  1
  O  O27  1  0.94605518  0.69343669  0.40062207  1
  O  O28  1  0.79281462  0.40062207  0.86050813  1
  O  O29  1  0.70718538  0.65332275  0.69343669  1
  O  O30  1  0.95988606  0.13949187  0.69343669  1
  O  O31  1  0.87933338  0.93966669  0.06033331  1
  O  O32  1  0.95988606  0.40062207  0.34667725  1
  O  O33  1  0.62066662  0.93966669  0.31900107  1
  O  O34  1  0.87933338  0.68099893  0.06033331  1
  O  O35  1  0.44605518  0.65332275  0.86050813  1
  O  O36  1  0.54011394  0.65332275  0.59937793  1
  O  O37  1  0.62066662  0.93966669  0.06033331  1
  O  O38  1  0.54011394  0.30656331  0.86050813  1
  O  O39  1  0.79281462  0.30656331  0.34667725  1
  O  O40  1  0.70718538  0.13949187  0.59937793  1
  O  O41  1  0.55394482  0.59937793  0.30656331  1
  O  O42  1  0.44605518  0.40062207  0.69343669  1
  O  O43  1  0.29281462  0.86050813  0.40062207  1
  O  O44  1  0.20718538  0.69343669  0.65332275  1
  O  O45  1  0.45988606  0.69343669  0.13949187  1
  O  O46  1  0.37933338  0.06033331  0.93966669  1
  O  O47  1  0.45988606  0.34667725  0.40062207  1
  O  O48  1  0.55394482  0.34667725  0.13949187  1
  O  O49  1  0.12066662  0.31900107  0.93966669  1
  O  O50  1  0.37933338  0.06033331  0.68099893  1
  O  O51  1  0.04011394  0.59937793  0.65332275  1
  O  O52  1  0.12066662  0.06033331  0.93966669  1
  O  O53  1  0.04011394  0.86050813  0.30656331  1
  O  O54  1  0.29281462  0.34667725  0.30656331  1
  O  O55  1  0.20718538  0.59937793  0.13949187  1
  O  O56  1  0.05394482  0.30656331  0.59937793  1
  O  O57  1  0.05394482  0.13949187  0.34667725  1
