# generated using pymatgen
data_NaZn4H18SClO16
_symmetry_space_group_name_H-M   'P 1'
_cell_length_a   8.47123277
_cell_length_b   8.47123871
_cell_length_c   13.18980684
_cell_angle_alpha   90.00011205
_cell_angle_beta   89.99982709
_cell_angle_gamma   120.00131098
_symmetry_Int_Tables_number   1
_chemical_formula_structural   NaZn4H18SClO16
_chemical_formula_sum   'Na2 Zn8 H36 S2 Cl2 O32'
_cell_volume   819.70364283
_cell_formula_units_Z   2
loop_
 _symmetry_equiv_pos_site_id
 _symmetry_equiv_pos_as_xyz
  1  'x, y, z'
loop_
 _atom_site_type_symbol
 _atom_site_label
 _atom_site_symmetry_multiplicity
 _atom_site_fract_x
 _atom_site_fract_y
 _atom_site_fract_z
 _atom_site_occupancy
  Na  Na0  1  0.33333254  0.66666581  0.59188961  1
  Na  Na1  1  0.66666647  0.33333162  0.40810993  1
  Zn  Zn2  1  0.12752194  0.71362454  0.99258529  1
  Zn  Zn3  1  0.00000136  0.00000312  0.13753854  1
  Zn  Zn4  1  0.00000016  0.99999587  0.86246217  1
  Zn  Zn5  1  0.28637403  0.41389168  0.99258362  1
  Zn  Zn6  1  0.58610574  0.87247730  0.99258640  1
  Zn  Zn7  1  0.41389536  0.12752165  0.00741381  1
  Zn  Zn8  1  0.71362915  0.58610731  0.00741666  1
  Zn  Zn9  1  0.87248036  0.28637559  0.00741399  1
  H  H10  1  0.00882952  0.45965726  0.71589533  1
  H  H11  1  0.23402318  0.90902906  0.15480435  1
  H  H12  1  0.24136106  0.92398213  0.70477807  1
  H  H13  1  0.27250964  0.95171970  0.49823936  1
  H  H14  1  0.24196402  0.82242061  0.40753508  1
  H  H15  1  0.11938658  0.47851794  0.85477928  1
  H  H16  1  0.04828083  0.32079072  0.49823981  1
  H  H17  1  0.35913132  0.88061238  0.85477918  1
  H  H18  1  0.07601361  0.31737582  0.70477892  1
  H  H19  1  0.09097700  0.32499911  0.15480420  1
  H  H20  1  0.17757975  0.41954211  0.40753330  1
  H  H21  1  0.45083096  0.99117273  0.71589508  1
  H  H22  1  0.31737518  0.24135935  0.29522077  1
  H  H23  1  0.32499866  0.23402416  0.84519464  1
  H  H24  1  0.32079588  0.27251104  0.50175861  1
  H  H25  1  0.52148116  0.64086597  0.85477918  1
  H  H26  1  0.58045540  0.75803672  0.40753565  1
  H  H27  1  0.45965785  0.45083163  0.28410568  1
  H  H28  1  0.54034527  0.54916758  0.71589679  1
  H  H29  1  0.41954384  0.24196054  0.59246430  1
  H  H30  1  0.47852015  0.35913140  0.14522079  1
  H  H31  1  0.67921291  0.72749011  0.49823714  1
  H  H32  1  0.67500241  0.76597586  0.15480670  1
  H  H33  1  0.68262992  0.75863742  0.70478085  1
  H  H34  1  0.54917117  0.00882828  0.28410383  1
  H  H35  1  0.82241752  0.58045497  0.59246469  1
  H  H36  1  0.90902143  0.67499942  0.84519577  1
  H  H37  1  0.92398575  0.68262302  0.29522091  1
  H  H38  1  0.64086989  0.11938586  0.14522070  1
  H  H39  1  0.95172214  0.67920926  0.50176152  1
  H  H40  1  0.88061646  0.52148109  0.14522083  1
  H  H41  1  0.75803535  0.17757733  0.59246400  1
  H  H42  1  0.72749059  0.04827234  0.50176240  1
  H  H43  1  0.75863751  0.07600877  0.29521923  1
  H  H44  1  0.76597977  0.09096818  0.84519670  1
  H  H45  1  0.99117519  0.54034478  0.28410231  1
  S  S46  1  0.33333875  0.66667996  0.22319948  1
  S  S47  1  0.66666336  0.33332922  0.77680164  1
  Cl  Cl48  1  0.00000059  0.00000079  0.31107304  1
  Cl  Cl49  1  0.99999845  0.99999787  0.68892748  1
  O  O50  1  0.18637565  0.93694037  0.09295625  1
  O  O51  1  0.22139692  0.82154165  0.48078030  1
  O  O52  1  0.10554575  0.47898095  0.92926873  1
  O  O53  1  0.32830427  0.88079312  0.71545523  1
  O  O54  1  0.11920618  0.44751207  0.71545445  1
  O  O55  1  0.32041666  0.82651053  0.26127156  1
  O  O56  1  0.37343802  0.89445479  0.92926840  1
  O  O57  1  0.17350701  0.49392354  0.26127574  1
  O  O58  1  0.06306745  0.24944075  0.09295531  1
  O  O59  1  0.17846081  0.39985546  0.48077722  1
  O  O60  1  0.33333724  0.66667323  0.10976544  1
  O  O61  1  0.24943820  0.18637820  0.90704328  1
  O  O62  1  0.50609372  0.67960853  0.26127489  1
  O  O63  1  0.52101732  0.62656055  0.92926887  1
  O  O64  1  0.60014698  0.77860202  0.48078083  1
  O  O65  1  0.55249526  0.67169470  0.71545397  1
  O  O66  1  0.44751036  0.32830732  0.28454368  1
  O  O67  1  0.39986195  0.22140134  0.51921774  1
  O  O68  1  0.47898628  0.37343842  0.07073196  1
  O  O69  1  0.49390957  0.32039900  0.73872604  1
  O  O70  1  0.75056103  0.81362371  0.09295797  1
  O  O71  1  0.66666269  0.33332471  0.89023547  1
  O  O72  1  0.82154163  0.60014316  0.51922039  1
  O  O73  1  0.93693464  0.75055854  0.90704392  1
  O  O74  1  0.82649575  0.50609227  0.73873127  1
  O  O75  1  0.62656335  0.10554417  0.07073132  1
  O  O76  1  0.67959506  0.17350483  0.73872589  1
  O  O77  1  0.88079600  0.55248756  0.28454458  1
  O  O78  1  0.67170232  0.11920629  0.28454562  1
  O  O79  1  0.89445794  0.52101909  0.07073137  1
  O  O80  1  0.77860574  0.17845189  0.51921946  1
  O  O81  1  0.81362814  0.06306224  0.90704529  1
