# generated using pymatgen
data_Na4Bi2O5
_symmetry_space_group_name_H-M   'P 1'
_cell_length_a   5.14678475
_cell_length_b   8.91046717
_cell_length_c   9.06662985
_cell_angle_alpha   103.67211921
_cell_angle_beta   105.79034526
_cell_angle_gamma   106.90207863
_symmetry_Int_Tables_number   1
_chemical_formula_structural   Na4Bi2O5
_chemical_formula_sum   'Na8 Bi4 O10'
_cell_volume   359.64847555
_cell_formula_units_Z   2
loop_
 _symmetry_equiv_pos_site_id
 _symmetry_equiv_pos_as_xyz
  1  'x, y, z'
loop_
 _atom_site_type_symbol
 _atom_site_label
 _atom_site_symmetry_multiplicity
 _atom_site_fract_x
 _atom_site_fract_y
 _atom_site_fract_z
 _atom_site_occupancy
  Na  Na0  1  0.11931518  0.20380061  0.54962663  1
  Na  Na1  1  0.40886105  0.99477546  0.32573190  1
  Na  Na2  1  0.37455978  0.62044174  0.62791984  1
  Na  Na3  1  0.38987965  0.29940193  0.96093016  1
  Na  Na4  1  0.61012035  0.70059807  0.03906984  1
  Na  Na5  1  0.62544022  0.37955826  0.37208016  1
  Na  Na6  1  0.59113895  0.00522454  0.67426810  1
  Na  Na7  1  0.88068482  0.79619939  0.45037337  1
  Bi  Bi8  1  0.11182388  0.87839849  0.86790073  1
  Bi  Bi9  1  0.14292653  0.55958660  0.23453730  1
  Bi  Bi10  1  0.85707347  0.44041340  0.76546270  1
  Bi  Bi11  1  0.88817612  0.12160151  0.13209927  1
  O  O12  1  0.28536489  0.45516876  0.79617221  1
  O  O13  1  0.13147745  0.37841573  0.35556160  1
  O  O14  1  0.14763122  0.02754067  0.72450825  1
  O  O15  1  0.36082848  0.77503474  0.43963217  1
  O  O16  1  0.69961946  0.87781658  0.88024291  1
  O  O17  1  0.30038054  0.12218342  0.11975709  1
  O  O18  1  0.63917152  0.22496526  0.56036783  1
  O  O19  1  0.85236878  0.97245933  0.27549175  1
  O  O20  1  0.86852255  0.62158427  0.64443840  1
  O  O21  1  0.71463511  0.54483124  0.20382779  1
