# generated using pymatgen
data_Li5Mn(Ni2O5)2
_symmetry_space_group_name_H-M   'P 1'
_cell_length_a   2.90774707
_cell_length_b   6.51884801
_cell_length_c   9.73264169
_cell_angle_alpha   101.36937943
_cell_angle_beta   91.50908944
_cell_angle_gamma   77.38921654
_symmetry_Int_Tables_number   1
_chemical_formula_structural   Li5Mn(Ni2O5)2
_chemical_formula_sum   'Li5 Mn1 Ni4 O10'
_cell_volume   176.47349162
_cell_formula_units_Z   1
loop_
 _symmetry_equiv_pos_site_id
 _symmetry_equiv_pos_as_xyz
  1  'x, y, z'
loop_
 _atom_site_type_symbol
 _atom_site_label
 _atom_site_symmetry_multiplicity
 _atom_site_fract_x
 _atom_site_fract_y
 _atom_site_fract_z
 _atom_site_occupancy
  Li  Li0  1  0.40161658  0.19318763  0.79767614  1
  Li  Li1  1  0.19957226  0.60025012  0.40018295  1
  Li  Li2  1  0.99861885  0.00633972  0.00235271  1
  Li  Li3  1  0.80170439  0.39502369  0.59375399  1
  Li  Li4  1  0.59825363  0.80498844  0.20619018  1
  Mn  Mn5  1  0.70012232  0.60011818  0.90040313  1
  Ni  Ni6  1  0.09281903  0.80506983  0.69757887  1
  Ni  Ni7  1  0.30730088  0.39507795  0.10229878  1
  Ni  Ni8  1  0.48753402  0.00378208  0.49993395  1
  Ni  Ni9  1  0.91228220  0.19631077  0.30009523  1
  O  O10  1  0.23285170  0.51097361  0.76674773  1
  O  O11  1  0.05988507  0.92096166  0.35695114  1
  O  O12  1  0.33910589  0.27911547  0.44329338  1
  O  O13  1  0.48685736  0.10422624  0.16104023  1
  O  O14  1  0.16725124  0.68856937  0.03267498  1
  O  O15  1  0.56350387  0.87787779  0.84796891  1
  O  O16  1  0.62550283  0.72389150  0.55260164  1
  O  O17  1  0.83643011  0.32217705  0.95203781  1
  O  O18  1  0.91399147  0.09588704  0.63904399  1
  O  O19  1  0.77480828  0.47617688  0.24717226  1
