# generated using pymatgen
data_LiEr2Al
_symmetry_space_group_name_H-M   'P 1'
_cell_length_a   5.10420893
_cell_length_b   5.10421150
_cell_length_c   5.10419734
_cell_angle_alpha   59.99988470
_cell_angle_beta   60.00010833
_cell_angle_gamma   59.99992979
_symmetry_Int_Tables_number   1
_chemical_formula_structural   LiEr2Al
_chemical_formula_sum   'Li1 Er2 Al1'
_cell_volume   94.03062238
_cell_formula_units_Z   1
loop_
 _symmetry_equiv_pos_site_id
 _symmetry_equiv_pos_as_xyz
  1  'x, y, z'
loop_
 _atom_site_type_symbol
 _atom_site_label
 _atom_site_symmetry_multiplicity
 _atom_site_fract_x
 _atom_site_fract_y
 _atom_site_fract_z
 _atom_site_occupancy
  Li  Li0  1  0.75000019  0.74999980  0.75000022  1
  Er  Er1  1  0.49999866  0.50000293  0.49999965  1
  Er  Er2  1  0.00000124  0.99999749  0.99999986  1
  Al  Al3  1  0.24999991  0.24999978  0.25000027  1
