# generated using pymatgen
data_Ta2Co4O9
_symmetry_space_group_name_H-M   'P 1'
_cell_length_a   5.20797500
_cell_length_b   5.20788645
_cell_length_c   14.31473640
_cell_angle_alpha   89.99673330
_cell_angle_beta   90.00198257
_cell_angle_gamma   119.99865288
_symmetry_Int_Tables_number   1
_chemical_formula_structural   Ta2Co4O9
_chemical_formula_sum   'Ta4 Co8 O18'
_cell_volume   336.24069814
_cell_formula_units_Z   2
loop_
 _symmetry_equiv_pos_site_id
 _symmetry_equiv_pos_as_xyz
  1  'x, y, z'
loop_
 _atom_site_type_symbol
 _atom_site_label
 _atom_site_symmetry_multiplicity
 _atom_site_fract_x
 _atom_site_fract_y
 _atom_site_fract_z
 _atom_site_occupancy
  Ta  Ta0  1  0.99996478  0.99995727  0.14322079  1
  Ta  Ta1  1  0.99996867  0.00000842  0.35664712  1
  Ta  Ta2  1  0.00000756  0.99999735  0.64336894  1
  Ta  Ta3  1  0.00001927  0.00004259  0.85676414  1
  Co  Co4  1  0.33331835  0.66664924  0.01454926  1
  Co  Co5  1  0.33328901  0.66664765  0.30827751  1
  Co  Co6  1  0.33334660  0.66667993  0.80836589  1
  Co  Co7  1  0.33331719  0.66665627  0.51460507  1
  Co  Co8  1  0.66664228  0.33333062  0.19165517  1
  Co  Co9  1  0.66669396  0.33335343  0.69173206  1
  Co  Co10  1  0.66667476  0.33334433  0.98547480  1
  Co  Co11  1  0.66666943  0.33334864  0.48541488  1
  O  O12  1  0.00003393  0.71228444  0.75012203  1
  O  O13  1  0.02161488  0.67995808  0.41546483  1
  O  O14  1  0.32019382  0.97857262  0.91563537  1
  O  O15  1  0.00002035  0.28775429  0.24987461  1
  O  O16  1  0.02147493  0.34170479  0.91562896  1
  O  O17  1  0.32002592  0.34159725  0.41546742  1
  O  O18  1  0.28773121  0.28774117  0.75011564  1
  O  O19  1  0.34164379  0.32001335  0.08435023  1
  O  O20  1  0.65836338  0.97843729  0.41546308  1
  O  O21  1  0.28765298  0.99993514  0.24987593  1
  O  O22  1  0.34164805  0.02158164  0.58453127  1
  O  O23  1  0.65840186  0.67983063  0.91563400  1
  O  O24  1  0.71220990  0.71229975  0.24988295  1
  O  O25  1  0.67995183  0.65838499  0.58452540  1
  O  O26  1  0.97835979  0.65826411  0.08436225  1
  O  O27  1  0.67991406  0.02158201  0.08434148  1
  O  O28  1  0.71229207  -0.00000730  0.75012203  1
  O  O29  1  0.97835838  0.32005001  0.58452792  1
