# generated using pymatgen
data_Co3(AsO4)2
_symmetry_space_group_name_H-M   'P 1'
_cell_length_a   6.96195837
_cell_length_b   10.65690895
_cell_length_c   6.96195837
_cell_angle_alpha   70.93499698
_cell_angle_beta   90.00000000
_cell_angle_gamma   109.06500308
_symmetry_Int_Tables_number   1
_chemical_formula_structural   Co3(AsO4)2
_chemical_formula_sum   'Co9 As6 O24'
_cell_volume   458.11479660
_cell_formula_units_Z   3
loop_
 _symmetry_equiv_pos_site_id
 _symmetry_equiv_pos_as_xyz
  1  'x, y, z'
loop_
 _atom_site_type_symbol
 _atom_site_label
 _atom_site_symmetry_multiplicity
 _atom_site_fract_x
 _atom_site_fract_y
 _atom_site_fract_z
 _atom_site_occupancy
  Co  Co0  1  0.37770321  0.24777244  0.12210036  1
  Co  Co1  1  0.77441040  0.54882079  0.22558960  1
  Co  Co2  1  0.25000000  0.50000000  0.25000000  1
  Co  Co3  1  0.63012720  0.75222756  0.37770321  1
  Co  Co4  1  0.87006923  0.24777244  0.63012720  1
  Co  Co5  1  0.52149167  0.04298334  0.97850833  1
  Co  Co6  1  0.97850833  0.95701666  0.52149167  1
  Co  Co7  1  0.22558960  0.45117921  0.77441040  1
  Co  Co8  1  0.12210036  0.75222756  0.87006923  1
  As  As9  1  0.00000000  0.00000000  0.00000000  1
  As  As10  1  0.87500506  0.24680480  0.22149223  1
  As  As11  1  0.37179975  0.24680480  0.53170297  1
  As  As12  1  0.22149223  0.75319520  0.37179975  1
  As  As13  1  0.75000000  0.50000000  0.75000000  1
  As  As14  1  0.53170297  0.75319520  0.87500506  1
  O  O15  1  0.25494355  0.08860650  0.00893547  1
  O  O16  1  0.65252064  0.21084334  0.11278576  1
  O  O17  1  0.10785960  0.30085135  0.07527512  1
  O  O18  1  0.62387253  0.69914865  0.10785960  1
  O  O19  1  0.26279105  0.11715615  0.42721959  1
  O  O20  1  0.47062210  0.39335510  0.29856257  1
  O  O21  1  0.92273300  0.39335510  0.30808233  1
  O  O22  1  0.85436509  0.11715615  0.45562427  1
  O  O23  1  0.07527512  0.69914865  0.19299275  1
  O  O24  1  0.90245803  0.91139350  0.25494355  1
  O  O25  1  0.45562427  0.88284385  0.26279105  1
  O  O26  1  0.55832270  0.21084334  0.67637090  1
  O  O27  1  0.19299275  0.30085135  0.62387253  1
  O  O28  1  0.30808233  0.60664490  0.47062210  1
  O  O29  1  0.73338178  0.58675557  0.49560617  1
  O  O30  1  0.83366295  0.08860650  0.90245803  1
  O  O31  1  0.91763826  0.41324443  0.73338178  1
  O  O32  1  0.11278576  0.78915666  0.55832270  1
  O  O33  1  0.67637090  0.78915666  0.65252064  1
  O  O34  1  0.49560617  0.41324443  0.85337379  1
  O  O35  1  0.85337379  0.58675557  0.91763826  1
  O  O36  1  0.29856257  0.60664490  0.92273300  1
  O  O37  1  0.42721959  0.88284385  0.85436509  1
  O  O38  1  0.00893547  0.91139350  0.83366295  1
