# generated using pymatgen
data_ReN2
_symmetry_space_group_name_H-M   'P 1'
_cell_length_a   2.81124490
_cell_length_b   3.75319455
_cell_length_c   6.91796476
_cell_angle_alpha   105.73951267
_cell_angle_beta   101.72323090
_cell_angle_gamma   90.00000000
_symmetry_Int_Tables_number   1
_chemical_formula_structural   ReN2
_chemical_formula_sum   'Re2 N4'
_cell_volume   68.67237719
_cell_formula_units_Z   2
loop_
 _symmetry_equiv_pos_site_id
 _symmetry_equiv_pos_as_xyz
  1  'x, y, z'
loop_
 _atom_site_type_symbol
 _atom_site_label
 _atom_site_symmetry_multiplicity
 _atom_site_fract_x
 _atom_site_fract_y
 _atom_site_fract_z
 _atom_site_occupancy
  Re  Re0  1  0.84145630  0.84145630  0.68291260  1
  Re  Re1  1  0.15854370  0.15854370  0.31708740  1
  N  N2  1  0.45054607  0.95054607  0.90109213  1
  N  N3  1  0.54945393  0.04945393  0.09890787  1
  N  N4  1  0.20774151  0.70774151  0.41548302  1
  N  N5  1  0.79225849  0.29225849  0.58451698  1
