# generated using pymatgen
data_SrCa3(CoO3)4
_symmetry_space_group_name_H-M   'P 1'
_cell_length_a   7.77084115
_cell_length_b   7.52735040
_cell_length_c   7.52735040
_cell_angle_alpha   90.00000000
_cell_angle_beta   90.00000000
_cell_angle_gamma   90.00000000
_symmetry_Int_Tables_number   1
_chemical_formula_structural   SrCa3(CoO3)4
_chemical_formula_sum   'Sr2 Ca6 Co8 O24'
_cell_volume   440.30366183
_cell_formula_units_Z   2
loop_
 _symmetry_equiv_pos_site_id
 _symmetry_equiv_pos_as_xyz
  1  'x, y, z'
loop_
 _atom_site_type_symbol
 _atom_site_label
 _atom_site_symmetry_multiplicity
 _atom_site_fract_x
 _atom_site_fract_y
 _atom_site_fract_z
 _atom_site_occupancy
  Sr  Sr0  1  0.25000000  0.25000000  0.75000000  1
  Sr  Sr1  1  0.75000000  0.25000000  0.75000000  1
  Ca  Ca2  1  0.25000000  0.25000000  0.25000000  1
  Ca  Ca3  1  0.25000000  0.75000000  0.25000000  1
  Ca  Ca4  1  0.25000000  0.75000000  0.75000000  1
  Ca  Ca5  1  0.75000000  0.25000000  0.25000000  1
  Ca  Ca6  1  0.75000000  0.75000000  0.25000000  1
  Ca  Ca7  1  0.75000000  0.75000000  0.75000000  1
  Co  Co8  1  -0.00000000  0.99889994  0.00110006  1
  Co  Co9  1  -0.00000000  0.99889994  0.49889994  1
  Co  Co10  1  0.00000000  0.50110006  0.00110006  1
  Co  Co11  1  0.00000000  0.50110006  0.49889994  1
  Co  Co12  1  0.50000000  0.99889994  0.00110006  1
  Co  Co13  1  0.50000000  0.99889994  0.49889994  1
  Co  Co14  1  0.50000000  0.50110006  0.00110006  1
  Co  Co15  1  0.50000000  0.50110006  0.49889994  1
  O  O16  1  0.25000000  0.99609353  0.00390647  1
  O  O17  1  0.25000000  0.99609353  0.49609353  1
  O  O18  1  0.25000000  0.50390647  0.00390647  1
  O  O19  1  0.25000000  0.50390647  0.49609353  1
  O  O20  1  0.75000000  0.99609353  0.00390647  1
  O  O21  1  0.75000000  0.99609353  0.49609353  1
  O  O22  1  0.75000000  0.50390647  0.00390647  1
  O  O23  1  0.75000000  0.50390647  0.49609353  1
  O  O24  1  -0.00000000  0.25000000  0.00662464  1
  O  O25  1  -0.00000000  0.25000000  0.49337536  1
  O  O26  1  -0.00000000  0.75000000  0.99965831  1
  O  O27  1  -0.00000000  0.75000000  0.50034169  1
  O  O28  1  0.50000000  0.25000000  0.00662464  1
  O  O29  1  0.50000000  0.25000000  0.49337536  1
  O  O30  1  0.50000000  0.75000000  0.99965831  1
  O  O31  1  0.50000000  0.75000000  0.50034169  1
  O  O32  1  0.00000000  0.00034169  0.25000000  1
  O  O33  1  -0.00000000  0.99337536  0.75000000  1
  O  O34  1  -0.00000000  0.49965831  0.25000000  1
  O  O35  1  0.00000000  0.50662464  0.75000000  1
  O  O36  1  0.50000000  0.00034169  0.25000000  1
  O  O37  1  0.50000000  0.99337536  0.75000000  1
  O  O38  1  0.50000000  0.49965831  0.25000000  1
  O  O39  1  0.50000000  0.50662464  0.75000000  1
