# generated using pymatgen
data_Pr2Fe17C3
_symmetry_space_group_name_H-M   'P 1'
_cell_length_a   6.56205873
_cell_length_b   6.56205873
_cell_length_c   6.56205860
_cell_angle_alpha   84.07505698
_cell_angle_beta   84.07505698
_cell_angle_gamma   84.07505949
_symmetry_Int_Tables_number   1
_chemical_formula_structural   Pr2Fe17C3
_chemical_formula_sum   'Pr2 Fe17 C3'
_cell_volume   278.32897479
_cell_formula_units_Z   1
loop_
 _symmetry_equiv_pos_site_id
 _symmetry_equiv_pos_as_xyz
  1  'x, y, z'
loop_
 _atom_site_type_symbol
 _atom_site_label
 _atom_site_symmetry_multiplicity
 _atom_site_fract_x
 _atom_site_fract_y
 _atom_site_fract_z
 _atom_site_occupancy
  Pr  Pr0  1  0.65501651  0.65501651  0.65501651  1
  Pr  Pr1  1  0.34498349  0.34498349  0.34498349  1
  Fe  Fe2  1  -0.00000000  -0.00000000  0.50000000  1
  Fe  Fe3  1  -0.00000000  0.50000000  -0.00000000  1
  Fe  Fe4  1  0.50000000  -0.00000000  -0.00000000  1
  Fe  Fe5  1  0.28422596  0.71577404  -0.00000000  1
  Fe  Fe6  1  0.71577404  0.00000000  0.28422596  1
  Fe  Fe7  1  1.00000000  0.28422596  0.71577404  1
  Fe  Fe8  1  0.28422596  1.00000000  0.71577404  1
  Fe  Fe9  1  0.00000000  0.71577404  0.28422596  1
  Fe  Fe10  1  0.71577404  0.28422596  -0.00000000  1
  Fe  Fe11  1  0.34095277  0.34095277  0.85871836  1
  Fe  Fe12  1  0.34095277  0.85871836  0.34095277  1
  Fe  Fe13  1  0.85871836  0.34095277  0.34095277  1
  Fe  Fe14  1  0.65904723  0.65904723  0.14128164  1
  Fe  Fe15  1  0.65904723  0.14128164  0.65904723  1
  Fe  Fe16  1  0.14128164  0.65904723  0.65904723  1
  Fe  Fe17  1  0.90545222  0.90545222  0.90545222  1
  Fe  Fe18  1  0.09454778  0.09454778  0.09454778  1
  C  C19  1  0.50000000  0.50000000  -0.00000000  1
  C  C20  1  0.50000000  -0.00000000  0.50000000  1
  C  C21  1  -0.00000000  0.50000000  0.50000000  1
