# generated using pymatgen
data_PbAuO2
_symmetry_space_group_name_H-M   'P 1'
_cell_length_a   3.76368148
_cell_length_b   6.97396409
_cell_length_c   5.66471408
_cell_angle_alpha   91.78904320
_cell_angle_beta   90.67352014
_cell_angle_gamma   82.51150481
_symmetry_Int_Tables_number   1
_chemical_formula_structural   PbAuO2
_chemical_formula_sum   'Pb2 Au2 O4'
_cell_volume   147.34173824
_cell_formula_units_Z   2
loop_
 _symmetry_equiv_pos_site_id
 _symmetry_equiv_pos_as_xyz
  1  'x, y, z'
loop_
 _atom_site_type_symbol
 _atom_site_label
 _atom_site_symmetry_multiplicity
 _atom_site_fract_x
 _atom_site_fract_y
 _atom_site_fract_z
 _atom_site_occupancy
  Pb  Pb0  1  0.31366040  0.26278099  0.50304755  1
  Pb  Pb1  1  0.68633960  0.73721901  0.49695245  1
  Au  Au2  1  0.00000000  0.50000000  0.00000000  1
  Au  Au3  1  0.00000000  0.00000000  0.00000000  1
  O  O4  1  0.21030855  0.56681423  0.68654733  1
  O  O5  1  0.89019931  0.25161944  0.82337303  1
  O  O6  1  0.10980069  0.74838056  0.17662697  1
  O  O7  1  0.78969145  0.43318577  0.31345267  1
