# generated using pymatgen
data_TlHgF3
_symmetry_space_group_name_H-M   'P 1'
_cell_length_a   4.61822995
_cell_length_b   4.61202279
_cell_length_c   4.63378231
_cell_angle_alpha   89.46870094
_cell_angle_beta   88.50175645
_cell_angle_gamma   89.84843653
_symmetry_Int_Tables_number   1
_chemical_formula_structural   TlHgF3
_chemical_formula_sum   'Tl1 Hg1 F3'
_cell_volume   98.65842976
_cell_formula_units_Z   1
loop_
 _symmetry_equiv_pos_site_id
 _symmetry_equiv_pos_as_xyz
  1  'x, y, z'
loop_
 _atom_site_type_symbol
 _atom_site_label
 _atom_site_symmetry_multiplicity
 _atom_site_fract_x
 _atom_site_fract_y
 _atom_site_fract_z
 _atom_site_occupancy
  Tl  Tl0  1  0.03668332  0.97323283  0.93225217  1
  Hg  Hg1  1  0.50425187  0.49679638  0.48005082  1
  F  F2  1  0.46998980  -0.00011879  0.53112313  1
  F  F3  1  0.99233671  0.52210660  0.55219409  1
  F  F4  1  0.43674129  0.50798399  0.99437779  1
