# generated using pymatgen
data_Ho11Ge10
_symmetry_space_group_name_H-M   'P 1'
_cell_length_a   10.90958151
_cell_length_b   10.90958151
_cell_length_c   11.26305708
_cell_angle_alpha   118.96715667
_cell_angle_beta   118.96715667
_cell_angle_gamma   90.00000000
_symmetry_Int_Tables_number   1
_chemical_formula_structural   Ho11Ge10
_chemical_formula_sum   'Ho22 Ge20'
_cell_volume   976.73154602
_cell_formula_units_Z   2
loop_
 _symmetry_equiv_pos_site_id
 _symmetry_equiv_pos_as_xyz
  1  'x, y, z'
loop_
 _atom_site_type_symbol
 _atom_site_label
 _atom_site_symmetry_multiplicity
 _atom_site_fract_x
 _atom_site_fract_y
 _atom_site_fract_z
 _atom_site_occupancy
  Ho  Ho0  1  0.93800474  0.19018031  0.38036063  1
  Ho  Ho1  1  0.44235588  0.19018031  0.38036063  1
  Ho  Ho2  1  0.19018031  0.44235588  0.38036063  1
  Ho  Ho3  1  0.19018031  0.93800474  0.38036063  1
  Ho  Ho4  1  0.06199526  0.80981969  0.61963937  1
  Ho  Ho5  1  0.55764412  0.80981969  0.61963937  1
  Ho  Ho6  1  0.80981969  0.55764412  0.61963937  1
  Ho  Ho7  1  0.80981969  0.06199526  0.61963937  1
  Ho  Ho8  1  0.82245236  0.17754764  -0.00000000  1
  Ho  Ho9  1  0.17754764  0.82245236  -0.00000000  1
  Ho  Ho10  1  0.17754764  0.17754764  -0.00000000  1
  Ho  Ho11  1  0.82245236  0.82245236  -0.00000000  1
  Ho  Ho12  1  0.33999112  0.33999112  0.67998223  1
  Ho  Ho13  1  0.66000888  0.66000888  0.32001777  1
  Ho  Ho14  1  0.07337584  0.39742713  0.79485427  1
  Ho  Ho15  1  0.72147842  0.39742713  0.79485427  1
  Ho  Ho16  1  0.39742713  0.72147842  0.79485427  1
  Ho  Ho17  1  0.39742713  0.07337584  0.79485427  1
  Ho  Ho18  1  0.92662416  0.60257287  0.20514573  1
  Ho  Ho19  1  0.27852158  0.60257287  0.20514573  1
  Ho  Ho20  1  0.60257287  0.27852158  0.20514573  1
  Ho  Ho21  1  0.60257287  0.92662416  0.20514573  1
  Ge  Ge22  1  0.00000000  0.36057738  -0.00000000  1
  Ge  Ge23  1  0.00000000  0.63942262  -0.00000000  1
  Ge  Ge24  1  0.36057738  -0.00000000  -0.00000000  1
  Ge  Ge25  1  0.63942262  -0.00000000  -0.00000000  1
  Ge  Ge26  1  0.11293891  0.11293891  0.22587781  1
  Ge  Ge27  1  0.88706109  0.88706109  0.77412219  1
  Ge  Ge28  1  0.62003793  0.37996207  -0.00000000  1
  Ge  Ge29  1  0.37996207  0.62003793  -0.00000000  1
  Ge  Ge30  1  0.37996207  0.37996207  -0.00000000  1
  Ge  Ge31  1  0.62003793  0.62003793  -0.00000000  1
  Ge  Ge32  1  0.75000000  0.25000000  0.50000000  1
  Ge  Ge33  1  0.25000000  0.75000000  0.50000000  1
  Ge  Ge34  1  0.10898942  0.52866809  0.63765750  1
  Ge  Ge35  1  0.52866809  0.10898942  0.63765750  1
  Ge  Ge36  1  0.52866809  0.52866809  0.63765750  1
  Ge  Ge37  1  0.10898942  0.10898942  0.63765750  1
  Ge  Ge38  1  0.89101058  0.47133191  0.36234250  1
  Ge  Ge39  1  0.47133191  0.89101058  0.36234250  1
  Ge  Ge40  1  0.47133191  0.47133191  0.36234250  1
  Ge  Ge41  1  0.89101058  0.89101058  0.36234250  1
