# generated using pymatgen
data_BaSr7Ti7MnO20
_symmetry_space_group_name_H-M   'P 1'
_cell_length_a   11.33235946
_cell_length_b   11.39236482
_cell_length_c   17.85599934
_cell_angle_alpha   108.61337102
_cell_angle_beta   108.49517449
_cell_angle_gamma   89.97058177
_symmetry_Int_Tables_number   1
_chemical_formula_structural   BaSr7Ti7MnO20
_chemical_formula_sum   'Ba4 Sr28 Ti28 Mn4 O80'
_cell_volume   2058.77962539
_cell_formula_units_Z   4
loop_
 _symmetry_equiv_pos_site_id
 _symmetry_equiv_pos_as_xyz
  1  'x, y, z'
loop_
 _atom_site_type_symbol
 _atom_site_label
 _atom_site_symmetry_multiplicity
 _atom_site_fract_x
 _atom_site_fract_y
 _atom_site_fract_z
 _atom_site_occupancy
  Ba  Ba0  1  0.31105244  0.06092599  0.12413397  1
  Ba  Ba1  1  0.31093935  0.56404676  0.12274141  1
  Ba  Ba2  1  0.81138654  0.06367207  0.12425114  1
  Ba  Ba3  1  0.06095375  0.80964706  0.12293036  1
  Sr  Sr4  1  0.30254043  0.05863838  0.60489506  1
  Sr  Sr5  1  0.30440865  0.56140249  0.60894774  1
  Sr  Sr6  1  0.80172056  0.05904939  0.60572813  1
  Sr  Sr7  1  0.80759999  0.55856001  0.11429381  1
  Sr  Sr8  1  0.80218124  0.56635432  0.60673400  1
  Sr  Sr9  1  0.19444904  0.44095165  0.38543249  1
  Sr  Sr10  1  0.19622786  0.43895904  0.88981828  1
  Sr  Sr11  1  0.19134552  0.93677390  0.38038471  1
  Sr  Sr12  1  0.20063470  0.93832467  0.89447293  1
  Sr  Sr13  1  0.69072722  0.43967640  0.38269717  1
  Sr  Sr14  1  0.68992433  0.43574470  0.88838049  1
  Sr  Sr15  1  0.68889829  0.93832957  0.37879543  1
  Sr  Sr16  1  0.69613143  0.94297586  0.89567633  1
  Sr  Sr17  1  0.05874733  0.30874396  0.11677485  1
  Sr  Sr18  1  0.05653513  0.29806266  0.60961750  1
  Sr  Sr19  1  0.05722474  0.79323738  0.60567698  1
  Sr  Sr20  1  0.55934709  0.30753672  0.11634267  1
  Sr  Sr21  1  0.55082049  0.29492042  0.60895376  1
  Sr  Sr22  1  0.55962545  0.80301061  0.11615616  1
  Sr  Sr23  1  0.55132298  0.79520435  0.60342749  1
  Sr  Sr24  1  0.43950835  0.19041183  0.38340055  1
  Sr  Sr25  1  0.44726976  0.20244987  0.89250685  1
  Sr  Sr26  1  0.44121173  0.69364919  0.38123549  1
  Sr  Sr27  1  0.44486447  0.70166044  0.88941069  1
  Sr  Sr28  1  0.94440709  0.19699711  0.38357470  1
  Sr  Sr29  1  0.94507214  0.20112289  0.89154650  1
  Sr  Sr30  1  0.94328279  0.69360278  0.38429190  1
  Sr  Sr31  1  0.94559627  0.70879757  0.89268468  1
  Ti  Ti32  1  0.00172745  0.00456595  0.00225299  1
  Ti  Ti33  1  0.99763427  0.99597866  0.49428216  1
  Ti  Ti34  1  0.00113355  0.50064442  0.00258457  1
  Ti  Ti35  1  0.00151130  0.50009803  0.50181737  1
  Ti  Ti36  1  0.50035169  0.00042636  0.99955309  1
  Ti  Ti37  1  0.49970106  0.99626148  0.49620136  1
  Ti  Ti38  1  0.49999503  0.49869906  0.99642907  1
  Ti  Ti39  1  0.50230413  0.49849666  0.50087674  1
  Ti  Ti40  1  0.25299367  0.25144869  0.00371481  1
  Ti  Ti41  1  0.25147703  0.25111046  0.50129041  1
  Ti  Ti42  1  0.25022831  0.74851250  0.99777199  1
  Ti  Ti43  1  0.25099118  0.74970588  0.49852039  1
  Ti  Ti44  1  0.75275150  0.25188769  0.00290907  1
  Ti  Ti45  1  0.74948937  0.24884449  0.49520941  1
  Ti  Ti46  1  0.74851686  0.74736216  0.99644354  1
  Ti  Ti47  1  0.74989705  0.75036542  0.49489638  1
  Ti  Ti48  1  0.12218479  0.11542796  0.25396120  1
  Ti  Ti49  1  0.10908948  0.08449320  0.74920539  1
  Ti  Ti50  1  0.11958437  0.61069286  0.25200031  1
  Ti  Ti51  1  0.62527708  0.11112242  0.25143018  1
  Ti  Ti52  1  0.60081719  0.08958902  0.74897930  1
  Ti  Ti53  1  0.62031980  0.61380039  0.25002883  1
  Ti  Ti54  1  0.37313831  0.38910641  0.25276907  1
  Ti  Ti55  1  0.37497874  0.88733033  0.25233927  1
  Ti  Ti56  1  0.86761515  0.39511999  0.25243038  1
  Ti  Ti57  1  0.85270889  0.41268443  0.74873414  1
  Ti  Ti58  1  0.87184730  0.88196955  0.25056315  1
  Ti  Ti59  1  0.84958632  0.90972350  0.74915810  1
  Mn  Mn60  1  0.11054872  0.59274242  0.74962135  1
  Mn  Mn61  1  0.60482497  0.60387357  0.74855878  1
  Mn  Mn62  1  0.35557131  0.40498656  0.74886452  1
  Mn  Mn63  1  0.36461688  0.90179981  0.74912735  1
  O  O64  1  0.12084411  0.12028853  0.49077738  1
  O  O65  1  0.12145505  0.12319818  0.99215445  1
  O  O66  1  0.12199708  0.62157036  0.49215352  1
  O  O67  1  0.12069412  0.62093005  0.99137321  1
  O  O68  1  0.62339466  0.12376569  0.49537723  1
  O  O69  1  0.62295368  0.12582165  0.99774889  1
  O  O70  1  0.62108308  0.62011974  0.48853969  1
  O  O71  1  0.62370921  0.62195707  0.99408195  1
  O  O72  1  0.12316583  0.37245663  0.00062914  1
  O  O73  1  0.12805382  0.37743145  0.50533574  1
  O  O74  1  0.12587325  0.87692006  0.00126582  1
  O  O75  1  0.12823621  0.87703578  0.50555484  1
  O  O76  1  0.62915182  0.37772060  0.00568316  1
  O  O77  1  0.63107243  0.37781347  0.50802633  1
  O  O78  1  0.62742314  0.87647228  0.00706782  1
  O  O79  1  0.62883661  0.87734513  0.50416136  1
  O  O80  1  0.37154737  0.11928830  0.49094162  1
  O  O81  1  0.37222268  0.12213165  0.99303897  1
  O  O82  1  0.37178069  0.61902639  0.48994096  1
  O  O83  1  0.37520765  0.62262307  0.99489543  1
  O  O84  1  0.87321871  0.12155671  0.49532456  1
  O  O85  1  0.87407582  0.12596822  0.99529844  1
  O  O86  1  0.87327100  0.62304233  0.49495014  1
  O  O87  1  0.86971227  0.61733153  0.98954514  1
  O  O88  1  0.37979968  0.37626812  0.00424061  1
  O  O89  1  0.38078697  0.37879955  0.50696858  1
  O  O90  1  0.38046398  0.87870803  0.00558384  1
  O  O91  1  0.37675845  0.87550498  0.50288396  1
  O  O92  1  0.87384181  0.37504243  0.99872534  1
  O  O93  1  0.87969736  0.37998378  0.50788987  1
  O  O94  1  0.87687393  0.87862214  0.00414284  1
  O  O95  1  0.88213156  0.88090837  0.51084839  1
  O  O96  1  0.06562551  0.08276834  0.13180675  1
  O  O97  1  0.08412740  0.09244638  0.64311535  1
  O  O98  1  0.05676319  0.56531824  0.12690858  1
  O  O99  1  0.06922388  0.58435870  0.62736833  1
  O  O100  1  0.56397954  0.08301738  0.13225351  1
  O  O101  1  0.56941605  0.07561842  0.63365854  1
  O  O102  1  0.57199715  0.57764417  0.13108134  1
  O  O103  1  0.57268006  0.58574373  0.62519505  1
  O  O104  1  0.43498886  0.41178043  0.37072928  1
  O  O105  1  0.44599669  0.41912209  0.87352674  1
  O  O106  1  0.43840803  0.91927305  0.37278344  1
  O  O107  1  0.44421232  0.92170485  0.87207161  1
  O  O108  1  0.93525068  0.42371574  0.37158167  1
  O  O109  1  0.93602121  0.39942060  0.85266876  1
  O  O110  1  0.93078143  0.91598264  0.37236031  1
  O  O111  1  0.92864299  0.92269972  0.86333095  1
  O  O112  1  0.31385138  0.30680518  0.12973156  1
  O  O113  1  0.32043064  0.29198148  0.62473782  1
  O  O114  1  0.31796039  0.80884314  0.12989033  1
  O  O115  1  0.32026746  0.79602567  0.62679747  1
  O  O116  1  0.81871080  0.31233538  0.12960779  1
  O  O117  1  0.83190974  0.29571333  0.64425710  1
  O  O118  1  0.81399636  0.79594353  0.13022016  1
  O  O119  1  0.81385140  0.80477340  0.63585568  1
  O  O120  1  0.18705069  0.20841160  0.37211769  1
  O  O121  1  0.18801841  0.19774078  0.85590288  1
  O  O122  1  0.18311938  0.69901974  0.37130588  1
  O  O123  1  0.19293789  0.70588222  0.87139502  1
  O  O124  1  0.69096144  0.20315571  0.37276482  1
  O  O125  1  0.68196185  0.18928838  0.86452551  1
  O  O126  1  0.69465599  0.70418378  0.37131538  1
  O  O127  1  0.69167968  0.70735536  0.87253952  1
  O  O128  1  0.49797471  0.01261378  0.25986499  1
  O  O129  1  0.43586351  0.07545188  0.74830260  1
  O  O130  1  0.49011427  0.51434826  0.25810981  1
  O  O131  1  0.42654685  0.57252609  0.74860295  1
  O  O132  1  0.99682373  0.00594510  0.25822109  1
  O  O133  1  0.94545410  0.05305701  0.74823835  1
  O  O134  1  0.97335295  0.52603494  0.25206571  1
  O  O135  1  0.92106498  0.55983503  0.74937364  1
  O  O136  1  0.23128467  0.48670633  0.25273769  1
  O  O137  1  0.17453886  0.42516518  0.74949419  1
  O  O138  1  0.24752523  0.00114105  0.25741307  1
  O  O139  1  0.17928582  0.93912349  0.74970640  1
  O  O140  1  0.72202513  0.46849422  0.25169506  1
  O  O141  1  0.69205198  0.43749917  0.74849734  1
  O  O142  1  0.73957261  0.98948461  0.25140907  1
  O  O143  1  0.68033815  0.93653800  0.74927510  1
