# generated using pymatgen
data_La4Sm4Co7CuO24
_symmetry_space_group_name_H-M   'P 1'
_cell_length_a   7.65100828
_cell_length_b   7.65525899
_cell_length_c   7.65525899
_cell_angle_alpha   90.14346738
_cell_angle_beta   90.08466441
_cell_angle_gamma   90.08466441
_symmetry_Int_Tables_number   1
_chemical_formula_structural   La4Sm4Co7CuO24
_chemical_formula_sum   'La4 Sm4 Co7 Cu1 O24'
_cell_volume   448.36957621
_cell_formula_units_Z   1
loop_
 _symmetry_equiv_pos_site_id
 _symmetry_equiv_pos_as_xyz
  1  'x, y, z'
loop_
 _atom_site_type_symbol
 _atom_site_label
 _atom_site_symmetry_multiplicity
 _atom_site_fract_x
 _atom_site_fract_y
 _atom_site_fract_z
 _atom_site_occupancy
  La  La0  1  0.25069951  0.25005247  0.25001697  1
  La  La1  1  0.25098113  0.24954407  0.74954407  1
  La  La2  1  0.25069951  0.75001697  0.75005247  1
  La  La3  1  0.74913970  0.75042874  0.25042874  1
  Sm  Sm4  1  0.25050575  0.75064501  0.25064501  1
  Sm  Sm5  1  0.74890911  0.24966981  0.25009672  1
  Sm  Sm6  1  0.74953124  0.24933081  0.74933081  1
  Sm  Sm7  1  0.74890911  0.75009672  0.74966981  1
  Co  Co8  1  0.99939363  -0.00000948  0.00007827  1
  Co  Co9  1  0.99987707  0.00002797  0.50002797  1
  Co  Co10  1  0.99930735  0.49999017  0.99999017  1
  Co  Co11  1  0.99939363  0.50007827  0.49999052  1
  Co  Co12  1  0.50033404  0.00001818  0.99996712  1
  Co  Co13  1  0.50079172  0.99989067  0.49989067  1
  Co  Co14  1  0.50033404  0.49996712  0.50001818  1
  Cu  Cu15  1  0.50032633  0.50000576  0.00000576  1
  O  O16  1  0.25088341  0.99822075  0.00157712  1
  O  O17  1  0.24621124  0.99822889  0.49822889  1
  O  O18  1  0.24591532  0.50190820  0.00190820  1
  O  O19  1  0.25088341  0.50157712  0.49822075  1
  O  O20  1  0.74902718  0.00164665  0.99850035  1
  O  O21  1  0.75443191  0.00170523  0.50170523  1
  O  O22  1  0.75414154  0.49817364  0.99817364  1
  O  O23  1  0.74902718  0.49850035  0.50164665  1
  O  O24  1  0.99618238  0.25170230  0.99907975  1
  O  O25  1  0.99619784  0.24940257  0.50042506  1
  O  O26  1  0.99972265  0.74837433  0.00081932  1
  O  O27  1  0.99927961  0.75063936  0.49960384  1
  O  O28  1  0.50471235  0.24594038  0.00014582  1
  O  O29  1  0.50351387  0.25341183  0.49937138  1
  O  O30  1  0.50013199  0.75406575  0.99988033  1
  O  O31  1  0.50043230  0.74663079  0.50079309  1
  O  O32  1  0.99927961  0.99960384  0.25063936  1
  O  O33  1  0.99619784  0.00042506  0.74940257  1
  O  O34  1  0.99972265  0.50081932  0.24837433  1
  O  O35  1  0.99618238  0.49907975  0.75170230  1
  O  O36  1  0.50043230  0.00079309  0.24663079  1
  O  O37  1  0.50351387  0.99937138  0.75341183  1
  O  O38  1  0.50013199  0.49988033  0.25406575  1
  O  O39  1  0.50471235  0.50014582  0.74594038  1
