# generated using pymatgen
data_Mn3(HO3)2
_symmetry_space_group_name_H-M   'P 1'
_cell_length_a   2.95214907
_cell_length_b   4.67319268
_cell_length_c   7.64048475
_cell_angle_alpha   89.65065690
_cell_angle_beta   101.14108271
_cell_angle_gamma   89.99867456
_symmetry_Int_Tables_number   1
_chemical_formula_structural   Mn3(HO3)2
_chemical_formula_sum   'Mn3 H2 O6'
_cell_volume   103.41935582
_cell_formula_units_Z   1
loop_
 _symmetry_equiv_pos_site_id
 _symmetry_equiv_pos_as_xyz
  1  'x, y, z'
loop_
 _atom_site_type_symbol
 _atom_site_label
 _atom_site_symmetry_multiplicity
 _atom_site_fract_x
 _atom_site_fract_y
 _atom_site_fract_z
 _atom_site_occupancy
  Mn  Mn0  1  0.00002209  -0.00005991  0.00008862  1
  Mn  Mn1  1  0.64449136  0.53064570  0.28877823  1
  Mn  Mn2  1  0.35555271  0.46962066  0.71137142  1
  H  H3  1  0.82053750  0.89744354  0.64130460  1
  H  H4  1  0.17944993  0.10264685  0.35874394  1
  O  O5  1  0.45620986  0.77329611  0.91244736  1
  O  O6  1  0.54362857  0.22610926  0.08727398  1
  O  O7  1  0.88432908  0.21313433  0.76893445  1
  O  O8  1  0.11561898  0.78698694  0.23103495  1
  O  O9  1  0.79683436  0.69718522  0.59393261  1
  O  O10  1  0.20313556  0.30299230  0.40608584  1
