# generated using pymatgen
data_LiMn8O16
_symmetry_space_group_name_H-M   'P 1'
_cell_length_a   5.90103540
_cell_length_b   9.87891672
_cell_length_c   9.98218814
_cell_angle_alpha   89.39724961
_cell_angle_beta   90.00220493
_cell_angle_gamma   89.99896469
_symmetry_Int_Tables_number   1
_chemical_formula_structural   LiMn8O16
_chemical_formula_sum   'Li2 Mn16 O32'
_cell_volume   581.88781491
_cell_formula_units_Z   2
loop_
 _symmetry_equiv_pos_site_id
 _symmetry_equiv_pos_as_xyz
  1  'x, y, z'
loop_
 _atom_site_type_symbol
 _atom_site_label
 _atom_site_symmetry_multiplicity
 _atom_site_fract_x
 _atom_site_fract_y
 _atom_site_fract_z
 _atom_site_occupancy
  Li  Li0  1  0.24986667  0.48876412  0.42184313  1
  Li  Li1  1  0.49989126  0.98858848  0.92186826  1
  Mn  Mn2  1  0.50076565  0.16825657  0.34664168  1
  Mn  Mn3  1  0.99925628  0.16837102  0.34567140  1
  Mn  Mn4  1  0.50038230  0.34810738  0.83073082  1
  Mn  Mn5  1  0.99920750  0.34708884  0.83005358  1
  Mn  Mn6  1  0.99854539  0.65143242  0.16097871  1
  Mn  Mn7  1  0.50131984  0.65101898  0.16105634  1
  Mn  Mn8  1  1.00021370  0.83218607  0.64614325  1
  Mn  Mn9  1  0.50027181  0.83191969  0.64377319  1
  Mn  Mn10  1  0.75081980  0.66826903  0.84572376  1
  Mn  Mn11  1  0.24923671  0.66823702  0.84644179  1
  Mn  Mn12  1  0.75071300  0.84726214  0.32991170  1
  Mn  Mn13  1  0.24974985  0.84832684  0.33069527  1
  Mn  Mn14  1  0.75121181  0.15138849  0.66109495  1
  Mn  Mn15  1  0.24898550  0.15081486  0.66114426  1
  Mn  Mn16  1  0.75001398  0.33215885  0.14608653  1
  Mn  Mn17  1  0.24965814  0.33209927  0.14386225  1
  O  O18  1  0.74964977  0.95659817  0.65704952  1
  O  O19  1  0.25066405  0.95643188  0.65723374  1
  O  O20  1  0.74996312  0.67115516  0.03887786  1
  O  O21  1  0.25002788  0.67037567  0.03931454  1
  O  O22  1  0.74954973  0.32861408  0.95329558  1
  O  O23  1  0.25012483  0.32828392  0.95268397  1
  O  O24  1  0.75033218  0.04173433  0.33582516  1
  O  O25  1  0.24973580  0.04257924  0.33553107  1
  O  O26  1  0.00029801  0.45667128  0.15704692  1
  O  O27  1  0.49924860  0.45643165  0.15723885  1
  O  O28  1  0.00003249  0.17115351  0.53884176  1
  O  O29  1  0.49998043  0.17039981  0.53935179  1
  O  O30  1  0.49988595  0.82831318  0.45270276  1
  O  O31  1  0.00046339  0.82866911  0.45326231  1
  O  O32  1  0.50035477  0.54237401  0.83553748  1
  O  O33  1  0.99967570  0.54156954  0.83579282  1
  O  O34  1  0.50047337  0.80518698  0.83895105  1
  O  O35  1  0.99981457  0.79920736  0.83766521  1
  O  O36  1  0.00115515  0.84389548  0.20123303  1
  O  O37  1  0.49888371  0.84437278  0.19941967  1
  O  O38  1  0.00026775  0.20280605  0.15273257  1
  O  O39  1  0.49932974  0.20158072  0.15215451  1
  O  O40  1  0.49988258  0.14668169  0.79283444  1
  O  O41  1  0.00006891  0.14903029  0.78847773  1
  O  O42  1  0.75020937  0.29938260  0.33769098  1
  O  O43  1  0.24949277  0.30534067  0.33896668  1
  O  O44  1  0.74885240  0.34376584  0.70123946  1
  O  O45  1  0.25109018  0.34434481  0.69947357  1
  O  O46  1  0.74969471  0.70271453  0.65272904  1
  O  O47  1  0.25061334  0.70149758  0.65207480  1
  O  O48  1  0.74995789  0.64911124  0.28846248  1
  O  O49  1  0.25011570  0.64675079  0.29279182  1
