# generated using pymatgen
data_Ba2V2ZnCuF14
_symmetry_space_group_name_H-M   'P 1'
_cell_length_a   5.29126661
_cell_length_b   7.59902246
_cell_length_c   14.81797741
_cell_angle_alpha   91.67475222
_cell_angle_beta   89.70017833
_cell_angle_gamma   110.41828070
_symmetry_Int_Tables_number   1
_chemical_formula_structural   Ba2V2ZnCuF14
_chemical_formula_sum   'Ba4 V4 Zn2 Cu2 F28'
_cell_volume   558.12742832
_cell_formula_units_Z   2
loop_
 _symmetry_equiv_pos_site_id
 _symmetry_equiv_pos_as_xyz
  1  'x, y, z'
loop_
 _atom_site_type_symbol
 _atom_site_label
 _atom_site_symmetry_multiplicity
 _atom_site_fract_x
 _atom_site_fract_y
 _atom_site_fract_z
 _atom_site_occupancy
  Ba  Ba0  1  0.10182518  0.36810771  0.62423049  1
  Ba  Ba1  1  0.26643492  0.36930287  0.12498164  1
  Ba  Ba2  1  0.89471168  0.63237153  0.37570443  1
  Ba  Ba3  1  0.73729746  0.63035507  0.87657860  1
  V  V4  1  0.10034618  0.23930269  0.87437213  1
  V  V5  1  0.89969931  0.75989896  0.12634938  1
  V  V6  1  0.13894595  0.24037246  0.37359257  1
  V  V7  1  0.85885264  0.76158468  0.62703937  1
  Zn  Zn8  1  0.44095914  -0.00042371  0.75072439  1
  Zn  Zn9  1  0.55912794  -0.00020207  0.25024773  1
  Cu  Cu10  1  0.50166493  -0.00017179  0.00013058  1
  Cu  Cu11  1  0.49919895  0.00025069  0.50042677  1
  F  F12  1  0.88645588  0.99243907  0.33706603  1
  F  F13  1  0.87081915  0.28389932  0.45537829  1
  F  F14  1  0.12535043  0.71680019  0.54589763  1
  F  F15  1  0.63751553  0.50498018  0.59702658  1
  F  F16  1  0.60724190  0.09504660  0.62324206  1
  F  F17  1  0.51723167  0.90384759  0.87797539  1
  F  F18  1  0.41691629  0.28316023  0.95540202  1
  F  F19  1  0.89907318  0.00817490  0.16283450  1
  F  F20  1  0.35898113  0.34008587  0.77677311  1
  F  F21  1  0.36024145  0.49682962  0.40521328  1
  F  F22  1  0.80031362  0.22143954  0.78814968  1
  F  F23  1  0.13627378  0.49577905  0.90395986  1
  F  F24  1  0.41845887  0.22166449  0.28871676  1
  F  F25  1  0.20045164  0.77995756  0.21243820  1
  F  F26  1  0.48711837  0.09655319  0.12246752  1
  F  F27  1  0.63827211  0.65779186  0.22476602  1
  F  F28  1  0.12132517  0.84465910  0.01423198  1
  F  F29  1  0.10655219  0.00868165  0.66294877  1
  F  F30  1  0.88210647  0.15534930  0.98419662  1
  F  F31  1  0.71833122  0.84419348  0.51504282  1
  F  F32  1  0.58639817  0.71603657  0.04474722  1
  F  F33  1  0.58088825  0.77813478  0.71249234  1
  F  F34  1  0.97812028  0.34283802  0.27529737  1
  F  F35  1  0.27679573  0.15514986  0.48641447  1
  F  F36  1  0.38790826  0.90460386  0.37823164  1
  F  F37  1  0.10339268  0.99189359  0.83640659  1
  F  F38  1  0.02259984  0.65976003  0.72490939  1
  F  F39  1  0.86720846  0.50392842  0.09571177  1
