# generated using pymatgen
data_CaLa2MnO6
_symmetry_space_group_name_H-M   'P 1'
_cell_length_a   5.66288333
_cell_length_b   5.66288294
_cell_length_c   5.66288356
_cell_angle_alpha   62.12002253
_cell_angle_beta   62.12002370
_cell_angle_gamma   62.12002679
_symmetry_Int_Tables_number   1
_chemical_formula_structural   CaLa2MnO6
_chemical_formula_sum   'Ca1 La2 Mn1 O6'
_cell_volume   134.49354327
_cell_formula_units_Z   1
loop_
 _symmetry_equiv_pos_site_id
 _symmetry_equiv_pos_as_xyz
  1  'x, y, z'
loop_
 _atom_site_type_symbol
 _atom_site_label
 _atom_site_symmetry_multiplicity
 _atom_site_fract_x
 _atom_site_fract_y
 _atom_site_fract_z
 _atom_site_occupancy
  Ca  Ca0  1  0.50000000  0.50000000  0.50000000  1
  La  La1  1  0.75948477  0.75948477  0.75948477  1
  La  La2  1  0.24051523  0.24051523  0.24051523  1
  Mn  Mn3  1  0.00000000  0.00000000  0.00000000  1
  O  O4  1  0.32211199  0.78780354  0.13509677  1
  O  O5  1  0.78780354  0.13509677  0.32211199  1
  O  O6  1  0.13509677  0.32211199  0.78780354  1
  O  O7  1  0.67788801  0.21219646  0.86490323  1
  O  O8  1  0.86490323  0.67788801  0.21219646  1
  O  O9  1  0.21219646  0.86490323  0.67788801  1
