# generated using pymatgen
data_LiCaAl3N4
_symmetry_space_group_name_H-M   'P 1'
_cell_length_a   10.24701260
_cell_length_b   10.24701260
_cell_length_c   10.24701260
_cell_angle_alpha   101.71326047
_cell_angle_beta   113.48400488
_cell_angle_gamma   113.48400488
_symmetry_Int_Tables_number   1
_chemical_formula_structural   LiCaAl3N4
_chemical_formula_sum   'Li8 Ca8 Al24 N32'
_cell_volume   817.09552750
_cell_formula_units_Z   8
loop_
 _symmetry_equiv_pos_site_id
 _symmetry_equiv_pos_as_xyz
  1  'x, y, z'
loop_
 _atom_site_type_symbol
 _atom_site_label
 _atom_site_symmetry_multiplicity
 _atom_site_fract_x
 _atom_site_fract_y
 _atom_site_fract_z
 _atom_site_occupancy
  Li  Li0  1  0.61959810  0.83115186  0.42044192  1
  Li  Li1  1  0.88040190  0.80084382  0.71155375  1
  Li  Li2  1  0.08929006  0.42044192  0.80084382  1
  Li  Li3  1  0.41070994  0.71155375  0.83115186  1
  Li  Li4  1  0.38040190  0.16884814  0.57955808  1
  Li  Li5  1  0.11959810  0.19915618  0.28844625  1
  Li  Li6  1  0.91070994  0.57955808  0.19915618  1
  Li  Li7  1  0.58929006  0.28844625  0.16884814  1
  Ca  Ca8  1  0.76224083  0.18096762  0.45300406  1
  Ca  Ca9  1  0.73775917  0.69076323  0.91872679  1
  Ca  Ca10  1  0.77203644  0.45300406  0.69076323  1
  Ca  Ca11  1  0.72796356  0.91872679  0.18096762  1
  Ca  Ca12  1  0.23775917  0.81903238  0.54699594  1
  Ca  Ca13  1  0.26224083  0.30923677  0.08127321  1
  Ca  Ca14  1  0.22796356  0.54699594  0.30923677  1
  Ca  Ca15  1  0.27203644  0.08127321  0.81903238  1
  Al  Al16  1  0.45367690  0.22872262  0.34215038  1
  Al  Al17  1  0.04632310  0.88847348  0.27504572  1
  Al  Al18  1  0.61342776  0.34215038  0.88847348  1
  Al  Al19  1  0.88657224  0.27504572  0.22872262  1
  Al  Al20  1  0.54632310  0.77127738  0.65784962  1
  Al  Al21  1  0.95367690  0.11152652  0.72495428  1
  Al  Al22  1  0.38657224  0.65784962  0.11152652  1
  Al  Al23  1  0.11342776  0.72495428  0.77127738  1
  Al  Al24  1  0.43097504  0.46925013  0.58025412  1
  Al  Al25  1  0.06902496  0.14927908  0.53827510  1
  Al  Al26  1  0.61100399  0.58025412  0.14927908  1
  Al  Al27  1  0.88899601  0.53827510  0.46925013  1
  Al  Al28  1  0.56902496  0.53074987  0.41974588  1
  Al  Al29  1  0.93097504  0.85072092  0.46172490  1
  Al  Al30  1  0.38899601  0.41974588  0.85072092  1
  Al  Al31  1  0.11100399  0.46172490  0.53074987  1
  Al  Al32  1  0.43642614  0.98050073  0.08837642  1
  Al  Al33  1  0.06357386  0.65195028  0.04407459  1
  Al  Al34  1  0.60787569  0.08837642  0.65195028  1
  Al  Al35  1  0.89212431  0.04407459  0.98050073  1
  Al  Al36  1  0.56357386  0.01949927  0.91162358  1
  Al  Al37  1  0.93642614  0.34804972  0.95592541  1
  Al  Al38  1  0.39212431  0.91162358  0.34804972  1
  Al  Al39  1  0.10787569  0.95592541  0.01949927  1
  N  N40  1  0.86024983  0.98900608  0.50857873  1
  N  N41  1  0.63975017  0.64832890  0.62875625  1
  N  N42  1  0.01957265  0.50857873  0.64832890  1
  N  N43  1  0.48042735  0.62875625  0.98900608  1
  N  N44  1  0.13975017  0.01099392  0.49142127  1
  N  N45  1  0.36024983  0.35167110  0.37124375  1
  N  N46  1  0.98042735  0.49142127  0.35167110  1
  N  N47  1  0.51957265  0.37124375  0.01099392  1
  N  N48  1  0.47226960  0.87425720  0.21599639  1
  N  N49  1  0.02773040  0.74372679  0.90198760  1
  N  N50  1  0.84173919  0.21599639  0.74372679  1
  N  N51  1  0.65826081  0.90198760  0.87425720  1
  N  N52  1  0.52773040  0.12574280  0.78400361  1
  N  N53  1  0.97226960  0.25627321  0.09801240  1
  N  N54  1  0.15826081  0.78400361  0.25627321  1
  N  N55  1  0.34173919  0.09801240  0.12574280  1
  N  N56  1  0.51011820  0.13345113  0.47485419  1
  N  N57  1  0.98988180  0.96473599  0.12333294  1
  N  N58  1  0.84140306  0.47485419  0.96473599  1
  N  N59  1  0.65859694  0.12333294  0.13345113  1
  N  N60  1  0.48988180  0.86654887  0.52514581  1
  N  N61  1  0.01011820  0.03526401  0.87666706  1
  N  N62  1  0.15859694  0.52514581  0.03526401  1
  N  N63  1  0.34140306  0.87666706  0.86654887  1
  N  N64  1  0.49250229  0.40141951  0.73576766  1
  N  N65  1  0.00749771  0.24326537  0.40891722  1
  N  N66  1  0.83434815  0.73576766  0.24326537  1
  N  N67  1  0.66565185  0.40891722  0.40141951  1
  N  N68  1  0.50749771  0.59858049  0.26423234  1
  N  N69  1  0.99250229  0.75673463  0.59108278  1
  N  N70  1  0.16565185  0.26423234  0.75673463  1
  N  N71  1  0.33434815  0.59108278  0.59858049  1
