# generated using pymatgen
data_AlPO4
_symmetry_space_group_name_H-M   'P 1'
_cell_length_a   8.88913121
_cell_length_b   4.94716295
_cell_length_c   11.02123885
_cell_angle_alpha   90.00000000
_cell_angle_beta   90.16727363
_cell_angle_gamma   90.00000000
_symmetry_Int_Tables_number   1
_chemical_formula_structural   AlPO4
_chemical_formula_sum   'Al6 P6 O24'
_cell_volume   484.66772034
_cell_formula_units_Z   6
loop_
 _symmetry_equiv_pos_site_id
 _symmetry_equiv_pos_as_xyz
  1  'x, y, z'
loop_
 _atom_site_type_symbol
 _atom_site_label
 _atom_site_symmetry_multiplicity
 _atom_site_fract_x
 _atom_site_fract_y
 _atom_site_fract_z
 _atom_site_occupancy
  Al  Al0  1  0.75000000  0.46510400  0.50000000  1
  Al  Al1  1  0.25000000  0.53489600  0.50000000  1
  Al  Al2  1  0.51311584  0.75013553  0.16595262  1
  Al  Al3  1  0.98688416  0.75013553  0.83404738  1
  Al  Al4  1  0.48688416  0.24986447  0.83404738  1
  Al  Al5  1  0.01311584  0.24986447  0.16595262  1
  P  P6  1  0.75000000  0.03282233  -0.00000000  1
  P  P7  1  0.25000000  0.96717767  -0.00000000  1
  P  P8  1  0.51316583  0.75499985  0.66680063  1
  P  P9  1  0.98683417  0.75499985  0.33319937  1
  P  P10  1  0.48683417  0.24500015  0.33319937  1
  P  P11  1  0.01316583  0.24500015  0.66680063  1
  O  O12  1  0.52783083  0.05208770  0.70581179  1
  O  O13  1  0.97216917  0.05208770  0.29418821  1
  O  O14  1  0.47216917  0.94791230  0.29418821  1
  O  O15  1  0.02783083  0.94791230  0.70581179  1
  O  O16  1  0.47624935  0.58337322  0.78026050  1
  O  O17  1  0.02375065  0.58337322  0.21973950  1
  O  O18  1  0.52375065  0.41662678  0.21973950  1
  O  O19  1  0.97624935  0.41662678  0.78026050  1
  O  O20  1  0.68309265  0.85071510  0.09969655  1
  O  O21  1  0.81690735  0.85071510  0.90030345  1
  O  O22  1  0.31690735  0.14928490  0.90030345  1
  O  O23  1  0.18309265  0.14928490  0.09969655  1
  O  O24  1  0.66364264  0.66573805  0.61115780  1
  O  O25  1  0.83635736  0.66573805  0.38884220  1
  O  O26  1  0.33635736  0.33426195  0.38884220  1
  O  O27  1  0.16364264  0.33426195  0.61115780  1
  O  O28  1  0.37159184  0.78364877  0.05579570  1
  O  O29  1  0.12840816  0.78364877  0.94420430  1
  O  O30  1  0.62840816  0.21635123  0.94420430  1
  O  O31  1  0.87159184  0.21635123  0.05579570  1
  O  O32  1  0.38617673  0.73343283  0.57230039  1
  O  O33  1  0.11382327  0.73343283  0.42769961  1
  O  O34  1  0.61382327  0.26656717  0.42769961  1
  O  O35  1  0.88617673  0.26656717  0.57230039  1
