# generated using pymatgen
data_HoGe3
_symmetry_space_group_name_H-M   'P 1'
_cell_length_a   3.94033140
_cell_length_b   4.02916728
_cell_length_c   10.65443591
_cell_angle_alpha   100.89933386
_cell_angle_beta   90.00000000
_cell_angle_gamma   90.00000000
_symmetry_Int_Tables_number   1
_chemical_formula_structural   HoGe3
_chemical_formula_sum   'Ho2 Ge6'
_cell_volume   166.10117679
_cell_formula_units_Z   2
loop_
 _symmetry_equiv_pos_site_id
 _symmetry_equiv_pos_as_xyz
  1  'x, y, z'
loop_
 _atom_site_type_symbol
 _atom_site_label
 _atom_site_symmetry_multiplicity
 _atom_site_fract_x
 _atom_site_fract_y
 _atom_site_fract_z
 _atom_site_occupancy
  Ho  Ho0  1  0.25000000  0.91734383  0.83468765  1
  Ho  Ho1  1  0.75000000  0.08265617  0.16531235  1
  Ge  Ge2  1  0.25000000  0.19103356  0.38206713  1
  Ge  Ge3  1  0.75000000  0.80896644  0.61793287  1
  Ge  Ge4  1  0.25000000  0.31060549  0.62121097  1
  Ge  Ge5  1  0.75000000  0.68939451  0.37878903  1
  Ge  Ge6  1  0.25000000  0.53963675  0.07927350  1
  Ge  Ge7  1  0.75000000  0.46036325  0.92072650  1
