# generated using pymatgen
data_W3(SeS2)2
_symmetry_space_group_name_H-M   'P 1'
_cell_length_a   3.23150805
_cell_length_b   3.23147163
_cell_length_c   29.70562886
_cell_angle_alpha   89.99991906
_cell_angle_beta   90.00000000
_cell_angle_gamma   120.00037290
_symmetry_Int_Tables_number   1
_chemical_formula_structural   W3(SeS2)2
_chemical_formula_sum   'W3 Se2 S4'
_cell_volume   268.64164645
_cell_formula_units_Z   1
loop_
 _symmetry_equiv_pos_site_id
 _symmetry_equiv_pos_as_xyz
  1  'x, y, z'
loop_
 _atom_site_type_symbol
 _atom_site_label
 _atom_site_symmetry_multiplicity
 _atom_site_fract_x
 _atom_site_fract_y
 _atom_site_fract_z
 _atom_site_occupancy
  W  W0  1  0.33331099  0.66662198  0.11564768  1
  W  W1  1  0.33331143  0.66662286  0.57833037  1
  W  W2  1  0.66668642  0.33337284  0.34697622  1
  Se  Se3  1  0.66665107  0.33330115  0.52048878  1
  Se  Se4  1  0.66664591  0.33329082  0.63615298  1
  S  S5  1  0.33335400  0.66670899  0.39945647  1
  S  S6  1  0.66664399  0.33328698  0.06314770  1
  S  S7  1  0.66664428  0.33328755  0.16814746  1
  S  S8  1  0.33335292  0.66670683  0.29449334  1
