# generated using pymatgen
data_La4B10O21
_symmetry_space_group_name_H-M   'P 1'
_cell_length_a   7.22427331
_cell_length_b   19.85499861
_cell_length_c   9.65934566
_cell_angle_alpha   90.00000000
_cell_angle_beta   93.68764520
_cell_angle_gamma   90.00000000
_symmetry_Int_Tables_number   1
_chemical_formula_structural   La4B10O21
_chemical_formula_sum   'La16 B40 O84'
_cell_volume   1382.64791152
_cell_formula_units_Z   4
loop_
 _symmetry_equiv_pos_site_id
 _symmetry_equiv_pos_as_xyz
  1  'x, y, z'
loop_
 _atom_site_type_symbol
 _atom_site_label
 _atom_site_symmetry_multiplicity
 _atom_site_fract_x
 _atom_site_fract_y
 _atom_site_fract_z
 _atom_site_occupancy
  La  La0  1  0.12622487  0.69997373  0.66132481  1
  La  La1  1  0.62622487  0.80002627  0.16132481  1
  La  La2  1  0.87377513  0.30002627  0.33867519  1
  La  La3  1  0.37377513  0.19997373  0.83867519  1
  La  La4  1  0.60344273  0.79515268  0.67661637  1
  La  La5  1  0.10344273  0.70484732  0.17661637  1
  La  La6  1  0.39655727  0.20484732  0.32338363  1
  La  La7  1  0.89655727  0.29515268  0.82338363  1
  La  La8  1  0.13508570  0.91817194  0.65964125  1
  La  La9  1  0.63508570  0.58182806  0.15964125  1
  La  La10  1  0.86491430  0.08182806  0.34035875  1
  La  La11  1  0.36491430  0.41817194  0.84035875  1
  La  La12  1  0.65180019  0.57967537  0.64992938  1
  La  La13  1  0.15180019  0.92032463  0.14992938  1
  La  La14  1  0.34819981  0.42032463  0.35007062  1
  La  La15  1  0.84819981  0.07967537  0.85007062  1
  B  B16  1  0.48178585  0.90685325  0.44647308  1
  B  B17  1  0.98178585  0.59314675  0.94647308  1
  B  B18  1  0.51821415  0.09314675  0.55352692  1
  B  B19  1  0.01821415  0.40685325  0.05352692  1
  B  B20  1  0.69155428  0.97838218  0.60718022  1
  B  B21  1  0.19155428  0.52161782  0.10718022  1
  B  B22  1  0.30844572  0.02161782  0.39281978  1
  B  B23  1  0.80844572  0.47838218  0.89281978  1
  B  B24  1  0.47050482  0.90583681  0.94600864  1
  B  B25  1  0.97050482  0.59416319  0.44600864  1
  B  B26  1  0.52949518  0.09416319  0.05399136  1
  B  B27  1  0.02949518  0.40583681  0.55399136  1
  B  B28  1  0.20258967  0.52477760  0.60437194  1
  B  B29  1  0.70258967  0.97522240  0.10437194  1
  B  B30  1  0.79741033  0.47522240  0.39562806  1
  B  B31  1  0.29741033  0.02477760  0.89562806  1
  B  B32  1  0.79691062  0.92145861  0.86484983  1
  B  B33  1  0.29691062  0.57854139  0.36484983  1
  B  B34  1  0.20308938  0.07854139  0.13515017  1
  B  B35  1  0.70308938  0.42145861  0.63515017  1
  B  B36  1  0.95189251  0.81121657  0.95313396  1
  B  B37  1  0.45189251  0.68878343  0.45313396  1
  B  B38  1  0.04810749  0.18878343  0.04686604  1
  B  B39  1  0.54810749  0.31121657  0.54686604  1
  B  B40  1  0.78763490  0.70572409  0.37840804  1
  B  B41  1  0.28763490  0.79427591  0.87840804  1
  B  B42  1  0.21236510  0.29427591  0.62159196  1
  B  B43  1  0.71236510  0.20572409  0.12159196  1
  B  B44  1  0.30325410  0.57266616  0.87092684  1
  B  B45  1  0.80325410  0.92733384  0.37092684  1
  B  B46  1  0.69674590  0.42733384  0.12907316  1
  B  B47  1  0.19674590  0.07266616  0.62907316  1
  B  B48  1  0.93339022  0.82127780  0.45302528  1
  B  B49  1  0.43339022  0.67872220  0.95302528  1
  B  B50  1  0.06660978  0.17872220  0.54697472  1
  B  B51  1  0.56660978  0.32127780  0.04697472  1
  B  B52  1  0.81783872  0.70164361  0.88006785  1
  B  B53  1  0.31783872  0.79835639  0.38006785  1
  B  B54  1  0.18216128  0.29835639  0.11993215  1
  B  B55  1  0.68216128  0.20164361  0.61993215  1
  O  O56  1  0.19785773  0.02118606  0.52000463  1
  O  O57  1  0.69785773  0.47881394  0.02000463  1
  O  O58  1  0.80214227  0.97881394  0.47999537  1
  O  O59  1  0.30214227  0.52118606  0.97999537  1
  O  O60  1  0.86702100  0.65765575  0.48138411  1
  O  O61  1  0.36702100  0.84234425  0.98138411  1
  O  O62  1  0.13297900  0.34234425  0.51861589  1
  O  O63  1  0.63297900  0.15765575  0.01861589  1
  O  O64  1  0.14356011  0.61779951  0.87129178  1
  O  O65  1  0.64356011  0.88220049  0.37129178  1
  O  O66  1  0.85643989  0.38220049  0.12870822  1
  O  O67  1  0.35643989  0.11779951  0.62870822  1
  O  O68  1  0.37063074  0.84450715  0.48145879  1
  O  O69  1  0.87063074  0.65549285  0.98145879  1
  O  O70  1  0.62936926  0.15549285  0.51854121  1
  O  O71  1  0.12936926  0.34450715  0.01854121  1
  O  O72  1  0.62117583  0.88663447  0.86066032  1
  O  O73  1  0.12117583  0.61336553  0.36066032  1
  O  O74  1  0.37882417  0.11336553  0.13933968  1
  O  O75  1  0.87882417  0.38663447  0.63933968  1
  O  O76  1  0.44906861  0.67770790  0.60092489  1
  O  O77  1  0.94906861  0.82229210  0.10092489  1
  O  O78  1  0.55093139  0.32229210  0.39907511  1
  O  O79  1  0.05093139  0.17770790  0.89907511  1
  O  O80  1  0.32951481  0.54148439  0.73294662  1
  O  O81  1  0.82951481  0.95851561  0.23294662  1
  O  O82  1  0.67048519  0.45851561  0.26705338  1
  O  O83  1  0.17048519  0.04148439  0.76705338  1
  O  O84  1  0.04274392  0.57085034  0.58637381  1
  O  O85  1  0.54274392  0.92914966  0.08637381  1
  O  O86  1  0.95725608  0.42914966  0.41362619  1
  O  O87  1  0.45725608  0.07085034  0.91362619  1
  O  O88  1  0.92757484  0.81207806  0.59172118  1
  O  O89  1  0.42757484  0.68792194  0.09172118  1
  O  O90  1  0.07242516  0.18792194  0.40827882  1
  O  O91  1  0.57242516  0.31207806  0.90827882  1
  O  O92  1  0.53990207  0.92998323  0.58616634  1
  O  O93  1  0.03990207  0.57001677  0.08616634  1
  O  O94  1  0.46009793  0.07001677  0.41383366  1
  O  O95  1  0.96009793  0.42998323  0.91383366  1
  O  O96  1  0.80531364  0.68692536  0.74348323  1
  O  O97  1  0.30531364  0.81307464  0.24348323  1
  O  O98  1  0.19468636  0.31307464  0.25651677  1
  O  O99  1  0.69468636  0.18692536  0.75651677  1
  O  O100  1  0.28033899  0.81766178  0.73680941  1
  O  O101  1  0.78033899  0.68233822  0.23680941  1
  O  O102  1  0.71966101  0.18233822  0.26319059  1
  O  O103  1  0.21966101  0.31766178  0.76319059  1
  O  O104  1  0.36359435  0.95208770  0.36173055  1
  O  O105  1  0.86359435  0.54791230  0.86173055  1
  O  O106  1  0.63640565  0.04791230  0.63826945  1
  O  O107  1  0.13640565  0.45208770  0.13826945  1
  O  O108  1  0.60821832  0.73380560  0.41948589  1
  O  O109  1  0.10821832  0.76619440  0.91948589  1
  O  O110  1  0.39178168  0.26619440  0.58051411  1
  O  O111  1  0.89178168  0.23380560  0.08051411  1
  O  O112  1  0.17631296  0.03964635  0.26846014  1
  O  O113  1  0.67631296  0.46035365  0.76846014  1
  O  O114  1  0.82368704  0.96035365  0.73153986  1
  O  O115  1  0.32368704  0.53964635  0.23153986  1
  O  O116  1  0.95381246  0.87261400  0.87079280  1
  O  O117  1  0.45381246  0.62738600  0.37079280  1
  O  O118  1  0.04618754  0.12738600  0.12920720  1
  O  O119  1  0.54618754  0.37261400  0.62920720  1
  O  O120  1  0.48052663  0.61533868  0.89952537  1
  O  O121  1  0.98052663  0.88466132  0.39952537  1
  O  O122  1  0.51947337  0.38466132  0.10047463  1
  O  O123  1  0.01947337  0.11533868  0.60047463  1
  O  O124  1  0.81956175  0.96939783  0.98224412  1
  O  O125  1  0.31956175  0.53060217  0.48224412  1
  O  O126  1  0.18043825  0.03060217  0.01775588  1
  O  O127  1  0.68043825  0.46939783  0.51775588  1
  O  O128  1  0.77407251  0.76752151  0.91866577  1
  O  O129  1  0.27407251  0.73247849  0.41866577  1
  O  O130  1  0.22592749  0.23247849  0.08133423  1
  O  O131  1  0.72592749  0.26752151  0.58133423  1
  O  O132  1  0.40842352  0.73137723  0.86109116  1
  O  O133  1  0.90842352  0.76862277  0.36109116  1
  O  O134  1  0.59157648  0.26862277  0.13890884  1
  O  O135  1  0.09157648  0.23137723  0.63890884  1
  O  O136  1  0.33685146  0.95245170  0.87680325  1
  O  O137  1  0.83685146  0.54754830  0.37680325  1
  O  O138  1  0.66314854  0.04754830  0.12319675  1
  O  O139  1  0.16314854  0.45245170  0.62319675  1
