# generated using pymatgen
data_GdTlZn
_symmetry_space_group_name_H-M   'P 1'
_cell_length_a   4.76468762
_cell_length_b   4.76324329
_cell_length_c   7.36400102
_cell_angle_alpha   90.00000000
_cell_angle_beta   90.00000000
_cell_angle_gamma   120.01003106
_symmetry_Int_Tables_number   1
_chemical_formula_structural   GdTlZn
_chemical_formula_sum   'Gd2 Tl2 Zn2'
_cell_volume   144.72306845
_cell_formula_units_Z   2
loop_
 _symmetry_equiv_pos_site_id
 _symmetry_equiv_pos_as_xyz
  1  'x, y, z'
loop_
 _atom_site_type_symbol
 _atom_site_label
 _atom_site_symmetry_multiplicity
 _atom_site_fract_x
 _atom_site_fract_y
 _atom_site_fract_z
 _atom_site_occupancy
  Gd  Gd0  1  -0.00000000  -0.00000000  0.50000000  1
  Gd  Gd1  1  -0.00000000  -0.00000000  0.00000000  1
  Tl  Tl2  1  0.33331579  0.66663158  0.25000000  1
  Tl  Tl3  1  0.66668421  0.33336842  0.75000000  1
  Zn  Zn4  1  0.33327568  0.66655135  0.75000000  1
  Zn  Zn5  1  0.66672432  0.33344865  0.25000000  1
