# generated using pymatgen
data_La7SmMn7CuO20
_symmetry_space_group_name_H-M   'P 1'
_cell_length_a   11.34844534
_cell_length_b   11.73302264
_cell_length_c   17.85156447
_cell_angle_alpha   109.30211763
_cell_angle_beta   108.56344334
_cell_angle_gamma   90.01441508
_symmetry_Int_Tables_number   1
_chemical_formula_structural   La7SmMn7CuO20
_chemical_formula_sum   'La28 Sm4 Mn28 Cu4 O80'
_cell_volume   2111.80162014
_cell_formula_units_Z   4
loop_
 _symmetry_equiv_pos_site_id
 _symmetry_equiv_pos_as_xyz
  1  'x, y, z'
loop_
 _atom_site_type_symbol
 _atom_site_label
 _atom_site_symmetry_multiplicity
 _atom_site_fract_x
 _atom_site_fract_y
 _atom_site_fract_z
 _atom_site_occupancy
  La  La0  1  0.29212582  0.06207014  0.11016852  1
  La  La1  1  0.29874011  0.06542926  0.61162513  1
  La  La2  1  0.29894674  0.56494681  0.61378251  1
  La  La3  1  0.79947907  0.06574291  0.61313634  1
  La  La4  1  0.80322591  0.57042788  0.10669873  1
  La  La5  1  0.80008935  0.56555625  0.61358079  1
  La  La6  1  0.18628186  0.43347863  0.38614028  1
  La  La7  1  0.18175347  0.43621833  0.89164138  1
  La  La8  1  0.18543813  0.93349193  0.38443714  1
  La  La9  1  0.18424884  0.93529122  0.89038010  1
  La  La10  1  0.68525674  0.43527259  0.38553306  1
  La  La11  1  0.68550270  0.93344747  0.38733401  1
  La  La12  1  0.68776099  0.93249430  0.89367198  1
  La  La13  1  0.04662709  0.28840225  0.10900080  1
  La  La14  1  0.04929079  0.29899368  0.61359830  1
  La  La15  1  0.04884992  0.79813005  0.61261376  1
  La  La16  1  0.54943788  0.28409950  0.10859472  1
  La  La17  1  0.54867374  0.29830321  0.61417129  1
  La  La18  1  0.55013972  0.79937203  0.11022855  1
  La  La19  1  0.54938485  0.79801063  0.61347042  1
  La  La20  1  0.43586228  0.20209895  0.38671788  1
  La  La21  1  0.43953909  0.20564792  0.88982137  1
  La  La22  1  0.43498549  0.70009687  0.38446158  1
  La  La23  1  0.44415571  0.71091205  0.89249678  1
  La  La24  1  0.93453994  0.20216265  0.38569276  1
  La  La25  1  0.93690744  0.20971183  0.89153599  1
  La  La26  1  0.93427009  0.70054380  0.38499370  1
  La  La27  1  0.93165324  0.71130327  0.89362141  1
  Sm  Sm28  1  0.28669628  0.56989981  0.10893905  1
  Sm  Sm29  1  0.79432217  0.06319799  0.10801561  1
  Sm  Sm30  1  0.69020047  0.43521564  0.89278689  1
  Sm  Sm31  1  0.04209680  0.78924927  0.10784207  1
  Mn  Mn32  1  0.00133763  0.99975407  0.49936782  1
  Mn  Mn33  1  0.00106076  0.49999807  0.49940941  1
  Mn  Mn34  1  0.50075399  0.99936965  0.49939270  1
  Mn  Mn35  1  0.50227624  0.50202875  0.00244540  1
  Mn  Mn36  1  0.50119319  0.49992563  0.49966764  1
  Mn  Mn37  1  0.25272461  0.25241691  0.00259550  1
  Mn  Mn38  1  0.25073719  0.24987211  0.49956133  1
  Mn  Mn39  1  0.25007550  0.75043126  0.00020641  1
  Mn  Mn40  1  0.25132225  0.74959737  0.49946027  1
  Mn  Mn41  1  0.75153528  0.24936254  0.00073141  1
  Mn  Mn42  1  0.75086187  0.25000786  0.49967999  1
  Mn  Mn43  1  0.75055602  0.74938419  0.49921476  1
  Mn  Mn44  1  0.10400888  0.09628256  0.24970989  1
  Mn  Mn45  1  0.10786898  0.10188799  0.75184385  1
  Mn  Mn46  1  0.10803991  0.59914534  0.25055339  1
  Mn  Mn47  1  0.10773417  0.60200987  0.75291986  1
  Mn  Mn48  1  0.60812887  0.09839471  0.25176610  1
  Mn  Mn49  1  0.60819533  0.10092059  0.75137391  1
  Mn  Mn50  1  0.60264474  0.59737687  0.24378230  1
  Mn  Mn51  1  0.60594046  0.59674316  0.74965405  1
  Mn  Mn52  1  0.35581646  0.39998842  0.24621550  1
  Mn  Mn53  1  0.35944681  0.40193229  0.75330256  1
  Mn  Mn54  1  0.35240203  0.89579007  0.24661381  1
  Mn  Mn55  1  0.35666715  0.90120193  0.74854629  1
  Mn  Mn56  1  0.85474596  0.39805151  0.24686164  1
  Mn  Mn57  1  0.85432093  0.40204841  0.74915839  1
  Mn  Mn58  1  0.85916476  0.90319041  0.25041358  1
  Mn  Mn59  1  0.85578184  0.90096805  0.74954269  1
  Cu  Cu60  1  0.99740493  0.99898010  0.00127302  1
  Cu  Cu61  1  0.99846222  0.50021287  0.00097721  1
  Cu  Cu62  1  0.49688220  0.00052004  0.99995862  1
  Cu  Cu63  1  0.74835801  0.75105413  0.00149730  1
  O  O64  1  0.11184388  0.11670193  0.47565454  1
  O  O65  1  0.11299863  0.12079716  0.98196608  1
  O  O66  1  0.11079237  0.61652567  0.47473670  1
  O  O67  1  0.11447044  0.61948578  0.98558234  1
  O  O68  1  0.61059152  0.11600038  0.47432627  1
  O  O69  1  0.61279817  0.12029788  0.98343030  1
  O  O70  1  0.61061150  0.61632431  0.47416305  1
  O  O71  1  0.61572283  0.61419902  0.97605654  1
  O  O72  1  0.13441353  0.38487098  0.02178413  1
  O  O73  1  0.13590185  0.38340055  0.52448395  1
  O  O74  1  0.12956125  0.87956826  0.02384725  1
  O  O75  1  0.13641417  0.88348293  0.52516793  1
  O  O76  1  0.63338226  0.38037395  0.01942789  1
  O  O77  1  0.63528994  0.38276778  0.52424414  1
  O  O78  1  0.63322843  0.88436539  0.02069378  1
  O  O79  1  0.63595597  0.88313925  0.52305493  1
  O  O80  1  0.36171723  0.10867688  0.47649013  1
  O  O81  1  0.36526218  0.11264428  0.97894027  1
  O  O82  1  0.36091457  0.60721702  0.47361582  1
  O  O83  1  0.36390385  0.61044523  0.97875149  1
  O  O84  1  0.86140036  0.10823316  0.47491108  1
  O  O85  1  0.86432948  0.11043210  0.98158848  1
  O  O86  1  0.86148214  0.60861018  0.47450725  1
  O  O87  1  0.86086893  0.60686052  0.98118540  1
  O  O88  1  0.38414375  0.39576746  0.02531392  1
  O  O89  1  0.38593852  0.39060726  0.52375603  1
  O  O90  1  0.38454571  0.89057527  0.02097088  1
  O  O91  1  0.38732622  0.89159616  0.52554386  1
  O  O92  1  0.88219336  0.38746564  0.01597309  1
  O  O93  1  0.88671306  0.39191713  0.52471023  1
  O  O94  1  0.88220880  0.89128612  0.02412153  1
  O  O95  1  0.88484281  0.89044346  0.52235802  1
  O  O96  1  0.12333591  0.13338460  0.15324406  1
  O  O97  1  0.10167617  0.12006045  0.64067268  1
  O  O98  1  0.12205169  0.63384673  0.15156300  1
  O  O99  1  0.10178463  0.61990201  0.64114794  1
  O  O100  1  0.62869257  0.12717940  0.15271649  1
  O  O101  1  0.60242663  0.11976032  0.64029118  1
  O  O102  1  0.61464882  0.62456508  0.14010523  1
  O  O103  1  0.60129333  0.61710386  0.63916467  1
  O  O104  1  0.46073885  0.38034426  0.35767148  1
  O  O105  1  0.47329014  0.38000495  0.85937935  1
  O  O106  1  0.45780273  0.88000671  0.35877401  1
  O  O107  1  0.47065072  0.87038064  0.84892159  1
  O  O108  1  0.96059564  0.38023336  0.35869964  1
  O  O109  1  0.96783723  0.36949232  0.84909540  1
  O  O110  1  0.96361062  0.88162918  0.36056912  1
  O  O111  1  0.97063216  0.87047294  0.85013697  1
  O  O112  1  0.35845786  0.26772347  0.14038665  1
  O  O113  1  0.35309615  0.27277120  0.64109725  1
  O  O114  1  0.35928659  0.76994994  0.13914840  1
  O  O115  1  0.35126501  0.76967951  0.63827681  1
  O  O116  1  0.85404357  0.26832779  0.13853272  1
  O  O117  1  0.84918611  0.27130177  0.63843989  1
  O  O118  1  0.87705176  0.77214945  0.15172923  1
  O  O119  1  0.85011790  0.77104976  0.63794949  1
  O  O120  1  0.21059163  0.22651950  0.36101194  1
  O  O121  1  0.21703419  0.22939650  0.86123438  1
  O  O122  1  0.21303667  0.73034620  0.36150153  1
  O  O123  1  0.21781923  0.72895082  0.86156492  1
  O  O124  1  0.71268068  0.23036013  0.36162838  1
  O  O125  1  0.71273449  0.22939303  0.86117131  1
  O  O126  1  0.70809360  0.72614026  0.35726959  1
  O  O127  1  0.71783601  0.72883835  0.85087941  1
  O  O128  1  0.42305824  0.06664608  0.25064013  1
  O  O129  1  0.42124213  0.07149625  0.74945709  1
  O  O130  1  0.41540779  0.57043586  0.24350041  1
  O  O131  1  0.42129605  0.56951059  0.75014423  1
  O  O132  1  0.91655920  0.07149992  0.24553740  1
  O  O133  1  0.92168729  0.07042591  0.74996519  1
  O  O134  1  0.92297295  0.56761024  0.24929827  1
  O  O135  1  0.92114918  0.57040548  0.75062454  1
  O  O136  1  0.17233097  0.42991995  0.25002053  1
  O  O137  1  0.17263724  0.43085587  0.75077310  1
  O  O138  1  0.16605247  0.92523280  0.24458157  1
  O  O139  1  0.17238099  0.93125004  0.75004432  1
  O  O140  1  0.67005942  0.43053196  0.24872721  1
  O  O141  1  0.67117288  0.42863147  0.75578967  1
  O  O142  1  0.67414721  0.92948455  0.25134179  1
  O  O143  1  0.67174708  0.93165257  0.74979300  1
