# generated using pymatgen
data_NaAl(SiO3)2
_symmetry_space_group_name_H-M   'P 1'
_cell_length_a   11.95374495
_cell_length_b   11.95374495
_cell_length_c   12.00080168
_cell_angle_alpha   108.67911780
_cell_angle_beta   109.19135186
_cell_angle_gamma   110.39274445
_symmetry_Int_Tables_number   1
_chemical_formula_structural   NaAl(SiO3)2
_chemical_formula_sum   'Na8 Al8 Si16 O48'
_cell_volume   1322.27889867
_cell_formula_units_Z   8
loop_
 _symmetry_equiv_pos_site_id
 _symmetry_equiv_pos_as_xyz
  1  'x, y, z'
loop_
 _atom_site_type_symbol
 _atom_site_label
 _atom_site_symmetry_multiplicity
 _atom_site_fract_x
 _atom_site_fract_y
 _atom_site_fract_z
 _atom_site_occupancy
  Na  Na0  1  0.33326705  0.24928656  0.61310425  1
  Na  Na1  1  0.13618231  0.72016280  0.88689575  1
  Na  Na2  1  0.66673295  0.75071344  0.38689575  1
  Na  Na3  1  0.86381769  0.27983720  0.11310425  1
  Na  Na4  1  0.74207277  0.35314997  0.60288050  1
  Na  Na5  1  0.25026947  0.13919227  0.89711950  1
  Na  Na6  1  0.25792723  0.64685003  0.39711950  1
  Na  Na7  1  0.74973053  0.86080773  0.10288050  1
  Al  Al8  1  0.74984712  0.53741868  0.46709740  1
  Al  Al9  1  0.57032128  0.28274972  0.03290260  1
  Al  Al10  1  0.25015288  0.46258132  0.53290260  1
  Al  Al11  1  0.42967872  0.71725028  0.96709740  1
  Al  Al12  1  0.74813914  0.21541478  0.78437108  1
  Al  Al13  1  0.93104370  0.96376806  0.71562892  1
  Al  Al14  1  0.25186086  0.78458522  0.21562892  1
  Al  Al15  1  0.06895630  0.03623194  0.28437108  1
  Si  Si16  1  0.53915002  0.56757710  0.79106209  1
  Si  Si17  1  0.27651500  0.74808793  0.70893791  1
  Si  Si18  1  0.46084998  0.43242290  0.20893791  1
  Si  Si19  1  0.72348500  0.25191207  0.29106209  1
  Si  Si20  1  0.96145972  0.74845806  0.02887097  1
  Si  Si21  1  0.21958709  0.93258875  0.47112903  1
  Si  Si22  1  0.03854028  0.25154194  0.97112903  1
  Si  Si23  1  0.78041291  0.06741125  0.52887097  1
  Si  Si24  1  0.20982475  0.29933757  0.25276031  1
  Si  Si25  1  0.54657727  0.95706445  0.24723969  1
  Si  Si26  1  0.79017525  0.70066243  0.74723969  1
  Si  Si27  1  0.45342273  0.04293555  0.75276031  1
  Si  Si28  1  0.28938508  0.54467301  0.08852727  1
  Si  Si29  1  0.95614574  0.20085781  0.41147273  1
  Si  Si30  1  0.71061492  0.45532699  0.91147273  1
  Si  Si31  1  0.04385426  0.79914219  0.58852727  1
  O  O32  1  0.75363258  0.56224443  0.62198407  1
  O  O33  1  0.44026037  0.13164851  0.87801593  1
  O  O34  1  0.24636742  0.43775557  0.37801593  1
  O  O35  1  0.55973963  0.86835149  0.12198407  1
  O  O36  1  0.74497176  0.36802623  0.80583072  1
  O  O37  1  0.06219550  0.93914104  0.69416928  1
  O  O38  1  0.25502824  0.63197377  0.19416928  1
  O  O39  1  0.93780450  0.06085896  0.30583072  1
  O  O40  1  0.24727731  0.61600985  0.58383263  1
  O  O41  1  0.53217723  0.66344469  0.91616737  1
  O  O42  1  0.75272269  0.38399015  0.41616737  1
  O  O43  1  0.46782277  0.33655531  0.08383263  1
  O  O44  1  0.25138142  0.83825466  0.36982454  1
  O  O45  1  0.96843012  0.88155688  0.13017546  1
  O  O46  1  0.74861858  0.16174534  0.63017546  1
  O  O47  1  0.03156988  0.11844312  0.86982454  1
  O  O48  1  0.39635955  0.47555770  0.64837554  1
  O  O49  1  0.32718215  0.74798401  0.85162446  1
  O  O50  1  0.60364045  0.52444230  0.35162446  1
  O  O51  1  0.67281785  0.25201599  0.14837554  1
  O  O52  1  0.10376242  0.74629074  0.07859118  1
  O  O53  1  0.16769955  0.02517124  0.42140882  1
  O  O54  1  0.89623758  0.25370926  0.92140882  1
  O  O55  1  0.83230045  0.97482876  0.57859118  1
  O  O56  1  0.81736386  0.82611435  0.71685045  1
  O  O57  1  0.60926390  0.10051342  0.78314955  1
  O  O58  1  0.18263614  0.17388565  0.28314955  1
  O  O59  1  0.39073610  0.89948658  0.21685045  1
  O  O60  1  0.68860895  0.39424051  0.00919202  1
  O  O61  1  0.88504849  0.67941693  0.49080798  1
  O  O62  1  0.31139105  0.60575949  0.99080798  1
  O  O63  1  0.11495151  0.32058307  0.50919202  1
  O  O64  1  0.33311784  0.32923291  0.21478111  1
  O  O65  1  0.61445180  0.11833674  0.28521889  1
  O  O66  1  0.66688216  0.67076709  0.78521889  1
  O  O67  1  0.38554820  0.88166326  0.71478111  1
  O  O68  1  0.16640663  0.38382866  0.99359401  1
  O  O69  1  0.89023465  0.17281261  0.50640599  1
  O  O70  1  0.83359337  0.61617134  0.00640599  1
  O  O71  1  0.10976535  0.82718739  0.49359401  1
  O  O72  1  0.43141198  0.54978309  0.18174867  1
  O  O73  1  0.86803443  0.24966331  0.31825133  1
  O  O74  1  0.56858802  0.45021691  0.81825133  1
  O  O75  1  0.13196557  0.75033669  0.68174867  1
  O  O76  1  0.06990323  0.25950080  0.11970995  1
  O  O77  1  0.63979086  0.95019329  0.38029005  1
  O  O78  1  0.93009677  0.74049920  0.88029005  1
  O  O79  1  0.36020914  0.04980671  0.61970995  1
