# generated using pymatgen
data_Mo2W(SeS2)2
_symmetry_space_group_name_H-M   'P 1'
_cell_length_a   3.23098015
_cell_length_b   3.23094303
_cell_length_c   29.65828679
_cell_angle_alpha   89.99978914
_cell_angle_beta   90.00000000
_cell_angle_gamma   120.00038018
_symmetry_Int_Tables_number   1
_chemical_formula_structural   Mo2W(SeS2)2
_chemical_formula_sum   'Mo2 W1 Se2 S4'
_cell_volume   268.12580789
_cell_formula_units_Z   1
loop_
 _symmetry_equiv_pos_site_id
 _symmetry_equiv_pos_as_xyz
  1  'x, y, z'
loop_
 _atom_site_type_symbol
 _atom_site_label
 _atom_site_symmetry_multiplicity
 _atom_site_fract_x
 _atom_site_fract_y
 _atom_site_fract_z
 _atom_site_occupancy
  Mo  Mo0  1  0.33331245  0.66662490  0.11564259  1
  Mo  Mo1  1  0.33331229  0.66662459  0.57832599  1
  W  W2  1  0.66668935  0.33337869  0.34696385  1
  Se  Se3  1  0.66663937  0.33327775  0.52077353  1
  Se  Se4  1  0.66664703  0.33329306  0.63589090  1
  S  S5  1  0.33335467  0.66671034  0.39952102  1
  S  S6  1  0.66664327  0.33328553  0.06326249  1
  S  S7  1  0.66664632  0.33329164  0.16802955  1
  S  S8  1  0.33335625  0.66671350  0.29443107  1
