# generated using pymatgen
data_Mo2W(Se2S)2
_symmetry_space_group_name_H-M   'P 1'
_cell_length_a   3.27418667
_cell_length_b   3.27412943
_cell_length_c   30.20016214
_cell_angle_alpha   90.00000000
_cell_angle_beta   90.00000000
_cell_angle_gamma   120.00057822
_symmetry_Int_Tables_number   1
_chemical_formula_structural   Mo2W(Se2S)2
_chemical_formula_sum   'Mo2 W1 Se4 S2'
_cell_volume   280.37330134
_cell_formula_units_Z   1
loop_
 _symmetry_equiv_pos_site_id
 _symmetry_equiv_pos_as_xyz
  1  'x, y, z'
loop_
 _atom_site_type_symbol
 _atom_site_label
 _atom_site_symmetry_multiplicity
 _atom_site_fract_x
 _atom_site_fract_y
 _atom_site_fract_z
 _atom_site_occupancy
  Mo  Mo0  1  0.33331029  0.66662059  0.11564717  1
  Mo  Mo1  1  0.33331029  0.66662059  0.57831783  1
  W  W2  1  0.66668777  0.33337555  0.34698200  1
  Se  Se3  1  0.66664627  0.33329153  0.05966094  1
  Se  Se4  1  0.66664639  0.33329179  0.52233383  1
  Se  Se5  1  0.66664639  0.33329179  0.17163117  1
  Se  Se6  1  0.66664627  0.33329153  0.63430306  1
  S  S7  1  0.33335366  0.66670832  0.39814322  1
  S  S8  1  0.33335366  0.66670832  0.29582178  1
