# generated using pymatgen
data_MoW2(SeS2)2
_symmetry_space_group_name_H-M   'P 1'
_cell_length_a   3.23112214
_cell_length_b   3.23113140
_cell_length_c   29.67212274
_cell_angle_alpha   89.99966142
_cell_angle_beta   89.99998966
_cell_angle_gamma   119.99987652
_symmetry_Int_Tables_number   1
_chemical_formula_structural   MoW2(SeS2)2
_chemical_formula_sum   'Mo1 W2 Se2 S4'
_cell_volume   268.27968235
_cell_formula_units_Z   1
loop_
 _symmetry_equiv_pos_site_id
 _symmetry_equiv_pos_as_xyz
  1  'x, y, z'
loop_
 _atom_site_type_symbol
 _atom_site_label
 _atom_site_symmetry_multiplicity
 _atom_site_fract_x
 _atom_site_fract_y
 _atom_site_fract_z
 _atom_site_occupancy
  Mo  Mo0  1  0.33330741  0.66661377  0.11561707  1
  W  W1  1  0.33330750  0.66661407  0.57833423  1
  W  W2  1  0.66669179  0.33338427  0.34699814  1
  Se  Se3  1  0.66665074  0.33330078  0.05812959  1
  Se  Se4  1  0.66664329  0.33328594  0.17308422  1
  S  S5  1  0.33335451  0.66670941  0.39946420  1
  S  S6  1  0.66664684  0.33329319  0.52586488  1
  S  S7  1  0.66664362  0.33328745  0.63081000  1
  S  S8  1  0.33335530  0.66671113  0.29453865  1
