# generated using pymatgen
data_Mo2W(Se2S)2
_symmetry_space_group_name_H-M   'P 1'
_cell_length_a   3.27430298
_cell_length_b   3.27426797
_cell_length_c   30.21925714
_cell_angle_alpha   90.00004695
_cell_angle_beta   90.00000000
_cell_angle_gamma   120.00035365
_symmetry_Int_Tables_number   1
_chemical_formula_structural   Mo2W(Se2S)2
_chemical_formula_sum   'Mo2 W1 Se4 S2'
_cell_volume   280.57304915
_cell_formula_units_Z   1
loop_
 _symmetry_equiv_pos_site_id
 _symmetry_equiv_pos_as_xyz
  1  'x, y, z'
loop_
 _atom_site_type_symbol
 _atom_site_label
 _atom_site_symmetry_multiplicity
 _atom_site_fract_x
 _atom_site_fract_y
 _atom_site_fract_z
 _atom_site_occupancy
  Mo  Mo0  1  0.33331083  0.66662165  0.11563531  1
  Mo  Mo1  1  0.66668964  0.33337929  0.34700069  1
  W  W2  1  0.33331052  0.66662104  0.57832185  1
  Se  Se3  1  0.33335263  0.66670625  0.40294798  1
  Se  Se4  1  0.66664662  0.33329224  0.05965603  1
  Se  Se5  1  0.66664508  0.33328917  0.17161843  1
  Se  Se6  1  0.33335195  0.66670491  0.29102497  1
  S  S7  1  0.66664687  0.33329273  0.52721268  1
  S  S8  1  0.66664686  0.33329273  0.62942307  1
