# generated using pymatgen
data_Mo3(Se2S)2
_symmetry_space_group_name_H-M   'P 1'
_cell_length_a   3.27907406
_cell_length_b   3.27907887
_cell_length_c   30.16481681
_cell_angle_alpha   90.00000195
_cell_angle_beta   90.00000000
_cell_angle_gamma   119.99995148
_symmetry_Int_Tables_number   1
_chemical_formula_structural   Mo3(Se2S)2
_chemical_formula_sum   'Mo3 Se4 S2'
_cell_volume   280.88893041
_cell_formula_units_Z   1
loop_
 _symmetry_equiv_pos_site_id
 _symmetry_equiv_pos_as_xyz
  1  'x, y, z'
loop_
 _atom_site_type_symbol
 _atom_site_label
 _atom_site_symmetry_multiplicity
 _atom_site_fract_x
 _atom_site_fract_y
 _atom_site_fract_z
 _atom_site_occupancy
  Mo  Mo0  1  0.33330806  0.66661612  0.11561879  1
  Mo  Mo1  1  0.33330916  0.66661832  0.57834977  1
  Mo  Mo2  1  0.66668923  0.33337845  0.34696084  1
  Se  Se3  1  0.33334977  0.66670054  0.40294938  1
  Se  Se4  1  0.66665060  0.33330019  0.52232434  1
  Se  Se5  1  0.66664986  0.33329872  0.63434743  1
  Se  Se6  1  0.33335077  0.66670254  0.29100225  1
  S  S7  1  0.66664720  0.33329340  0.06469430  1
  S  S8  1  0.66664636  0.33329171  0.16659390  1
