# generated using pymatgen
data_Mo3(SeS2)2
_symmetry_space_group_name_H-M   'P 1'
_cell_length_a   3.23112977
_cell_length_b   3.23105217
_cell_length_c   29.66780495
_cell_angle_alpha   90.00000000
_cell_angle_beta   90.00000000
_cell_angle_gamma   120.00079454
_symmetry_Int_Tables_number   1
_chemical_formula_structural   Mo3(SeS2)2
_chemical_formula_sum   'Mo3 Se2 S4'
_cell_volume   268.23221826
_cell_formula_units_Z   1
loop_
 _symmetry_equiv_pos_site_id
 _symmetry_equiv_pos_as_xyz
  1  'x, y, z'
loop_
 _atom_site_type_symbol
 _atom_site_label
 _atom_site_symmetry_multiplicity
 _atom_site_fract_x
 _atom_site_fract_y
 _atom_site_fract_z
 _atom_site_occupancy
  Mo  Mo0  1  0.33331046  0.66662092  0.11563636  1
  Mo  Mo1  1  0.33331046  0.66662092  0.57832864  1
  Mo  Mo2  1  0.66669029  0.33338058  0.34698200  1
  Se  Se3  1  0.33335832  0.66671765  0.40453355  1
  Se  Se4  1  0.33335832  0.66671765  0.28943145  1
  S  S5  1  0.66664072  0.33328044  0.06330909  1
  S  S6  1  0.66664585  0.33329070  0.52599710  1
  S  S7  1  0.66664585  0.33329070  0.16796790  1
  S  S8  1  0.66664072  0.33328044  0.63065491  1
