# generated using pymatgen
data_MoW2(Se2S)2
_symmetry_space_group_name_H-M   'P 1'
_cell_length_a   3.27454766
_cell_length_b   3.27450623
_cell_length_c   30.21704799
_cell_angle_alpha   90.00011743
_cell_angle_beta   90.00000179
_cell_angle_gamma   120.00041143
_symmetry_Int_Tables_number   1
_chemical_formula_structural   MoW2(Se2S)2
_chemical_formula_sum   'Mo1 W2 Se4 S2'
_cell_volume   280.59375558
_cell_formula_units_Z   1
loop_
 _symmetry_equiv_pos_site_id
 _symmetry_equiv_pos_as_xyz
  1  'x, y, z'
loop_
 _atom_site_type_symbol
 _atom_site_label
 _atom_site_symmetry_multiplicity
 _atom_site_fract_x
 _atom_site_fract_y
 _atom_site_fract_z
 _atom_site_occupancy
  Mo  Mo0  1  0.33331145  0.66662257  0.11564625  1
  W  W1  1  0.33331217  0.66662385  0.57832123  1
  W  W2  1  0.66668869  0.33337777  0.34698486  1
  Se  Se3  1  0.66664549  0.33329019  0.05972849  1
  Se  Se4  1  0.66664532  0.33328993  0.52202066  1
  Se  Se5  1  0.66664710  0.33329355  0.17156688  1
  Se  Se6  1  0.66664258  0.33328434  0.63462467  1
  S  S7  1  0.33335482  0.66671030  0.39809439  1
  S  S8  1  0.33335338  0.66670751  0.29585357  1
