# generated using pymatgen
data_Mo3(SeS2)2
_symmetry_space_group_name_H-M   'P 1'
_cell_length_a   3.23311019
_cell_length_b   3.23314110
_cell_length_c   29.63681664
_cell_angle_alpha   89.99990116
_cell_angle_beta   90.00000000
_cell_angle_gamma   119.99968367
_symmetry_Int_Tables_number   1
_chemical_formula_structural   Mo3(SeS2)2
_chemical_formula_sum   'Mo3 Se2 S4'
_cell_volume   268.29262444
_cell_formula_units_Z   1
loop_
 _symmetry_equiv_pos_site_id
 _symmetry_equiv_pos_as_xyz
  1  'x, y, z'
loop_
 _atom_site_type_symbol
 _atom_site_label
 _atom_site_symmetry_multiplicity
 _atom_site_fract_x
 _atom_site_fract_y
 _atom_site_fract_z
 _atom_site_occupancy
  Mo  Mo0  1  0.33330978  0.66661956  0.11564417  1
  Mo  Mo1  1  0.33331037  0.66662074  0.57833605  1
  Mo  Mo2  1  0.66669345  0.33338691  0.34699291  1
  Se  Se3  1  0.66663021  0.33325942  0.52078471  1
  Se  Se4  1  0.66665138  0.33330175  0.63586013  1
  S  S5  1  0.33335213  0.66670526  0.39924133  1
  S  S6  1  0.66664998  0.33329895  0.06334821  1
  S  S7  1  0.66665002  0.33329904  0.16793920  1
  S  S8  1  0.33335368  0.66670837  0.29469428  1
