# generated using pymatgen
data_K3Na5V3(MoO4)5
_symmetry_space_group_name_H-M   'P 1'
_cell_length_a   11.38849570
_cell_length_b   11.72827485
_cell_length_c   17.03161016
_cell_angle_alpha   110.36813717
_cell_angle_beta   109.22088830
_cell_angle_gamma   89.86907692
_symmetry_Int_Tables_number   1
_chemical_formula_structural   K3Na5V3(MoO4)5
_chemical_formula_sum   'K12 Na20 V12 Mo20 O80'
_cell_volume   1997.48344109
_cell_formula_units_Z   4
loop_
 _symmetry_equiv_pos_site_id
 _symmetry_equiv_pos_as_xyz
  1  'x, y, z'
loop_
 _atom_site_type_symbol
 _atom_site_label
 _atom_site_symmetry_multiplicity
 _atom_site_fract_x
 _atom_site_fract_y
 _atom_site_fract_z
 _atom_site_occupancy
  K  K0  1  0.30450210  0.07067207  0.11322162  1
  K  K1  1  0.30656113  0.56778929  0.11439763  1
  K  K2  1  0.80304345  0.06643417  0.11184931  1
  K  K3  1  0.80294677  0.56895813  0.11187427  1
  K  K4  1  0.19816943  0.93229568  0.39286985  1
  K  K5  1  0.18832624  0.92335092  0.87759124  1
  K  K6  1  0.68755970  0.42482486  0.87756846  1
  K  K7  1  0.05885872  0.29603182  0.11271302  1
  K  K8  1  0.05541399  0.79332039  0.11072517  1
  K  K9  1  0.55202762  0.29560965  0.11155789  1
  K  K10  1  0.55688836  0.79243138  0.11362755  1
  K  K11  1  0.93692206  0.70229405  0.87754061  1
  Na  Na12  1  0.30671542  0.07189205  0.61044626  1
  Na  Na13  1  0.30807247  0.57080837  0.60966286  1
  Na  Na14  1  0.80585497  0.06967028  0.60791087  1
  Na  Na15  1  0.80590003  0.57000694  0.60703161  1
  Na  Na16  1  0.20284338  0.43399115  0.39999415  1
  Na  Na17  1  0.19832348  0.42933216  0.88869212  1
  Na  Na18  1  0.69563067  0.43641409  0.40130222  1
  Na  Na19  1  0.70230247  0.93143321  0.39982582  1
  Na  Na20  1  0.69757584  0.92926855  0.88807899  1
  Na  Na21  1  0.05688505  0.28789135  0.60861278  1
  Na  Na22  1  0.05615398  0.78795891  0.60701535  1
  Na  Na23  1  0.55719323  0.28761096  0.60716004  1
  Na  Na24  1  0.55702972  0.78758219  0.60792400  1
  Na  Na25  1  0.44581268  0.21630871  0.39986174  1
  Na  Na26  1  0.44677917  0.20945913  0.88882296  1
  Na  Na27  1  0.44748803  0.71396358  0.39757679  1
  Na  Na28  1  0.44801471  0.70960017  0.88960081  1
  Na  Na29  1  0.94752547  0.21527213  0.40189820  1
  Na  Na30  1  0.94797451  0.20925577  0.88873724  1
  Na  Na31  1  0.95061883  0.71874768  0.40293843  1
  V  V32  1  0.10082617  0.08607189  0.74484527  1
  V  V33  1  0.10551644  0.57836137  0.74396152  1
  V  V34  1  0.60149171  0.08050496  0.74561273  1
  V  V35  1  0.60480403  0.59200283  0.25763975  1
  V  V36  1  0.59953671  0.58572213  0.74475213  1
  V  V37  1  0.36238017  0.41618645  0.25795460  1
  V  V38  1  0.35224599  0.41332055  0.74866222  1
  V  V39  1  0.36143152  0.91363690  0.25460008  1
  V  V40  1  0.35424930  0.91384259  0.74515802  1
  V  V41  1  0.85329008  0.40841868  0.74142210  1
  V  V42  1  0.85642663  0.91356294  0.25831384  1
  V  V43  1  0.84927893  0.91613283  0.74540515  1
  Mo  Mo44  1  0.99991012  0.99800015  0.99368837  1
  Mo  Mo45  1  0.00727618  0.00118779  0.50308664  1
  Mo  Mo46  1  0.00024190  0.49579210  0.99226872  1
  Mo  Mo47  1  0.01101241  0.50063369  0.50326814  1
  Mo  Mo48  1  0.49962552  0.99626881  0.99173368  1
  Mo  Mo49  1  0.50854562  0.00107815  0.50260587  1
  Mo  Mo50  1  0.49923186  0.49590807  0.99434436  1
  Mo  Mo51  1  0.50773930  0.50075935  0.50219564  1
  Mo  Mo52  1  0.24980923  0.24719463  0.99287791  1
  Mo  Mo53  1  0.26048720  0.25470715  0.50589989  1
  Mo  Mo54  1  0.25145995  0.74656537  0.99456622  1
  Mo  Mo55  1  0.26129373  0.75132706  0.50415267  1
  Mo  Mo56  1  0.75069384  0.24463815  0.99223984  1
  Mo  Mo57  1  0.75884810  0.25174252  0.50161990  1
  Mo  Mo58  1  0.74947088  0.74841252  0.99477024  1
  Mo  Mo59  1  0.75675465  0.75050850  0.50129230  1
  Mo  Mo60  1  0.10367801  0.09508052  0.25740655  1
  Mo  Mo61  1  0.10273433  0.58552092  0.25553856  1
  Mo  Mo62  1  0.60764337  0.09183774  0.25788328  1
  Mo  Mo63  1  0.84951224  0.41249739  0.25890757  1
  O  O64  1  0.12486874  0.12501522  0.49165682  1
  O  O65  1  0.11798951  0.11937725  0.98156191  1
  O  O66  1  0.12668765  0.61760449  0.48701530  1
  O  O67  1  0.12126798  0.61278909  0.98070595  1
  O  O68  1  0.62432383  0.11707887  0.48317838  1
  O  O69  1  0.61772702  0.11214320  0.97592648  1
  O  O70  1  0.62558996  0.61915120  0.48698048  1
  O  O71  1  0.61759380  0.61909400  0.98428605  1
  O  O72  1  0.12843300  0.37519898  0.99919076  1
  O  O73  1  0.14515367  0.38760896  0.52291368  1
  O  O74  1  0.13045781  0.87695988  0.00516380  1
  O  O75  1  0.14025485  0.88295536  0.52030921  1
  O  O76  1  0.62919637  0.37471017  0.00487145  1
  O  O77  1  0.64132822  0.38402771  0.51759435  1
  O  O78  1  0.62760511  0.87510841  -0.00007595  1
  O  O79  1  0.64052196  0.88372303  0.51644394  1
  O  O80  1  0.37993154  0.12336646  0.49254533  1
  O  O81  1  0.37085025  0.11767765  0.98123972  1
  O  O82  1  0.37737685  0.61812859  0.48947697  1
  O  O83  1  0.36852064  0.61397244  0.97939083  1
  O  O84  1  0.87424882  0.11708689  0.48554947  1
  O  O85  1  0.86797413  0.11356920  0.97757646  1
  O  O86  1  0.87511154  0.61698503  0.48484881  1
  O  O87  1  0.86997766  0.61772479  0.98603543  1
  O  O88  1  0.37784474  0.37663138  0.00090607  1
  O  O89  1  0.39364835  0.38657415  0.52146228  1
  O  O90  1  0.38204275  0.87546217  0.00400750  1
  O  O91  1  0.39548971  0.88638055  0.52363608  1
  O  O92  1  0.88180037  0.37470085  0.00315773  1
  O  O93  1  0.89391615  0.38556441  0.52088407  1
  O  O94  1  0.87787344  0.88008160  0.00466680  1
  O  O95  1  0.88924587  0.88383697  0.51675801  1
  O  O96  1  0.07283807  0.09194150  0.13818957  1
  O  O97  1  0.07735068  0.10833873  0.64275360  1
  O  O98  1  0.07680281  0.58802911  0.13937502  1
  O  O99  1  0.08674344  0.60716682  0.64437137  1
  O  O100  1  0.57737432  0.08930953  0.13893252  1
  O  O101  1  0.58470475  0.10380237  0.64400272  1
  O  O102  1  0.57223231  0.58287659  0.14483915  1
  O  O103  1  0.57877367  0.60869957  0.64318589  1
  O  O104  1  0.44780436  0.39261003  0.35952406  1
  O  O105  1  0.43240445  0.39708149  0.85276755  1
  O  O106  1  0.44009261  0.89364570  0.35843834  1
  O  O107  1  0.42967741  0.89775944  0.84989961  1
  O  O108  1  0.95612996  0.38499426  0.36212708  1
  O  O109  1  0.92939292  0.40096564  0.84927916  1
  O  O110  1  0.94195672  0.89084936  0.35944053  1
  O  O111  1  0.93112069  0.90647061  0.85085968  1
  O  O112  1  0.32569792  0.31202421  0.14359571  1
  O  O113  1  0.33454766  0.29048567  0.64632733  1
  O  O114  1  0.33145561  0.80610696  0.14301804  1
  O  O115  1  0.33573183  0.78830173  0.64449290  1
  O  O116  1  0.82704700  0.30034341  0.13995055  1
  O  O117  1  0.83098866  0.28117584  0.64096006  1
  O  O118  1  0.82376852  0.81045321  0.14497955  1
  O  O119  1  0.83144727  0.79116028  0.64315277  1
  O  O120  1  0.20443297  0.22447939  0.36439721  1
  O  O121  1  0.18442121  0.20169157  0.85099339  1
  O  O122  1  0.21136796  0.70975940  0.36403979  1
  O  O123  1  0.18317383  0.69195308  0.85149828  1
  O  O124  1  0.70571946  0.22781518  0.36169833  1
  O  O125  1  0.68624126  0.19491126  0.85057037  1
  O  O126  1  0.69114114  0.71569263  0.35861870  1
  O  O127  1  0.68067510  0.70138465  0.85203484  1
  O  O128  1  0.44425196  0.06077461  0.26724705  1
  O  O129  1  0.43816476  0.05319523  0.74673573  1
  O  O130  1  0.44940468  0.55930203  0.26695533  1
  O  O131  1  0.43857925  0.55034755  0.74801211  1
  O  O132  1  0.94294439  0.05809365  0.26820772  1
  O  O133  1  0.93783615  0.05270316  0.74605136  1
  O  O134  1  0.94121063  0.56618036  0.26949048  1
  O  O135  1  0.93977837  0.53720142  0.73353514  1
  O  O136  1  0.20681458  0.45064220  0.26816764  1
  O  O137  1  0.18751274  0.43970513  0.74573903  1
  O  O138  1  0.20360811  0.95518988  0.25365820  1
  O  O139  1  0.18845606  0.94885975  0.73533642  1
  O  O140  1  0.68682232  0.45550624  0.26825584  1
  O  O141  1  0.69028385  0.45017845  0.73500988  1
  O  O142  1  0.70033189  0.95033344  0.26751027  1
  O  O143  1  0.68453161  0.94131425  0.74460635  1
