# generated using pymatgen
data_W3(Se2S)2
_symmetry_space_group_name_H-M   'P 1'
_cell_length_a   3.27496857
_cell_length_b   3.27494753
_cell_length_c   30.25477668
_cell_angle_alpha   90.00000000
_cell_angle_beta   90.00000000
_cell_angle_gamma   120.00021263
_symmetry_Int_Tables_number   1
_chemical_formula_structural   W3(Se2S)2
_chemical_formula_sum   'W3 Se4 S2'
_cell_volume   281.01864503
_cell_formula_units_Z   1
loop_
 _symmetry_equiv_pos_site_id
 _symmetry_equiv_pos_as_xyz
  1  'x, y, z'
loop_
 _atom_site_type_symbol
 _atom_site_label
 _atom_site_symmetry_multiplicity
 _atom_site_fract_x
 _atom_site_fract_y
 _atom_site_fract_z
 _atom_site_occupancy
  W  W0  1  0.33330998  0.66661995  0.11564502  1
  W  W1  1  0.33330998  0.66661995  0.57831998  1
  W  W2  1  0.66668867  0.33337735  0.34698200  1
  Se  Se3  1  0.66664642  0.33329184  0.05944090  1
  Se  Se4  1  0.66664653  0.33329206  0.52211836  1
  Se  Se5  1  0.66664653  0.33329206  0.17184664  1
  Se  Se6  1  0.66664642  0.33329184  0.63452310  1
  S  S7  1  0.33335324  0.66670747  0.39800895  1
  S  S8  1  0.33335324  0.66670747  0.29595605  1
