# generated using pymatgen
data_MoW3(SeS)4
_symmetry_space_group_name_H-M   'P 1'
_cell_length_a   3.25326877
_cell_length_b   3.25317727
_cell_length_c   40.14898818
_cell_angle_alpha   89.99926135
_cell_angle_beta   90.00000000
_cell_angle_gamma   120.00093029
_symmetry_Int_Tables_number   1
_chemical_formula_structural   MoW3(SeS)4
_chemical_formula_sum   'Mo1 W3 Se4 S4'
_cell_volume   367.98391782
_cell_formula_units_Z   1
loop_
 _symmetry_equiv_pos_site_id
 _symmetry_equiv_pos_as_xyz
  1  'x, y, z'
loop_
 _atom_site_type_symbol
 _atom_site_label
 _atom_site_symmetry_multiplicity
 _atom_site_fract_x
 _atom_site_fract_y
 _atom_site_fract_z
 _atom_site_occupancy
  Mo  Mo0  1  0.33330734  0.66661467  0.09347619  1
  W  W1  1  0.33330761  0.66661522  0.46959076  1
  W  W2  1  0.66669035  0.33338070  0.28188043  1
  W  W3  1  0.66669598  0.33339196  0.65795026  1
  Se  Se4  1  0.33334534  0.66669168  0.32443605  1
  Se  Se5  1  0.66665344  0.33330588  0.05121108  1
  Se  Se6  1  0.66664725  0.33329349  0.13574418  1
  Se  Se7  1  0.33335184  0.66670467  0.23935120  1
  S  S8  1  0.33335492  0.66671085  0.69662890  1
  S  S9  1  0.66665140  0.33330181  0.43095463  1
  S  S10  1  0.66663577  0.33327054  0.50822189  1
  S  S11  1  0.33335876  0.66671852  0.61930245  1
