# generated using pymatgen
data_CaCo4(CuO4)3
_symmetry_space_group_name_H-M   'P 1'
_cell_length_a   6.27053636
_cell_length_b   6.27053614
_cell_length_c   6.27053691
_cell_angle_alpha   109.47122047
_cell_angle_beta   109.47121979
_cell_angle_gamma   109.47121837
_symmetry_Int_Tables_number   1
_chemical_formula_structural   CaCo4(CuO4)3
_chemical_formula_sum   'Ca1 Co4 Cu3 O12'
_cell_volume   189.79825730
_cell_formula_units_Z   1
loop_
 _symmetry_equiv_pos_site_id
 _symmetry_equiv_pos_as_xyz
  1  'x, y, z'
loop_
 _atom_site_type_symbol
 _atom_site_label
 _atom_site_symmetry_multiplicity
 _atom_site_fract_x
 _atom_site_fract_y
 _atom_site_fract_z
 _atom_site_occupancy
  Ca  Ca0  1  0.00000000  0.00000000  0.00000000  1
  Co  Co1  1  0.00000000  0.00000000  0.50000000  1
  Co  Co2  1  0.00000000  0.50000000  0.00000000  1
  Co  Co3  1  0.50000000  0.50000000  0.50000000  1
  Co  Co4  1  0.50000000  0.00000000  0.00000000  1
  Cu  Cu5  1  0.50000000  0.50000000  0.00000000  1
  Cu  Cu6  1  0.00000000  0.50000000  0.50000000  1
  Cu  Cu7  1  0.50000000  0.00000000  0.50000000  1
  O  O8  1  0.82578819  0.30895714  0.13474533  1
  O  O9  1  0.17421181  0.69104286  0.86525467  1
  O  O10  1  0.82578819  0.69104286  0.51683204  1
  O  O11  1  0.30895714  0.48316796  0.17421181  1
  O  O12  1  0.48316796  0.17421181  0.30895714  1
  O  O13  1  0.13474533  0.82578819  0.30895714  1
  O  O14  1  0.69104286  0.86525467  0.17421181  1
  O  O15  1  0.51683204  0.82578819  0.69104286  1
  O  O16  1  0.17421181  0.30895714  0.48316796  1
  O  O17  1  0.69104286  0.51683204  0.82578819  1
  O  O18  1  0.86525467  0.17421181  0.69104286  1
  O  O19  1  0.30895714  0.13474533  0.82578819  1
