# generated using pymatgen
data_CaFeAs2O7
_symmetry_space_group_name_H-M   'P 1'
_cell_length_a   7.54914122
_cell_length_b   9.17433357
_cell_length_c   9.56394410
_cell_angle_alpha   90.00000000
_cell_angle_beta   111.16962223
_cell_angle_gamma   90.00000000
_symmetry_Int_Tables_number   1
_chemical_formula_structural   CaFeAs2O7
_chemical_formula_sum   'Ca4 Fe4 As8 O28'
_cell_volume   617.68224547
_cell_formula_units_Z   4
loop_
 _symmetry_equiv_pos_site_id
 _symmetry_equiv_pos_as_xyz
  1  'x, y, z'
loop_
 _atom_site_type_symbol
 _atom_site_label
 _atom_site_symmetry_multiplicity
 _atom_site_fract_x
 _atom_site_fract_y
 _atom_site_fract_z
 _atom_site_occupancy
  Ca  Ca0  1  0.25688844  0.93286607  0.92948007  1
  Ca  Ca1  1  0.74311156  0.43286607  0.57051993  1
  Ca  Ca2  1  0.74311156  0.06713393  0.07051993  1
  Ca  Ca3  1  0.25688844  0.56713393  0.42948007  1
  Fe  Fe4  1  0.80213582  0.05512335  0.69261367  1
  Fe  Fe5  1  0.19786418  0.55512335  0.80738633  1
  Fe  Fe6  1  0.19786418  0.94487665  0.30738633  1
  Fe  Fe7  1  0.80213582  0.44487665  0.19261367  1
  As  As8  1  0.41951452  0.23802933  0.73553138  1
  As  As9  1  0.58048548  0.73802933  0.76446862  1
  As  As10  1  0.58048548  0.76197067  0.26446862  1
  As  As11  1  0.41951452  0.26197067  0.23553038  1
  As  As12  1  0.01632990  0.29497844  0.95501047  1
  As  As13  1  0.98367010  0.79497844  0.54498953  1
  As  As14  1  0.98367010  0.70502156  0.04498953  1
  As  As15  1  0.01632990  0.20502156  0.45501047  1
  O  O16  1  0.85541154  0.30860972  0.04220603  1
  O  O17  1  0.14458846  0.80860972  0.45779397  1
  O  O18  1  0.14458846  0.69139028  0.95779397  1
  O  O19  1  0.85541154  0.19139028  0.54220603  1
  O  O20  1  0.34320939  0.41341595  0.72737557  1
  O  O21  1  0.65679061  0.91341595  0.77262443  1
  O  O22  1  0.65679061  0.58658405  0.27262443  1
  O  O23  1  0.34320939  0.08658405  0.22737557  1
  O  O24  1  0.43273813  0.13426995  0.88651897  1
  O  O25  1  0.56726187  0.63426995  0.61348103  1
  O  O26  1  0.56726187  0.86573005  0.11348103  1
  O  O27  1  0.43273813  0.36573005  0.38651897  1
  O  O28  1  0.24575325  0.14632855  0.57721014  1
  O  O29  1  0.75424675  0.64632855  0.92278986  1
  O  O30  1  0.75424675  0.85367145  0.42278986  1
  O  O31  1  0.24575325  0.35367145  0.07721014  1
  O  O32  1  0.98419220  0.08866294  0.30995828  1
  O  O33  1  0.01580780  0.58866294  0.19004172  1
  O  O34  1  0.01580780  0.91133706  0.69004172  1
  O  O35  1  0.98419220  0.41133706  0.80995828  1
  O  O36  1  0.62511496  0.26502518  0.20087146  1
  O  O37  1  0.37488504  0.76502518  0.29912854  1
  O  O38  1  0.37488504  0.73497482  0.79912854  1
  O  O39  1  0.62511496  0.23497482  0.70087146  1
  O  O40  1  0.01217148  0.38386945  0.40521795  1
  O  O41  1  0.98782852  0.88386945  0.09478205  1
  O  O42  1  0.98782852  0.61613055  0.59478205  1
  O  O43  1  0.01217148  0.11613055  0.90521795  1
