# generated using pymatgen
data_CaNi2(PO4)2
_symmetry_space_group_name_H-M   'P 1'
_cell_length_a   4.95550327
_cell_length_b   8.98139471
_cell_length_c   14.93560544
_cell_angle_alpha   84.94659799
_cell_angle_beta   80.45073604
_cell_angle_gamma   73.98577104
_symmetry_Int_Tables_number   1
_chemical_formula_structural   CaNi2(PO4)2
_chemical_formula_sum   'Ca4 Ni8 P8 O32'
_cell_volume   629.46542324
_cell_formula_units_Z   4
loop_
 _symmetry_equiv_pos_site_id
 _symmetry_equiv_pos_as_xyz
  1  'x, y, z'
loop_
 _atom_site_type_symbol
 _atom_site_label
 _atom_site_symmetry_multiplicity
 _atom_site_fract_x
 _atom_site_fract_y
 _atom_site_fract_z
 _atom_site_occupancy
  Ca  Ca0  1  0.47640134  0.83169390  0.86001704  1
  Ca  Ca1  1  0.16811328  0.66830610  0.63998296  1
  Ca  Ca2  1  0.83188672  0.33169390  0.36001704  1
  Ca  Ca3  1  0.52359866  0.16830610  0.13998296  1
  Ni  Ni4  1  0.19367970  0.22987448  0.96205439  1
  Ni  Ni5  1  0.38560657  0.27012652  0.53794561  1
  Ni  Ni6  1  0.80632030  0.77012652  0.03794561  1
  Ni  Ni7  1  0.50000000  0.50000000  -0.00000000  1
  Ni  Ni8  1  0.61439343  0.72987348  0.46205439  1
  Ni  Ni9  1  0.65499773  0.75000000  0.25000000  1
  Ni  Ni10  1  0.34500227  0.25000000  0.75000000  1
  Ni  Ni11  1  0.00000000  -0.00000000  0.50000000  1
  P  P12  1  0.05360442  0.56327368  0.86811940  1
  P  P13  1  0.77304037  0.42295012  0.61270090  1
  P  P14  1  0.94639558  0.43672632  0.13188060  1
  P  P15  1  0.19130862  0.92295012  0.11270090  1
  P  P16  1  0.51500450  0.06327368  0.36811940  1
  P  P17  1  0.48499550  0.93672632  0.63188060  1
  P  P18  1  0.22695963  0.57704988  0.38729910  1
  P  P19  1  0.80869138  0.07704988  0.88729910  1
  O  O20  1  0.69056003  0.39260375  0.10476523  1
  O  O21  1  0.82935219  0.90799397  0.92603067  1
  O  O22  1  0.81207099  0.89260375  0.60476523  1
  O  O23  1  0.78416297  0.30351987  0.54067597  1
  O  O24  1  0.19519492  0.39589027  0.04966091  1
  O  O25  1  0.56446184  0.40535254  0.69844552  1
  O  O26  1  0.62835980  0.19648013  0.95932403  1
  O  O27  1  0.87996908  0.90608673  0.13147901  1
  O  O28  1  0.21583703  0.69648013  0.45932403  1
  O  O29  1  0.66337783  0.59200603  0.57396933  1
  O  O30  1  0.86907660  0.61504737  0.14356219  1
  O  O31  1  0.61266417  0.15661023  0.28523918  1
  O  O32  1  0.17064781  0.09200603  0.07396933  1
  O  O33  1  0.08246617  0.40608673  0.63147901  1
  O  O34  1  0.30943897  0.60739625  0.89523477  1
  O  O35  1  0.13092340  0.38495263  0.85643781  1
  O  O36  1  0.94548542  0.65661023  0.78523918  1
  O  O37  1  0.37164020  0.80351987  0.04067597  1
  O  O38  1  0.37231484  0.11504737  0.64356219  1
  O  O39  1  0.38733583  0.84338977  0.71476082  1
  O  O40  1  0.91753383  0.59391327  0.36852099  1
  O  O41  1  0.35925290  0.89589027  0.54966091  1
  O  O42  1  0.12003092  0.09391327  0.86852099  1
  O  O43  1  0.33174010  0.90535254  0.19844552  1
  O  O44  1  0.33662217  0.40799397  0.42603067  1
  O  O45  1  0.18792901  0.10739625  0.39523477  1
  O  O46  1  0.05451458  0.34338977  0.21476082  1
  O  O47  1  0.64074710  0.10410973  0.45033909  1
  O  O48  1  0.80480508  0.60410973  0.95033909  1
  O  O49  1  0.66825990  0.09464746  0.80155448  1
  O  O50  1  0.43553816  0.59464746  0.30155448  1
  O  O51  1  0.62768516  0.88495263  0.35643781  1
