# generated using pymatgen
data_Mg14MnCoO16
_symmetry_space_group_name_H-M   'P 1'
_cell_length_a   8.54460570
_cell_length_b   8.56881593
_cell_length_c   4.28418466
_cell_angle_alpha   90.00000000
_cell_angle_beta   90.00000000
_cell_angle_gamma   90.00000000
_symmetry_Int_Tables_number   1
_chemical_formula_structural   Mg14MnCoO16
_chemical_formula_sum   'Mg14 Mn1 Co1 O16'
_cell_volume   313.67580561
_cell_formula_units_Z   1
loop_
 _symmetry_equiv_pos_site_id
 _symmetry_equiv_pos_as_xyz
  1  'x, y, z'
loop_
 _atom_site_type_symbol
 _atom_site_label
 _atom_site_symmetry_multiplicity
 _atom_site_fract_x
 _atom_site_fract_y
 _atom_site_fract_z
 _atom_site_occupancy
  Mg  Mg0  1  0.50000000  -0.00000000  0.00000000  1
  Mg  Mg1  1  0.50000000  0.50000000  0.00000000  1
  Mg  Mg2  1  -0.00000000  0.25311601  0.50000000  1
  Mg  Mg3  1  -0.00000000  0.74688399  0.50000000  1
  Mg  Mg4  1  0.50000000  0.24999551  0.50000000  1
  Mg  Mg5  1  0.50000000  0.75000449  0.50000000  1
  Mg  Mg6  1  0.25169656  -0.00000000  0.50000000  1
  Mg  Mg7  1  0.24904505  0.50000000  0.50000000  1
  Mg  Mg8  1  0.74830344  0.00000000  0.50000000  1
  Mg  Mg9  1  0.75095495  0.50000000  0.50000000  1
  Mg  Mg10  1  0.25033693  0.25098814  -0.00000000  1
  Mg  Mg11  1  0.25033693  0.74901186  0.00000000  1
  Mg  Mg12  1  0.74966307  0.25098814  0.00000000  1
  Mg  Mg13  1  0.74966307  0.74901186  0.00000000  1
  Mn  Mn14  1  -0.00000000  -0.00000000  0.00000000  1
  Co  Co15  1  -0.00000000  0.50000000  0.00000000  1
  O  O16  1  0.25743197  -0.00000000  -0.00000000  1
  O  O17  1  0.25205418  0.50000000  0.00000000  1
  O  O18  1  0.74256803  0.00000000  0.00000000  1
  O  O19  1  0.74794582  0.50000000  -0.00000000  1
  O  O20  1  0.24933427  0.25012289  0.50000000  1
  O  O21  1  0.24933427  0.74987711  0.50000000  1
  O  O22  1  0.75066573  0.25012289  0.50000000  1
  O  O23  1  0.75066573  0.74987711  0.50000000  1
  O  O24  1  -0.00000000  -0.00000000  0.50000000  1
  O  O25  1  -0.00000000  0.50000000  0.50000000  1
  O  O26  1  0.50000000  0.00000000  0.50000000  1
  O  O27  1  0.50000000  0.50000000  0.50000000  1
  O  O28  1  -0.00000000  0.25430927  0.00000000  1
  O  O29  1  -0.00000000  0.74569073  0.00000000  1
  O  O30  1  0.50000000  0.25112050  -0.00000000  1
  O  O31  1  0.50000000  0.74887950  0.00000000  1
