# generated using pymatgen
data_MgTi2(PO4)3
_symmetry_space_group_name_H-M   'P 1'
_cell_length_a   8.53041441
_cell_length_b   8.53041438
_cell_length_c   8.53041454
_cell_angle_alpha   61.00975569
_cell_angle_beta   61.00976016
_cell_angle_gamma   61.00976395
_symmetry_Int_Tables_number   1
_chemical_formula_structural   MgTi2(PO4)3
_chemical_formula_sum   'Mg2 Ti4 P6 O24'
_cell_volume   448.91281483
_cell_formula_units_Z   2
loop_
 _symmetry_equiv_pos_site_id
 _symmetry_equiv_pos_as_xyz
  1  'x, y, z'
loop_
 _atom_site_type_symbol
 _atom_site_label
 _atom_site_symmetry_multiplicity
 _atom_site_fract_x
 _atom_site_fract_y
 _atom_site_fract_z
 _atom_site_occupancy
  Mg  Mg0  1  0.00009624  0.00009624  0.00009624  1
  Mg  Mg1  1  0.50009624  0.50009624  0.50009624  1
  Ti  Ti2  1  0.35534190  0.35534190  0.35534190  1
  Ti  Ti3  1  0.85534190  0.85534190  0.85534190  1
  Ti  Ti4  1  0.14472752  0.14472752  0.14472752  1
  Ti  Ti5  1  0.64472752  0.64472752  0.64472752  1
  P  P6  1  0.04611513  0.45373980  0.75005511  1
  P  P7  1  0.45373980  0.75005511  0.04611513  1
  P  P8  1  0.75005511  0.04611513  0.45373980  1
  P  P9  1  0.25005511  0.95373980  0.54611513  1
  P  P10  1  0.54611513  0.25005511  0.95373980  1
  P  P11  1  0.95373980  0.54611513  0.25005511  1
  O  O12  1  0.11325310  0.50069149  0.31764049  1
  O  O13  1  0.31764049  0.11325310  0.50069149  1
  O  O14  1  0.05781455  0.25825728  0.91000990  1
  O  O15  1  0.50069149  0.31764049  0.11325310  1
  O  O16  1  0.00069149  0.61325310  0.81764049  1
  O  O17  1  0.24211198  0.44135270  0.59056953  1
  O  O18  1  0.25825728  0.91000990  0.05781455  1
  O  O19  1  0.44135270  0.59056953  0.24211198  1
  O  O20  1  0.18202930  0.99914881  0.38704318  1
  O  O21  1  0.59056953  0.24211198  0.44135270  1
  O  O22  1  0.09056953  0.94135270  0.74211198  1
  O  O23  1  0.38704318  0.18202930  0.99914881  1
  O  O24  1  0.61325310  0.81764049  0.00069149  1
  O  O25  1  0.91000990  0.05781455  0.25825728  1
  O  O26  1  0.41000990  0.75825728  0.55781455  1
  O  O27  1  0.81764049  0.00069149  0.61325310  1
  O  O28  1  0.55781455  0.41000990  0.75825728  1
  O  O29  1  0.74211198  0.09056953  0.94135270  1
  O  O30  1  0.75825728  0.55781455  0.41000990  1
  O  O31  1  0.99914881  0.38704318  0.18202930  1
  O  O32  1  0.49914881  0.68202930  0.88704318  1
  O  O33  1  0.94135270  0.74211198  0.09056953  1
  O  O34  1  0.68202930  0.88704318  0.49914881  1
  O  O35  1  0.88704318  0.49914881  0.68202930  1
