# generated using pymatgen
data_MgCr(PO3)4
_symmetry_space_group_name_H-M   'P 1'
_cell_length_a   7.45086709
_cell_length_b   7.44983612
_cell_length_c   9.84794768
_cell_angle_alpha   97.89209562
_cell_angle_beta   109.93369470
_cell_angle_gamma   111.49276859
_symmetry_Int_Tables_number   1
_chemical_formula_structural   MgCr(PO3)4
_chemical_formula_sum   'Mg2 Cr2 P8 O24'
_cell_volume   456.16274864
_cell_formula_units_Z   2
loop_
 _symmetry_equiv_pos_site_id
 _symmetry_equiv_pos_as_xyz
  1  'x, y, z'
loop_
 _atom_site_type_symbol
 _atom_site_label
 _atom_site_symmetry_multiplicity
 _atom_site_fract_x
 _atom_site_fract_y
 _atom_site_fract_z
 _atom_site_occupancy
  Mg  Mg0  1  0.70548737  0.95636214  0.75097638  1
  Mg  Mg1  1  0.29545134  0.04708944  0.25005092  1
  Cr  Cr2  1  0.50084841  0.50190352  0.50040751  1
  Cr  Cr3  1  0.50100217  0.00250366  0.00038856  1
  P  P4  1  0.50835125  0.31621104  0.80726814  1
  P  P5  1  0.00936744  0.70430460  0.69358836  1
  P  P6  1  0.49095805  0.68708389  0.19271038  1
  P  P7  1  0.99278057  0.29923103  0.30765625  1
  P  P8  1  0.77042371  0.72977738  0.02163984  1
  P  P9  1  0.21004567  0.75052296  0.47983344  1
  P  P10  1  0.23029540  0.27323018  0.97937206  1
  P  P11  1  0.79230256  0.25369076  0.52176400  1
  O  O12  1  0.31830760  0.31149740  0.85102680  1
  O  O13  1  0.96025443  0.47033079  0.64879870  1
  O  O14  1  0.68107048  0.69086631  0.14932959  1
  O  O15  1  0.04351609  0.53351053  0.35306523  1
  O  O16  1  0.71785221  0.50331553  0.93820759  1
  O  O17  1  0.06746343  0.78337396  0.56312732  1
  O  O18  1  0.28151321  0.49970960  0.06181195  1
  O  O19  1  0.93349630  0.21966372  0.43757700  1
  O  O20  1  0.46160478  0.35137146  0.65674419  1
  O  O21  1  0.19376867  0.80684734  0.84436246  1
  O  O22  1  0.53678126  0.65268250  0.34347643  1
  O  O23  1  0.80875190  0.19786796  0.15659796  1
  O  O24  1  0.54296682  0.13018957  0.82439731  1
  O  O25  1  0.80626003  0.72230889  0.67598581  1
  O  O26  1  0.45710726  0.87338961  0.17527898  1
  O  O27  1  0.19541667  0.28013589  0.32535397  1
  O  O28  1  0.64270348  0.80854905  0.91220983  1
  O  O29  1  0.39785143  0.73226560  0.58983722  1
  O  O30  1  0.35961988  0.19623187  0.08943503  1
  O  O31  1  0.60479126  0.27282414  0.41218263  1
  O  O32  1  0.00478348  0.84421929  0.09897254  1
  O  O33  1  0.24779105  0.90650401  0.40152389  1
  O  O34  1  0.99613141  0.15714255  0.90265707  1
  O  O35  1  0.75395094  0.09763483  0.59997165  1
