# generated using pymatgen
data_MgCoP2O7
_symmetry_space_group_name_H-M   'P 1'
_cell_length_a   7.04067767
_cell_length_b   8.40766157
_cell_length_c   9.10346464
_cell_angle_alpha   90.00000000
_cell_angle_beta   112.15949032
_cell_angle_gamma   90.00000000
_symmetry_Int_Tables_number   1
_chemical_formula_structural   MgCoP2O7
_chemical_formula_sum   'Mg4 Co4 P8 O28'
_cell_volume   499.08194846
_cell_formula_units_Z   4
loop_
 _symmetry_equiv_pos_site_id
 _symmetry_equiv_pos_as_xyz
  1  'x, y, z'
loop_
 _atom_site_type_symbol
 _atom_site_label
 _atom_site_symmetry_multiplicity
 _atom_site_fract_x
 _atom_site_fract_y
 _atom_site_fract_z
 _atom_site_occupancy
  Mg  Mg0  1  0.12371963  0.94006699  0.81873795  1
  Mg  Mg1  1  0.37628037  0.44006699  0.68126205  1
  Mg  Mg2  1  0.62371963  0.55993301  0.31873795  1
  Mg  Mg3  1  0.87628037  0.05993301  0.18126205  1
  Co  Co4  1  0.37562852  0.07263817  0.60796254  1
  Co  Co5  1  0.62437148  0.92736183  0.39203746  1
  Co  Co6  1  0.12437148  0.57263817  0.89203746  1
  Co  Co7  1  0.87562852  0.42736183  0.10796254  1
  P  P8  1  0.18106412  0.73367652  0.24097484  1
  P  P9  1  0.43640262  0.22660096  0.96830133  1
  P  P10  1  0.68106412  0.76632348  0.74097484  1
  P  P11  1  0.93640262  0.27339904  0.46830133  1
  P  P12  1  0.31893588  0.23367652  0.25902516  1
  P  P13  1  0.06359738  0.72660096  0.53169867  1
  P  P14  1  0.56359738  0.77339904  0.03169867  1
  P  P15  1  0.81893588  0.26632348  0.75902516  1
  O  O16  1  0.35150704  0.17510467  0.10107028  1
  O  O17  1  0.57312029  0.60978686  0.68664539  1
  O  O18  1  0.07312029  0.89021314  0.18664539  1
  O  O19  1  0.34681096  0.38918873  0.89664798  1
  O  O20  1  0.64849296  0.82489533  0.89892972  1
  O  O21  1  0.40430882  0.09680305  0.37887181  1
  O  O22  1  0.65318904  0.61081127  0.10335202  1
  O  O23  1  0.35890028  0.09155903  0.84694778  1
  O  O24  1  0.17167776  0.26675023  0.54901549  1
  O  O25  1  0.59569118  0.90319695  0.62112819  1
  O  O26  1  0.90430882  0.40319695  0.87887181  1
  O  O27  1  0.91657692  0.75901041  0.79634378  1
  O  O28  1  0.58342308  0.25901041  0.70365622  1
  O  O29  1  0.85150704  0.32489533  0.60107028  1
  O  O30  1  0.09569118  0.59680305  0.12112819  1
  O  O31  1  0.92687971  0.10978686  0.81335461  1
  O  O32  1  0.08342308  0.24098959  0.20365622  1
  O  O33  1  0.64109972  0.90844097  0.15305222  1
  O  O34  1  0.67167776  0.23324977  0.04901549  1
  O  O35  1  0.32832224  0.76675023  0.95098451  1
  O  O36  1  0.15318904  0.88918873  0.60335202  1
  O  O37  1  0.85890028  0.40844097  0.34694778  1
  O  O38  1  0.14109972  0.59155903  0.65305222  1
  O  O39  1  0.42687971  0.39021314  0.31335461  1
  O  O40  1  0.41657692  0.74098959  0.29634378  1
  O  O41  1  0.84681096  0.11081127  0.39664798  1
  O  O42  1  0.82832224  0.73324977  0.45098451  1
  O  O43  1  0.14849296  0.67510467  0.39892972  1
