# generated using pymatgen
data_SrCaFe(PO4)2
_symmetry_space_group_name_H-M   'P 1'
_cell_length_a   5.73033878
_cell_length_b   6.96447526
_cell_length_c   9.57771945
_cell_angle_alpha   109.34407656
_cell_angle_beta   101.49958601
_cell_angle_gamma   98.28271433
_symmetry_Int_Tables_number   1
_chemical_formula_structural   SrCaFe(PO4)2
_chemical_formula_sum   'Sr2 Ca2 Fe2 P4 O16'
_cell_volume   344.17236779
_cell_formula_units_Z   2
loop_
 _symmetry_equiv_pos_site_id
 _symmetry_equiv_pos_as_xyz
  1  'x, y, z'
loop_
 _atom_site_type_symbol
 _atom_site_label
 _atom_site_symmetry_multiplicity
 _atom_site_fract_x
 _atom_site_fract_y
 _atom_site_fract_z
 _atom_site_occupancy
  Sr  Sr0  1  0.26920720  0.80819895  0.05995095  1
  Sr  Sr1  1  0.73079280  0.19180105  0.94004905  1
  Ca  Ca2  1  0.00935436  0.41917718  0.66277340  1
  Ca  Ca3  1  0.99064564  0.58082282  0.33722660  1
  Fe  Fe4  1  0.63399172  0.84689607  0.55734729  1
  Fe  Fe5  1  0.36600828  0.15310393  0.44265271  1
  P  P6  1  0.38625055  0.41484253  0.22282195  1
  P  P7  1  0.61374945  0.58515747  0.77717805  1
  P  P8  1  0.84209613  0.03397732  0.29817482  1
  P  P9  1  0.15790387  0.96602268  0.70182518  1
  O  O10  1  0.84948862  0.56150666  0.87842728  1
  O  O11  1  0.61228122  0.45346654  0.16277801  1
  O  O12  1  0.65261540  0.80172613  0.76369174  1
  O  O13  1  0.95594056  0.09635326  0.68992101  1
  O  O14  1  0.38771878  0.54653346  0.83722199  1
  O  O15  1  0.02337998  0.73370419  0.59776633  1
  O  O16  1  0.97662002  0.26629581  0.40223367  1
  O  O17  1  0.26295919  0.99792163  0.87018284  1
  O  O18  1  0.34738460  0.19827387  0.23630826  1
  O  O19  1  0.73704081  0.00207837  0.12981716  1
  O  O20  1  0.15051138  0.43849334  0.12157272  1
  O  O21  1  0.41851763  0.58614717  0.38544401  1
  O  O22  1  0.58148237  0.41385283  0.61455599  1
  O  O23  1  0.63396109  0.96225876  0.36702918  1
  O  O24  1  0.04405944  0.90364674  0.31007899  1
  O  O25  1  0.36603891  0.03774124  0.63297082  1
