# generated using pymatgen
data_MgCrP2O7
_symmetry_space_group_name_H-M   'P 1'
_cell_length_a   7.07073568
_cell_length_b   8.43961596
_cell_length_c   9.61222312
_cell_angle_alpha   90.00000000
_cell_angle_beta   113.50245556
_cell_angle_gamma   90.00000000
_symmetry_Int_Tables_number   1
_chemical_formula_structural   MgCrP2O7
_chemical_formula_sum   'Mg4 Cr4 P8 O28'
_cell_volume   526.01826391
_cell_formula_units_Z   4
loop_
 _symmetry_equiv_pos_site_id
 _symmetry_equiv_pos_as_xyz
  1  'x, y, z'
loop_
 _atom_site_type_symbol
 _atom_site_label
 _atom_site_symmetry_multiplicity
 _atom_site_fract_x
 _atom_site_fract_y
 _atom_site_fract_z
 _atom_site_occupancy
  Mg  Mg0  1  0.12380583  0.93717544  0.81511266  1
  Mg  Mg1  1  0.37619417  0.43717544  0.68488734  1
  Mg  Mg2  1  0.62380583  0.56282456  0.31511266  1
  Mg  Mg3  1  0.87619417  0.06282456  0.18488734  1
  Cr  Cr4  1  0.37140091  0.06788492  0.60991624  1
  Cr  Cr5  1  0.62859909  0.93211508  0.39008376  1
  Cr  Cr6  1  0.12859909  0.56788492  0.89008376  1
  Cr  Cr7  1  0.87140091  0.43211508  0.10991624  1
  P  P8  1  0.17852807  0.73741686  0.24842068  1
  P  P9  1  0.43460481  0.22815908  0.97194148  1
  P  P10  1  0.67852807  0.76258314  0.74842068  1
  P  P11  1  0.93460481  0.27184192  0.47194148  1
  P  P12  1  0.32147193  0.23741686  0.25157932  1
  P  P13  1  0.06539519  0.72815808  0.52805852  1
  P  P14  1  0.56539519  0.77184192  0.02805852  1
  P  P15  1  0.82147193  0.26258314  0.75157932  1
  O  O16  1  0.34706901  0.18795416  0.09710957  1
  O  O17  1  0.57296233  0.60580446  0.69458857  1
  O  O18  1  0.07296233  0.89419554  0.19458857  1
  O  O19  1  0.35027075  0.38904587  0.89434454  1
  O  O20  1  0.65293099  0.81204584  0.90289043  1
  O  O21  1  0.41278358  0.10154139  0.36398608  1
  O  O22  1  0.64972925  0.61095413  0.10565546  1
  O  O23  1  0.36040522  0.09088010  0.86121469  1
  O  O24  1  0.17213660  0.26311114  0.55395852  1
  O  O25  1  0.58721642  0.89845861  0.63601392  1
  O  O26  1  0.91278358  0.39845861  0.86398608  1
  O  O27  1  0.91505557  0.75804133  0.79855440  1
  O  O28  1  0.58494443  0.25804133  0.70144560  1
  O  O29  1  0.84706901  0.31204584  0.59710957  1
  O  O30  1  0.08721642  0.60154139  0.13601392  1
  O  O31  1  0.92703767  0.10580446  0.80541143  1
  O  O32  1  0.08494443  0.24195867  0.20144560  1
  O  O33  1  0.63959478  0.90911990  0.13878531  1
  O  O34  1  0.67213660  0.23688886  0.05395852  1
  O  O35  1  0.32786340  0.76311114  0.94604148  1
  O  O36  1  0.14972925  0.88904587  0.60565546  1
  O  O37  1  0.86040522  0.40911990  0.36121469  1
  O  O38  1  0.13959478  0.59088010  0.63878531  1
  O  O39  1  0.42703767  0.39419554  0.30541143  1
  O  O40  1  0.41505557  0.74195867  0.29855440  1
  O  O41  1  0.85027075  0.11095413  0.39434454  1
  O  O42  1  0.82786340  0.73688886  0.44604148  1
  O  O43  1  0.15293099  0.68795416  0.40289043  1
