# generated using pymatgen
data_BaMnZnF7
_symmetry_space_group_name_H-M   'P 1'
_cell_length_a   5.79631002
_cell_length_b   9.61454304
_cell_length_c   10.03379749
_cell_angle_alpha   90.00000000
_cell_angle_beta   90.00000000
_cell_angle_gamma   93.61404480
_symmetry_Int_Tables_number   1
_chemical_formula_structural   BaMnZnF7
_chemical_formula_sum   'Ba4 Mn4 Zn4 F28'
_cell_volume   558.06019528
_cell_formula_units_Z   4
loop_
 _symmetry_equiv_pos_site_id
 _symmetry_equiv_pos_as_xyz
  1  'x, y, z'
loop_
 _atom_site_type_symbol
 _atom_site_label
 _atom_site_symmetry_multiplicity
 _atom_site_fract_x
 _atom_site_fract_y
 _atom_site_fract_z
 _atom_site_occupancy
  Ba  Ba0  1  0.26895443  0.50005904  0.31362435  1
  Ba  Ba1  1  0.73104557  -0.00005904  0.81362435  1
  Ba  Ba2  1  0.73104557  0.49994096  0.68637565  1
  Ba  Ba3  1  0.26895443  0.00005904  0.18637565  1
  Mn  Mn4  1  0.19351562  0.81099787  0.60967392  1
  Mn  Mn5  1  0.80648438  0.18900213  0.39032608  1
  Mn  Mn6  1  0.19351562  0.31099787  0.89032608  1
  Mn  Mn7  1  0.80648438  0.68900213  0.10967392  1
  Zn  Zn8  1  0.69665712  0.80777252  0.40021977  1
  Zn  Zn9  1  0.30334288  0.69222748  0.90021977  1
  Zn  Zn10  1  0.69665712  0.30777252  0.09978023  1
  Zn  Zn11  1  0.30334288  0.19222748  0.59978023  1
  F  F12  1  0.12603206  0.12131964  0.44053717  1
  F  F13  1  0.36565989  0.36930654  0.05002021  1
  F  F14  1  0.47785722  0.74460717  0.71641753  1
  F  F15  1  0.52214278  0.25539283  0.28358247  1
  F  F16  1  0.88526416  0.36348775  0.45855499  1
  F  F17  1  0.25873143  0.48906818  0.81171972  1
  F  F18  1  0.02465948  0.74777958  0.77776823  1
  F  F19  1  0.11473584  0.13651225  0.95855499  1
  F  F20  1  0.36565989  0.86930654  0.44997979  1
  F  F21  1  0.52214278  0.75539283  0.21641753  1
  F  F22  1  0.12603206  0.62131964  0.05946283  1
  F  F23  1  0.87396794  0.87868036  0.55946283  1
  F  F24  1  0.97534052  0.75222042  0.27776823  1
  F  F25  1  0.38324875  0.88156925  0.95859777  1
  F  F26  1  0.11473584  0.63651225  0.54144501  1
  F  F27  1  0.88526416  0.86348775  0.04144501  1
  F  F28  1  0.97534052  0.25222042  0.22223177  1
  F  F29  1  0.87396794  0.37868036  0.94053717  1
  F  F30  1  0.61675125  0.61843075  0.45859777  1
  F  F31  1  0.63434011  0.63069346  0.94997979  1
  F  F32  1  0.61675125  0.11843075  0.04140223  1
  F  F33  1  0.02465948  0.24777958  0.72223177  1
  F  F34  1  0.38324875  0.38156925  0.54140223  1
  F  F35  1  0.74126857  0.01093182  0.31171972  1
  F  F36  1  0.74126857  0.51093182  0.18828028  1
  F  F37  1  0.25873143  0.98906818  0.68828028  1
  F  F38  1  0.63434011  0.13069346  0.55002021  1
  F  F39  1  0.47785722  0.24460717  0.78358247  1
