# generated using pymatgen
data_BaSr7Ti6Mn2O24
_symmetry_space_group_name_H-M   'P 1'
_cell_length_a   7.86846863
_cell_length_b   7.86846863
_cell_length_c   7.92468077
_cell_angle_alpha   90.00000000
_cell_angle_beta   90.00000000
_cell_angle_gamma   89.98004976
_symmetry_Int_Tables_number   1
_chemical_formula_structural   BaSr7Ti6Mn2O24
_chemical_formula_sum   'Ba1 Sr7 Ti6 Mn2 O24'
_cell_volume   490.63913450
_cell_formula_units_Z   1
loop_
 _symmetry_equiv_pos_site_id
 _symmetry_equiv_pos_as_xyz
  1  'x, y, z'
loop_
 _atom_site_type_symbol
 _atom_site_label
 _atom_site_symmetry_multiplicity
 _atom_site_fract_x
 _atom_site_fract_y
 _atom_site_fract_z
 _atom_site_occupancy
  Ba  Ba0  1  0.24778448  0.75221552  0.25000000  1
  Sr  Sr1  1  0.24717243  0.24741951  0.25000000  1
  Sr  Sr2  1  0.24716578  0.24713040  0.75000000  1
  Sr  Sr3  1  0.24710065  0.75289935  0.75000000  1
  Sr  Sr4  1  0.75279635  0.24720365  0.25000000  1
  Sr  Sr5  1  0.75296856  0.24703144  0.75000000  1
  Sr  Sr6  1  0.75258049  0.75282757  0.25000000  1
  Sr  Sr7  1  0.75286960  0.75283422  0.75000000  1
  Ti  Ti8  1  0.99885226  0.49823349  0.99889801  1
  Ti  Ti9  1  0.99885226  0.49823349  0.50110199  1
  Ti  Ti10  1  0.50176651  0.00114774  0.99889801  1
  Ti  Ti11  1  0.50176651  0.00114774  0.50110199  1
  Ti  Ti12  1  0.50110346  0.49889654  0.99885180  1
  Ti  Ti13  1  0.50110346  0.49889654  0.50114820  1
  Mn  Mn14  1  0.99934842  0.00065158  0.99891263  1
  Mn  Mn15  1  0.99934842  0.00065158  0.50108737  1
  O  O16  1  0.24787314  0.00346393  0.99653389  1
  O  O17  1  0.24787314  0.00346393  0.50346611  1
  O  O18  1  0.24903547  0.49705556  0.99695818  1
  O  O19  1  0.24903547  0.49705556  0.50304182  1
  O  O20  1  0.75204488  0.00085784  0.99911567  1
  O  O21  1  0.75204488  0.00085784  0.50088433  1
  O  O22  1  0.75090636  0.49902249  0.99892725  1
  O  O23  1  0.75090636  0.49902249  0.50107275  1
  O  O24  1  0.99914216  0.24795512  0.99911567  1
  O  O25  1  0.99914216  0.24795512  0.50088433  1
  O  O26  1  0.99653607  0.75212686  0.99653389  1
  O  O27  1  0.99653607  0.75212686  0.50346611  1
  O  O28  1  0.50097751  0.24909364  0.99892725  1
  O  O29  1  0.50097751  0.24909364  0.50107275  1
  O  O30  1  0.50294444  0.75096453  0.99695818  1
  O  O31  1  0.50294444  0.75096453  0.50304182  1
  O  O32  1  0.99534022  0.00465978  0.25000000  1
  O  O33  1  0.99922026  0.00077974  0.75000000  1
  O  O34  1  0.99676287  0.49690634  0.25000000  1
  O  O35  1  0.99892905  0.49895523  0.75000000  1
  O  O36  1  0.50309366  0.00323713  0.25000000  1
  O  O37  1  0.50104477  0.00107095  0.75000000  1
  O  O38  1  0.50310288  0.49689712  0.25000000  1
  O  O39  1  0.50100661  0.49899339  0.75000000  1
