# generated using pymatgen
data_Sr7CaFe6(CoO10)2
_symmetry_space_group_name_H-M   'P 1'
_cell_length_a   10.99756046
_cell_length_b   11.40484613
_cell_length_c   17.73429976
_cell_angle_alpha   108.85402054
_cell_angle_beta   108.16632080
_cell_angle_gamma   89.81311778
_symmetry_Int_Tables_number   1
_chemical_formula_structural   Sr7CaFe6(CoO10)2
_chemical_formula_sum   'Sr28 Ca4 Fe24 Co8 O80'
_cell_volume   1988.27378687
_cell_formula_units_Z   4
loop_
 _symmetry_equiv_pos_site_id
 _symmetry_equiv_pos_as_xyz
  1  'x, y, z'
loop_
 _atom_site_type_symbol
 _atom_site_label
 _atom_site_symmetry_multiplicity
 _atom_site_fract_x
 _atom_site_fract_y
 _atom_site_fract_z
 _atom_site_occupancy
  Sr  Sr0  1  0.30852961  0.06383221  0.60930763  1
  Sr  Sr1  1  0.30645970  0.56393262  0.60942420  1
  Sr  Sr2  1  0.80440374  0.06336617  0.60974542  1
  Sr  Sr3  1  0.80711336  0.56808929  0.10945780  1
  Sr  Sr4  1  0.80699609  0.56379764  0.60966129  1
  Sr  Sr5  1  0.19612904  0.43385305  0.38899816  1
  Sr  Sr6  1  0.19643751  0.43726280  0.89255814  1
  Sr  Sr7  1  0.19892380  0.93666249  0.38755507  1
  Sr  Sr8  1  0.19981023  0.93573214  0.89364799  1
  Sr  Sr9  1  0.69615073  0.43555241  0.38948954  1
  Sr  Sr10  1  0.69743221  0.44037105  0.89233211  1
  Sr  Sr11  1  0.69236312  0.93553396  0.38905943  1
  Sr  Sr12  1  0.70073298  0.93338544  0.89340834  1
  Sr  Sr13  1  0.05504587  0.29397119  0.11102123  1
  Sr  Sr14  1  0.05659877  0.29539338  0.60921962  1
  Sr  Sr15  1  0.05675559  0.79680921  0.60925088  1
  Sr  Sr16  1  0.55789466  0.29381221  0.11009067  1
  Sr  Sr17  1  0.55583779  0.29542871  0.60930584  1
  Sr  Sr18  1  0.55688497  0.79751066  0.10886213  1
  Sr  Sr19  1  0.55675255  0.79711922  0.60959563  1
  Sr  Sr20  1  0.44517563  0.20081845  0.38608842  1
  Sr  Sr21  1  0.44670923  0.20784562  0.89225277  1
  Sr  Sr22  1  0.44601418  0.70373472  0.38666986  1
  Sr  Sr23  1  0.45107097  0.70818293  0.89362292  1
  Sr  Sr24  1  0.94562617  0.20170300  0.38811970  1
  Sr  Sr25  1  0.94972525  0.20460311  0.89283886  1
  Sr  Sr26  1  0.94556117  0.70427272  0.38872123  1
  Sr  Sr27  1  0.94875336  0.70526835  0.89378278  1
  Ca  Ca28  1  0.30178339  0.06608502  0.10505101  1
  Ca  Ca29  1  0.29711484  0.56818505  0.10496620  1
  Ca  Ca30  1  0.79969202  0.06486745  0.10641165  1
  Ca  Ca31  1  0.05036859  0.78498214  0.10564297  1
  Fe  Fe32  1  0.00354430  0.99953804  0.49838775  1
  Fe  Fe33  1  0.00373840  0.49959613  0.49935899  1
  Fe  Fe34  1  0.50393230  0.50028335  0.49983134  1
  Fe  Fe35  1  0.25738434  0.25285030  0.00608203  1
  Fe  Fe36  1  0.25432388  0.24907434  0.49964733  1
  Fe  Fe37  1  0.25326730  0.74911183  0.49847507  1
  Fe  Fe38  1  0.75358331  0.25002513  0.49985591  1
  Fe  Fe39  1  0.75324416  0.75015757  0.49993834  1
  Fe  Fe40  1  0.10371650  0.08526184  0.24581182  1
  Fe  Fe41  1  0.10824516  0.09079228  0.75056893  1
  Fe  Fe42  1  0.11051301  0.59318197  0.25085040  1
  Fe  Fe43  1  0.10810371  0.59123152  0.75034543  1
  Fe  Fe44  1  0.60535116  0.08967622  0.24818705  1
  Fe  Fe45  1  0.60891866  0.09144704  0.75247711  1
  Fe  Fe46  1  0.60376831  0.59023723  0.24773894  1
  Fe  Fe47  1  0.60768900  0.59100365  0.74893279  1
  Fe  Fe48  1  0.35690319  0.40829323  0.24733131  1
  Fe  Fe49  1  0.35729361  0.40982052  0.74911829  1
  Fe  Fe50  1  0.35065496  0.90669430  0.24329792  1
  Fe  Fe51  1  0.35815845  0.90900896  0.74925933  1
  Fe  Fe52  1  0.85794452  0.40721631  0.24958380  1
  Fe  Fe53  1  0.85735348  0.40843265  0.74877326  1
  Fe  Fe54  1  0.85860565  0.91314107  0.24908529  1
  Fe  Fe55  1  0.85832144  0.90817446  0.74961597  1
  Co  Co56  1  0.01035677  0.00216407  0.01049486  1
  Co  Co57  1  0.00683953  0.50269052  0.00378689  1
  Co  Co58  1  0.50808297  0.00229940  0.00506575  1
  Co  Co59  1  0.50381705  0.00033781  0.49973254  1
  Co  Co60  1  0.50781361  0.50559149  0.00698873  1
  Co  Co61  1  0.25746201  0.75322818  0.00608569  1
  Co  Co62  1  0.75504275  0.25018580  0.00077900  1
  Co  Co63  1  0.75970979  0.75463816  0.00683524  1
  O  O64  1  0.12516122  0.12203136  0.49175483  1
  O  O65  1  0.13029115  0.12453911  0.99498430  1
  O  O66  1  0.12390626  0.62172096  0.49094763  1
  O  O67  1  0.12809176  0.62324367  0.99615864  1
  O  O68  1  0.61971402  0.11935068  0.49172826  1
  O  O69  1  0.63429951  0.13123321  0.99497396  1
  O  O70  1  0.62333045  0.62221366  0.49130240  1
  O  O71  1  0.62741020  0.62715086  0.99220111  1
  O  O72  1  0.13414047  0.38077827  0.01333608  1
  O  O73  1  0.13221794  0.37674265  0.50658563  1
  O  O74  1  0.13068898  0.88780450  0.01431232  1
  O  O75  1  0.13338069  0.87790710  0.50683811  1
  O  O76  1  0.62608345  0.38676828  0.00955034  1
  O  O77  1  0.63090435  0.37694553  0.50682222  1
  O  O78  1  0.63967344  0.88583947  0.01262482  1
  O  O79  1  0.62953299  0.87771654  0.50643656  1
  O  O80  1  0.37574991  0.11961941  0.49129484  1
  O  O81  1  0.37790468  0.12170651  0.99525237  1
  O  O82  1  0.37433525  0.61976123  0.49081892  1
  O  O83  1  0.38207444  0.61210504  0.99542658  1
  O  O84  1  0.87224603  0.11914318  0.49100041  1
  O  O85  1  0.88365959  0.11057381  0.99629279  1
  O  O86  1  0.87347878  0.61972013  0.49088290  1
  O  O87  1  0.87798154  0.62042353  0.99517217  1
  O  O88  1  0.37966874  0.38253692  0.01381428  1
  O  O89  1  0.38109269  0.37850560  0.50482382  1
  O  O90  1  0.38263069  0.88591521  0.01309341  1
  O  O91  1  0.38612499  0.88253627  0.50632431  1
  O  O92  1  0.87684726  0.37309442  0.00954758  1
  O  O93  1  0.88121985  0.37915182  0.50643064  1
  O  O94  1  0.88790332  0.88217378  0.01889192  1
  O  O95  1  0.88053862  0.87936134  0.50585146  1
  O  O96  1  0.09699730  0.10112867  0.14308293  1
  O  O97  1  0.08100071  0.09254348  0.63917297  1
  O  O98  1  0.09277097  0.60832753  0.14695202  1
  O  O99  1  0.07979008  0.59262319  0.63823971  1
  O  O100  1  0.60046580  0.10142638  0.14550851  1
  O  O101  1  0.58385543  0.09737113  0.64292811  1
  O  O102  1  0.59114056  0.60054443  0.14279431  1
  O  O103  1  0.57846737  0.59183651  0.63685867  1
  O  O104  1  0.44188923  0.40722215  0.35840493  1
  O  O105  1  0.44136369  0.39980755  0.85504056  1
  O  O106  1  0.43637973  0.90518727  0.35405839  1
  O  O107  1  0.44403194  0.89971315  0.85483781  1
  O  O108  1  0.94085100  0.40550982  0.36069140  1
  O  O109  1  0.94147381  0.39748081  0.85441149  1
  O  O110  1  0.94396118  0.91064857  0.36034671  1
  O  O111  1  0.94297590  0.89761817  0.85499999  1
  O  O112  1  0.33419618  0.28459463  0.14236619  1
  O  O113  1  0.32963351  0.29672690  0.63715936  1
  O  O114  1  0.33716109  0.78355803  0.14123411  1
  O  O115  1  0.32970833  0.79689119  0.63667192  1
  O  O116  1  0.83556009  0.28722129  0.14351911  1
  O  O117  1  0.82827270  0.29575251  0.63635061  1
  O  O118  1  0.84268349  0.79394521  0.14580660  1
  O  O119  1  0.82813305  0.79635757  0.63672435  1
  O  O120  1  0.18899240  0.19675506  0.35809613  1
  O  O121  1  0.19166777  0.20456866  0.85949339  1
  O  O122  1  0.19249948  0.70529374  0.36264605  1
  O  O123  1  0.19249001  0.70343155  0.85802539  1
  O  O124  1  0.68493047  0.20170190  0.36086418  1
  O  O125  1  0.69282888  0.20501379  0.86165094  1
  O  O126  1  0.68572021  0.70265158  0.35936124  1
  O  O127  1  0.69445061  0.70471771  0.85475044  1
  O  O128  1  0.42482816  0.05861236  0.23919471  1
  O  O129  1  0.43339553  0.06304335  0.75050931  1
  O  O130  1  0.42535441  0.55884635  0.24028463  1
  O  O131  1  0.43364053  0.56309844  0.75025393  1
  O  O132  1  0.92582083  0.06525085  0.24232361  1
  O  O133  1  0.93375323  0.06168894  0.75006142  1
  O  O134  1  0.93602040  0.55828836  0.24911461  1
  O  O135  1  0.93356175  0.56193385  0.75007075  1
  O  O136  1  0.18457232  0.43906197  0.24998120  1
  O  O137  1  0.18270257  0.43727399  0.74962356  1
  O  O138  1  0.17224125  0.92771758  0.24052478  1
  O  O139  1  0.18374987  0.93764822  0.75042698  1
  O  O140  1  0.68403246  0.43961451  0.24998625  1
  O  O141  1  0.68322005  0.43779093  0.74937789  1
  O  O142  1  0.68386730  0.93830831  0.25039180  1
  O  O143  1  0.68408279  0.93798810  0.75086787  1
