# generated using pymatgen
data_Cr3Te4
_symmetry_space_group_name_H-M   'P 1'
_cell_length_a   4.01431331
_cell_length_b   6.98360372
_cell_length_c   7.30350658
_cell_angle_alpha   117.05084334
_cell_angle_beta   105.95134072
_cell_angle_gamma   90.00000000
_symmetry_Int_Tables_number   1
_chemical_formula_structural   Cr3Te4
_chemical_formula_sum   'Cr3 Te4'
_cell_volume   173.45145068
_cell_formula_units_Z   1
loop_
 _symmetry_equiv_pos_site_id
 _symmetry_equiv_pos_as_xyz
  1  'x, y, z'
loop_
 _atom_site_type_symbol
 _atom_site_label
 _atom_site_symmetry_multiplicity
 _atom_site_fract_x
 _atom_site_fract_y
 _atom_site_fract_z
 _atom_site_occupancy
  Cr  Cr0  1  -0.00000000  -0.00000000  -0.00000000  1
  Cr  Cr1  1  0.73929716  0.72019331  0.47859432  1
  Cr  Cr2  1  0.26070284  0.27980669  0.52140568  1
  Te  Te3  1  0.63388084  0.97528277  0.26776167  1
  Te  Te4  1  0.36611916  0.02471723  0.73223833  1
  Te  Te5  1  0.87942611  0.54954486  0.75885222  1
  Te  Te6  1  0.12057389  0.45045514  0.24114778  1
