# generated using pymatgen
data_YCoGe2
_symmetry_space_group_name_H-M   'P 1'
_cell_length_a   4.25158779
_cell_length_b   4.16702252
_cell_length_c   8.39266309
_cell_angle_alpha   104.37421041
_cell_angle_beta   90.00000000
_cell_angle_gamma   90.00000000
_symmetry_Int_Tables_number   1
_chemical_formula_structural   YCoGe2
_chemical_formula_sum   'Y2 Co2 Ge4'
_cell_volume   144.03361045
_cell_formula_units_Z   2
loop_
 _symmetry_equiv_pos_site_id
 _symmetry_equiv_pos_as_xyz
  1  'x, y, z'
loop_
 _atom_site_type_symbol
 _atom_site_label
 _atom_site_symmetry_multiplicity
 _atom_site_fract_x
 _atom_site_fract_y
 _atom_site_fract_z
 _atom_site_occupancy
  Y  Y0  1  0.75000000  0.10734333  0.21468665  1
  Y  Y1  1  0.25000000  0.89265667  0.78531335  1
  Co  Co2  1  0.75000000  0.31657260  0.63314519  1
  Co  Co3  1  0.25000000  0.68342740  0.36685481  1
  Ge  Ge4  1  0.75000000  0.45569666  0.91139332  1
  Ge  Ge5  1  0.25000000  0.54430334  0.08860668  1
  Ge  Ge6  1  0.75000000  0.74718695  0.49437390  1
  Ge  Ge7  1  0.25000000  0.25281305  0.50562610  1
