# generated using pymatgen
data_K4Na4NbW7O24
_symmetry_space_group_name_H-M   'P 1'
_cell_length_a   8.01952402
_cell_length_b   8.01952402
_cell_length_c   8.01090235
_cell_angle_alpha   90.00000000
_cell_angle_beta   90.00000000
_cell_angle_gamma   90.00000000
_symmetry_Int_Tables_number   1
_chemical_formula_structural   K4Na4NbW7O24
_chemical_formula_sum   'K4 Na4 Nb1 W7 O24'
_cell_volume   515.20328434
_cell_formula_units_Z   1
loop_
 _symmetry_equiv_pos_site_id
 _symmetry_equiv_pos_as_xyz
  1  'x, y, z'
loop_
 _atom_site_type_symbol
 _atom_site_label
 _atom_site_symmetry_multiplicity
 _atom_site_fract_x
 _atom_site_fract_y
 _atom_site_fract_z
 _atom_site_occupancy
  K  K0  1  0.25116379  0.25116379  0.25171673  1
  K  K1  1  0.25116379  0.74883621  0.25171673  1
  K  K2  1  0.74883621  0.25116379  0.25171673  1
  K  K3  1  0.74883621  0.74883621  0.25171673  1
  Na  Na4  1  0.25118222  0.25118222  0.74853515  1
  Na  Na5  1  0.25118222  0.74881778  0.74853515  1
  Na  Na6  1  0.74881778  0.25118222  0.74853515  1
  Na  Na7  1  0.74881778  0.74881778  0.74853515  1
  Nb  Nb8  1  0.50000000  0.50000000  0.50291294  1
  W  W9  1  0.00000000  0.00000000  0.99833377  1
  W  W10  1  0.00000000  0.00000000  0.50113813  1
  W  W11  1  0.00000000  0.50000000  0.99755662  1
  W  W12  1  0.00000000  0.50000000  0.50198709  1
  W  W13  1  0.50000000  0.00000000  0.99755662  1
  W  W14  1  0.50000000  0.00000000  0.50198709  1
  W  W15  1  0.50000000  0.50000000  0.99882969  1
  O  O16  1  0.25549804  0.00000000  0.99600311  1
  O  O17  1  0.25587562  0.00000000  0.50375227  1
  O  O18  1  0.24954297  0.50000000  0.99580264  1
  O  O19  1  0.24797334  0.50000000  0.50359577  1
  O  O20  1  0.74450196  0.00000000  0.99600311  1
  O  O21  1  0.74412438  0.00000000  0.50375227  1
  O  O22  1  0.75045703  0.50000000  0.99580264  1
  O  O23  1  0.75202666  0.50000000  0.50359577  1
  O  O24  1  0.00000000  0.25549804  0.99600311  1
  O  O25  1  0.00000000  0.25587562  0.50375227  1
  O  O26  1  0.00000000  0.74450196  0.99600311  1
  O  O27  1  0.00000000  0.74412438  0.50375227  1
  O  O28  1  0.50000000  0.24954297  0.99580264  1
  O  O29  1  0.50000000  0.24797334  0.50359577  1
  O  O30  1  0.50000000  0.75045703  0.99580264  1
  O  O31  1  0.50000000  0.75202666  0.50359577  1
  O  O32  1  0.00000000  0.00000000  0.26202794  1
  O  O33  1  0.00000000  0.00000000  0.73967747  1
  O  O34  1  0.00000000  0.50000000  0.25692391  1
  O  O35  1  0.00000000  0.50000000  0.74399034  1
  O  O36  1  0.50000000  0.00000000  0.25692391  1
  O  O37  1  0.50000000  0.00000000  0.74399034  1
  O  O38  1  0.50000000  0.50000000  0.24659577  1
  O  O39  1  0.50000000  0.50000000  0.75194569  1
