# generated using pymatgen
data_Mn2B4Mo
_symmetry_space_group_name_H-M   'P 1'
_cell_length_a   3.02085326
_cell_length_b   3.08733455
_cell_length_c   6.79473339
_cell_angle_alpha   103.13144729
_cell_angle_beta   102.84379062
_cell_angle_gamma   90.00000000
_symmetry_Int_Tables_number   1
_chemical_formula_structural   Mn2B4Mo
_chemical_formula_sum   'Mn2 B4 Mo1'
_cell_volume   60.08400131
_cell_formula_units_Z   1
loop_
 _symmetry_equiv_pos_site_id
 _symmetry_equiv_pos_as_xyz
  1  'x, y, z'
loop_
 _atom_site_type_symbol
 _atom_site_label
 _atom_site_symmetry_multiplicity
 _atom_site_fract_x
 _atom_site_fract_y
 _atom_site_fract_z
 _atom_site_occupancy
  Mn  Mn0  1  0.18649108  0.18649108  0.37298216  1
  Mn  Mn1  1  0.81350892  0.81350892  0.62701784  1
  B  B2  1  0.35226355  0.35226355  0.70452709  1
  B  B3  1  0.64773645  0.64773645  0.29547291  1
  B  B4  1  0.92780635  0.42780635  0.85561270  1
  B  B5  1  0.07219365  0.57219365  0.14438730  1
  Mo  Mo6  1  0.50000000  0.00000000  0.00000000  1
