# generated using pymatgen
data_Tl2Se3
_symmetry_space_group_name_H-M   'P 1'
_cell_length_a   6.38899369
_cell_length_b   7.10881542
_cell_length_c   7.71062825
_cell_angle_alpha   107.32649555
_cell_angle_beta   89.99999960
_cell_angle_gamma   116.70335138
_symmetry_Int_Tables_number   1
_chemical_formula_structural   Tl2Se3
_chemical_formula_sum   'Tl4 Se6'
_cell_volume   294.95526003
_cell_formula_units_Z   2
loop_
 _symmetry_equiv_pos_site_id
 _symmetry_equiv_pos_as_xyz
  1  'x, y, z'
loop_
 _atom_site_type_symbol
 _atom_site_label
 _atom_site_symmetry_multiplicity
 _atom_site_fract_x
 _atom_site_fract_y
 _atom_site_fract_z
 _atom_site_occupancy
  Tl  Tl0  1  0.77851767  0.21843632  0.46465104  1
  Tl  Tl1  1  0.56008135  0.78156368  0.03534896  1
  Tl  Tl2  1  0.22148233  0.78156368  0.53534896  1
  Tl  Tl3  1  0.43991865  0.21843632  0.96465104  1
  Se  Se4  1  0.15001480  0.00000000  0.25000000  1
  Se  Se5  1  0.84998520  1.00000000  0.75000000  1
  Se  Se6  1  0.97996304  0.63554397  0.94537038  1
  Se  Se7  1  0.34441906  0.36445603  0.55462962  1
  Se  Se8  1  0.02003696  0.36445603  0.05462962  1
  Se  Se9  1  0.65558094  0.63554397  0.44537038  1
