# generated using pymatgen
data_MgCd5
_symmetry_space_group_name_H-M   'P 1'
_cell_length_a   11.78858788
_cell_length_b   3.19612708
_cell_length_c   7.37163644
_cell_angle_alpha   90.00000000
_cell_angle_beta   105.93798407
_cell_angle_gamma   90.00000000
_symmetry_Int_Tables_number   1
_chemical_formula_structural   MgCd5
_chemical_formula_sum   'Mg2 Cd10'
_cell_volume   267.07047918
_cell_formula_units_Z   2
loop_
 _symmetry_equiv_pos_site_id
 _symmetry_equiv_pos_as_xyz
  1  'x, y, z'
loop_
 _atom_site_type_symbol
 _atom_site_label
 _atom_site_symmetry_multiplicity
 _atom_site_fract_x
 _atom_site_fract_y
 _atom_site_fract_z
 _atom_site_occupancy
  Mg  Mg0  1  0.38837102  -0.00000000  0.27626372  1
  Mg  Mg1  1  0.88837102  0.50000000  0.27626372  1
  Cd  Cd2  1  0.99880473  -0.00000000  0.00369481  1
  Cd  Cd3  1  0.16777394  0.50000000  0.33314967  1
  Cd  Cd4  1  0.05408487  -0.00000000  0.60946182  1
  Cd  Cd5  1  0.33335206  0.00000000  0.66251420  1
  Cd  Cd6  1  0.22428037  0.50000000  0.94824878  1
  Cd  Cd7  1  0.49880473  0.50000000  0.00369481  1
  Cd  Cd8  1  0.66777394  0.00000000  0.33314967  1
  Cd  Cd9  1  0.55408487  0.50000000  0.60946182  1
  Cd  Cd10  1  0.83335206  0.50000000  0.66251420  1
  Cd  Cd11  1  0.72428037  -0.00000000  0.94824878  1
