# generated using pymatgen
data_CsSrCl3
_symmetry_space_group_name_H-M   'P 1'
_cell_length_a   5.73006203
_cell_length_b   5.72980414
_cell_length_c   5.73049956
_cell_angle_alpha   90.04020129
_cell_angle_beta   90.15441085
_cell_angle_gamma   90.27593412
_symmetry_Int_Tables_number   1
_chemical_formula_structural   CsSrCl3
_chemical_formula_sum   'Cs1 Sr1 Cl3'
_cell_volume   188.14161135
_cell_formula_units_Z   1
loop_
 _symmetry_equiv_pos_site_id
 _symmetry_equiv_pos_as_xyz
  1  'x, y, z'
loop_
 _atom_site_type_symbol
 _atom_site_label
 _atom_site_symmetry_multiplicity
 _atom_site_fract_x
 _atom_site_fract_y
 _atom_site_fract_z
 _atom_site_occupancy
  Cs  Cs0  1  0.99528418  0.99582703  0.99801213  1
  Sr  Sr1  1  0.49741631  0.48721868  0.49974919  1
  Cl  Cl2  1  0.49303720  0.48279954  0.99988874  1
  Cl  Cl3  1  0.50657550  0.98698302  0.50490957  1
  Cl  Cl4  1  0.99768581  0.48716973  0.49744037  1
