# generated using pymatgen
data_ErCoGe2
_symmetry_space_group_name_H-M   'P 1'
_cell_length_a   4.16261422
_cell_length_b   4.10150658
_cell_length_c   8.48478989
_cell_angle_alpha   103.98675798
_cell_angle_beta   90.00000000
_cell_angle_gamma   90.00000000
_symmetry_Int_Tables_number   1
_chemical_formula_structural   ErCoGe2
_chemical_formula_sum   'Er2 Co2 Ge4'
_cell_volume   140.56584259
_cell_formula_units_Z   2
loop_
 _symmetry_equiv_pos_site_id
 _symmetry_equiv_pos_as_xyz
  1  'x, y, z'
loop_
 _atom_site_type_symbol
 _atom_site_label
 _atom_site_symmetry_multiplicity
 _atom_site_fract_x
 _atom_site_fract_y
 _atom_site_fract_z
 _atom_site_occupancy
  Er  Er0  1  0.75000000  0.10835723  0.21671446  1
  Er  Er1  1  0.25000000  0.89164277  0.78328554  1
  Co  Co2  1  0.75000000  0.31885951  0.63771902  1
  Co  Co3  1  0.25000000  0.68114049  0.36228098  1
  Ge  Ge4  1  0.75000000  0.45539006  0.91078012  1
  Ge  Ge5  1  0.25000000  0.54460994  0.08921988  1
  Ge  Ge6  1  0.75000000  0.74858263  0.49716526  1
  Ge  Ge7  1  0.25000000  0.25141737  0.50283474  1
