# generated using pymatgen
data_Ca3(MgZn2)5
_symmetry_space_group_name_H-M   'P 1'
_cell_length_a   9.35156034
_cell_length_b   16.01954667
_cell_length_c   9.55649450
_cell_angle_alpha   90.00000000
_cell_angle_beta   89.73217298
_cell_angle_gamma   90.00000000
_symmetry_Int_Tables_number   1
_chemical_formula_structural   Ca3(MgZn2)5
_chemical_formula_sum   'Ca12 Mg20 Zn40'
_cell_volume   1431.62136718
_cell_formula_units_Z   4
loop_
 _symmetry_equiv_pos_site_id
 _symmetry_equiv_pos_as_xyz
  1  'x, y, z'
loop_
 _atom_site_type_symbol
 _atom_site_label
 _atom_site_symmetry_multiplicity
 _atom_site_fract_x
 _atom_site_fract_y
 _atom_site_fract_z
 _atom_site_occupancy
  Ca  Ca0  1  0.80777176  0.60347166  0.24984080  1
  Ca  Ca1  1  0.30777176  0.89652834  0.74984080  1
  Ca  Ca2  1  0.49629746  0.70419565  0.75221258  1
  Ca  Ca3  1  0.99629746  0.79580435  0.25221258  1
  Ca  Ca4  1  0.19340648  0.60065873  0.24790784  1
  Ca  Ca5  1  0.69340648  0.89934127  0.74790784  1
  Ca  Ca6  1  0.30777176  0.10347166  0.24984080  1
  Ca  Ca7  1  0.80777176  0.39652834  0.74984080  1
  Ca  Ca8  1  0.99629746  0.20419565  0.75221258  1
  Ca  Ca9  1  0.49629746  0.29580435  0.25221258  1
  Ca  Ca10  1  0.69340648  0.10065873  0.24790784  1
  Ca  Ca11  1  0.19340648  0.39934127  0.74790784  1
  Mg  Mg12  1  0.73738976  0.57867780  0.90914566  1
  Mg  Mg13  1  0.49413114  0.65392941  0.08552537  1
  Mg  Mg14  1  0.76629949  0.92566373  0.08961662  1
  Mg  Mg15  1  0.23380242  0.92136818  0.09071990  1
  Mg  Mg16  1  0.99413114  0.84607059  0.58552537  1
  Mg  Mg17  1  0.26629949  0.57433627  0.58961662  1
  Mg  Mg18  1  0.73380242  0.57863182  0.59071990  1
  Mg  Mg19  1  0.23738976  0.92132220  0.40914566  1
  Mg  Mg20  1  0.49964723  0.65715906  0.40988608  1
  Mg  Mg21  1  0.99964723  0.84284094  0.90988608  1
  Mg  Mg22  1  0.23738976  0.07867780  0.90914566  1
  Mg  Mg23  1  0.99413114  0.15392941  0.08552537  1
  Mg  Mg24  1  0.26629949  0.42566373  0.08961662  1
  Mg  Mg25  1  0.73380242  0.42136818  0.09071990  1
  Mg  Mg26  1  0.49413114  0.34607059  0.58552537  1
  Mg  Mg27  1  0.76629949  0.07433627  0.58961662  1
  Mg  Mg28  1  0.23380242  0.07863182  0.59071990  1
  Mg  Mg29  1  0.73738976  0.42132220  0.40914566  1
  Mg  Mg30  1  0.99964723  0.15715906  0.40988608  1
  Mg  Mg31  1  0.49964723  0.34284094  0.90988608  1
  Zn  Zn32  1  0.26614648  0.57753628  0.90801390  1
  Zn  Zn33  1  0.76614648  0.92246372  0.40801390  1
  Zn  Zn34  1  0.49793314  0.50174655  0.75806015  1
  Zn  Zn35  1  0.49793314  0.49825345  0.25806015  1
  Zn  Zn36  1  0.50044047  0.83357432  0.00543977  1
  Zn  Zn37  1  0.00044047  0.66642568  0.50543977  1
  Zn  Zn38  1  0.00121427  0.66625342  0.99358116  1
  Zn  Zn39  1  0.50121427  0.83374658  0.49358116  1
  Zn  Zn40  1  0.65005804  0.78520720  0.25136595  1
  Zn  Zn41  1  0.50207676  0.93113307  0.25031692  1
  Zn  Zn42  1  0.00207676  0.56886693  0.75031692  1
  Zn  Zn43  1  0.85243197  0.71638610  0.74963232  1
  Zn  Zn44  1  0.35243197  0.78361390  0.24963232  1
  Zn  Zn45  1  0.15005804  0.71479280  0.75136595  1
  Zn  Zn46  1  0.25015040  0.74802771  0.99889693  1
  Zn  Zn47  1  0.75015040  0.75197229  0.49889693  1
  Zn  Zn48  1  0.00235487  0.49974611  0.49943469  1
  Zn  Zn49  1  0.00235487  0.50025389  0.99943469  1
  Zn  Zn50  1  0.74843885  0.74986550  0.00040335  1
  Zn  Zn51  1  0.24843885  0.75013450  0.50040335  1
  Zn  Zn52  1  0.76614648  0.07753628  0.90801390  1
  Zn  Zn53  1  0.26614648  0.42246372  0.40801390  1
  Zn  Zn54  1  0.99793314  0.00174655  0.75806015  1
  Zn  Zn55  1  0.99793314  0.99825345  0.25806015  1
  Zn  Zn56  1  0.00044047  0.33357432  0.00543977  1
  Zn  Zn57  1  0.50044047  0.16642568  0.50543977  1
  Zn  Zn58  1  0.50121427  0.16625342  0.99358116  1
  Zn  Zn59  1  0.00121427  0.33374658  0.49358116  1
  Zn  Zn60  1  0.15005804  0.28520720  0.25136595  1
  Zn  Zn61  1  0.00207676  0.43113307  0.25031692  1
  Zn  Zn62  1  0.50207676  0.06886693  0.75031692  1
  Zn  Zn63  1  0.35243197  0.21638610  0.74963232  1
  Zn  Zn64  1  0.85243197  0.28361390  0.24963232  1
  Zn  Zn65  1  0.65005804  0.21479280  0.75136595  1
  Zn  Zn66  1  0.75015040  0.24802771  0.99889693  1
  Zn  Zn67  1  0.25015040  0.25197229  0.49889693  1
  Zn  Zn68  1  0.50235487  0.99974611  0.49943469  1
  Zn  Zn69  1  0.50235487  0.00025389  0.99943469  1
  Zn  Zn70  1  0.24843885  0.24986550  0.00040335  1
  Zn  Zn71  1  0.74843885  0.25013450  0.50040335  1
