# generated using pymatgen
data_LiMg30TiO32
_symmetry_space_group_name_H-M   'P 1'
_cell_length_a   8.51922388
_cell_length_b   8.51922388
_cell_length_c   8.50551103
_cell_angle_alpha   90.00000000
_cell_angle_beta   90.00000000
_cell_angle_gamma   90.00000000
_symmetry_Int_Tables_number   1
_chemical_formula_structural   LiMg30TiO32
_chemical_formula_sum   'Li1 Mg30 Ti1 O32'
_cell_volume   617.30596689
_cell_formula_units_Z   1
loop_
 _symmetry_equiv_pos_site_id
 _symmetry_equiv_pos_as_xyz
  1  'x, y, z'
loop_
 _atom_site_type_symbol
 _atom_site_label
 _atom_site_symmetry_multiplicity
 _atom_site_fract_x
 _atom_site_fract_y
 _atom_site_fract_z
 _atom_site_occupancy
  Li  Li0  1  -0.00000000  0.00000000  0.50000000  1
  Mg  Mg1  1  -0.00000000  0.50000000  0.00000000  1
  Mg  Mg2  1  -0.00000000  0.50000000  0.50000000  1
  Mg  Mg3  1  0.50000000  -0.00000000  0.00000000  1
  Mg  Mg4  1  0.50000000  -0.00000000  0.50000000  1
  Mg  Mg5  1  0.50000000  0.50000000  0.00000000  1
  Mg  Mg6  1  0.50000000  0.50000000  0.50000000  1
  Mg  Mg7  1  -0.00000000  0.25084331  0.25542102  1
  Mg  Mg8  1  -0.00000000  0.25084331  0.74457898  1
  Mg  Mg9  1  -0.00000000  0.74915669  0.25542102  1
  Mg  Mg10  1  -0.00000000  0.74915669  0.74457898  1
  Mg  Mg11  1  0.50000000  0.25005855  0.25106619  1
  Mg  Mg12  1  0.50000000  0.25005855  0.74893381  1
  Mg  Mg13  1  0.50000000  0.74994145  0.25106619  1
  Mg  Mg14  1  0.50000000  0.74994145  0.74893381  1
  Mg  Mg15  1  0.25084331  -0.00000000  0.25542102  1
  Mg  Mg16  1  0.25084331  0.00000000  0.74457898  1
  Mg  Mg17  1  0.25005855  0.50000000  0.25106619  1
  Mg  Mg18  1  0.25005855  0.50000000  0.74893381  1
  Mg  Mg19  1  0.74915669  -0.00000000  0.25542102  1
  Mg  Mg20  1  0.74915669  0.00000000  0.74457898  1
  Mg  Mg21  1  0.74994145  0.50000000  0.25106619  1
  Mg  Mg22  1  0.74994145  0.50000000  0.74893381  1
  Mg  Mg23  1  0.25122226  0.25122226  0.00000000  1
  Mg  Mg24  1  0.24730350  0.24730350  0.50000000  1
  Mg  Mg25  1  0.25122226  0.74877774  0.00000000  1
  Mg  Mg26  1  0.24730350  0.75269650  0.50000000  1
  Mg  Mg27  1  0.74877774  0.25122226  0.00000000  1
  Mg  Mg28  1  0.75269650  0.24730350  0.50000000  1
  Mg  Mg29  1  0.74877774  0.74877774  0.00000000  1
  Mg  Mg30  1  0.75269650  0.75269650  0.50000000  1
  Ti  Ti31  1  -0.00000000  -0.00000000  0.00000000  1
  O  O32  1  0.24965514  0.00000000  0.00000000  1
  O  O33  1  0.25439910  -0.00000000  0.50000000  1
  O  O34  1  0.24984603  0.50000000  0.00000000  1
  O  O35  1  0.25049014  0.50000000  0.50000000  1
  O  O36  1  0.75034486  0.00000000  0.00000000  1
  O  O37  1  0.74560090  0.00000000  0.50000000  1
  O  O38  1  0.75015397  0.50000000  0.00000000  1
  O  O39  1  0.74950986  0.50000000  0.50000000  1
  O  O40  1  0.24935745  0.24935745  0.24924286  1
  O  O41  1  0.24935745  0.24935745  0.75075714  1
  O  O42  1  0.24935745  0.75064255  0.24924286  1
  O  O43  1  0.24935745  0.75064255  0.75075714  1
  O  O44  1  0.75064255  0.24935745  0.24924286  1
  O  O45  1  0.75064255  0.24935745  0.75075714  1
  O  O46  1  0.75064255  0.75064255  0.24924286  1
  O  O47  1  0.75064255  0.75064255  0.75075714  1
  O  O48  1  -0.00000000  0.00000000  0.23524754  1
  O  O49  1  -0.00000000  -0.00000000  0.76475246  1
  O  O50  1  -0.00000000  0.50000000  0.24836122  1
  O  O51  1  -0.00000000  0.50000000  0.75163878  1
  O  O52  1  0.50000000  -0.00000000  0.24836122  1
  O  O53  1  0.50000000  0.00000000  0.75163878  1
  O  O54  1  0.50000000  0.50000000  0.24926802  1
  O  O55  1  0.50000000  0.50000000  0.75073198  1
  O  O56  1  -0.00000000  0.24965514  0.00000000  1
  O  O57  1  -0.00000000  0.25439910  0.50000000  1
  O  O58  1  -0.00000000  0.75034486  0.00000000  1
  O  O59  1  -0.00000000  0.74560090  0.50000000  1
  O  O60  1  0.50000000  0.24984603  0.00000000  1
  O  O61  1  0.50000000  0.25049014  0.50000000  1
  O  O62  1  0.50000000  0.75015397  0.00000000  1
  O  O63  1  0.50000000  0.74950986  0.50000000  1
