# generated using pymatgen
data_Ti(FeO2)2
_symmetry_space_group_name_H-M   'P 1'
_cell_length_a   6.18217173
_cell_length_b   6.03133170
_cell_length_c   24.61854010
_cell_angle_alpha   60.66054417
_cell_angle_beta   58.69400041
_cell_angle_gamma   60.80388763
_symmetry_Int_Tables_number   1
_chemical_formula_structural   Ti(FeO2)2
_chemical_formula_sum   'Ti8 Fe16 O32'
_cell_volume   649.31976781
_cell_formula_units_Z   8
loop_
 _symmetry_equiv_pos_site_id
 _symmetry_equiv_pos_as_xyz
  1  'x, y, z'
loop_
 _atom_site_type_symbol
 _atom_site_label
 _atom_site_symmetry_multiplicity
 _atom_site_fract_x
 _atom_site_fract_y
 _atom_site_fract_z
 _atom_site_occupancy
  Ti  Ti0  1  0.10930929  0.13343313  0.03095611  1
  Ti  Ti1  1  0.98278786  0.50196785  0.12831911  1
  Ti  Ti2  1  0.98353005  0.49949603  0.37936947  1
  Ti  Ti3  1  0.48144331  0.50266204  0.25330815  1
  Ti  Ti4  1  0.98754321  0.49518932  0.63051954  1
  Ti  Ti5  1  0.48050419  0.50198245  0.50388273  1
  Ti  Ti6  1  0.96344146  0.51835993  0.87495967  1
  Ti  Ti7  1  0.48482794  0.49681466  0.75538568  1
  Fe  Fe8  1  0.49598086  0.50469122  0.99865917  1
  Fe  Fe9  1  0.11428563  0.13808517  0.27738601  1
  Fe  Fe10  1  0.50014102  0.50883890  0.12292625  1
  Fe  Fe11  1  0.50014102  0.99931510  0.12292625  1
  Fe  Fe12  1  0.11445138  0.13512898  0.52882267  1
  Fe  Fe13  1  0.50198583  0.50053276  0.37435205  1
  Fe  Fe14  1  0.88356594  0.86738037  0.22041833  1
  Fe  Fe15  1  0.11351706  0.13047992  0.78138077  1
  Fe  Fe16  1  0.50198583  0.00007321  0.37435205  1
  Fe  Fe17  1  0.50515445  0.49619693  0.62541651  1
  Fe  Fe18  1  0.88127922  0.86416915  0.47259562  1
  Fe  Fe19  1  0.50515445  0.99698258  0.62541651  1
  Fe  Fe20  1  0.49891735  0.49699467  0.87670540  1
  Fe  Fe21  1  0.89806547  0.86760613  0.71668057  1
  Fe  Fe22  1  0.49891735  -0.00273365  0.87670540  1
  Fe  Fe23  1  0.89451295  0.86733263  0.96770545  1
  O  O24  1  0.22588297  0.25626443  0.06499676  1
  O  O25  1  0.23191618  0.28552039  0.17426076  1
  O  O26  1  0.22588297  0.75786558  0.06499676  1
  O  O27  1  0.73929545  0.26034276  0.06000476  1
  O  O28  1  0.25342620  0.27641091  0.31132600  1
  O  O29  1  0.29015919  0.72213960  0.19139040  1
  O  O30  1  0.77818971  0.72141162  0.06974677  1
  O  O31  1  0.25342620  0.72485890  0.31132600  1
  O  O32  1  0.74723762  0.28084722  0.18697244  1
  O  O33  1  0.22728305  0.28168141  0.42733854  1
  O  O34  1  0.71281733  0.28041999  0.30658567  1
  O  O35  1  0.74723762  0.72402541  0.18697244  1
  O  O36  1  0.25688372  0.27259814  0.56229011  1
  O  O37  1  0.29210716  0.71932596  0.44231023  1
  O  O38  1  0.77805425  0.71927495  0.32084896  1
  O  O39  1  0.75219971  0.27650806  0.43697063  1
  O  O40  1  0.22540181  0.27808602  0.67960654  1
  O  O41  1  0.25688372  0.72135769  0.56229011  1
  O  O42  1  0.71095682  0.27763607  0.55844276  1
  O  O43  1  0.75219971  0.72340971  0.43697063  1
  O  O44  1  0.25753132  0.27554180  0.81231270  1
  O  O45  1  0.29986515  0.71713656  0.69146543  1
  O  O46  1  0.78354432  0.71488004  0.57167390  1
  O  O47  1  0.25753132  0.71767609  0.81231270  1
  O  O48  1  0.75412024  0.27506611  0.68741917  1
  O  O49  1  0.22813943  0.25708080  0.93942474  1
  O  O50  1  0.70742412  0.27580595  0.81024100  1
  O  O51  1  0.75412024  0.72113697  0.68741917  1
  O  O52  1  0.29280839  0.73232501  0.93563540  1
  O  O53  1  0.77362975  0.26918053  0.93004279  1
  O  O54  1  0.77877145  0.72618724  0.81721352  1
  O  O55  1  0.77362975  0.73701858  0.93004279  1
