# generated using pymatgen
data_CeAsS
_symmetry_space_group_name_H-M   'P 1'
_cell_length_a   3.94165877
_cell_length_b   3.95095904
_cell_length_c   17.08364737
_cell_angle_alpha   90.00000000
_cell_angle_beta   90.00000000
_cell_angle_gamma   89.98447227
_symmetry_Int_Tables_number   1
_chemical_formula_structural   CeAsS
_chemical_formula_sum   'Ce4 As4 S4'
_cell_volume   266.04930864
_cell_formula_units_Z   4
loop_
 _symmetry_equiv_pos_site_id
 _symmetry_equiv_pos_as_xyz
  1  'x, y, z'
loop_
 _atom_site_type_symbol
 _atom_site_label
 _atom_site_symmetry_multiplicity
 _atom_site_fract_x
 _atom_site_fract_y
 _atom_site_fract_z
 _atom_site_occupancy
  Ce  Ce0  1  0.78193864  0.25082505  0.14559694  1
  Ce  Ce1  1  0.71806136  0.24917495  0.64559694  1
  Ce  Ce2  1  0.21806136  0.74917495  0.85440306  1
  Ce  Ce3  1  0.28193864  0.75082505  0.35440306  1
  As  As4  1  0.77908046  0.75142817  0.49861492  1
  As  As5  1  0.72091954  0.74857183  0.99861492  1
  As  As6  1  0.22091954  0.24857183  0.50138508  1
  As  As7  1  0.27908046  0.25142817  0.00138508  1
  S  S8  1  0.78200717  0.25061919  0.31548761  1
  S  S9  1  0.71799283  0.24938081  0.81548761  1
  S  S10  1  0.21799283  0.74938081  0.68451239  1
  S  S11  1  0.28200717  0.75061919  0.18451239  1
