# generated using pymatgen
data_NdIr3
_symmetry_space_group_name_H-M   'P 1'
_cell_length_a   5.38175396
_cell_length_b   5.38175396
_cell_length_c   9.37667518
_cell_angle_alpha   73.32302424
_cell_angle_beta   73.32302424
_cell_angle_gamma   60.00001084
_symmetry_Int_Tables_number   1
_chemical_formula_structural   NdIr3
_chemical_formula_sum   'Nd3 Ir9'
_cell_volume   221.90617967
_cell_formula_units_Z   3
loop_
 _symmetry_equiv_pos_site_id
 _symmetry_equiv_pos_as_xyz
  1  'x, y, z'
loop_
 _atom_site_type_symbol
 _atom_site_label
 _atom_site_symmetry_multiplicity
 _atom_site_fract_x
 _atom_site_fract_y
 _atom_site_fract_z
 _atom_site_occupancy
  Nd  Nd0  1  0.13942977  0.13942977  0.58171069  1
  Nd  Nd1  1  0.86057023  0.86057023  0.41828931  1
  Nd  Nd2  1  -0.00000000  0.00000000  0.00000000  1
  Ir  Ir3  1  0.08324236  0.57919134  0.75837496  1
  Ir  Ir4  1  0.57919134  0.57919134  0.75837496  1
  Ir  Ir5  1  0.57919134  0.08324236  0.75837496  1
  Ir  Ir6  1  0.91675764  0.42080866  0.24162504  1
  Ir  Ir7  1  0.42080866  0.42080866  0.24162504  1
  Ir  Ir8  1  0.42080866  0.91675764  0.24162504  1
  Ir  Ir9  1  0.33224936  0.33224936  0.00325193  1
  Ir  Ir10  1  0.66775064  0.66775064  0.99674807  1
  Ir  Ir11  1  0.50000000  0.50000000  0.50000000  1
