# generated using pymatgen
data_Sr18Co12O35
_symmetry_space_group_name_H-M   'P 1'
_cell_length_a   11.96704855
_cell_length_b   11.96704855
_cell_length_c   12.20556933
_cell_angle_alpha   114.03746151
_cell_angle_beta   65.96253849
_cell_angle_gamma   61.31122360
_symmetry_Int_Tables_number   1
_chemical_formula_structural   Sr18Co12O35
_chemical_formula_sum   'Sr18 Co12 O35'
_cell_volume   922.30082010
_cell_formula_units_Z   1
loop_
 _symmetry_equiv_pos_site_id
 _symmetry_equiv_pos_as_xyz
  1  'x, y, z'
loop_
 _atom_site_type_symbol
 _atom_site_label
 _atom_site_symmetry_multiplicity
 _atom_site_fract_x
 _atom_site_fract_y
 _atom_site_fract_z
 _atom_site_occupancy
  Sr  Sr0  1  0.98789067  0.65636961  0.16284327  1
  Sr  Sr1  1  0.81235239  0.80833007  0.99944447  1
  Sr  Sr2  1  0.19166993  0.18764761  0.99944447  1
  Sr  Sr3  1  0.01272888  0.98727112  0.99450699  1
  Sr  Sr4  1  0.34363039  0.01210933  0.16284327  1
  Sr  Sr5  1  0.49426114  0.50573886  0.51268378  1
  Sr  Sr6  1  0.30938491  0.31265157  0.50124664  1
  Sr  Sr7  1  0.48273843  0.15691768  0.66609113  1
  Sr  Sr8  1  0.68734843  0.69061509  0.50124664  1
  Sr  Sr9  1  0.14308957  0.48978560  0.33642619  1
  Sr  Sr10  1  0.33374161  0.66625839  0.34815380  1
  Sr  Sr11  1  0.51021440  0.85691043  0.33642619  1
  Sr  Sr12  1  0.84308232  0.51726157  0.66609113  1
  Sr  Sr13  1  0.84817097  0.15182903  0.83370433  1
  Sr  Sr14  1  0.16201100  0.83798900  0.15217050  1
  Sr  Sr15  1  0.65245067  0.34754933  0.66205745  1
  Sr  Sr16  1  0.65335999  0.98070029  0.82676955  1
  Sr  Sr17  1  0.01929971  0.34664001  0.82676955  1
  Co  Co18  1  0.73594680  0.07090708  0.33396085  1
  Co  Co19  1  0.40315964  0.40225669  0.99979601  1
  Co  Co20  1  0.59774331  0.59684036  0.99979601  1
  Co  Co21  1  0.77097640  0.44838011  0.16071849  1
  Co  Co22  1  0.55161989  0.22902360  0.16071849  1
  Co  Co23  1  0.92909292  0.26405420  0.33396085  1
  Co  Co24  1  0.09789114  0.09965036  0.50024845  1
  Co  Co25  1  0.90034964  0.90210886  0.50024845  1
  Co  Co26  1  0.23526177  0.56781899  0.83237394  1
  Co  Co27  1  0.06988161  0.73785558  0.66707923  1
  Co  Co28  1  0.43218101  0.76473823  0.83237394  1
  Co  Co29  1  0.26214442  0.93011839  0.66707923  1
  O  O30  1  0.97816466  0.82667277  0.07196161  1
  O  O31  1  0.66545268  0.49622467  0.08428847  1
  O  O32  1  0.81927177  0.18072823  0.31854920  1
  O  O33  1  0.87081790  0.53200724  0.16729604  1
  O  O34  1  0.31181879  0.30181290  0.00205056  1
  O  O35  1  0.69818710  0.68818121  0.00205056  1
  O  O36  1  0.50377533  0.33454732  0.08428847  1
  O  O37  1  0.46799276  0.12918210  0.16729604  1
  O  O38  1  0.17332723  0.02183534  0.07196161  1
  O  O39  1  0.18612354  0.64732337  0.23318238  1
  O  O40  1  0.19349367  0.19479363  0.50268759  1
  O  O41  1  0.97737128  0.63801976  0.67158862  1
  O  O42  1  0.36198024  0.02262872  0.67158862  1
  O  O43  1  0.02211676  0.36575815  0.33316159  1
  O  O44  1  0.47450473  0.33147298  0.57551370  1
  O  O45  1  0.65086428  0.18350369  0.76922210  1
  O  O46  1  0.16354404  0.00723127  0.57775137  1
  O  O47  1  0.36686425  0.45339312  0.40369082  1
  O  O48  1  0.00679568  0.16214357  0.42295843  1
  O  O49  1  0.80520637  0.80650633  0.50268759  1
  O  O50  1  0.83785643  0.99320432  0.42295843  1
  O  O51  1  0.63424185  0.97788324  0.33316159  1
  O  O52  1  0.35267663  0.81387646  0.23318238  1
  O  O53  1  0.66852702  0.52549527  0.57551370  1
  O  O54  1  0.99276873  0.83645596  0.57775137  1
  O  O55  1  0.54660688  0.63313575  0.40369082  1
  O  O56  1  0.81649631  0.34913572  0.76922210  1
  O  O57  1  0.81438856  0.00609819  0.95676112  1
  O  O58  1  0.32286912  0.67713088  0.82356124  1
  O  O59  1  0.17854912  0.82145088  0.67842215  1
  O  O60  1  0.52675113  0.86262865  0.82752286  1
  O  O61  1  0.33315773  0.49321570  0.91861181  1
  O  O62  1  0.50678430  0.66684227  0.91861181  1
  O  O63  1  0.13737135  0.47324887  0.82752286  1
  O  O64  1  0.99390181  0.18561144  0.95676112  1
