# generated using pymatgen
data_LiCrP2O7
_symmetry_space_group_name_H-M   'P 1'
_cell_length_a   7.12693474
_cell_length_b   8.20951985
_cell_length_c   9.63930854
_cell_angle_alpha   89.99980779
_cell_angle_beta   110.70563239
_cell_angle_gamma   89.99997927
_symmetry_Int_Tables_number   1
_chemical_formula_structural   LiCrP2O7
_chemical_formula_sum   'Li4 Cr4 P8 O28'
_cell_volume   527.55542632
_cell_formula_units_Z   4
loop_
 _symmetry_equiv_pos_site_id
 _symmetry_equiv_pos_as_xyz
  1  'x, y, z'
loop_
 _atom_site_type_symbol
 _atom_site_label
 _atom_site_symmetry_multiplicity
 _atom_site_fract_x
 _atom_site_fract_y
 _atom_site_fract_z
 _atom_site_occupancy
  Li  Li0  1  0.32258456  0.11238879  0.75306758  1
  Li  Li1  1  0.67741484  0.88761380  0.24693116  1
  Li  Li2  1  0.67741639  0.61238788  0.74693240  1
  Li  Li3  1  0.32258315  0.38761353  0.25306707  1
  Cr  Cr4  1  0.73223819  0.50132310  0.25062041  1
  Cr  Cr5  1  0.73226955  0.99865299  0.75060773  1
  Cr  Cr6  1  0.26775159  0.00132565  0.24938666  1
  Cr  Cr7  1  0.26774185  0.49867232  0.74938549  1
  P  P8  1  0.68402315  0.30700277  0.94548134  1
  P  P9  1  0.31597368  0.69299759  0.05451675  1
  P  P10  1  0.68402646  0.19299573  0.44548251  1
  P  P11  1  0.90713776  0.72979365  0.55306522  1
  P  P12  1  0.09286391  0.22979408  0.94693394  1
  P  P13  1  0.09286400  0.27020736  0.44693279  1
  P  P14  1  0.31597575  0.80700372  0.55451897  1
  P  P15  1  0.90713376  0.77020672  0.05306826  1
  O  O16  1  0.09500432  0.65746418  0.05911730  1
  O  O17  1  0.90499811  0.15746481  0.44088314  1
  O  O18  1  0.78018892  0.66467959  0.11494788  1
  O  O19  1  0.98287042  0.92407945  0.14621346  1
  O  O20  1  0.01712934  0.07591985  0.85378667  1
  O  O21  1  0.21980948  0.33532349  0.88505232  1
  O  O22  1  0.09500120  0.84253833  0.55911679  1
  O  O23  1  0.01712814  0.42407989  0.35378819  1
  O  O24  1  0.30863722  0.68210094  0.89525447  1
  O  O25  1  0.21312128  0.30356409  0.61139495  1
  O  O26  1  0.21980990  0.16468024  0.38505315  1
  O  O27  1  0.37779927  0.86515497  0.11809911  1
  O  O28  1  0.37779955  0.63484660  0.61809695  1
  O  O29  1  0.30863825  0.81790000  0.39525494  1
  O  O30  1  0.21312210  0.19643767  0.11139507  1
  O  O31  1  0.69136152  0.31790102  0.10474729  1
  O  O32  1  0.43758367  0.94079407  0.65963602  1
  O  O33  1  0.62220305  0.13484442  0.88189940  1
  O  O34  1  0.98286803  0.57592265  0.64621199  1
  O  O35  1  0.56241712  0.05920698  0.34036455  1
  O  O36  1  0.43758104  0.55920642  0.15963606  1
  O  O37  1  0.78687847  0.80356278  0.88860552  1
  O  O38  1  0.69136204  0.18209925  0.60474652  1
  O  O39  1  0.62220007  0.36515649  0.38190164  1
  O  O40  1  0.90499843  0.34253741  0.94088354  1
  O  O41  1  0.78019103  0.83531857  0.61494426  1
  O  O42  1  0.78687743  0.69643778  0.38860740  1
  O  O43  1  0.56241602  0.44079736  0.84036215  1
