# generated using pymatgen
data_SnP4O11
_symmetry_space_group_name_H-M   'P 1'
_cell_length_a   5.95622101
_cell_length_b   23.19693291
_cell_length_c   7.94188890
_cell_angle_alpha   90.00000000
_cell_angle_beta   107.47530290
_cell_angle_gamma   90.00000000
_symmetry_Int_Tables_number   1
_chemical_formula_structural   SnP4O11
_chemical_formula_sum   'Sn4 P16 O44'
_cell_volume   1046.65525787
_cell_formula_units_Z   4
loop_
 _symmetry_equiv_pos_site_id
 _symmetry_equiv_pos_as_xyz
  1  'x, y, z'
loop_
 _atom_site_type_symbol
 _atom_site_label
 _atom_site_symmetry_multiplicity
 _atom_site_fract_x
 _atom_site_fract_y
 _atom_site_fract_z
 _atom_site_occupancy
  Sn  Sn0  1  0.00615677  0.11318276  0.87441920  1
  Sn  Sn1  1  0.00615677  0.38681724  0.37441920  1
  Sn  Sn2  1  0.99384323  0.61318276  0.62558080  1
  Sn  Sn3  1  0.99384323  0.88681724  0.12558080  1
  P  P4  1  0.32766833  0.42668442  0.83513787  1
  P  P5  1  0.40485043  0.79922784  0.95729137  1
  P  P6  1  0.34623574  0.82059981  0.56400266  1
  P  P7  1  0.41057068  0.03015453  0.70215272  1
  P  P8  1  0.32766833  0.07331558  0.33513787  1
  P  P9  1  0.40485043  0.70077216  0.45729137  1
  P  P10  1  0.58942932  0.53015453  0.79784728  1
  P  P11  1  0.65376426  0.32059981  0.93599734  1
  P  P12  1  0.34623574  0.67940019  0.06400266  1
  P  P13  1  0.41057068  0.46984547  0.20215272  1
  P  P14  1  0.59514957  0.29922784  0.54270863  1
  P  P15  1  0.67233167  0.92668442  0.66486213  1
  P  P16  1  0.58942932  0.96984547  0.29784728  1
  P  P17  1  0.65376426  0.17940019  0.43599834  1
  P  P18  1  0.59514957  0.20077216  0.04270863  1
  P  P19  1  0.67233167  0.57331558  0.16486213  1
  O  O20  1  0.12814708  0.65716803  0.93775236  1
  O  O21  1  0.11740081  0.42465524  0.67875086  1
  O  O22  1  0.25933436  0.45268059  0.99673725  1
  O  O23  1  0.24213923  0.03465186  0.80658835  1
  O  O24  1  0.36930861  0.16871464  0.98996036  1
  O  O25  1  0.12814708  0.84283197  0.43775236  1
  O  O26  1  0.30147159  0.80047169  0.74044050  1
  O  O27  1  0.20175656  0.68859665  0.52532469  1
  O  O28  1  0.35662375  0.55930990  0.75631009  1
  O  O29  1  0.47111934  0.73061817  0.99445860  1
  O  O30  1  0.43381978  0.36379553  0.88813261  1
  O  O31  1  0.11740081  0.07534476  0.17875086  1
  O  O32  1  0.25933436  0.04731941  0.49673725  1
  O  O33  1  0.24213923  0.46534814  0.30658835  1
  O  O34  1  0.44759695  0.96024907  0.67990854  1
  O  O35  1  0.36930861  0.33128536  0.48996036  1
  O  O36  1  0.30147159  0.69952831  0.24044050  1
  O  O37  1  0.20175656  0.81140335  0.02532469  1
  O  O38  1  0.55240305  0.46024907  0.82009146  1
  O  O39  1  0.35662375  0.94069010  0.25631009  1
  O  O40  1  0.47111934  0.76938183  0.49445860  1
  O  O41  1  0.43381978  0.13620447  0.38813261  1
  O  O42  1  0.56618022  0.86379553  0.61186739  1
  O  O43  1  0.52888066  0.23061817  0.50554140  1
  O  O44  1  0.64337625  0.05930990  0.74368991  1
  O  O45  1  0.44759695  0.53975093  0.17990854  1
  O  O46  1  0.79824344  0.18859665  0.97467531  1
  O  O47  1  0.69852841  0.30047169  0.75955950  1
  O  O48  1  0.63069139  0.66871464  0.51003964  1
  O  O49  1  0.55240305  0.03975093  0.32009146  1
  O  O50  1  0.75786077  0.53465186  0.69341165  1
  O  O51  1  0.74066564  0.95268059  0.50326275  1
  O  O52  1  0.88259919  0.92465524  0.82124914  1
  O  O53  1  0.56618022  0.63620447  0.11186739  1
  O  O54  1  0.52888066  0.26938183  0.00554140  1
  O  O55  1  0.64337625  0.44069010  0.24368991  1
  O  O56  1  0.79824344  0.31140335  0.47467531  1
  O  O57  1  0.69852841  0.19952831  0.25955950  1
  O  O58  1  0.87185292  0.15716803  0.56224764  1
  O  O59  1  0.63069139  0.83128536  0.01003964  1
  O  O60  1  0.75786077  0.96534814  0.19341165  1
  O  O61  1  0.74066564  0.54731941  0.00326275  1
  O  O62  1  0.88259919  0.57534476  0.32124914  1
  O  O63  1  0.87185292  0.34283197  0.06224764  1
