# generated using pymatgen
data_Sr2Mg
_symmetry_space_group_name_H-M   'P 1'
_cell_length_a   15.09393663
_cell_length_b   4.21106357
_cell_length_c   8.45379699
_cell_angle_alpha   90.00000000
_cell_angle_beta   106.89865153
_cell_angle_gamma   90.00000000
_symmetry_Int_Tables_number   1
_chemical_formula_structural   Sr2Mg
_chemical_formula_sum   'Sr8 Mg4'
_cell_volume   514.13429252
_cell_formula_units_Z   4
loop_
 _symmetry_equiv_pos_site_id
 _symmetry_equiv_pos_as_xyz
  1  'x, y, z'
loop_
 _atom_site_type_symbol
 _atom_site_label
 _atom_site_symmetry_multiplicity
 _atom_site_fract_x
 _atom_site_fract_y
 _atom_site_fract_z
 _atom_site_occupancy
  Sr  Sr0  1  0.14268127  0.00000000  0.07541393  1
  Sr  Sr1  1  0.35839757  0.50000000  0.43153604  1
  Sr  Sr2  1  0.14160243  -0.00000000  0.56846396  1
  Sr  Sr3  1  0.35731873  0.50000000  0.92458607  1
  Sr  Sr4  1  0.64268127  0.50000000  0.07541393  1
  Sr  Sr5  1  0.85839757  0.00000000  0.43153604  1
  Sr  Sr6  1  0.64160243  0.50000000  0.56846396  1
  Sr  Sr7  1  0.85731873  0.00000000  0.92458607  1
  Mg  Mg8  1  0.49621187  0.00000000  0.24878091  1
  Mg  Mg9  1  0.00378813  0.50000000  0.75121909  1
  Mg  Mg10  1  0.99621187  0.50000000  0.24878091  1
  Mg  Mg11  1  0.50378813  -0.00000000  0.75121909  1
