# generated using pymatgen
data_Cu4NiGe2S7
_symmetry_space_group_name_H-M   'P 1'
_cell_length_a   5.30430524
_cell_length_b   6.42453039
_cell_length_c   8.34769124
_cell_angle_alpha   97.87936172
_cell_angle_beta   90.00000000
_cell_angle_gamma   114.38188627
_symmetry_Int_Tables_number   1
_chemical_formula_structural   Cu4NiGe2S7
_chemical_formula_sum   'Cu4 Ni1 Ge2 S7'
_cell_volume   256.14762099
_cell_formula_units_Z   1
loop_
 _symmetry_equiv_pos_site_id
 _symmetry_equiv_pos_as_xyz
  1  'x, y, z'
loop_
 _atom_site_type_symbol
 _atom_site_label
 _atom_site_symmetry_multiplicity
 _atom_site_fract_x
 _atom_site_fract_y
 _atom_site_fract_z
 _atom_site_occupancy
  Cu  Cu0  1  0.12201153  0.28253243  0.43153334  1
  Cu  Cu1  1  0.83947910  0.71746757  0.56846666  1
  Cu  Cu2  1  0.70531478  0.42034068  0.13909839  1
  Cu  Cu3  1  0.28497410  0.57965932  0.86090161  1
  Ni  Ni4  1  0.00020018  1.00000000  1.00000000  1
  Ge  Ge5  1  0.43200365  0.85039508  0.27882203  1
  Ge  Ge6  1  0.58160857  0.14960492  0.72117797  1
  S  S7  1  0.24844587  1.00000000  0.50000000  1
  S  S8  1  0.82163951  0.13772270  0.20798706  1
  S  S9  1  0.68391681  0.86227730  0.79201294  1
  S  S10  1  0.52091719  0.56208047  0.35419102  1
  S  S11  1  0.95883672  0.43791953  0.64580898  1
  S  S12  1  0.09665443  0.71765686  0.07327868  1
  S  S13  1  0.37899756  0.28234314  0.92672132  1
