# generated using pymatgen
data_DyCo4B
_symmetry_space_group_name_H-M   'P 1'
_cell_length_a   4.99243579
_cell_length_b   4.99396036
_cell_length_c   6.82815721
_cell_angle_alpha   90.00000000
_cell_angle_beta   90.00000000
_cell_angle_gamma   119.98990481
_symmetry_Int_Tables_number   1
_chemical_formula_structural   DyCo4B
_chemical_formula_sum   'Dy2 Co8 B2'
_cell_volume   147.44698357
_cell_formula_units_Z   2
loop_
 _symmetry_equiv_pos_site_id
 _symmetry_equiv_pos_as_xyz
  1  'x, y, z'
loop_
 _atom_site_type_symbol
 _atom_site_label
 _atom_site_symmetry_multiplicity
 _atom_site_fract_x
 _atom_site_fract_y
 _atom_site_fract_z
 _atom_site_occupancy
  Dy  Dy0  1  0.99999021  1.00000000  0.00000000  1
  Dy  Dy1  1  0.99999632  1.00000000  0.50000000  1
  Co  Co2  1  0.33325672  0.66659975  0.00000000  1
  Co  Co3  1  0.66665697  0.33340025  0.00000000  1
  Co  Co4  1  0.49999925  1.00000000  0.28835221  1
  Co  Co5  1  0.49999494  0.50000430  0.28840005  1
  Co  Co6  1  0.99999063  0.49999570  0.28840005  1
  Co  Co7  1  0.49999925  1.00000000  0.71164779  1
  Co  Co8  1  0.49999494  0.50000430  0.71159995  1
  Co  Co9  1  0.99999063  0.49999570  0.71159995  1
  B  B10  1  0.33325911  0.66658807  0.50000000  1
  B  B11  1  0.66667104  0.33341193  0.50000000  1
