# generated using pymatgen
data_ThCo3
_symmetry_space_group_name_H-M   'P 1'
_cell_length_a   4.97016230
_cell_length_b   4.97016230
_cell_length_c   8.94755216
_cell_angle_alpha   73.87471319
_cell_angle_beta   73.87471319
_cell_angle_gamma   60.00000189
_symmetry_Int_Tables_number   1
_chemical_formula_structural   ThCo3
_chemical_formula_sum   'Th3 Co9'
_cell_volume   181.30431627
_cell_formula_units_Z   3
loop_
 _symmetry_equiv_pos_site_id
 _symmetry_equiv_pos_as_xyz
  1  'x, y, z'
loop_
 _atom_site_type_symbol
 _atom_site_label
 _atom_site_symmetry_multiplicity
 _atom_site_fract_x
 _atom_site_fract_y
 _atom_site_fract_z
 _atom_site_occupancy
  Th  Th0  1  0.13668911  0.13668911  0.58993266  1
  Th  Th1  1  0.86331089  0.86331089  0.41006734  1
  Th  Th2  1  0.00000000  0.00000000  0.00000000  1
  Co  Co3  1  0.08199258  0.57882238  0.76036266  1
  Co  Co4  1  0.57882238  0.57882238  0.76036266  1
  Co  Co5  1  0.57882238  0.08199258  0.76036266  1
  Co  Co6  1  0.91800742  0.42117762  0.23963734  1
  Co  Co7  1  0.42117762  0.42117762  0.23963734  1
  Co  Co8  1  0.42117762  0.91800742  0.23963734  1
  Co  Co9  1  0.33260280  0.33260280  0.00219161  1
  Co  Co10  1  0.66739720  0.66739720  0.99780839  1
  Co  Co11  1  0.50000000  0.50000000  0.50000000  1
