# generated using pymatgen
data_Eu2Zn3Ge
_symmetry_space_group_name_H-M   'P 1'
_cell_length_a   4.55334515
_cell_length_b   7.49005337
_cell_length_c   7.75244748
_cell_angle_alpha   90.00000000
_cell_angle_beta   90.00000000
_cell_angle_gamma   90.00000000
_symmetry_Int_Tables_number   1
_chemical_formula_structural   Eu2Zn3Ge
_chemical_formula_sum   'Eu4 Zn6 Ge2'
_cell_volume   264.39565675
_cell_formula_units_Z   2
loop_
 _symmetry_equiv_pos_site_id
 _symmetry_equiv_pos_as_xyz
  1  'x, y, z'
loop_
 _atom_site_type_symbol
 _atom_site_label
 _atom_site_symmetry_multiplicity
 _atom_site_fract_x
 _atom_site_fract_y
 _atom_site_fract_z
 _atom_site_occupancy
  Eu  Eu0  1  -0.00000000  0.74896418  0.45033706  1
  Eu  Eu1  1  -0.00000000  0.24896418  0.54966294  1
  Eu  Eu2  1  0.50000000  0.75287292  0.04065691  1
  Eu  Eu3  1  0.50000000  0.25287292  0.95934309  1
  Zn  Zn4  1  -0.00000000  0.06081839  0.16115286  1
  Zn  Zn5  1  -0.00000000  0.56081839  0.83884714  1
  Zn  Zn6  1  -0.00000000  0.44449016  0.16268745  1
  Zn  Zn7  1  -0.00000000  0.94449016  0.83731255  1
  Zn  Zn8  1  0.50000000  0.43567520  0.33276825  1
  Zn  Zn9  1  0.50000000  0.93567520  0.66723175  1
  Ge  Ge10  1  0.50000000  0.05717916  0.34052949  1
  Ge  Ge11  1  0.50000000  0.55717916  0.65947051  1
