# generated using pymatgen
data_Tb(Mo3S4)2
_symmetry_space_group_name_H-M   'P 1'
_cell_length_a   6.50968575
_cell_length_b   6.50968575
_cell_length_c   6.50968597
_cell_angle_alpha   89.34337441
_cell_angle_beta   89.34337441
_cell_angle_gamma   89.34338047
_symmetry_Int_Tables_number   1
_chemical_formula_structural   Tb(Mo3S4)2
_chemical_formula_sum   'Tb1 Mo6 S8'
_cell_volume   275.80057578
_cell_formula_units_Z   1
loop_
 _symmetry_equiv_pos_site_id
 _symmetry_equiv_pos_as_xyz
  1  'x, y, z'
loop_
 _atom_site_type_symbol
 _atom_site_label
 _atom_site_symmetry_multiplicity
 _atom_site_fract_x
 _atom_site_fract_y
 _atom_site_fract_z
 _atom_site_occupancy
  Tb  Tb0  1  -0.00000000  -0.00000000  0.00000000  1
  Mo  Mo1  1  0.57980002  0.77623898  0.43945448  1
  Mo  Mo2  1  0.77623898  0.43945448  0.57980002  1
  Mo  Mo3  1  0.43945448  0.57980002  0.77623898  1
  Mo  Mo4  1  0.42019998  0.22376102  0.56054552  1
  Mo  Mo5  1  0.22376102  0.56054552  0.42019998  1
  Mo  Mo6  1  0.56054552  0.42019998  0.22376102  1
  S  S7  1  0.76098396  0.76098396  0.76098396  1
  S  S8  1  0.23901604  0.23901604  0.23901604  1
  S  S9  1  0.63126364  0.24851408  0.87190930  1
  S  S10  1  0.24851408  0.87190930  0.63126364  1
  S  S11  1  0.87190930  0.63126364  0.24851408  1
  S  S12  1  0.36873636  0.75148592  0.12809070  1
  S  S13  1  0.75148592  0.12809070  0.36873636  1
  S  S14  1  0.12809070  0.36873636  0.75148592  1
