# generated using pymatgen
data_Dy3Ga9Pt2
_symmetry_space_group_name_H-M   'P 1'
_cell_length_a   4.25355234
_cell_length_b   8.19875627
_cell_length_c   8.19875627
_cell_angle_alpha   73.81699937
_cell_angle_beta   74.96539738
_cell_angle_gamma   74.96539738
_symmetry_Int_Tables_number   1
_chemical_formula_structural   Dy3Ga9Pt2
_chemical_formula_sum   'Dy3 Ga9 Pt2'
_cell_volume   259.74127034
_cell_formula_units_Z   1
loop_
 _symmetry_equiv_pos_site_id
 _symmetry_equiv_pos_as_xyz
  1  'x, y, z'
loop_
 _atom_site_type_symbol
 _atom_site_label
 _atom_site_symmetry_multiplicity
 _atom_site_fract_x
 _atom_site_fract_y
 _atom_site_fract_z
 _atom_site_occupancy
  Dy  Dy0  1  -0.00000000  0.00000000  -0.00000000  1
  Dy  Dy1  1  0.30834235  0.69165765  0.69165765  1
  Dy  Dy2  1  0.69165765  0.30834235  0.30834235  1
  Ga  Ga3  1  -0.00000000  0.50000000  0.50000000  1
  Ga  Ga4  1  0.34201829  0.28740709  0.02855634  1
  Ga  Ga5  1  0.65798171  0.71259291  0.97144366  1
  Ga  Ga6  1  0.34201829  0.02855634  0.28740709  1
  Ga  Ga7  1  0.65798171  0.97144366  0.71259291  1
  Ga  Ga8  1  0.13697728  0.58048939  0.14555604  1
  Ga  Ga9  1  0.86302272  0.41951061  0.85444396  1
  Ga  Ga10  1  0.13697728  0.14555604  0.58048939  1
  Ga  Ga11  1  0.86302272  0.85444396  0.41951061  1
  Pt  Pt12  1  0.50000000  0.30155001  0.69844999  1
  Pt  Pt13  1  0.50000000  0.69844999  0.30155001  1
