# generated using pymatgen
data_Tm(Fe2Ge)2
_symmetry_space_group_name_H-M   'P 1'
_cell_length_a   3.89096473
_cell_length_b   7.07119478
_cell_length_c   7.31876015
_cell_angle_alpha   90.00000000
_cell_angle_beta   90.00000000
_cell_angle_gamma   90.00000000
_symmetry_Int_Tables_number   1
_chemical_formula_structural   Tm(Fe2Ge)2
_chemical_formula_sum   'Tm2 Fe8 Ge4'
_cell_volume   201.36667970
_cell_formula_units_Z   2
loop_
 _symmetry_equiv_pos_site_id
 _symmetry_equiv_pos_as_xyz
  1  'x, y, z'
loop_
 _atom_site_type_symbol
 _atom_site_label
 _atom_site_symmetry_multiplicity
 _atom_site_fract_x
 _atom_site_fract_y
 _atom_site_fract_z
 _atom_site_occupancy
  Tm  Tm0  1  0.00000000  0.50000000  0.50000000  1
  Tm  Tm1  1  0.50000000  0.00000000  -0.00000000  1
  Fe  Fe2  1  0.50000000  0.85604465  0.40211723  1
  Fe  Fe3  1  0.50000000  0.14395535  0.59788277  1
  Fe  Fe4  1  -0.00000000  0.64395535  0.90211723  1
  Fe  Fe5  1  0.00000000  0.35604465  0.09788277  1
  Fe  Fe6  1  0.50000000  0.58698896  0.14628012  1
  Fe  Fe7  1  0.50000000  0.41301104  0.85371988  1
  Fe  Fe8  1  -0.00000000  0.91301104  0.64628012  1
  Fe  Fe9  1  0.00000000  0.08698896  0.35371988  1
  Ge  Ge10  1  0.50000000  0.27877534  0.29091796  1
  Ge  Ge11  1  0.50000000  0.72122466  0.70908204  1
  Ge  Ge12  1  0.00000000  0.22122466  0.79091796  1
  Ge  Ge13  1  0.00000000  0.77877534  0.20908204  1
