# generated using pymatgen
data_Tm(BRh)4
_symmetry_space_group_name_H-M   'P 1'
_cell_length_a   5.32592874
_cell_length_b   5.32592874
_cell_length_c   7.44522229
_cell_angle_alpha   90.00000000
_cell_angle_beta   90.00000000
_cell_angle_gamma   90.00000000
_symmetry_Int_Tables_number   1
_chemical_formula_structural   Tm(BRh)4
_chemical_formula_sum   'Tm2 B8 Rh8'
_cell_volume   211.18757902
_cell_formula_units_Z   2
loop_
 _symmetry_equiv_pos_site_id
 _symmetry_equiv_pos_as_xyz
  1  'x, y, z'
loop_
 _atom_site_type_symbol
 _atom_site_label
 _atom_site_symmetry_multiplicity
 _atom_site_fract_x
 _atom_site_fract_y
 _atom_site_fract_z
 _atom_site_occupancy
  Tm  Tm0  1  0.75000000  0.25000000  0.25000000  1
  Tm  Tm1  1  0.25000000  0.75000000  0.75000000  1
  B  B2  1  0.58154248  0.75000000  0.39827799  1
  B  B3  1  0.91845752  0.75000000  0.39827799  1
  B  B4  1  0.75000000  0.58154248  0.89827799  1
  B  B5  1  0.75000000  0.91845752  0.89827799  1
  B  B6  1  0.41845752  0.25000000  0.60172201  1
  B  B7  1  0.08154248  0.25000000  0.60172201  1
  B  B8  1  0.25000000  0.41845752  0.10172201  1
  B  B9  1  0.25000000  0.08154248  0.10172201  1
  Rh  Rh10  1  0.00164741  0.75000000  0.10436445  1
  Rh  Rh11  1  0.49835259  0.75000000  0.10436445  1
  Rh  Rh12  1  0.75000000  0.00164741  0.60436445  1
  Rh  Rh13  1  0.75000000  0.49835259  0.60436445  1
  Rh  Rh14  1  0.99835259  0.25000000  0.89563555  1
  Rh  Rh15  1  0.50164741  0.25000000  0.89563555  1
  Rh  Rh16  1  0.25000000  0.99835259  0.39563555  1
  Rh  Rh17  1  0.25000000  0.50164741  0.39563555  1
