# generated using pymatgen
data_Sc7P3
_symmetry_space_group_name_H-M   'P 1'
_cell_length_a   5.71409879
_cell_length_b   8.97976264
_cell_length_c   8.97976264
_cell_angle_alpha   119.99676414
_cell_angle_beta   90.00000000
_cell_angle_gamma   90.00000000
_symmetry_Int_Tables_number   1
_chemical_formula_structural   Sc7P3
_chemical_formula_sum   'Sc14 P6'
_cell_volume   399.04534684
_cell_formula_units_Z   2
loop_
 _symmetry_equiv_pos_site_id
 _symmetry_equiv_pos_as_xyz
  1  'x, y, z'
loop_
 _atom_site_type_symbol
 _atom_site_label
 _atom_site_symmetry_multiplicity
 _atom_site_fract_x
 _atom_site_fract_y
 _atom_site_fract_z
 _atom_site_occupancy
  Sc  Sc0  1  0.41571276  0.33334406  0.66665594  1
  Sc  Sc1  1  0.91571276  0.66665594  0.33334406  1
  Sc  Sc2  1  0.24084638  0.12258055  0.87741945  1
  Sc  Sc3  1  0.24084853  0.75478860  0.87733483  1
  Sc  Sc4  1  0.24084853  0.12266517  0.24521140  1
  Sc  Sc5  1  0.74084638  0.87741945  0.12258055  1
  Sc  Sc6  1  0.74084853  0.24521140  0.12266517  1
  Sc  Sc7  1  0.74084853  0.87733483  0.75478860  1
  Sc  Sc8  1  0.47128311  0.53713605  0.46286395  1
  Sc  Sc9  1  0.47137188  0.92578641  0.46286140  1
  Sc  Sc10  1  0.47137188  0.53713860  0.07421359  1
  Sc  Sc11  1  0.97128311  0.46286395  0.53713605  1
  Sc  Sc12  1  0.97137188  0.07421359  0.53713860  1
  Sc  Sc13  1  0.97137188  0.46286140  0.92578641  1
  P  P14  1  0.17556132  0.80848769  0.19151231  1
  P  P15  1  0.17557780  0.38304556  0.19149259  1
  P  P16  1  0.17557780  0.80850741  0.61695444  1
  P  P17  1  0.67556132  0.19151231  0.80848769  1
  P  P18  1  0.67557780  0.61695444  0.80850741  1
  P  P19  1  0.67557780  0.19149259  0.38304556  1
