# generated using pymatgen
data_NaTi(SiO3)2
_symmetry_space_group_name_H-M   'P 1'
_cell_length_a   5.31463657
_cell_length_b   6.65079934
_cell_length_c   6.65439855
_cell_angle_alpha   83.54688804
_cell_angle_beta   77.89892064
_cell_angle_gamma   77.95936171
_symmetry_Int_Tables_number   1
_chemical_formula_structural   NaTi(SiO3)2
_chemical_formula_sum   'Na2 Ti2 Si4 O12'
_cell_volume   224.34353940
_cell_formula_units_Z   2
loop_
 _symmetry_equiv_pos_site_id
 _symmetry_equiv_pos_as_xyz
  1  'x, y, z'
loop_
 _atom_site_type_symbol
 _atom_site_label
 _atom_site_symmetry_multiplicity
 _atom_site_fract_x
 _atom_site_fract_y
 _atom_site_fract_z
 _atom_site_occupancy
  Na  Na0  1  0.24705688  0.19481643  0.29974933  1
  Na  Na1  1  0.75294312  0.80518357  0.70025067  1
  Ti  Ti2  1  0.74918204  0.41060702  0.08849519  1
  Ti  Ti3  1  0.25081796  0.58939298  0.91150481  1
  Si  Si4  1  0.25858153  0.69931304  0.38624007  1
  Si  Si5  1  0.74141847  0.30068696  0.61375993  1
  Si  Si6  1  0.75861924  0.88516567  0.20119143  1
  Si  Si7  1  0.24138076  0.11483433  0.79880857  1
  O  O8  1  0.19562512  0.60798524  0.62231625  1
  O  O9  1  0.80437488  0.39201476  0.37768375  1
  O  O10  1  0.34775352  0.53399500  0.20645787  1
  O  O11  1  0.65224648  0.46600500  0.79354213  1
  O  O12  1  0.48454954  0.84327317  0.35904490  1
  O  O13  1  0.51545046  0.15672683  0.64095510  1
  O  O14  1  0.98415924  0.85818241  0.34552940  1
  O  O15  1  0.01584076  0.14181759  0.65447060  1
  O  O16  1  0.84954642  0.70542765  0.03581187  1
  O  O17  1  0.15045358  0.29457235  0.96418813  1
  O  O18  1  0.69427623  0.12065581  0.10763253  1
  O  O19  1  0.30572377  0.87934419  0.89236747  1
