# generated using pymatgen
data_Zr3Fe2Si3
_symmetry_space_group_name_H-M   'P 1'
_cell_length_a   3.86211512
_cell_length_b   5.40316397
_cell_length_c   12.97724485
_cell_angle_alpha   90.00000000
_cell_angle_beta   90.00000000
_cell_angle_gamma   110.94022928
_symmetry_Int_Tables_number   1
_chemical_formula_structural   Zr3Fe2Si3
_chemical_formula_sum   'Zr6 Fe4 Si6'
_cell_volume   252.91887350
_cell_formula_units_Z   2
loop_
 _symmetry_equiv_pos_site_id
 _symmetry_equiv_pos_as_xyz
  1  'x, y, z'
loop_
 _atom_site_type_symbol
 _atom_site_label
 _atom_site_symmetry_multiplicity
 _atom_site_fract_x
 _atom_site_fract_y
 _atom_site_fract_z
 _atom_site_occupancy
  Zr  Zr0  1  0.07662592  0.15325184  0.38627280  1
  Zr  Zr1  1  0.92337408  0.84674816  0.61372720  1
  Zr  Zr2  1  0.07662592  0.15325184  0.11372720  1
  Zr  Zr3  1  0.92337408  0.84674816  0.88627280  1
  Zr  Zr4  1  0.36389146  0.72778291  0.25000000  1
  Zr  Zr5  1  0.63610854  0.27221709  0.75000000  1
  Fe  Fe6  1  0.21981717  0.43963433  0.91920811  1
  Fe  Fe7  1  0.78018283  0.56036567  0.08079189  1
  Fe  Fe8  1  0.21981717  0.43963433  0.58079189  1
  Fe  Fe9  1  0.78018283  0.56036567  0.41920811  1
  Si  Si10  1  0.38609302  0.77218604  0.45865115  1
  Si  Si11  1  0.61390698  0.22781396  0.54134885  1
  Si  Si12  1  0.38609302  0.77218604  0.04134885  1
  Si  Si13  1  0.61390698  0.22781396  0.95865115  1
  Si  Si14  1  0.66666150  0.33332300  0.25000000  1
  Si  Si15  1  0.33333850  0.66667700  0.75000000  1
