# generated using pymatgen
data_La5Sn3
_symmetry_space_group_name_H-M   'P 1'
_cell_length_a   6.94450241
_cell_length_b   9.56863259
_cell_length_c   9.56694535
_cell_angle_alpha   120.00583162
_cell_angle_beta   90.00000000
_cell_angle_gamma   90.00000000
_symmetry_Int_Tables_number   1
_chemical_formula_structural   La5Sn3
_chemical_formula_sum   'La10 Sn6'
_cell_volume   550.51532551
_cell_formula_units_Z   2
loop_
 _symmetry_equiv_pos_site_id
 _symmetry_equiv_pos_as_xyz
  1  'x, y, z'
loop_
 _atom_site_type_symbol
 _atom_site_label
 _atom_site_symmetry_multiplicity
 _atom_site_fract_x
 _atom_site_fract_y
 _atom_site_fract_z
 _atom_site_occupancy
  La  La0  1  0.50000161  0.33331565  0.66672870  1
  La  La1  1  0.50000161  0.66658695  0.33327130  1
  La  La2  1  0.00000161  0.66668435  0.33327130  1
  La  La3  1  0.00000161  0.33341305  0.66672870  1
  La  La4  1  0.75004147  0.24875519  1.00000000  1
  La  La5  1  0.74997097  0.75131225  0.75129183  1
  La  La6  1  0.74997097  0.00002042  0.24870817  1
  La  La7  1  0.25004147  0.75124481  0.00000000  1
  La  La8  1  0.24997097  0.24868775  0.24870817  1
  La  La9  1  0.24997097  0.99997958  0.75129183  1
  Sn  Sn10  1  0.75001566  0.61027990  1.00000000  1
  Sn  Sn11  1  0.74999885  0.38968064  0.38970965  1
  Sn  Sn12  1  0.74999885  0.99997099  0.61029035  1
  Sn  Sn13  1  0.25001566  0.38972010  0.00000000  1
  Sn  Sn14  1  0.24999885  0.61031936  0.61029035  1
  Sn  Sn15  1  0.24999885  0.00002901  0.38970965  1
