# generated using pymatgen
data_Er2S3
_symmetry_space_group_name_H-M   'P 1'
_cell_length_a   3.83776225
_cell_length_b   10.42032461
_cell_length_c   10.56962458
_cell_angle_alpha   90.00000000
_cell_angle_beta   90.00000000
_cell_angle_gamma   90.00000000
_symmetry_Int_Tables_number   1
_chemical_formula_structural   Er2S3
_chemical_formula_sum   'Er8 S12'
_cell_volume   422.68698609
_cell_formula_units_Z   4
loop_
 _symmetry_equiv_pos_site_id
 _symmetry_equiv_pos_as_xyz
  1  'x, y, z'
loop_
 _atom_site_type_symbol
 _atom_site_label
 _atom_site_symmetry_multiplicity
 _atom_site_fract_x
 _atom_site_fract_y
 _atom_site_fract_z
 _atom_site_occupancy
  Er  Er0  1  0.25000000  0.18767541  0.49209009  1
  Er  Er1  1  0.25000000  0.31232459  0.99209009  1
  Er  Er2  1  0.75000000  0.81232459  0.50790991  1
  Er  Er3  1  0.75000000  0.68767541  0.00790991  1
  Er  Er4  1  0.75000000  0.49525668  0.69156770  1
  Er  Er5  1  0.75000000  0.00474332  0.19156770  1
  Er  Er6  1  0.25000000  0.50474332  0.30843230  1
  Er  Er7  1  0.25000000  0.99525668  0.80843230  1
  S  S8  1  0.25000000  0.62662372  0.54480468  1
  S  S9  1  0.25000000  0.87337628  0.04480468  1
  S  S10  1  0.75000000  0.37337628  0.45519532  1
  S  S11  1  0.75000000  0.12662372  0.95519532  1
  S  S12  1  0.75000000  0.05414866  0.61939781  1
  S  S13  1  0.75000000  0.44585134  0.11939781  1
  S  S14  1  0.25000000  0.94585134  0.38060219  1
  S  S15  1  0.25000000  0.55414866  0.88060219  1
  S  S16  1  0.25000000  0.30376824  0.72956172  1
  S  S17  1  0.25000000  0.19623176  0.22956172  1
  S  S18  1  0.75000000  0.69623176  0.27043828  1
  S  S19  1  0.75000000  0.80376824  0.77043828  1
