# generated using pymatgen
data_Tb5Ge3C
_symmetry_space_group_name_H-M   'P 1'
_cell_length_a   6.49644673
_cell_length_b   8.54577739
_cell_length_c   8.54581908
_cell_angle_alpha   119.99984112
_cell_angle_beta   90.00000000
_cell_angle_gamma   90.00000000
_symmetry_Int_Tables_number   1
_chemical_formula_structural   Tb5Ge3C
_chemical_formula_sum   'Tb10 Ge6 C2'
_cell_volume   410.87761283
_cell_formula_units_Z   2
loop_
 _symmetry_equiv_pos_site_id
 _symmetry_equiv_pos_as_xyz
  1  'x, y, z'
loop_
 _atom_site_type_symbol
 _atom_site_label
 _atom_site_symmetry_multiplicity
 _atom_site_fract_x
 _atom_site_fract_y
 _atom_site_fract_z
 _atom_site_occupancy
  Tb  Tb0  1  0.49999952  0.33332804  0.66666401  1
  Tb  Tb1  1  0.49999952  0.66666403  0.33333599  1
  Tb  Tb2  1  0.99999952  0.66667196  0.33333599  1
  Tb  Tb3  1  0.99999952  0.33333597  0.66666401  1
  Tb  Tb4  1  0.75001188  0.22245614  0.00000000  1
  Tb  Tb5  1  0.74999445  0.77755381  0.77754569  1
  Tb  Tb6  1  0.74999445  0.00000812  0.22245431  1
  Tb  Tb7  1  0.25001188  0.77754386  1.00000000  1
  Tb  Tb8  1  0.24999445  0.22244619  0.22245431  1
  Tb  Tb9  1  0.24999445  0.99999188  0.77754569  1
  Ge  Ge10  1  0.74999565  0.59173013  0.00000000  1
  Ge  Ge11  1  0.75000235  0.40825893  0.40824550  1
  Ge  Ge12  1  0.75000235  0.00001342  0.59175450  1
  Ge  Ge13  1  0.24999565  0.40826987  1.00000000  1
  Ge  Ge14  1  0.25000235  0.59174107  0.59175450  1
  Ge  Ge15  1  0.25000235  0.99998658  0.40824550  1
  C  C16  1  0.49999983  0.00001094  1.00000000  1
  C  C17  1  0.99999983  0.99998906  0.00000000  1
