# generated using pymatgen
data_Ho3Al2
_symmetry_space_group_name_H-M   'P 1'
_cell_length_a   7.76407502
_cell_length_b   8.15592899
_cell_length_c   8.15592899
_cell_angle_alpha   90.00000000
_cell_angle_beta   90.00000000
_cell_angle_gamma   90.00000000
_symmetry_Int_Tables_number   1
_chemical_formula_structural   Ho3Al2
_chemical_formula_sum   'Ho12 Al8'
_cell_volume   516.45988585
_cell_formula_units_Z   4
loop_
 _symmetry_equiv_pos_site_id
 _symmetry_equiv_pos_as_xyz
  1  'x, y, z'
loop_
 _atom_site_type_symbol
 _atom_site_label
 _atom_site_symmetry_multiplicity
 _atom_site_fract_x
 _atom_site_fract_y
 _atom_site_fract_z
 _atom_site_occupancy
  Ho  Ho0  1  0.50000000  0.30954877  0.69045123  1
  Ho  Ho1  1  0.50000000  0.69045123  0.30954877  1
  Ho  Ho2  1  0.00000000  0.19045123  0.19045123  1
  Ho  Ho3  1  0.00000000  0.80954877  0.80954877  1
  Ho  Ho4  1  0.00000000  0.34043351  0.65956649  1
  Ho  Ho5  1  -0.00000000  0.65956649  0.34043351  1
  Ho  Ho6  1  0.50000000  0.15956649  0.15956649  1
  Ho  Ho7  1  0.50000000  0.84043351  0.84043351  1
  Ho  Ho8  1  0.25000000  0.00000000  0.50000000  1
  Ho  Ho9  1  0.75000000  0.50000000  0.00000000  1
  Ho  Ho10  1  0.75000000  0.00000000  0.50000000  1
  Ho  Ho11  1  0.25000000  0.50000000  0.00000000  1
  Al  Al12  1  0.22013606  0.12031006  0.87968994  1
  Al  Al13  1  0.22013606  0.87968994  0.12031006  1
  Al  Al14  1  0.72013606  0.37968994  0.37968994  1
  Al  Al15  1  0.72013606  0.62031006  0.62031006  1
  Al  Al16  1  0.77986394  0.87968994  0.12031006  1
  Al  Al17  1  0.77986394  0.12031006  0.87968994  1
  Al  Al18  1  0.27986394  0.62031006  0.62031006  1
  Al  Al19  1  0.27986394  0.37968994  0.37968994  1
