# generated using pymatgen
data_NpPt3
_symmetry_space_group_name_H-M   'P 1'
_cell_length_a   5.79497491
_cell_length_b   5.79497491
_cell_length_c   9.84179505
_cell_angle_alpha   90.00000000
_cell_angle_beta   90.00000000
_cell_angle_gamma   119.89986598
_symmetry_Int_Tables_number   1
_chemical_formula_structural   NpPt3
_chemical_formula_sum   'Np4 Pt12'
_cell_volume   286.51370169
_cell_formula_units_Z   4
loop_
 _symmetry_equiv_pos_site_id
 _symmetry_equiv_pos_as_xyz
  1  'x, y, z'
loop_
 _atom_site_type_symbol
 _atom_site_label
 _atom_site_symmetry_multiplicity
 _atom_site_fract_x
 _atom_site_fract_y
 _atom_site_fract_z
 _atom_site_occupancy
  Np  Np0  1  -0.00000000  -0.00000000  0.50000000  1
  Np  Np1  1  -0.00000000  -0.00000000  0.00000000  1
  Np  Np2  1  0.66675753  0.33324247  0.75000000  1
  Np  Np3  1  0.33324247  0.66675753  0.25000000  1
  Pt  Pt4  1  0.50000000  -0.00000000  0.50000000  1
  Pt  Pt5  1  0.50000000  0.50000000  0.50000000  1
  Pt  Pt6  1  -0.00000000  0.50000000  0.50000000  1
  Pt  Pt7  1  0.50000000  -0.00000000  0.00000000  1
  Pt  Pt8  1  0.50000000  0.50000000  0.00000000  1
  Pt  Pt9  1  -0.00000000  0.50000000  0.00000000  1
  Pt  Pt10  1  0.16971328  0.83028672  0.75000000  1
  Pt  Pt11  1  0.66089392  0.83059305  0.75000000  1
  Pt  Pt12  1  0.16940695  0.33910608  0.75000000  1
  Pt  Pt13  1  0.83028672  0.16971328  0.25000000  1
  Pt  Pt14  1  0.33910608  0.16940695  0.25000000  1
  Pt  Pt15  1  0.83059305  0.66089392  0.25000000  1
