# generated using pymatgen
data_Cs2InCuBr6
_symmetry_space_group_name_H-M   'P 1'
_cell_length_a   7.73249764
_cell_length_b   7.73249798
_cell_length_c   7.73249796
_cell_angle_alpha   59.99999889
_cell_angle_beta   59.99999837
_cell_angle_gamma   59.99999847
_symmetry_Int_Tables_number   1
_chemical_formula_structural   Cs2InCuBr6
_chemical_formula_sum   'Cs2 In1 Cu1 Br6'
_cell_volume   326.92220049
_cell_formula_units_Z   1
loop_
 _symmetry_equiv_pos_site_id
 _symmetry_equiv_pos_as_xyz
  1  'x, y, z'
loop_
 _atom_site_type_symbol
 _atom_site_label
 _atom_site_symmetry_multiplicity
 _atom_site_fract_x
 _atom_site_fract_y
 _atom_site_fract_z
 _atom_site_occupancy
  Cs  Cs0  1  0.25000000  0.25000000  0.25000000  1
  Cs  Cs1  1  0.75000000  0.75000000  0.75000000  1
  In  In2  1  0.00000000  -0.00000000  -0.00000000  1
  Cu  Cu3  1  0.50000000  0.50000000  0.50000000  1
  Br  Br4  1  0.25412830  0.74587170  0.25412830  1
  Br  Br5  1  0.74587170  0.74587170  0.25412830  1
  Br  Br6  1  0.74587170  0.25412830  0.74587170  1
  Br  Br7  1  0.74587170  0.25412830  0.25412830  1
  Br  Br8  1  0.25412830  0.74587170  0.74587170  1
  Br  Br9  1  0.25412830  0.25412830  0.74587170  1
