# generated using pymatgen
data_NaTi3F10
_symmetry_space_group_name_H-M   'P 1'
_cell_length_a   7.69641464
_cell_length_b   7.71131242
_cell_length_c   8.87327669
_cell_angle_alpha   77.50094076
_cell_angle_beta   64.29835064
_cell_angle_gamma   60.06389431
_symmetry_Int_Tables_number   1
_chemical_formula_structural   NaTi3F10
_chemical_formula_sum   'Na2 Ti6 F20'
_cell_volume   411.21274423
_cell_formula_units_Z   2
loop_
 _symmetry_equiv_pos_site_id
 _symmetry_equiv_pos_as_xyz
  1  'x, y, z'
loop_
 _atom_site_type_symbol
 _atom_site_label
 _atom_site_symmetry_multiplicity
 _atom_site_fract_x
 _atom_site_fract_y
 _atom_site_fract_z
 _atom_site_occupancy
  Na  Na0  1  0.98593998  1.00000000  1.00000000  1
  Na  Na1  1  0.73593998  0.50000000  0.50000000  1
  Ti  Ti2  1  0.50459866  0.00000000  0.00000000  1
  Ti  Ti3  1  0.25459866  0.50000000  0.50000000  1
  Ti  Ti4  1  0.75701046  0.00050484  0.50080463  1
  Ti  Ti5  1  0.25831993  0.99949516  0.49919537  1
  Ti  Ti6  1  0.50751430  0.49949516  0.00080463  1
  Ti  Ti7  1  0.00781509  0.50050484  0.99919537  1
  F  F8  1  0.87824389  0.00602273  0.26791593  1
  F  F9  1  0.15218155  0.99397727  0.73208407  1
  F  F10  1  0.63426663  0.49397727  0.76791593  1
  F  F11  1  0.89615982  0.50602273  0.23208407  1
  F  F12  1  0.79917914  0.41053270  0.00714049  1
  F  F13  1  0.21685133  0.58946730  0.99285951  1
  F  F14  1  0.95971084  0.08946730  0.50714049  1
  F  F15  1  0.55631962  0.91053270  0.49285951  1
  F  F16  1  0.34141641  0.70669087  0.49610841  1
  F  F17  1  0.54421469  0.29330913  0.50389159  1
  F  F18  1  0.79810628  0.79330913  0.99610841  1
  F  F19  1  0.58752382  0.20669087  0.00389159  1
  F  F20  1  0.37762098  0.00005961  0.25098040  1
  F  F21  1  0.62866099  0.99994039  0.74901960  1
  F  F22  1  0.12768060  0.49994039  0.75098040  1
  F  F23  1  0.37860038  0.50005961  0.24901960  1
  F  F24  1  0.96719862  0.71137199  0.50279577  1
  F  F25  1  0.18136638  0.28862801  0.49720423  1
  F  F26  1  0.42857061  0.78862801  0.00279577  1
  F  F27  1  0.21999339  0.21137199  0.99720423  1
