# generated using pymatgen
data_MnSiO3
_symmetry_space_group_name_H-M   'P 1'
_cell_length_a   5.37021768
_cell_length_b   9.30907995
_cell_length_c   9.75113966
_cell_angle_alpha   90.00000000
_cell_angle_beta   103.11037041
_cell_angle_gamma   90.00000000
_symmetry_Int_Tables_number   1
_chemical_formula_structural   MnSiO3
_chemical_formula_sum   'Mn8 Si8 O24'
_cell_volume   474.77076480
_cell_formula_units_Z   8
loop_
 _symmetry_equiv_pos_site_id
 _symmetry_equiv_pos_as_xyz
  1  'x, y, z'
loop_
 _atom_site_type_symbol
 _atom_site_label
 _atom_site_symmetry_multiplicity
 _atom_site_fract_x
 _atom_site_fract_y
 _atom_site_fract_z
 _atom_site_occupancy
  Mn  Mn0  1  0.48101948  0.15066518  0.74893527  1
  Mn  Mn1  1  0.98101948  0.34933482  0.74893527  1
  Mn  Mn2  1  0.02418002  0.01792063  0.25344288  1
  Mn  Mn3  1  0.97581998  0.98207937  0.74655712  1
  Mn  Mn4  1  0.47581998  0.51792063  0.74655712  1
  Mn  Mn5  1  0.01898052  0.65066518  0.25106473  1
  Mn  Mn6  1  0.51898052  0.84933482  0.25106473  1
  Mn  Mn7  1  0.52418002  0.48207937  0.25344288  1
  Si  Si8  1  0.25653031  0.16161613  0.04341916  1
  Si  Si9  1  0.24346969  0.66161613  0.95658084  1
  Si  Si10  1  0.74346969  0.83838387  0.95658084  1
  Si  Si11  1  0.69525694  0.16477540  0.45010823  1
  Si  Si12  1  0.30474306  0.83522460  0.54989177  1
  Si  Si13  1  0.19525694  0.33522460  0.45010823  1
  Si  Si14  1  0.75653031  0.33838387  0.04341916  1
  Si  Si15  1  0.80474306  0.66477540  0.54989177  1
  O  O16  1  0.28429845  0.00734414  0.12051248  1
  O  O17  1  0.51507987  0.26322427  0.10138189  1
  O  O18  1  0.73269406  0.65880428  0.37764241  1
  O  O19  1  0.76730594  0.15880428  0.62235759  1
  O  O20  1  0.21570155  0.50734414  0.87948752  1
  O  O21  1  0.69254379  0.34113312  0.87154910  1
  O  O22  1  0.71570155  0.99265586  0.87948752  1
  O  O23  1  0.11520574  0.71087254  0.60090147  1
  O  O24  1  0.19254379  0.15886688  0.87154910  1
  O  O25  1  0.30745621  0.65886688  0.12845090  1
  O  O26  1  0.01507987  0.23677573  0.10138189  1
  O  O27  1  0.78429845  0.49265586  0.12051248  1
  O  O28  1  0.98492013  0.76322427  0.89861811  1
  O  O29  1  0.25492825  0.98065116  0.62948852  1
  O  O30  1  0.38479426  0.21087254  0.39909853  1
  O  O31  1  0.74507175  0.01934884  0.37051148  1
  O  O32  1  0.61520574  0.78912746  0.60090147  1
  O  O33  1  0.23269406  0.84119572  0.37764241  1
  O  O34  1  0.48492013  0.73677573  0.89861811  1
  O  O35  1  0.75492825  0.51934884  0.62948852  1
  O  O36  1  0.80745621  0.84113312  0.12845090  1
  O  O37  1  0.26730594  0.34119572  0.62235759  1
  O  O38  1  0.24507175  0.48065116  0.37051148  1
  O  O39  1  0.88479426  0.28912746  0.39909853  1
