# generated using pymatgen
data_NdTa3O9
_symmetry_space_group_name_H-M   'P 1'
_cell_length_a   5.57373347
_cell_length_b   16.72600227
_cell_length_c   9.69083337
_cell_angle_alpha   54.89576485
_cell_angle_beta   90.19844914
_cell_angle_gamma   90.34516234
_symmetry_Int_Tables_number   1
_chemical_formula_structural   NdTa3O9
_chemical_formula_sum   'Nd4 Ta12 O36'
_cell_volume   739.09764103
_cell_formula_units_Z   4
loop_
 _symmetry_equiv_pos_site_id
 _symmetry_equiv_pos_as_xyz
  1  'x, y, z'
loop_
 _atom_site_type_symbol
 _atom_site_label
 _atom_site_symmetry_multiplicity
 _atom_site_fract_x
 _atom_site_fract_y
 _atom_site_fract_z
 _atom_site_occupancy
  Nd  Nd0  1  0.26268599  0.91200947  0.00016604  1
  Nd  Nd1  1  0.25925124  0.24975309  0.99878499  1
  Nd  Nd2  1  0.73731401  0.75465753  0.99983396  1
  Nd  Nd3  1  0.74074876  0.41691391  0.00121501  1
  Ta  Ta4  1  0.24809237  0.99912603  0.24995893  1
  Ta  Ta5  1  0.25022071  0.83527540  0.73508906  1
  Ta  Ta6  1  0.25089809  0.50607843  0.74393367  1
  Ta  Ta7  1  0.25060653  0.65917104  0.26151307  1
  Ta  Ta8  1  0.25018770  0.33237425  0.26289359  1
  Ta  Ta9  1  0.24753597  0.16730721  0.74613438  1
  Ta  Ta10  1  0.74977929  0.83139060  0.26491094  1
  Ta  Ta11  1  0.75190763  0.66754097  0.75004107  1
  Ta  Ta12  1  0.75246403  0.49935979  0.25386562  1
  Ta  Ta13  1  0.74981230  0.33429175  0.73710641  1
  Ta  Ta14  1  0.74910191  0.16058857  0.25606633  1
  Ta  Ta15  1  0.74939347  0.00749596  0.73848693  1
  O  O16  1  0.01077621  0.92596053  0.20748897  1
  O  O17  1  0.99983641  0.76106559  0.21687522  1
  O  O18  1  0.98731738  0.41716897  0.23344422  1
  O  O19  1  0.01284469  0.09359306  0.23407996  1
  O  O20  1  0.22112971  0.90935699  0.49685564  1
  O  O21  1  0.22313725  0.57304548  0.50088997  1
  O  O22  1  0.22186146  0.23977734  0.50241277  1
  O  O23  1  0.29635772  0.76648071  0.99980280  1
  O  O24  1  0.29018611  0.42066417  0.99977299  1
  O  O25  1  0.27366810  0.09637132  0.00020686  1
  O  O26  1  0.50011907  0.91947785  0.74135489  1
  O  O27  1  0.49011916  0.91876823  0.23247173  1
  O  O28  1  0.50988084  0.74789877  0.76752827  1
  O  O29  1  0.49988093  0.74718915  0.25864511  1
  O  O30  1  0.50823803  0.58587841  0.73479329  1
  O  O31  1  0.51058005  0.59306532  0.23128284  1
  O  O32  1  0.50066826  0.40821342  0.77436584  1
  O  O33  1  0.50795881  0.40916200  0.26459698  1
  O  O34  1  0.49204119  0.25750500  0.73540302  1
  O  O35  1  0.49933174  0.25845258  0.22563416  1
  O  O36  1  0.48941995  0.07360168  0.76871716  1
  O  O37  1  0.49176197  0.08078759  0.26520671  1
  O  O38  1  0.70364228  0.90018529  0.00019720  1
  O  O39  1  0.72633190  0.57029568  0.99979314  1
  O  O40  1  0.70981389  0.24600283  0.00022701  1
  O  O41  1  0.77887029  0.75730901  0.50314436  1
  O  O42  1  0.77813854  0.42688966  0.49758723  1
  O  O43  1  0.77686275  0.09362152  0.49911003  1
  O  O44  1  0.00016359  0.90560041  0.78312478  1
  O  O45  1  0.98922379  0.74070647  0.79251103  1
  O  O46  1  0.98715531  0.57307394  0.76592004  1
  O  O47  1  0.98877925  0.60236458  0.20674771  1
  O  O48  1  0.99932016  0.39819340  0.80454947  1
  O  O49  1  0.01268262  0.24949803  0.76655578  1
  O  O50  1  0.00067984  0.26847260  0.19545053  1
  O  O51  1  0.01122075  0.06430242  0.79325229  1
