# generated using pymatgen
data_CeSe2
_symmetry_space_group_name_H-M   'P 1'
_cell_length_a   4.33614401
_cell_length_b   7.07562026
_cell_length_c   13.55855366
_cell_angle_alpha   90.00000000
_cell_angle_beta   90.00000000
_cell_angle_gamma   90.00000000
_symmetry_Int_Tables_number   1
_chemical_formula_structural   CeSe2
_chemical_formula_sum   'Ce4 Se8'
_cell_volume   415.98874298
_cell_formula_units_Z   4
loop_
 _symmetry_equiv_pos_site_id
 _symmetry_equiv_pos_as_xyz
  1  'x, y, z'
loop_
 _atom_site_type_symbol
 _atom_site_label
 _atom_site_symmetry_multiplicity
 _atom_site_fract_x
 _atom_site_fract_y
 _atom_site_fract_z
 _atom_site_occupancy
  Ce  Ce0  1  0.25000000  0.55061195  0.63427788  1
  Ce  Ce1  1  0.25000000  0.94938805  0.13427788  1
  Ce  Ce2  1  0.75000000  0.44938805  0.36572212  1
  Ce  Ce3  1  0.75000000  0.05061195  0.86572212  1
  Se  Se4  1  0.25000000  0.86942295  0.76572748  1
  Se  Se5  1  0.25000000  0.63057705  0.26572748  1
  Se  Se6  1  0.75000000  0.13057705  0.23427252  1
  Se  Se7  1  0.75000000  0.36942295  0.73427252  1
  Se  Se8  1  0.25000000  0.28510853  0.47496858  1
  Se  Se9  1  0.25000000  0.21489147  0.97496858  1
  Se  Se10  1  0.75000000  0.71489147  0.52503142  1
  Se  Se11  1  0.75000000  0.78510853  0.02503142  1
