# generated using pymatgen
data_Sr2YCoCu2O7
_symmetry_space_group_name_H-M   'P 1'
_cell_length_a   5.42265307
_cell_length_b   5.50628916
_cell_length_c   12.18758793
_cell_angle_alpha   103.09478276
_cell_angle_beta   102.92100275
_cell_angle_gamma   90.06493277
_symmetry_Int_Tables_number   1
_chemical_formula_structural   Sr2YCoCu2O7
_chemical_formula_sum   'Sr4 Y2 Co2 Cu4 O14'
_cell_volume   344.95341093
_cell_formula_units_Z   2
loop_
 _symmetry_equiv_pos_site_id
 _symmetry_equiv_pos_as_xyz
  1  'x, y, z'
loop_
 _atom_site_type_symbol
 _atom_site_label
 _atom_site_symmetry_multiplicity
 _atom_site_fract_x
 _atom_site_fract_y
 _atom_site_fract_z
 _atom_site_occupancy
  Sr  Sr0  1  0.14981789  0.16230444  0.30519561  1
  Sr  Sr1  1  0.34400863  0.35991173  0.69506202  1
  Sr  Sr2  1  0.64861914  0.64259166  0.30526579  1
  Sr  Sr3  1  0.84619709  0.83984935  0.69454128  1
  Y  Y4  1  0.99620484  0.99764827  0.99990887  1
  Y  Y5  1  0.49669836  0.49815568  0.00014192  1
  Co  Co6  1  0.22031395  0.81153387  0.50108740  1
  Co  Co7  1  0.71818408  0.19295655  0.49888826  1
  Cu  Cu8  1  0.07168857  0.57172613  0.14752227  1
  Cu  Cu9  1  0.42415449  0.92433368  0.84990717  1
  Cu  Cu10  1  0.57235011  0.07273059  0.14885968  1
  Cu  Cu11  1  0.92559510  0.42621989  0.85355918  1
  O  O12  1  0.18671111  0.18985132  0.86905076  1
  O  O13  1  0.18113706  0.69267624  0.87781887  1
  O  O14  1  0.20524571  0.63173669  0.35415710  1
  O  O15  1  0.34504785  0.78827819  0.65052553  1
  O  O16  1  0.36158455  0.13714842  0.50050240  1
  O  O17  1  0.30260716  0.30232114  0.12122049  1
  O  O18  1  0.31837490  0.80839842  0.13016282  1
  O  O19  1  0.69091226  0.18124250  0.87060883  1
  O  O20  1  0.68299733  0.67996237  0.87743339  1
  O  O21  1  0.69309376  0.21589646  0.34953586  1
  O  O22  1  0.84821209  0.37102066  0.64640194  1
  O  O23  1  0.86263353  0.86794545  0.49921075  1
  O  O24  1  0.80372090  0.31565422  0.12338360  1
  O  O25  1  0.81788955  0.81790608  0.13004820  1
