# generated using pymatgen
data_Na5Ni2P2(CO7)2
_symmetry_space_group_name_H-M   'P 1'
_cell_length_a   8.88647022
_cell_length_b   10.43526569
_cell_length_c   6.63903340
_cell_angle_alpha   90.08795310
_cell_angle_beta   90.21178759
_cell_angle_gamma   88.49891204
_symmetry_Int_Tables_number   1
_chemical_formula_structural   Na5Ni2P2(CO7)2
_chemical_formula_sum   'Na10 Ni4 P4 C4 O28'
_cell_volume   615.43922728
_cell_formula_units_Z   2
loop_
 _symmetry_equiv_pos_site_id
 _symmetry_equiv_pos_as_xyz
  1  'x, y, z'
loop_
 _atom_site_type_symbol
 _atom_site_label
 _atom_site_symmetry_multiplicity
 _atom_site_fract_x
 _atom_site_fract_y
 _atom_site_fract_z
 _atom_site_occupancy
  Na  Na0  1  0.08062292  0.38933974  0.25941735  1
  Na  Na1  1  0.26639509  0.12076207  0.01046433  1
  Na  Na2  1  0.26728307  0.11899412  0.48917596  1
  Na  Na3  1  0.27018879  0.63378601  0.00976958  1
  Na  Na4  1  0.27056394  0.63529344  0.48847233  1
  Na  Na5  1  0.72211237  0.37470765  0.97604736  1
  Na  Na6  1  0.73538197  0.86986739  0.50704374  1
  Na  Na7  1  0.73735163  0.87275535  0.99615546  1
  Na  Na8  1  0.91407138  0.11526732  0.74017763  1
  Na  Na9  1  0.91262564  0.60496543  0.73972532  1
  Ni  Ni10  1  0.34792894  0.38939712  0.74765067  1
  Ni  Ni11  1  0.34585269  0.88939615  0.75143612  1
  Ni  Ni12  1  0.65318039  0.11396387  0.25446066  1
  Ni  Ni13  1  0.65425006  0.60594485  0.25444411  1
  P  P14  1  0.42008907  0.35978800  0.25008594  1
  P  P15  1  0.42161534  0.85909020  0.25014753  1
  P  P16  1  0.57946669  0.13928228  0.75128437  1
  P  P17  1  0.58150480  0.64402480  0.75048806  1
  C  C18  1  0.06753090  0.35580332  0.75571072  1
  C  C19  1  0.06480361  0.85746256  0.74996211  1
  C  C20  1  0.93380888  0.14350109  0.24767605  1
  C  C21  1  0.93627230  0.64253481  0.24672806  1
  O  O22  1  0.07627574  0.15916855  0.24950408  1
  O  O23  1  0.07871849  0.65384023  0.24878375  1
  O  O24  1  0.12620770  0.46980359  0.74797662  1
  O  O25  1  0.12208476  0.97101770  0.74918483  1
  O  O26  1  0.16259790  0.25774916  0.74700181  1
  O  O27  1  0.15997201  0.75970748  0.74929043  1
  O  O28  1  0.31674185  0.39247888  0.06462559  1
  O  O29  1  0.32038580  0.39552658  0.43568245  1
  O  O30  1  0.32399409  0.89547666  0.06333565  1
  O  O31  1  0.32586920  0.89523400  0.43797481  1
  O  O32  1  0.42932542  0.06718165  0.75266686  1
  O  O33  1  0.43253415  0.57104867  0.74803602  1
  O  O34  1  0.45420132  0.21112044  0.25078433  1
  O  O35  1  0.45551952  0.71133944  0.24944838  1
  O  O36  1  0.53977225  0.28482370  0.75654353  1
  O  O37  1  0.54407763  0.79178093  0.75881468  1
  O  O38  1  0.56780499  0.43152454  0.24294840  1
  O  O39  1  0.57196606  0.93101926  0.25016750  1
  O  O40  1  0.67714167  0.10142081  0.56571623  1
  O  O41  1  0.68044420  0.10427039  0.93705231  1
  O  O42  1  0.68067262  0.61915386  0.56212176  1
  O  O43  1  0.68155405  0.60704991  0.93551101  1
  O  O44  1  0.83899606  0.24011946  0.24033797  1
  O  O45  1  0.84142665  0.73949166  0.25047575  1
  O  O46  1  0.87253616  0.03177650  0.25543964  1
  O  O47  1  0.87710784  0.52974780  0.24251824  1
  O  O48  1  0.92662442  0.34179881  0.77048007  1
  O  O49  1  0.92222096  0.84143176  0.75120982  1
