# generated using pymatgen
data_Li7Co5O12
_symmetry_space_group_name_H-M   'P 1'
_cell_length_a   5.69351413
_cell_length_b   6.40723431
_cell_length_c   6.41727799
_cell_angle_alpha   83.19644492
_cell_angle_beta   116.09514682
_cell_angle_gamma   77.06052620
_symmetry_Int_Tables_number   1
_chemical_formula_structural   Li7Co5O12
_chemical_formula_sum   'Li7 Co5 O12'
_cell_volume   198.50388663
_cell_formula_units_Z   1
loop_
 _symmetry_equiv_pos_site_id
 _symmetry_equiv_pos_as_xyz
  1  'x, y, z'
loop_
 _atom_site_type_symbol
 _atom_site_label
 _atom_site_symmetry_multiplicity
 _atom_site_fract_x
 _atom_site_fract_y
 _atom_site_fract_z
 _atom_site_occupancy
  Li  Li0  1  0.24163272  0.00142988  0.50420859  1
  Li  Li1  1  0.75126938  0.32055740  0.16660994  1
  Li  Li2  1  0.74737378  0.67283699  0.83518356  1
  Li  Li3  1  0.25262622  0.32716301  0.16481644  1
  Li  Li4  1  0.75836728  0.99857012  0.49579141  1
  Li  Li5  1  0.24873062  0.67944260  0.83339006  1
  Li  Li6  1  0.50000000  0.00000000  -0.00000000  1
  Co  Co7  1  -0.00000000  0.00000000  -0.00000000  1
  Co  Co8  1  0.50030157  0.32735608  0.67286254  1
  Co  Co9  1  0.99828401  0.66745564  0.33218107  1
  Co  Co10  1  0.00171599  0.33254436  0.66781893  1
  Co  Co11  1  0.49969843  0.67264392  0.32713746  1
  O  O12  1  0.88504209  0.98320038  0.24201299  1
  O  O13  1  0.36021456  0.34121306  0.88316634  1
  O  O14  1  0.37296579  0.64831156  0.56305311  1
  O  O15  1  0.86891303  0.32070721  0.89981405  1
  O  O16  1  0.36340711  0.97433271  0.24596539  1
  O  O17  1  0.86389972  0.65546487  0.56137741  1
  O  O18  1  0.63659289  0.02566729  0.75403461  1
  O  O19  1  0.13610028  0.34453513  0.43862259  1
  O  O20  1  0.13108697  0.67929279  0.10018595  1
  O  O21  1  0.62703421  0.35168844  0.43694689  1
  O  O22  1  0.11495791  0.01679962  0.75798701  1
  O  O23  1  0.63978544  0.65878694  0.11683366  1
