# generated using pymatgen
data_MnZn4O5
_symmetry_space_group_name_H-M   'P 1'
_cell_length_a   3.32536859
_cell_length_b   12.69525093
_cell_length_c   6.29027993
_cell_angle_alpha   86.68611644
_cell_angle_beta   105.32878937
_cell_angle_gamma   89.99720592
_symmetry_Int_Tables_number   1
_chemical_formula_structural   MnZn4O5
_chemical_formula_sum   'Mn2 Zn8 O10'
_cell_volume   255.64511869
_cell_formula_units_Z   2
loop_
 _symmetry_equiv_pos_site_id
 _symmetry_equiv_pos_as_xyz
  1  'x, y, z'
loop_
 _atom_site_type_symbol
 _atom_site_label
 _atom_site_symmetry_multiplicity
 _atom_site_fract_x
 _atom_site_fract_y
 _atom_site_fract_z
 _atom_site_occupancy
  Mn  Mn0  1  0.13360888  0.76722692  0.26740231  1
  Mn  Mn1  1  0.93376484  0.36565332  0.86761412  1
  Zn  Zn2  1  0.06800901  0.13176263  0.13594038  1
  Zn  Zn3  1  0.26634365  0.53366172  0.53296834  1
  Zn  Zn4  1  0.46568447  0.93497360  0.93155714  1
  Zn  Zn5  1  0.33278462  0.16493768  0.66566923  1
  Zn  Zn6  1  0.66801722  0.33226764  0.33616724  1
  Zn  Zn7  1  0.86824936  0.73249764  0.73630801  1
  Zn  Zn8  1  0.73468460  0.96801811  0.46924764  1
  Zn  Zn9  1  0.53366621  0.56629080  0.06720585  1
  O  O10  1  0.21963089  0.05635193  0.43918726  1
  O  O11  1  0.01747600  0.65394299  0.03481285  1
  O  O12  1  0.41775886  0.46177095  0.83571396  1
  O  O13  1  0.48576854  0.09149102  0.97148655  1
  O  O14  1  0.28992101  0.68896545  0.57965489  1
  O  O15  1  0.09033392  0.28789321  0.18077742  1
  O  O16  1  0.81653494  0.25286869  0.63321184  1
  O  O17  1  0.61785033  0.86377849  0.23585472  1
  O  O18  1  0.68567941  0.48993546  0.37156577  1
  O  O19  1  0.88583224  0.88991174  0.77185547  1
