# generated using pymatgen
data_Li4MnCrO6
_symmetry_space_group_name_H-M   'P 1'
_cell_length_a   5.00350995
_cell_length_b   5.00350969
_cell_length_c   9.70599312
_cell_angle_alpha   85.31243267
_cell_angle_beta   94.68757309
_cell_angle_gamma   60.57451746
_symmetry_Int_Tables_number   1
_chemical_formula_structural   Li4MnCrO6
_chemical_formula_sum   'Li8 Mn2 Cr2 O12'
_cell_volume   208.84667645
_cell_formula_units_Z   2
loop_
 _symmetry_equiv_pos_site_id
 _symmetry_equiv_pos_as_xyz
  1  'x, y, z'
loop_
 _atom_site_type_symbol
 _atom_site_label
 _atom_site_symmetry_multiplicity
 _atom_site_fract_x
 _atom_site_fract_y
 _atom_site_fract_z
 _atom_site_occupancy
  Li  Li0  1  0.00076106  0.50069292  0.00001411  1
  Li  Li1  1  0.25203026  0.25203026  0.75000000  1
  Li  Li2  1  0.15867323  0.66208871  0.49952549  1
  Li  Li3  1  0.50069292  0.00076106  0.49998589  1
  Li  Li4  1  0.33614405  0.83970585  0.99950412  1
  Li  Li5  1  0.66208871  0.15867323  0.00047451  1
  Li  Li6  1  0.83970585  0.33614405  0.50049588  1
  Li  Li7  1  0.75205728  0.75205728  0.25000000  1
  Mn  Mn8  1  0.08203996  0.08203996  0.25000000  1
  Mn  Mn9  1  0.58201862  0.58201862  0.75000000  1
  Cr  Cr10  1  0.42073475  0.42073475  0.25000000  1
  Cr  Cr11  1  0.92045994  0.92045994  0.75000000  1
  O  O12  1  0.14534228  0.35426689  0.36393865  1
  O  O13  1  0.35426689  0.14534228  0.13606135  1
  O  O14  1  0.29294760  0.56481566  0.86360448  1
  O  O15  1  0.06450448  0.79362014  0.13618218  1
  O  O16  1  0.21264385  0.92627049  0.63862546  1
  O  O17  1  0.56481566  0.29294760  0.63639552  1
  O  O18  1  0.42659647  0.71232665  0.36122749  1
  O  O19  1  0.79362014  0.06450448  0.36381782  1
  O  O20  1  0.92627049  0.21264385  0.86137454  1
  O  O21  1  0.71232665  0.42659647  0.13877251  1
  O  O22  1  0.64532176  0.85393708  0.86412943  1
  O  O23  1  0.85393708  0.64532176  0.63587057  1
