# generated using pymatgen
data_Li7Fe8(BO3)8
_symmetry_space_group_name_H-M   'P 1'
_cell_length_a   5.22126806
_cell_length_b   5.24126667
_cell_length_c   20.57736711
_cell_angle_alpha   89.10839438
_cell_angle_beta   90.43223836
_cell_angle_gamma   60.00720531
_symmetry_Int_Tables_number   1
_chemical_formula_structural   Li7Fe8(BO3)8
_chemical_formula_sum   'Li7 Fe8 B8 O24'
_cell_volume   487.57747245
_cell_formula_units_Z   1
loop_
 _symmetry_equiv_pos_site_id
 _symmetry_equiv_pos_as_xyz
  1  'x, y, z'
loop_
 _atom_site_type_symbol
 _atom_site_label
 _atom_site_symmetry_multiplicity
 _atom_site_fract_x
 _atom_site_fract_y
 _atom_site_fract_z
 _atom_site_occupancy
  Li  Li0  1  0.32287707  0.65477995  0.66682238  1
  Li  Li1  1  0.34546177  0.67857606  0.91722500  1
  Li  Li2  1  0.32479179  0.65155652  0.16822648  1
  Li  Li3  1  0.34985553  0.67587144  0.41542862  1
  Li  Li4  1  0.65362445  0.33273674  0.79246391  1
  Li  Li5  1  0.66699420  0.34493806  0.54253347  1
  Li  Li6  1  0.66636093  0.34516217  0.04475590  1
  Fe  Fe7  1  0.00018218  0.67286004  0.80886379  1
  Fe  Fe8  1  0.99112113  0.67334558  0.30706329  1
  Fe  Fe9  1  0.68042351  0.00518589  0.93465111  1
  Fe  Fe10  1  0.68369252  0.00631343  0.43320504  1
  Fe  Fe11  1  0.32327747  0.00380345  0.55850303  1
  Fe  Fe12  1  0.32463697  0.00197316  0.05892825  1
  Fe  Fe13  1  0.99509793  0.32098821  0.68482968  1
  Fe  Fe14  1  0.99188695  0.31969267  0.18648076  1
  B  B15  1  0.00262246  0.33821117  0.93676348  1
  B  B16  1  0.00487862  0.33628930  0.43526352  1
  B  B17  1  0.33126722  0.00523035  0.81182460  1
  B  B18  1  0.33101375  0.00654482  0.31248333  1
  B  B19  1  0.66248364  0.99562122  0.68656004  1
  B  B20  1  0.65697077  -0.00009514  0.18701030  1
  B  B21  1  0.99540007  0.66888420  0.56142152  1
  B  B22  1  0.99392657  0.66989756  0.06198558  1
  O  O23  1  0.06779527  0.25288801  0.79187943  1
  O  O24  1  0.09928197  0.27257269  0.29028252  1
  O  O25  1  0.25676935  0.06957440  0.95126263  1
  O  O26  1  0.02249797  0.58310033  0.91699888  1
  O  O27  1  0.25952273  0.07107763  0.45101411  1
  O  O28  1  0.02782473  0.57819282  0.41276833  1
  O  O29  1  0.58064489  0.02724552  0.82666803  1
  O  O30  1  0.26903186  0.65085156  0.56777166  1
  O  O31  1  0.60067597  0.98319744  0.32903119  1
  O  O32  1  0.26557973  0.65514932  0.06853697  1
  O  O33  1  0.35027021  0.73160898  0.81779109  1
  O  O34  1  0.29623044  0.76507053  0.32068513  1
  O  O35  1  0.63921165  0.27058826  0.69287845  1
  O  O36  1  0.64420437  0.26608757  0.18441531  1
  O  O37  1  0.72704238  0.36150077  0.94356912  1
  O  O38  1  0.41727662  0.97663799  0.66686294  1
  O  O39  1  0.72998920  0.36264582  0.44387271  1
  O  O40  1  0.41630621  0.97129336  0.16907590  1
  O  O41  1  0.97336813  0.41980400  0.57679979  1
  O  O42  1  0.97421326  0.42065991  0.07786202  1
  O  O43  1  0.74795859  0.92940348  0.54039803  1
  O  O44  1  0.74520016  0.93087938  0.04155202  1
  O  O45  1  0.93159484  0.74190430  0.70131659  1
  O  O46  1  0.92482896  0.74478408  0.20815204  1
