# generated using pymatgen
data_Na5LiFe2P2(CO7)2
_symmetry_space_group_name_H-M   'P 1'
_cell_length_a   8.93266320
_cell_length_b   6.69460139
_cell_length_c   10.38901851
_cell_angle_alpha   90.21697924
_cell_angle_beta   88.91629895
_cell_angle_gamma   89.64704904
_symmetry_Int_Tables_number   1
_chemical_formula_structural   Na5LiFe2P2(CO7)2
_chemical_formula_sum   'Na10 Li2 Fe4 P4 C4 O28'
_cell_volume   621.14209781
_cell_formula_units_Z   2
loop_
 _symmetry_equiv_pos_site_id
 _symmetry_equiv_pos_as_xyz
  1  'x, y, z'
loop_
 _atom_site_type_symbol
 _atom_site_label
 _atom_site_symmetry_multiplicity
 _atom_site_fract_x
 _atom_site_fract_y
 _atom_site_fract_z
 _atom_site_occupancy
  Na  Na0  1  0.08100134  0.24517946  0.87992470  1
  Na  Na1  1  0.08130974  0.25113658  0.38175712  1
  Na  Na2  1  0.26088533  0.00006615  0.62427843  1
  Na  Na3  1  0.26178532  0.50056018  0.62448974  1
  Na  Na4  1  0.26284113  0.00187100  0.12510847  1
  Na  Na5  1  0.26286344  0.49668744  0.12668030  1
  Na  Na6  1  0.73982338  0.50483609  0.87230544  1
  Na  Na7  1  0.73522659  0.50309612  0.38036214  1
  Na  Na8  1  0.73660051  0.99656923  0.37814069  1
  Na  Na9  1  0.91560975  0.75355732  0.11937533  1
  Li  Li10  1  0.72387720  0.98599552  0.87757774  1
  Li  Li11  1  0.90890935  0.75756204  0.62455089  1
  Fe  Fe12  1  0.35490720  0.74948328  0.88885135  1
  Fe  Fe13  1  0.35327922  0.75091377  0.39227966  1
  Fe  Fe14  1  0.64750647  0.24775713  0.61527783  1
  Fe  Fe15  1  0.64774298  0.24661102  0.10612824  1
  P  P16  1  0.41715169  0.24525494  0.84911592  1
  P  P17  1  0.41456838  0.24978929  0.35328798  1
  P  P18  1  0.59710523  0.75463792  0.65069526  1
  P  P19  1  0.58559513  0.74843983  0.14493633  1
  C  C20  1  0.05462822  0.75743329  0.85979487  1
  C  C21  1  0.05450458  0.75000070  0.36910106  1
  C  C22  1  0.93937848  0.24753832  0.63611312  1
  C  C23  1  0.93990067  0.24920625  0.13474487  1
  O  O24  1  0.08338840  0.25114131  0.64464717  1
  O  O25  1  0.08422000  0.25134607  0.14281870  1
  O  O26  1  0.11542690  0.75085696  0.97297924  1
  O  O27  1  0.10698294  0.75189513  0.48532734  1
  O  O28  1  0.14163972  0.74725624  0.75820386  1
  O  O29  1  0.14761290  0.75095012  0.27037249  1
  O  O30  1  0.31832986  0.06237321  0.88601096  1
  O  O31  1  0.32698738  0.43429681  0.89305735  1
  O  O32  1  0.31853423  0.06439393  0.39247071  1
  O  O33  1  0.31857501  0.43749675  0.39219578  1
  O  O34  1  0.43764339  0.25106177  0.69944361  1
  O  O35  1  0.44300076  0.75023452  0.58459442  1
  O  O36  1  0.43798792  0.24849846  0.20410036  1
  O  O37  1  0.43100890  0.74783094  0.08075346  1
  O  O38  1  0.57396955  0.23299536  0.90998476  1
  O  O39  1  0.57103855  0.77136439  0.80025343  1
  O  O40  1  0.56691187  0.24999980  0.42054644  1
  O  O41  1  0.56317313  0.75379042  0.29404186  1
  O  O42  1  0.69396279  0.56604455  0.61907304  1
  O  O43  1  0.69609544  0.93176434  0.60505678  1
  O  O44  1  0.68030270  0.56018749  0.10641316  1
  O  O45  1  0.68036776  0.93224648  0.10056155  1
  O  O46  1  0.85400037  0.24219968  0.73900464  1
  O  O47  1  0.85539221  0.24619315  0.23820957  1
  O  O48  1  0.87636533  0.24927969  0.52400031  1
  O  O49  1  0.87713167  0.24967554  0.02266093  1
  O  O50  1  0.91075166  0.77324346  0.84741526  1
  O  O51  1  0.91219934  0.74720355  0.35092637  1
