# generated using pymatgen
data_Na3CoO3
_symmetry_space_group_name_H-M   'P 1'
_cell_length_a   6.67813565
_cell_length_b   6.00461092
_cell_length_c   9.66697460
_cell_angle_alpha   90.00000000
_cell_angle_beta   93.66955116
_cell_angle_gamma   90.00000000
_symmetry_Int_Tables_number   1
_chemical_formula_structural   Na3CoO3
_chemical_formula_sum   'Na12 Co4 O12'
_cell_volume   386.84712068
_cell_formula_units_Z   4
loop_
 _symmetry_equiv_pos_site_id
 _symmetry_equiv_pos_as_xyz
  1  'x, y, z'
loop_
 _atom_site_type_symbol
 _atom_site_label
 _atom_site_symmetry_multiplicity
 _atom_site_fract_x
 _atom_site_fract_y
 _atom_site_fract_z
 _atom_site_occupancy
  Na  Na0  1  0.08018916  0.36037739  0.65112726  1
  Na  Na1  1  0.08018916  0.13962261  0.15112726  1
  Na  Na2  1  0.35276784  0.71856461  0.80891767  1
  Na  Na3  1  0.37018161  0.20329625  0.92047786  1
  Na  Na4  1  0.35276784  0.78143539  0.30891767  1
  Na  Na5  1  0.37018161  0.29670375  0.42047786  1
  Na  Na6  1  0.62981839  0.70329625  0.57952214  1
  Na  Na7  1  0.64723216  0.21856461  0.69108233  1
  Na  Na8  1  0.62981839  0.79670375  0.07952214  1
  Na  Na9  1  0.64723216  0.28143539  0.19108233  1
  Na  Na10  1  0.91981084  0.86037739  0.84887274  1
  Na  Na11  1  0.91981084  0.63962261  0.34887274  1
  Co  Co12  1  0.17563503  0.90212284  0.56443155  1
  Co  Co13  1  0.17563503  0.59787716  0.06443155  1
  Co  Co14  1  0.82436497  0.40212284  0.93556845  1
  Co  Co15  1  0.82436497  0.09787716  0.43556845  1
  O  O16  1  0.09993462  0.46525551  0.88264382  1
  O  O17  1  0.09993462  0.03474449  0.38264382  1
  O  O18  1  0.25766594  0.62236198  0.52651983  1
  O  O19  1  0.25766594  0.87763802  0.02651983  1
  O  O20  1  0.34140521  0.06802649  0.67751274  1
  O  O21  1  0.34140521  0.43197351  0.17751274  1
  O  O22  1  0.65859479  0.56802649  0.82248726  1
  O  O23  1  0.65859479  0.93197351  0.32248726  1
  O  O24  1  0.74233406  0.12236198  0.97348017  1
  O  O25  1  0.74233406  0.37763802  0.47348017  1
  O  O26  1  0.90006538  0.96525551  0.61735618  1
  O  O27  1  0.90006538  0.53474449  0.11735618  1
