# generated using pymatgen
data_Li7Mn5O12
_symmetry_space_group_name_H-M   'P 1'
_cell_length_a   5.05812038
_cell_length_b   9.92943549
_cell_length_c   5.05788943
_cell_angle_alpha   92.97850930
_cell_angle_beta   62.49526464
_cell_angle_gamma   101.31134534
_symmetry_Int_Tables_number   1
_chemical_formula_structural   Li7Mn5O12
_chemical_formula_sum   'Li7 Mn5 O12'
_cell_volume   220.72213699
_cell_formula_units_Z   1
loop_
 _symmetry_equiv_pos_site_id
 _symmetry_equiv_pos_as_xyz
  1  'x, y, z'
loop_
 _atom_site_type_symbol
 _atom_site_label
 _atom_site_symmetry_multiplicity
 _atom_site_fract_x
 _atom_site_fract_y
 _atom_site_fract_z
 _atom_site_occupancy
  Li  Li0  1  0.74508461  0.24288993  0.00277161  1
  Li  Li1  1  0.58061667  0.75268175  0.33090092  1
  Li  Li2  1  0.41309957  0.24729351  0.66295547  1
  Li  Li3  1  0.08604933  0.24731825  0.33576508  1
  Li  Li4  1  0.92158239  0.75711007  0.66389539  1
  Li  Li5  1  0.25356743  0.75270649  0.00371153  1
  Li  Li6  1  0.33333300  0.00000000  0.33333300  1
  Mn  Mn7  1  0.00126724  0.00000787  0.00126852  1
  Mn  Mn8  1  0.66539976  0.99999213  0.66539848  1
  Mn  Mn9  1  0.83333300  0.50000000  0.33333300  1
  Mn  Mn10  1  0.49990454  0.49930040  -0.00003273  1
  Mn  Mn11  1  0.16676246  0.50069960  0.66669973  1
  O  O12  1  0.01505595  0.11242703  0.68904379  1
  O  O13  1  0.84584655  0.61702048  0.02718529  1
  O  O14  1  0.74013301  0.10895016  0.31904651  1
  O  O15  1  0.38408823  0.10897467  0.96269401  1
  O  O16  1  0.18165571  0.62077085  0.35886984  1
  O  O17  1  0.51324316  0.61758403  0.69186210  1
  O  O18  1  0.48501129  0.37922915  0.30779716  1
  O  O19  1  0.28257777  0.89102533  0.70397199  1
  O  O20  1  0.15342384  0.38241597  0.97480490  1
  O  O21  1  0.82081945  0.38297952  0.63948071  1
  O  O22  1  0.65161105  0.88757297  0.97762321  1
  O  O23  1  0.92653399  0.89104984  0.34762049  1
