# generated using pymatgen
data_ZrPRu
_symmetry_space_group_name_H-M   'P 1'
_cell_length_a   6.54244537
_cell_length_b   6.54244537
_cell_length_c   3.76459882
_cell_angle_alpha   90.00000000
_cell_angle_beta   90.00000000
_cell_angle_gamma   120.08714401
_symmetry_Int_Tables_number   1
_chemical_formula_structural   ZrPRu
_chemical_formula_sum   'Zr3 P3 Ru3'
_cell_volume   139.42720141
_cell_formula_units_Z   3
loop_
 _symmetry_equiv_pos_site_id
 _symmetry_equiv_pos_as_xyz
  1  'x, y, z'
loop_
 _atom_site_type_symbol
 _atom_site_label
 _atom_site_symmetry_multiplicity
 _atom_site_fract_x
 _atom_site_fract_y
 _atom_site_fract_z
 _atom_site_occupancy
  Zr  Zr0  1  0.41433790  0.41433790  0.50000000  1
  Zr  Zr1  1  0.58721529  0.99984598  0.50000000  1
  Zr  Zr2  1  0.99984598  0.58721529  0.50000000  1
  P  P3  1  0.66607711  0.33221262  0.00000000  1
  P  P4  1  0.33221262  0.66607711  0.00000000  1
  P  P5  1  0.00292639  0.00292639  0.50000000  1
  Ru  Ru6  1  0.75537897  0.75537897  0.00000000  1
  Ru  Ru7  1  0.24295061  0.99915514  0.00000000  1
  Ru  Ru8  1  0.99915514  0.24295061  0.00000000  1
