# generated using pymatgen
data_K2AsPCO7
_symmetry_space_group_name_H-M   'P 1'
_cell_length_a   9.88511674
_cell_length_b   6.84701376
_cell_length_c   6.04271896
_cell_angle_alpha   90.00000000
_cell_angle_beta   98.10626503
_cell_angle_gamma   90.00000000
_symmetry_Int_Tables_number   1
_chemical_formula_structural   K2AsPCO7
_chemical_formula_sum   'K4 As2 P2 C2 O14'
_cell_volume   404.90599861
_cell_formula_units_Z   2
loop_
 _symmetry_equiv_pos_site_id
 _symmetry_equiv_pos_as_xyz
  1  'x, y, z'
loop_
 _atom_site_type_symbol
 _atom_site_label
 _atom_site_symmetry_multiplicity
 _atom_site_fract_x
 _atom_site_fract_y
 _atom_site_fract_z
 _atom_site_occupancy
  K  K0  1  0.23292876  0.01282488  0.25560529  1
  K  K1  1  0.23292876  0.48717512  0.25560529  1
  K  K2  1  0.76707124  0.51282488  0.74439471  1
  K  K3  1  0.76707124  0.98717512  0.74439471  1
  As  As4  1  0.36697352  0.75000000  0.82443584  1
  As  As5  1  0.63302648  0.25000000  0.17556416  1
  P  P6  1  0.41225851  0.25000000  0.75119849  1
  P  P7  1  0.58774149  0.75000000  0.24880151  1
  C  C8  1  0.10131788  0.75000000  0.70890028  1
  C  C9  1  0.89868212  0.25000000  0.29109972  1
  O  O10  1  0.02311052  0.25000000  0.27509470  1
  O  O11  1  0.19149206  0.75000000  0.90734828  1
  O  O12  1  0.16021467  0.75000000  0.53375136  1
  O  O13  1  0.34433254  0.06639594  0.84237001  1
  O  O14  1  0.34433254  0.43360406  0.84237001  1
  O  O15  1  0.42780162  0.75000000  0.13518302  1
  O  O16  1  0.41300153  0.25000000  0.50131897  1
  O  O17  1  0.58699847  0.75000000  0.49868103  1
  O  O18  1  0.57219838  0.25000000  0.86481698  1
  O  O19  1  0.65566746  0.56639594  0.15762999  1
  O  O20  1  0.65566746  0.93360406  0.15762999  1
  O  O21  1  0.83978533  0.25000000  0.46624864  1
  O  O22  1  0.80850794  0.25000000  0.09265172  1
  O  O23  1  0.97688948  0.75000000  0.72490530  1
