# generated using pymatgen
data_AcZn2In
_symmetry_space_group_name_H-M   'P 1'
_cell_length_a   5.18142311
_cell_length_b   5.18142311
_cell_length_c   5.18142311
_cell_angle_alpha   59.98830325
_cell_angle_beta   59.98830325
_cell_angle_gamma   59.98830325
_symmetry_Int_Tables_number   1
_chemical_formula_structural   AcZn2In
_chemical_formula_sum   'Ac1 Zn2 In1'
_cell_volume   98.33700563
_cell_formula_units_Z   1
loop_
 _symmetry_equiv_pos_site_id
 _symmetry_equiv_pos_as_xyz
  1  'x, y, z'
loop_
 _atom_site_type_symbol
 _atom_site_label
 _atom_site_symmetry_multiplicity
 _atom_site_fract_x
 _atom_site_fract_y
 _atom_site_fract_z
 _atom_site_occupancy
  Ac  Ac0  1  0.25000100  0.25000100  0.25000100  1
  Zn  Zn1  1  0.00001801  0.00001801  0.00001801  1
  Zn  Zn2  1  0.49998299  0.49998299  0.49998299  1
  In  In3  1  0.75000000  0.75000000  0.75000000  1
