# generated using pymatgen
data_La11Sn10
_symmetry_space_group_name_H-M   'P 1'
_cell_length_a   12.60975251
_cell_length_b   12.60975251
_cell_length_c   12.60975251
_cell_angle_alpha   122.09384105
_cell_angle_beta   122.09384105
_cell_angle_gamma   86.41007453
_symmetry_Int_Tables_number   1
_chemical_formula_structural   La11Sn10
_chemical_formula_sum   'La22 Sn20'
_cell_volume   1369.96872686
_cell_formula_units_Z   2
loop_
 _symmetry_equiv_pos_site_id
 _symmetry_equiv_pos_as_xyz
  1  'x, y, z'
loop_
 _atom_site_type_symbol
 _atom_site_label
 _atom_site_symmetry_multiplicity
 _atom_site_fract_x
 _atom_site_fract_y
 _atom_site_fract_z
 _atom_site_occupancy
  La  La0  1  0.66054402  0.66054402  0.00000000  1
  La  La1  1  0.33945598  0.33945598  -0.00000000  1
  La  La2  1  0.17846525  0.17846525  0.35693051  1
  La  La3  1  0.82153475  0.82153475  0.64306949  1
  La  La4  1  0.17846525  0.82153475  -0.00000000  1
  La  La5  1  0.82153475  0.17846525  0.00000000  1
  La  La6  1  0.80959663  0.06088058  0.25128395  1
  La  La7  1  0.80959663  0.55831267  0.74871605  1
  La  La8  1  0.06088058  0.80959663  0.25128395  1
  La  La9  1  0.55831267  0.80959663  0.74871605  1
  La  La10  1  0.19040337  0.93911942  0.74871605  1
  La  La11  1  0.19040337  0.44168733  0.25128395  1
  La  La12  1  0.93911942  0.19040337  0.74871605  1
  La  La13  1  0.44168733  0.19040337  0.25128395  1
  La  La14  1  0.60243941  0.92514497  0.32270556  1
  La  La15  1  0.60243941  0.27973384  0.67729444  1
  La  La16  1  0.92514497  0.60243941  0.32270556  1
  La  La17  1  0.27973384  0.60243941  0.67729444  1
  La  La18  1  0.39756059  0.07485503  0.67729444  1
  La  La19  1  0.39756059  0.72026616  0.32270556  1
  La  La20  1  0.07485503  0.39756059  0.67729444  1
  La  La21  1  0.72026616  0.39756059  0.32270556  1
  Sn  Sn22  1  0.89296221  0.89296221  0.00000000  1
  Sn  Sn23  1  0.10703779  0.10703779  -0.00000000  1
  Sn  Sn24  1  0.75000000  0.25000000  0.50000000  1
  Sn  Sn25  1  0.25000000  0.75000000  0.50000000  1
  Sn  Sn26  1  0.37755361  0.37755361  0.75510722  1
  Sn  Sn27  1  0.62244639  0.62244639  0.24489278  1
  Sn  Sn28  1  0.37755361  0.62244639  -0.00000000  1
  Sn  Sn29  1  0.62244639  0.37755361  -0.00000000  1
  Sn  Sn30  1  0.36433880  -0.00000000  0.36433880  1
  Sn  Sn31  1  0.63566120  -0.00000000  0.63566120  1
  Sn  Sn32  1  0.00000000  0.63566120  0.63566120  1
  Sn  Sn33  1  0.00000000  0.36433880  0.36433880  1
  Sn  Sn34  1  0.88961680  0.88961680  0.41973296  1
  Sn  Sn35  1  0.46988384  0.46988384  0.58026704  1
  Sn  Sn36  1  0.88961680  0.46988384  -0.00000000  1
  Sn  Sn37  1  0.46988384  0.88961680  0.00000000  1
  Sn  Sn38  1  0.11038320  0.11038320  0.58026704  1
  Sn  Sn39  1  0.53011616  0.53011616  0.41973296  1
  Sn  Sn40  1  0.11038320  0.53011616  0.00000000  1
  Sn  Sn41  1  0.53011616  0.11038320  0.00000000  1
