# generated using pymatgen
data_CoH4SeO5
_symmetry_space_group_name_H-M   'P 1'
_cell_length_a   6.55016986
_cell_length_b   8.93795165
_cell_length_c   7.77201040
_cell_angle_alpha   90.00000000
_cell_angle_beta   98.92708742
_cell_angle_gamma   90.00000000
_symmetry_Int_Tables_number   1
_chemical_formula_structural   CoH4SeO5
_chemical_formula_sum   'Co4 H16 Se4 O20'
_cell_volume   449.50138785
_cell_formula_units_Z   4
loop_
 _symmetry_equiv_pos_site_id
 _symmetry_equiv_pos_as_xyz
  1  'x, y, z'
loop_
 _atom_site_type_symbol
 _atom_site_label
 _atom_site_symmetry_multiplicity
 _atom_site_fract_x
 _atom_site_fract_y
 _atom_site_fract_z
 _atom_site_occupancy
  Co  Co0  1  0.15332662  0.13443874  0.98149854  1
  Co  Co1  1  0.65332662  0.36556126  0.48149854  1
  Co  Co2  1  0.84667338  0.86556126  0.01850146  1
  Co  Co3  1  0.34667338  0.63443874  0.51850146  1
  H  H4  1  0.00618699  0.98639258  0.69993644  1
  H  H5  1  0.50618699  0.51360742  0.19993644  1
  H  H6  1  0.99381301  0.01360742  0.30006356  1
  H  H7  1  0.49381301  0.48639258  0.80006356  1
  H  H8  1  0.05860767  0.14831137  0.62682045  1
  H  H9  1  0.55860767  0.35168863  0.12682045  1
  H  H10  1  0.94139233  0.85168863  0.37317955  1
  H  H11  1  0.44139233  0.64831137  0.87317955  1
  H  H12  1  0.16815710  0.42289063  0.88429505  1
  H  H13  1  0.66815710  0.07710937  0.38429505  1
  H  H14  1  0.83184290  0.57710937  0.11570495  1
  H  H15  1  0.33184290  0.92289063  0.61570495  1
  H  H16  1  0.93136344  0.36060789  0.86153205  1
  H  H17  1  0.43136344  0.13939211  0.36153205  1
  H  H18  1  0.06863656  0.63939211  0.13846795  1
  H  H19  1  0.56863656  0.86060789  0.63846795  1
  Se  Se20  1  0.89721289  0.65567829  0.66204742  1
  Se  Se21  1  0.39721289  0.84432171  0.16204742  1
  Se  Se22  1  0.10278711  0.34432171  0.33795258  1
  Se  Se23  1  0.60278711  0.15567829  0.83795258  1
  O  O24  1  0.81760704  0.82800780  0.73163517  1
  O  O25  1  0.31760704  0.67199220  0.23163517  1
  O  O26  1  0.18239296  0.17199220  0.26836483  1
  O  O27  1  0.68239296  0.32800780  0.76836483  1
  O  O28  1  0.82900065  0.09013131  0.96640454  1
  O  O29  1  0.32900065  0.40986869  0.46640454  1
  O  O30  1  0.17099935  0.90986869  0.03359546  1
  O  O31  1  0.67099935  0.59013131  0.53359546  1
  O  O32  1  0.03875347  0.70645641  0.50139984  1
  O  O33  1  0.53875347  0.79354359  0.00139984  1
  O  O34  1  0.96124653  0.29354359  0.49860016  1
  O  O35  1  0.46124653  0.20645641  0.99860016  1
  O  O36  1  0.11541160  0.06397724  0.70643413  1
  O  O37  1  0.61541160  0.43602276  0.20643413  1
  O  O38  1  0.88458840  0.93602276  0.29356587  1
  O  O39  1  0.38458840  0.56397724  0.79356587  1
  O  O40  1  0.07299018  0.35428296  0.93145086  1
  O  O41  1  0.57299018  0.14571704  0.43145086  1
  O  O42  1  0.92700982  0.64571704  0.06854914  1
  O  O43  1  0.42700982  0.85428296  0.56854914  1
