# generated using pymatgen
data_V2NiP2H6O13
_symmetry_space_group_name_H-M   'P 1'
_cell_length_a   10.45596500
_cell_length_b   9.49619543
_cell_length_c   9.90934861
_cell_angle_alpha   90.00000000
_cell_angle_beta   90.00000000
_cell_angle_gamma   90.00000000
_symmetry_Int_Tables_number   1
_chemical_formula_structural   V2NiP2H6O13
_chemical_formula_sum   'V8 Ni4 P8 H24 O52'
_cell_volume   983.91792292
_cell_formula_units_Z   4
loop_
 _symmetry_equiv_pos_site_id
 _symmetry_equiv_pos_as_xyz
  1  'x, y, z'
loop_
 _atom_site_type_symbol
 _atom_site_label
 _atom_site_symmetry_multiplicity
 _atom_site_fract_x
 _atom_site_fract_y
 _atom_site_fract_z
 _atom_site_occupancy
  V  V0  1  0.65785158  0.25000000  0.22209749  1
  V  V1  1  0.15785158  0.25000000  0.27790251  1
  V  V2  1  0.34214842  0.75000000  0.77790251  1
  V  V3  1  0.84214842  0.75000000  0.72209749  1
  V  V4  1  0.46807602  0.25000000  0.90991696  1
  V  V5  1  0.96807602  0.25000000  0.59008304  1
  V  V6  1  0.53192398  0.75000000  0.09008304  1
  V  V7  1  0.03192398  0.75000000  0.40991696  1
  Ni  Ni8  1  0.75192627  0.25000000  0.87340443  1
  Ni  Ni9  1  0.25192627  0.25000000  0.62659557  1
  Ni  Ni10  1  0.24807373  0.75000000  0.12659557  1
  Ni  Ni11  1  0.74807373  0.75000000  0.37340443  1
  P  P12  1  0.59356455  0.55055895  0.82214530  1
  P  P13  1  0.09356455  0.94944105  0.67785470  1
  P  P14  1  0.40643545  0.05055895  0.17785470  1
  P  P15  1  0.90643545  0.44944105  0.32214530  1
  P  P16  1  0.40643545  0.44944105  0.17785470  1
  P  P17  1  0.90643545  0.05055895  0.32214530  1
  P  P18  1  0.59356455  0.94944105  0.82214530  1
  P  P19  1  0.09356455  0.55055895  0.67785470  1
  H  H20  1  0.89971981  0.47735065  0.88348465  1
  H  H21  1  0.39971981  0.02264935  0.61651535  1
  H  H22  1  0.10028019  0.97735065  0.11651535  1
  H  H23  1  0.60028019  0.52264935  0.38348465  1
  H  H24  1  0.10028019  0.52264935  0.11651535  1
  H  H25  1  0.60028019  0.97735065  0.38348465  1
  H  H26  1  0.89971981  0.02264935  0.88348465  1
  H  H27  1  0.39971981  0.47735065  0.61651535  1
  H  H28  1  0.84925373  0.43914312  0.03182088  1
  H  H29  1  0.34925373  0.06085688  0.46817912  1
  H  H30  1  0.15074627  0.93914312  0.96817912  1
  H  H31  1  0.65074627  0.56085688  0.53182088  1
  H  H32  1  0.15074627  0.56085688  0.96817912  1
  H  H33  1  0.65074627  0.93914312  0.53182088  1
  H  H34  1  0.84925373  0.06085688  0.03182088  1
  H  H35  1  0.34925373  0.43914312  0.46817912  1
  H  H36  1  0.71206054  0.25000000  0.51269065  1
  H  H37  1  0.21206054  0.25000000  0.98730935  1
  H  H38  1  0.28793946  0.75000000  0.48730935  1
  H  H39  1  0.78793946  0.75000000  0.01269065  1
  H  H40  1  0.56001074  0.25000000  0.49422291  1
  H  H41  1  0.06001074  0.25000000  0.00577709  1
  H  H42  1  0.43998926  0.75000000  0.50577709  1
  H  H43  1  0.93998926  0.75000000  0.99422291  1
  O  O44  1  0.40210097  0.39604246  0.03203724  1
  O  O45  1  0.90210097  0.10395754  0.46796276  1
  O  O46  1  0.59789903  0.89604246  0.96796276  1
  O  O47  1  0.09789903  0.60395754  0.53203724  1
  O  O48  1  0.59789903  0.60395754  0.96796276  1
  O  O49  1  0.09789903  0.89604246  0.53203724  1
  O  O50  1  0.40210097  0.10395754  0.03203724  1
  O  O51  1  0.90210097  0.39604246  0.46796276  1
  O  O52  1  0.59683421  0.38494187  0.82175077  1
  O  O53  1  0.09683421  0.11505813  0.67824923  1
  O  O54  1  0.40316579  0.88494187  0.17824923  1
  O  O55  1  0.90316579  0.61505813  0.32175077  1
  O  O56  1  0.40316579  0.61505813  0.17824923  1
  O  O57  1  0.90316579  0.88494187  0.32175077  1
  O  O58  1  0.59683421  0.11505813  0.82175077  1
  O  O59  1  0.09683421  0.38494187  0.67824923  1
  O  O60  1  0.46977737  0.59533562  0.74785126  1
  O  O61  1  0.96977737  0.90466438  0.75214874  1
  O  O62  1  0.53022263  0.09533562  0.25214874  1
  O  O63  1  0.03022263  0.40466438  0.24785126  1
  O  O64  1  0.53022263  0.40466438  0.25214874  1
  O  O65  1  0.03022263  0.09533562  0.24785126  1
  O  O66  1  0.46977737  0.90466438  0.74785126  1
  O  O67  1  0.96977737  0.59533562  0.75214874  1
  O  O68  1  0.64603347  0.25000000  0.05071847  1
  O  O69  1  0.14603347  0.25000000  0.44928153  1
  O  O70  1  0.35396653  0.75000000  0.94928153  1
  O  O71  1  0.85396653  0.75000000  0.55071847  1
  O  O72  1  0.84499883  0.25000000  0.69806484  1
  O  O73  1  0.34499883  0.25000000  0.80193516  1
  O  O74  1  0.15500117  0.75000000  0.30193516  1
  O  O75  1  0.65500117  0.75000000  0.19806484  1
  O  O76  1  0.71168747  0.59851954  0.74126236  1
  O  O77  1  0.21168747  0.90148046  0.75873764  1
  O  O78  1  0.28831253  0.09851954  0.25873764  1
  O  O79  1  0.78831253  0.40148046  0.24126236  1
  O  O80  1  0.28831253  0.40148046  0.25873764  1
  O  O81  1  0.78831253  0.09851954  0.24126236  1
  O  O82  1  0.71168747  0.90148046  0.74126236  1
  O  O83  1  0.21168747  0.59851954  0.75873764  1
  O  O84  1  0.87929621  0.39902909  0.94619940  1
  O  O85  1  0.37929621  0.10097091  0.55380060  1
  O  O86  1  0.12070379  0.89902909  0.05380060  1
  O  O87  1  0.62070379  0.60097091  0.44619940  1
  O  O88  1  0.12070379  0.60097091  0.05380060  1
  O  O89  1  0.62070379  0.89902909  0.44619940  1
  O  O90  1  0.87929621  0.10097091  0.94619940  1
  O  O91  1  0.37929621  0.39902909  0.55380060  1
  O  O92  1  0.64220945  0.25000000  0.44726385  1
  O  O93  1  0.14220945  0.25000000  0.05273615  1
  O  O94  1  0.35779055  0.75000000  0.55273615  1
  O  O95  1  0.85779055  0.75000000  0.94726385  1
