# generated using pymatgen
data_Li2TiCr3O8
_symmetry_space_group_name_H-M   'P 1'
_cell_length_a   8.38342342
_cell_length_b   8.38313547
_cell_length_c   8.45516344
_cell_angle_alpha   90.51576573
_cell_angle_beta   90.10324762
_cell_angle_gamma   89.98943315
_symmetry_Int_Tables_number   1
_chemical_formula_structural   Li2TiCr3O8
_chemical_formula_sum   'Li8 Ti4 Cr12 O32'
_cell_volume   594.19854622
_cell_formula_units_Z   4
loop_
 _symmetry_equiv_pos_site_id
 _symmetry_equiv_pos_as_xyz
  1  'x, y, z'
loop_
 _atom_site_type_symbol
 _atom_site_label
 _atom_site_symmetry_multiplicity
 _atom_site_fract_x
 _atom_site_fract_y
 _atom_site_fract_z
 _atom_site_occupancy
  Li  Li0  1  0.99535221  0.99714882  0.99944342  1
  Li  Li1  1  0.25130099  0.25268010  0.25227184  1
  Li  Li2  1  0.25048627  0.74629089  0.75112345  1
  Li  Li3  1  0.50085905  0.00129891  0.49812430  1
  Li  Li4  1  0.49610416  0.50324017  0.00079018  1
  Li  Li5  1  0.75228841  0.24770608  0.74760351  1
  Li  Li6  1  0.74963708  0.75348253  0.24830879  1
  Li  Li7  1  0.00108977  0.49863096  0.50131273  1
  Ti  Ti8  1  0.12602992  0.87444745  0.37703153  1
  Ti  Ti9  1  0.37152638  0.12641849  0.87967586  1
  Ti  Ti10  1  0.62510682  0.62657833  0.62391852  1
  Ti  Ti11  1  0.87049032  0.37585654  0.12160530  1
  Cr  Cr12  1  0.12519036  0.12594318  0.62499962  1
  Cr  Cr13  1  0.12456075  0.37406432  0.87680010  1
  Cr  Cr14  1  0.12503637  0.62566379  0.12430644  1
  Cr  Cr15  1  0.37717466  0.37149130  0.62414463  1
  Cr  Cr16  1  0.37597610  0.62502268  0.37342260  1
  Cr  Cr17  1  0.37426045  0.87408235  0.12372267  1
  Cr  Cr18  1  0.62463875  0.37454551  0.37501039  1
  Cr  Cr19  1  0.62507934  0.12528111  0.12413383  1
  Cr  Cr20  1  0.62546195  0.87501074  0.87502103  1
  Cr  Cr21  1  0.87730877  0.12758180  0.37535315  1
  Cr  Cr22  1  0.87607674  0.87417405  0.62469216  1
  Cr  Cr23  1  0.87371360  0.62588296  0.87713655  1
  O  O24  1  0.11781550  0.11275222  0.39005913  1
  O  O25  1  0.11860222  0.88932310  0.61098278  1
  O  O26  1  0.11330496  0.61381677  0.89311648  1
  O  O27  1  0.13777988  0.13072038  0.86162931  1
  O  O28  1  0.11194673  0.39366679  0.11850991  1
  O  O29  1  0.13546115  0.35484102  0.63819056  1
  O  O30  1  0.13508176  0.63794350  0.36023944  1
  O  O31  1  0.13061892  0.85767430  0.13776944  1
  O  O32  1  0.35664529  0.12899780  0.63912986  1
  O  O33  1  0.36626945  0.35702729  0.86423825  1
  O  O34  1  0.35641170  0.63516117  0.13654022  1
  O  O35  1  0.39093508  0.61182352  0.61359178  1
  O  O36  1  0.36039191  0.86515731  0.36231188  1
  O  O37  1  0.39641130  0.38436517  0.38702932  1
  O  O38  1  0.38283458  0.11616673  0.10805829  1
  O  O39  1  0.39269822  0.88556311  0.88458133  1
  O  O40  1  0.61814680  0.38707829  0.60960329  1
  O  O41  1  0.61908556  0.60996478  0.38911340  1
  O  O42  1  0.61353799  0.88669835  0.10822651  1
  O  O43  1  0.63709924  0.36883161  0.13875229  1
  O  O44  1  0.61204375  0.10663709  0.88224604  1
  O  O45  1  0.63496128  0.14495589  0.36311763  1
  O  O46  1  0.63498241  0.86060263  0.63700188  1
  O  O47  1  0.63075383  0.64191642  0.86186396  1
  O  O48  1  0.85798766  0.36889331  0.36105751  1
  O  O49  1  0.86609949  0.14343129  0.13516182  1
  O  O50  1  0.85462643  0.86633349  0.86234291  1
  O  O51  1  0.89154828  0.88715445  0.38543020  1
  O  O52  1  0.86098531  0.63452232  0.63884861  1
  O  O53  1  0.89728459  0.11635600  0.61430113  1
  O  O54  1  0.88363479  0.38515918  0.89197563  1
  O  O55  1  0.88926171  0.61408165  0.11516661  1
