# generated using pymatgen
data_DyMg2
_symmetry_space_group_name_H-M   'P 1'
_cell_length_a   6.17130132
_cell_length_b   5.22858061
_cell_length_c   6.18691577
_cell_angle_alpha   115.26785968
_cell_angle_beta   64.74964345
_cell_angle_gamma   115.29111270
_symmetry_Int_Tables_number   1
_chemical_formula_structural   DyMg2
_chemical_formula_sum   'Dy2 Mg4'
_cell_volume   155.77814006
_cell_formula_units_Z   2
loop_
 _symmetry_equiv_pos_site_id
 _symmetry_equiv_pos_as_xyz
  1  'x, y, z'
loop_
 _atom_site_type_symbol
 _atom_site_label
 _atom_site_symmetry_multiplicity
 _atom_site_fract_x
 _atom_site_fract_y
 _atom_site_fract_z
 _atom_site_occupancy
  Dy  Dy0  1  0.83343627  0.58302258  0.50015484  1
  Dy  Dy1  1  0.33321327  0.58361473  0.99982529  1
  Mg  Mg2  1  0.91793317  0.91710670  0.08194320  1
  Mg  Mg3  1  0.24873172  0.24955936  0.41805636  1
  Mg  Mg4  1  0.41785171  0.91485690  0.58205961  1
  Mg  Mg5  1  0.74883486  0.25184274  0.91795969  1
