# generated using pymatgen
data_FeIr3
_symmetry_space_group_name_H-M   'P 1'
_cell_length_a   5.40657162
_cell_length_b   5.40657272
_cell_length_c   4.30886105
_cell_angle_alpha   90.00000000
_cell_angle_beta   90.00000000
_cell_angle_gamma   120.00000008
_symmetry_Int_Tables_number   1
_chemical_formula_structural   FeIr3
_chemical_formula_sum   'Fe2 Ir6'
_cell_volume   109.07799087
_cell_formula_units_Z   2
loop_
 _symmetry_equiv_pos_site_id
 _symmetry_equiv_pos_as_xyz
  1  'x, y, z'
loop_
 _atom_site_type_symbol
 _atom_site_label
 _atom_site_symmetry_multiplicity
 _atom_site_fract_x
 _atom_site_fract_y
 _atom_site_fract_z
 _atom_site_occupancy
  Fe  Fe0  1  0.33333400  0.66666700  0.75000100  1
  Fe  Fe1  1  0.66666700  0.33333400  0.24999800  1
  Ir  Ir2  1  0.16992569  0.33985039  0.24999800  1
  Ir  Ir3  1  0.66014761  0.83007231  0.24999800  1
  Ir  Ir4  1  0.16992469  0.83007231  0.24999800  1
  Ir  Ir5  1  0.83007531  0.66014961  0.75000100  1
  Ir  Ir6  1  0.33985239  0.16992669  0.75000100  1
  Ir  Ir7  1  0.83007431  0.16992669  0.75000100  1
