# generated using pymatgen
data_HfNi3
_symmetry_space_group_name_H-M   'P 1'
_cell_length_a   5.26649509
_cell_length_b   5.26620112
_cell_length_c   4.29073744
_cell_angle_alpha   90.00000000
_cell_angle_beta   90.00000000
_cell_angle_gamma   119.99632269
_symmetry_Int_Tables_number   1
_chemical_formula_structural   HfNi3
_chemical_formula_sum   'Hf2 Ni6'
_cell_volume   103.06181530
_cell_formula_units_Z   2
loop_
 _symmetry_equiv_pos_site_id
 _symmetry_equiv_pos_as_xyz
  1  'x, y, z'
loop_
 _atom_site_type_symbol
 _atom_site_label
 _atom_site_symmetry_multiplicity
 _atom_site_fract_x
 _atom_site_fract_y
 _atom_site_fract_z
 _atom_site_occupancy
  Hf  Hf0  1  0.33337610  0.66666665  0.75000100  1
  Hf  Hf1  1  0.66666685  0.33334657  0.25000100  1
  Ni  Ni2  1  0.15714724  0.31431532  0.25000100  1
  Ni  Ni3  1  0.68570696  0.84285998  0.25000100  1
  Ni  Ni4  1  0.15713042  0.84286432  0.25000100  1
  Ni  Ni5  1  0.84276676  0.68556040  0.75000100  1
  Ni  Ni6  1  0.31441148  0.15721914  0.75000100  1
  Ni  Ni7  1  0.84279817  0.15716562  0.75000100  1
