# generated using pymatgen
data_EuIn3
_symmetry_space_group_name_H-M   'P 1'
_cell_length_a   6.83947542
_cell_length_b   6.85928560
_cell_length_c   5.31972727
_cell_angle_alpha   90.00000000
_cell_angle_beta   90.00000000
_cell_angle_gamma   119.85570250
_symmetry_Int_Tables_number   1
_chemical_formula_structural   EuIn3
_chemical_formula_sum   'Eu2 In6'
_cell_volume   216.44687699
_cell_formula_units_Z   2
loop_
 _symmetry_equiv_pos_site_id
 _symmetry_equiv_pos_as_xyz
  1  'x, y, z'
loop_
 _atom_site_type_symbol
 _atom_site_label
 _atom_site_symmetry_multiplicity
 _atom_site_fract_x
 _atom_site_fract_y
 _atom_site_fract_z
 _atom_site_occupancy
  Eu  Eu0  1  0.33280283  0.66576730  0.75000000  1
  Eu  Eu1  1  0.66732218  0.33422421  0.25000000  1
  In  In2  1  0.15724310  0.31491967  0.25000000  1
  In  In3  1  0.68407911  0.84253483  0.25000000  1
  In  In4  1  0.15795634  0.84193118  0.25000000  1
  In  In5  1  0.84277180  0.68513676  0.75000000  1
  In  In6  1  0.31574884  0.15746388  0.75000000  1
  In  In7  1  0.84208080  0.15802417  0.75000000  1
