# generated using pymatgen
data_LaMg
_symmetry_space_group_name_H-M   'P 1'
_cell_length_a   12.53686772
_cell_length_b   3.64853998
_cell_length_c   8.38609599
_cell_angle_alpha   90.00000000
_cell_angle_beta   107.06114741
_cell_angle_gamma   90.00000000
_symmetry_Int_Tables_number   1
_chemical_formula_structural   LaMg
_chemical_formula_sum   'La6 Mg6'
_cell_volume   366.70963797
_cell_formula_units_Z   6
loop_
 _symmetry_equiv_pos_site_id
 _symmetry_equiv_pos_as_xyz
  1  'x, y, z'
loop_
 _atom_site_type_symbol
 _atom_site_label
 _atom_site_symmetry_multiplicity
 _atom_site_fract_x
 _atom_site_fract_y
 _atom_site_fract_z
 _atom_site_occupancy
  La  La0  1  0.38356791  -0.00000000  0.24799400  1
  La  La1  1  0.17878246  0.50000000  0.35174848  1
  La  La2  1  0.04225908  -0.00000000  0.60272716  1
  La  La3  1  0.88356791  0.50000000  0.24799400  1
  La  La4  1  0.67878246  -0.00000000  0.35174848  1
  La  La5  1  0.54225908  0.50000000  0.60272716  1
  Mg  Mg6  1  0.00699669  0.00000000  0.99364296  1
  Mg  Mg7  1  0.33508212  -0.00000000  0.70945413  1
  Mg  Mg8  1  0.21997876  0.50000000  0.92776627  1
  Mg  Mg9  1  0.50699669  0.50000000  0.99364296  1
  Mg  Mg10  1  0.83508212  0.50000000  0.70945413  1
  Mg  Mg11  1  0.71997876  -0.00000000  0.92776627  1
