# generated using pymatgen
data_GdCdRh2
_symmetry_space_group_name_H-M   'P 1'
_cell_length_a   4.72917593
_cell_length_b   4.73155933
_cell_length_c   4.72943181
_cell_angle_alpha   59.96701506
_cell_angle_beta   60.00913528
_cell_angle_gamma   59.99760592
_symmetry_Int_Tables_number   1
_chemical_formula_structural   GdCdRh2
_chemical_formula_sum   'Gd1 Cd1 Rh2'
_cell_volume   74.81651180
_cell_formula_units_Z   1
loop_
 _symmetry_equiv_pos_site_id
 _symmetry_equiv_pos_as_xyz
  1  'x, y, z'
loop_
 _atom_site_type_symbol
 _atom_site_label
 _atom_site_symmetry_multiplicity
 _atom_site_fract_x
 _atom_site_fract_y
 _atom_site_fract_z
 _atom_site_occupancy
  Gd  Gd0  1  0.75000112  0.75000042  0.75000120  1
  Cd  Cd1  1  0.24999932  0.24999982  0.24999899  1
  Rh  Rh2  1  0.99999823  0.00002381  0.00000318  1
  Rh  Rh3  1  0.50000133  0.49997596  0.49999663  1
