# generated using pymatgen
data_MgSn
_symmetry_space_group_name_H-M   'P 1'
_cell_length_a   5.59043383
_cell_length_b   3.39662248
_cell_length_c   15.75971757
_cell_angle_alpha   90.00000000
_cell_angle_beta   90.00000000
_cell_angle_gamma   90.00000000
_symmetry_Int_Tables_number   1
_chemical_formula_structural   MgSn
_chemical_formula_sum   'Mg6 Sn6'
_cell_volume   299.25486620
_cell_formula_units_Z   6
loop_
 _symmetry_equiv_pos_site_id
 _symmetry_equiv_pos_as_xyz
  1  'x, y, z'
loop_
 _atom_site_type_symbol
 _atom_site_label
 _atom_site_symmetry_multiplicity
 _atom_site_fract_x
 _atom_site_fract_y
 _atom_site_fract_z
 _atom_site_occupancy
  Mg  Mg0  1  0.00000000  0.00000000  0.99992563  1
  Mg  Mg1  1  -0.00000000  -0.00000000  0.33443736  1
  Mg  Mg2  1  0.50000000  0.50000000  0.38901559  1
  Mg  Mg3  1  0.00000000  0.50000000  0.49992563  1
  Mg  Mg4  1  -0.00000000  0.50000000  0.83443736  1
  Mg  Mg5  1  0.50000000  0.00000000  0.88901559  1
  Sn  Sn6  1  0.00000000  0.50000000  0.16509889  1
  Sn  Sn7  1  0.50000000  0.50000000  0.04803434  1
  Sn  Sn8  1  0.50000000  0.00000000  0.23015518  1
  Sn  Sn9  1  0.00000000  -0.00000000  0.66509889  1
  Sn  Sn10  1  0.50000000  0.00000000  0.54803434  1
  Sn  Sn11  1  0.50000000  0.50000000  0.73015518  1
