# generated using pymatgen
data_Nb3CoSe6
_symmetry_space_group_name_H-M   'P 1'
_cell_length_a   6.07752402
_cell_length_b   6.07771424
_cell_length_c   12.34613699
_cell_angle_alpha   89.99889966
_cell_angle_beta   89.99832945
_cell_angle_gamma   120.00093127
_symmetry_Int_Tables_number   1
_chemical_formula_structural   Nb3CoSe6
_chemical_formula_sum   'Nb6 Co2 Se12'
_cell_volume   394.93407677
_cell_formula_units_Z   2
loop_
 _symmetry_equiv_pos_site_id
 _symmetry_equiv_pos_as_xyz
  1  'x, y, z'
loop_
 _atom_site_type_symbol
 _atom_site_label
 _atom_site_symmetry_multiplicity
 _atom_site_fract_x
 _atom_site_fract_y
 _atom_site_fract_z
 _atom_site_occupancy
  Nb  Nb0  1  0.33330099  0.66664175  0.50031666  1
  Nb  Nb1  1  0.33334139  0.66666431  0.99967912  1
  Nb  Nb2  1  0.66664323  0.33330925  0.50055254  1
  Nb  Nb3  1  0.66667372  0.33336979  0.99945526  1
  Nb  Nb4  1  0.00002806  0.00002038  0.99951295  1
  Nb  Nb5  1  0.99997838  0.99998729  0.50048687  1
  Co  Co6  1  0.33332696  0.66666884  0.25000487  1
  Co  Co7  1  0.66666416  0.33333264  0.74999657  1
  Se  Se8  1  0.66659740  0.67023691  0.86468591  1
  Se  Se9  1  0.67030508  0.66676018  0.13464189  1
  Se  Se10  1  0.67027234  0.00355521  0.36535972  1
  Se  Se11  1  0.33324874  0.32968675  0.36535917  1
  Se  Se12  1  0.99641840  0.66672639  0.36536067  1
  Se  Se13  1  0.00361007  0.33340951  0.86468820  1
  Se  Se14  1  0.32976431  0.33340324  0.63531330  1
  Se  Se15  1  0.00362709  0.67022143  0.63531757  1
  Se  Se16  1  0.32979963  0.99637976  0.86468190  1
  Se  Se17  1  0.66657435  0.99635748  0.63531066  1
  Se  Se18  1  0.33328747  0.00355831  0.13463724  1
  Se  Se19  1  0.99643623  0.32970857  0.13463991  1
