# generated using pymatgen
data_Mg2Ag
_symmetry_space_group_name_H-M   'P 1'
_cell_length_a   4.83693739
_cell_length_b   4.86864619
_cell_length_c   5.62550190
_cell_angle_alpha   64.35907982
_cell_angle_beta   90.00000000
_cell_angle_gamma   90.00000000
_symmetry_Int_Tables_number   1
_chemical_formula_structural   Mg2Ag
_chemical_formula_sum   'Mg4 Ag2'
_cell_volume   119.43101052
_cell_formula_units_Z   2
loop_
 _symmetry_equiv_pos_site_id
 _symmetry_equiv_pos_as_xyz
  1  'x, y, z'
loop_
 _atom_site_type_symbol
 _atom_site_label
 _atom_site_symmetry_multiplicity
 _atom_site_fract_x
 _atom_site_fract_y
 _atom_site_fract_z
 _atom_site_occupancy
  Mg  Mg0  1  0.50000000  0.38192087  0.02445850  1
  Mg  Mg1  1  -0.00000000  0.92695462  0.02445850  1
  Mg  Mg2  1  0.50000000  0.07304538  0.64220850  1
  Mg  Mg3  1  0.00000000  0.61807913  0.64220850  1
  Ag  Ag4  1  -0.00000000  0.27893793  0.33333300  1
  Ag  Ag5  1  0.50000000  0.72106007  0.33333400  1
