# generated using pymatgen
data_FeSO5
_symmetry_space_group_name_H-M   'P 1'
_cell_length_a   5.26419251
_cell_length_b   5.26419251
_cell_length_c   7.43583580
_cell_angle_alpha   110.27451352
_cell_angle_beta   110.27451352
_cell_angle_gamma   98.41415814
_symmetry_Int_Tables_number   1
_chemical_formula_structural   FeSO5
_chemical_formula_sum   'Fe2 S2 O10'
_cell_volume   172.80762863
_cell_formula_units_Z   2
loop_
 _symmetry_equiv_pos_site_id
 _symmetry_equiv_pos_as_xyz
  1  'x, y, z'
loop_
 _atom_site_type_symbol
 _atom_site_label
 _atom_site_symmetry_multiplicity
 _atom_site_fract_x
 _atom_site_fract_y
 _atom_site_fract_z
 _atom_site_occupancy
  Fe  Fe0  1  0.00000000  0.50000000  0.50000000  1
  Fe  Fe1  1  0.50000000  -0.00000000  -0.00000000  1
  S  S2  1  0.08925428  0.91074572  0.25000000  1
  S  S3  1  0.91074572  0.08925428  0.75000000  1
  O  O4  1  0.67477280  0.32522720  0.25000000  1
  O  O5  1  0.32522720  0.67477280  0.75000000  1
  O  O6  1  0.77239511  0.80901608  0.12398387  1
  O  O7  1  0.19098392  0.22760489  0.37601613  1
  O  O8  1  0.22760489  0.19098392  0.87601613  1
  O  O9  1  0.80901608  0.77239511  0.62398387  1
  O  O10  1  0.16568451  0.77340159  0.39494056  1
  O  O11  1  0.22659841  0.83431549  0.10505944  1
  O  O12  1  0.83431549  0.22659841  0.60505944  1
  O  O13  1  0.77340159  0.16568451  0.89494056  1
