# generated using pymatgen
data_Zn2InGaO5
_symmetry_space_group_name_H-M   'P 1'
_cell_length_a   3.34607195
_cell_length_b   3.34615179
_cell_length_c   22.74546935
_cell_angle_alpha   90.00000000
_cell_angle_beta   90.00000000
_cell_angle_gamma   119.99921081
_symmetry_Int_Tables_number   1
_chemical_formula_structural   Zn2InGaO5
_chemical_formula_sum   'Zn4 In2 Ga2 O10'
_cell_volume   220.55144185
_cell_formula_units_Z   2
loop_
 _symmetry_equiv_pos_site_id
 _symmetry_equiv_pos_as_xyz
  1  'x, y, z'
loop_
 _atom_site_type_symbol
 _atom_site_label
 _atom_site_symmetry_multiplicity
 _atom_site_fract_x
 _atom_site_fract_y
 _atom_site_fract_z
 _atom_site_occupancy
  Zn  Zn0  1  0.66667926  0.33335852  0.13543336  1
  Zn  Zn1  1  0.66667926  0.33335852  0.36456664  1
  Zn  Zn2  1  0.33332174  0.66664348  0.63543336  1
  Zn  Zn3  1  0.33332174  0.66664348  0.86456664  1
  In  In4  1  0.00000000  0.00000000  -0.00000000  1
  In  In5  1  0.00000000  0.00000000  0.50000000  1
  Ga  Ga6  1  0.00001718  0.00003336  0.25000000  1
  Ga  Ga7  1  0.99998182  0.99996464  0.75000000  1
  O  O8  1  0.66667272  0.33334643  0.04813573  1
  O  O9  1  0.00001517  0.00003135  0.16220254  1
  O  O10  1  0.66668486  0.33337073  0.25000000  1
  O  O11  1  0.00001517  0.00003135  0.33779746  1
  O  O12  1  0.66667272  0.33334643  0.45186327  1
  O  O13  1  0.33332628  0.66665157  0.54813573  1
  O  O14  1  0.99998383  0.99996765  0.66220354  1
  O  O15  1  0.33331414  0.66662827  0.75000000  1
  O  O16  1  0.99998383  0.99996765  0.83779646  1
  O  O17  1  0.33332628  0.66665157  0.95186427  1
