# generated using pymatgen
data_Zr3Sn
_symmetry_space_group_name_H-M   'P 1'
_cell_length_a   6.32175464
_cell_length_b   6.32175581
_cell_length_c   5.21191405
_cell_angle_alpha   90.00000000
_cell_angle_beta   90.00000000
_cell_angle_gamma   119.99999960
_symmetry_Int_Tables_number   1
_chemical_formula_structural   Zr3Sn
_chemical_formula_sum   'Zr6 Sn2'
_cell_volume   180.38616722
_cell_formula_units_Z   2
loop_
 _symmetry_equiv_pos_site_id
 _symmetry_equiv_pos_as_xyz
  1  'x, y, z'
loop_
 _atom_site_type_symbol
 _atom_site_label
 _atom_site_symmetry_multiplicity
 _atom_site_fract_x
 _atom_site_fract_y
 _atom_site_fract_z
 _atom_site_occupancy
  Zr  Zr0  1  0.16763500  0.33526999  0.25000000  1
  Zr  Zr1  1  0.66472901  0.83236400  0.25000000  1
  Zr  Zr2  1  0.16763500  0.83236400  0.25000000  1
  Zr  Zr3  1  0.83236600  0.66473101  0.74999900  1
  Zr  Zr4  1  0.33527099  0.16763600  0.74999900  1
  Zr  Zr5  1  0.83236700  0.16763600  0.74999900  1
  Sn  Sn6  1  0.33333300  0.66666600  0.74999900  1
  Sn  Sn7  1  0.66666600  0.33333300  0.25000000  1
