# generated using pymatgen
data_Ba2SmGaTe5
_symmetry_space_group_name_H-M   'P 1'
_cell_length_a   7.90461954
_cell_length_b   9.39831919
_cell_length_c   10.23434245
_cell_angle_alpha   103.44528036
_cell_angle_beta   102.82994457
_cell_angle_gamma   107.37648203
_symmetry_Int_Tables_number   1
_chemical_formula_structural   Ba2SmGaTe5
_chemical_formula_sum   'Ba4 Sm2 Ga2 Te10'
_cell_volume   670.02103700
_cell_formula_units_Z   2
loop_
 _symmetry_equiv_pos_site_id
 _symmetry_equiv_pos_as_xyz
  1  'x, y, z'
loop_
 _atom_site_type_symbol
 _atom_site_label
 _atom_site_symmetry_multiplicity
 _atom_site_fract_x
 _atom_site_fract_y
 _atom_site_fract_z
 _atom_site_occupancy
  Ba  Ba0  1  0.35337444  0.51392837  0.71081816  1
  Ba  Ba1  1  0.64662556  0.48607163  0.28918184  1
  Ba  Ba2  1  0.63904535  0.98095706  0.29272451  1
  Ba  Ba3  1  0.36095465  0.01904294  0.70727549  1
  Sm  Sm4  1  0.99878981  0.73380681  0.99845268  1
  Sm  Sm5  1  0.00121019  0.26619319  0.00154732  1
  Ga  Ga6  1  0.80857853  0.87376081  0.68845431  1
  Ga  Ga7  1  0.19142147  0.12623919  0.31154569  1
  Te  Te8  1  0.48436194  0.74113352  0.49142736  1
  Te  Te9  1  0.51563806  0.25886648  0.50857264  1
  Te  Te10  1  0.98642480  0.67467077  0.67783632  1
  Te  Te11  1  0.01357520  0.32532923  0.32216368  1
  Te  Te12  1  0.98555592  0.15829446  0.68095975  1
  Te  Te13  1  0.01444408  0.84170554  0.31904025  1
  Te  Te14  1  0.69501898  0.40748442  0.94129125  1
  Te  Te15  1  0.30498102  0.59251558  0.05870875  1
  Te  Te16  1  0.70362028  0.90821646  0.92891771  1
  Te  Te17  1  0.29637972  0.09178354  0.07108229  1
