# generated using pymatgen
data_Tm2Co7
_symmetry_space_group_name_H-M   'P 1'
_cell_length_a   4.92900827
_cell_length_b   4.92900827
_cell_length_c   12.36152584
_cell_angle_alpha   78.49994345
_cell_angle_beta   78.49994345
_cell_angle_gamma   59.99999508
_symmetry_Int_Tables_number   1
_chemical_formula_structural   Tm2Co7
_chemical_formula_sum   'Tm4 Co14'
_cell_volume   253.10306149
_cell_formula_units_Z   2
loop_
 _symmetry_equiv_pos_site_id
 _symmetry_equiv_pos_as_xyz
  1  'x, y, z'
loop_
 _atom_site_type_symbol
 _atom_site_label
 _atom_site_symmetry_multiplicity
 _atom_site_fract_x
 _atom_site_fract_y
 _atom_site_fract_z
 _atom_site_occupancy
  Tm  Tm0  1  0.05182753  0.05182753  0.84451741  1
  Tm  Tm1  1  0.94817247  0.94817247  0.15548259  1
  Tm  Tm2  1  0.14866454  0.14866454  0.55400638  1
  Tm  Tm3  1  0.85133546  0.85133546  0.44599362  1
  Co  Co4  1  0.50000000  0.50000000  0.50000000  1
  Co  Co5  1  0.27842098  0.27842098  0.16473705  1
  Co  Co6  1  0.72157902  0.72157902  0.83526295  1
  Co  Co7  1  0.38907312  0.38907312  0.83278064  1
  Co  Co8  1  0.61092688  0.61092688  0.16721936  1
  Co  Co9  1  0.50000000  0.50000000  -0.00000000  1
  Co  Co10  1  0.50000000  0.00000000  -0.00000000  1
  Co  Co11  1  -0.00000000  0.50000000  -0.00000000  1
  Co  Co12  1  0.10900294  0.61002708  0.67094291  1
  Co  Co13  1  0.61002708  0.61002708  0.67094291  1
  Co  Co14  1  0.61002708  0.10900294  0.67094291  1
  Co  Co15  1  0.89099706  0.38997292  0.32905709  1
  Co  Co16  1  0.38997292  0.38997292  0.32905709  1
  Co  Co17  1  0.38997292  0.89099706  0.32905709  1
