# generated using pymatgen
data_Cs3Re2Cl10O
_symmetry_space_group_name_H-M   'P 1'
_cell_length_a   7.61014417
_cell_length_b   7.61014417
_cell_length_c   10.38746789
_cell_angle_alpha   111.48845410
_cell_angle_beta   111.48845410
_cell_angle_gamma   90.00000000
_symmetry_Int_Tables_number   1
_chemical_formula_structural   Cs3Re2Cl10O
_chemical_formula_sum   'Cs3 Re2 Cl10 O1'
_cell_volume   514.56562757
_cell_formula_units_Z   1
loop_
 _symmetry_equiv_pos_site_id
 _symmetry_equiv_pos_as_xyz
  1  'x, y, z'
loop_
 _atom_site_type_symbol
 _atom_site_label
 _atom_site_symmetry_multiplicity
 _atom_site_fract_x
 _atom_site_fract_y
 _atom_site_fract_z
 _atom_site_occupancy
  Cs  Cs0  1  0.25000000  0.75000000  0.50000000  1
  Cs  Cs1  1  0.75000000  0.25000000  0.50000000  1
  Cs  Cs2  1  0.50000000  0.50000000  -0.00000000  1
  Re  Re3  1  0.89676183  0.89676183  0.79352365  1
  Re  Re4  1  0.10323817  0.10323817  0.20647635  1
  Cl  Cl5  1  0.76210588  0.76210588  0.52421176  1
  Cl  Cl6  1  0.23789412  0.23789412  0.47578824  1
  Cl  Cl7  1  0.11028623  0.11028623  0.77979437  1
  Cl  Cl8  1  0.66950813  0.66950813  0.77979437  1
  Cl  Cl9  1  0.66950813  0.11028623  0.77979437  1
  Cl  Cl10  1  0.11028623  0.66950813  0.77979437  1
  Cl  Cl11  1  0.88971377  0.88971377  0.22020563  1
  Cl  Cl12  1  0.33049187  0.33049187  0.22020563  1
  Cl  Cl13  1  0.33049187  0.88971377  0.22020563  1
  Cl  Cl14  1  0.88971377  0.33049187  0.22020563  1
  O  O15  1  -0.00000000  -0.00000000  -0.00000000  1
