# generated using pymatgen
data_Ga3Rh
_symmetry_space_group_name_H-M   'P 1'
_cell_length_a   6.54039707
_cell_length_b   6.54039707
_cell_length_c   6.70644479
_cell_angle_alpha   90.00000000
_cell_angle_beta   90.00000000
_cell_angle_gamma   90.00000000
_symmetry_Int_Tables_number   1
_chemical_formula_structural   Ga3Rh
_chemical_formula_sum   'Ga12 Rh4'
_cell_volume   286.88020614
_cell_formula_units_Z   4
loop_
 _symmetry_equiv_pos_site_id
 _symmetry_equiv_pos_as_xyz
  1  'x, y, z'
loop_
 _atom_site_type_symbol
 _atom_site_label
 _atom_site_symmetry_multiplicity
 _atom_site_fract_x
 _atom_site_fract_y
 _atom_site_fract_z
 _atom_site_occupancy
  Ga  Ga0  1  -0.00000000  0.50000000  0.50000000  1
  Ga  Ga1  1  0.50000000  0.00000000  0.00000000  1
  Ga  Ga2  1  0.50000000  0.00000000  0.50000000  1
  Ga  Ga3  1  -0.00000000  0.50000000  0.00000000  1
  Ga  Ga4  1  0.34798484  0.65201516  0.23983934  1
  Ga  Ga5  1  0.65201516  0.34798484  0.23983934  1
  Ga  Ga6  1  0.15201516  0.15201516  0.73983934  1
  Ga  Ga7  1  0.84798484  0.84798484  0.73983934  1
  Ga  Ga8  1  0.65201516  0.34798484  0.76016066  1
  Ga  Ga9  1  0.34798484  0.65201516  0.76016066  1
  Ga  Ga10  1  0.84798484  0.84798484  0.26016066  1
  Ga  Ga11  1  0.15201516  0.15201516  0.26016066  1
  Rh  Rh12  1  0.15918980  0.84081020  0.50000000  1
  Rh  Rh13  1  0.84081020  0.15918980  0.50000000  1
  Rh  Rh14  1  0.34081020  0.34081020  0.00000000  1
  Rh  Rh15  1  0.65918980  0.65918980  0.00000000  1
