# generated using pymatgen
data_Lu3Co11B4
_symmetry_space_group_name_H-M   'P 1'
_cell_length_a   4.98695383
_cell_length_b   4.98905284
_cell_length_c   9.78736593
_cell_angle_alpha   89.99963761
_cell_angle_beta   90.00072496
_cell_angle_gamma   119.98607470
_symmetry_Int_Tables_number   1
_chemical_formula_structural   Lu3Co11B4
_chemical_formula_sum   'Lu3 Co11 B4'
_cell_volume   210.91663407
_cell_formula_units_Z   1
loop_
 _symmetry_equiv_pos_site_id
 _symmetry_equiv_pos_as_xyz
  1  'x, y, z'
loop_
 _atom_site_type_symbol
 _atom_site_label
 _atom_site_symmetry_multiplicity
 _atom_site_fract_x
 _atom_site_fract_y
 _atom_site_fract_z
 _atom_site_occupancy
  Lu  Lu0  1  -0.00001157  0.00000000  0.99999317  1
  Lu  Lu1  1  0.99999198  1.00000000  0.34129335  1
  Lu  Lu2  1  0.00000249  0.00000000  0.65861214  1
  Co  Co3  1  0.33335171  0.66675542  0.00009016  1
  Co  Co4  1  0.66659629  0.33324458  0.00009016  1
  Co  Co5  1  0.50000132  1.00000000  0.50002371  1
  Co  Co6  1  0.50000072  0.50000004  0.50002704  1
  Co  Co7  1  0.00000068  0.49999996  0.50002704  1
  Co  Co8  1  0.49999605  0.00000000  0.20154887  1
  Co  Co9  1  0.49998937  0.50000117  0.20156851  1
  Co  Co10  1  0.99998820  0.49999883  0.20156851  1
  Co  Co11  1  0.50000184  0.00000000  0.79853920  1
  Co  Co12  1  0.50000092  0.50000159  0.79852008  1
  Co  Co13  1  -0.00000067  0.49999841  0.79852008  1
  B  B14  1  0.33325007  0.66651409  0.34944485  1
  B  B15  1  0.66673598  0.33348591  0.34944485  1
  B  B16  1  0.66675877  0.33351292  0.65034415  1
  B  B17  1  0.33324584  0.66648708  0.65034415  1
