# generated using pymatgen
data_GdAs2Au
_symmetry_space_group_name_H-M   'P 1'
_cell_length_a   4.04655630
_cell_length_b   4.04655630
_cell_length_c   20.50421883
_cell_angle_alpha   90.00000000
_cell_angle_beta   90.00000000
_cell_angle_gamma   90.13890390
_symmetry_Int_Tables_number   1
_chemical_formula_structural   GdAs2Au
_chemical_formula_sum   'Gd4 As8 Au4'
_cell_volume   335.74776108
_cell_formula_units_Z   4
loop_
 _symmetry_equiv_pos_site_id
 _symmetry_equiv_pos_as_xyz
  1  'x, y, z'
loop_
 _atom_site_type_symbol
 _atom_site_label
 _atom_site_symmetry_multiplicity
 _atom_site_fract_x
 _atom_site_fract_y
 _atom_site_fract_z
 _atom_site_occupancy
  Gd  Gd0  1  0.23720711  0.73720711  0.61723070  1
  Gd  Gd1  1  0.76279289  0.26279289  0.38276930  1
  Gd  Gd2  1  0.73720711  0.23720711  0.88276930  1
  Gd  Gd3  1  0.26279289  0.76279289  0.11723070  1
  As  As4  1  0.73696799  0.23696799  0.65467915  1
  As  As5  1  0.26303201  0.76303201  0.34532085  1
  As  As6  1  0.23696799  0.73696799  0.84532085  1
  As  As7  1  0.76303201  0.26303201  0.15467915  1
  As  As8  1  0.27274861  0.22725139  0.50000000  1
  As  As9  1  0.22725139  0.27274861  -0.00000000  1
  As  As10  1  0.72725139  0.77274861  0.50000000  1
  As  As11  1  0.77274861  0.72725139  -0.00000000  1
  Au  Au12  1  0.23410041  0.23410041  0.75000000  1
  Au  Au13  1  0.26589959  0.26589959  0.25000000  1
  Au  Au14  1  0.76589959  0.76589959  0.25000000  1
  Au  Au15  1  0.73410041  0.73410041  0.75000000  1
