# generated using pymatgen
data_Sc2Co3Si5
_symmetry_space_group_name_H-M   'P 1'
_cell_length_a   5.39260794
_cell_length_b   7.68763766
_cell_length_c   7.68763766
_cell_angle_alpha   75.47539671
_cell_angle_beta   69.46788129
_cell_angle_gamma   69.46788129
_symmetry_Int_Tables_number   1
_chemical_formula_structural   Sc2Co3Si5
_chemical_formula_sum   'Sc4 Co6 Si10'
_cell_volume   276.51453045
_cell_formula_units_Z   2
loop_
 _symmetry_equiv_pos_site_id
 _symmetry_equiv_pos_as_xyz
  1  'x, y, z'
loop_
 _atom_site_type_symbol
 _atom_site_label
 _atom_site_symmetry_multiplicity
 _atom_site_fract_x
 _atom_site_fract_y
 _atom_site_fract_z
 _atom_site_occupancy
  Sc  Sc0  1  0.36475444  0.40249833  0.86799279  1
  Sc  Sc1  1  0.63524556  0.59750167  0.13200721  1
  Sc  Sc2  1  0.86475444  0.86799279  0.40249833  1
  Sc  Sc3  1  0.13524556  0.13200721  0.59750167  1
  Co  Co4  1  0.25000000  0.00000000  0.00000000  1
  Co  Co5  1  0.75000000  0.00000000  0.00000000  1
  Co  Co6  1  0.13833347  0.47157685  0.25175622  1
  Co  Co7  1  0.86166653  0.52842315  0.74824378  1
  Co  Co8  1  0.63833347  0.25175622  0.47157685  1
  Co  Co9  1  0.36166653  0.74824378  0.52842315  1
  Si  Si10  1  0.25000000  0.50000000  0.50000000  1
  Si  Si11  1  0.75000000  0.50000000  0.50000000  1
  Si  Si12  1  0.02484759  0.22515241  0.22515241  1
  Si  Si13  1  0.47515241  0.77484759  0.77484759  1
  Si  Si14  1  0.97515241  0.77484759  0.77484759  1
  Si  Si15  1  0.52484759  0.22515241  0.22515241  1
  Si  Si16  1  0.09922966  0.73844355  0.06309713  1
  Si  Si17  1  0.90077034  0.26155645  0.93690287  1
  Si  Si18  1  0.59922966  0.06309713  0.73844355  1
  Si  Si19  1  0.40077034  0.93690287  0.26155645  1
