# generated using pymatgen
data_Pr2Ni3Ge5
_symmetry_space_group_name_H-M   'P 1'
_cell_length_a   5.93453650
_cell_length_b   8.20450154
_cell_length_c   8.20450154
_cell_angle_alpha   73.24779056
_cell_angle_beta   68.79761125
_cell_angle_gamma   68.79761125
_symmetry_Int_Tables_number   1
_chemical_formula_structural   Pr2Ni3Ge5
_chemical_formula_sum   'Pr4 Ni6 Ge10'
_cell_volume   341.48177948
_cell_formula_units_Z   2
loop_
 _symmetry_equiv_pos_site_id
 _symmetry_equiv_pos_as_xyz
  1  'x, y, z'
loop_
 _atom_site_type_symbol
 _atom_site_label
 _atom_site_symmetry_multiplicity
 _atom_site_fract_x
 _atom_site_fract_y
 _atom_site_fract_z
 _atom_site_occupancy
  Pr  Pr0  1  0.36683821  0.39244117  0.87388241  1
  Pr  Pr1  1  0.63316179  0.60755883  0.12611759  1
  Pr  Pr2  1  0.86683821  0.87388241  0.39244117  1
  Pr  Pr3  1  0.13316179  0.12611759  0.60755883  1
  Ni  Ni4  1  0.25000000  -0.00000000  0.00000000  1
  Ni  Ni5  1  0.75000000  -0.00000000  0.00000000  1
  Ni  Ni6  1  0.13062162  0.48136971  0.25738704  1
  Ni  Ni7  1  0.86937838  0.51863029  0.74261296  1
  Ni  Ni8  1  0.63062162  0.25738704  0.48136971  1
  Ni  Ni9  1  0.36937838  0.74261296  0.51863029  1
  Ge  Ge10  1  0.25000000  0.50000000  0.50000000  1
  Ge  Ge11  1  0.75000000  0.50000000  0.50000000  1
  Ge  Ge12  1  0.00798195  0.24201805  0.24201805  1
  Ge  Ge13  1  0.49201805  0.75798195  0.75798195  1
  Ge  Ge14  1  0.99201805  0.75798195  0.75798195  1
  Ge  Ge15  1  0.50798195  0.24201805  0.24201805  1
  Ge  Ge16  1  0.10229813  0.74653734  0.04886640  1
  Ge  Ge17  1  0.89770187  0.25346266  0.95113360  1
  Ge  Ge18  1  0.60229813  0.04886640  0.74653734  1
  Ge  Ge19  1  0.39770187  0.95113360  0.25346266  1
