# generated using pymatgen
data_YMg2
_symmetry_space_group_name_H-M   'P 1'
_cell_length_a   12.80925461
_cell_length_b   3.30704726
_cell_length_c   7.82297220
_cell_angle_alpha   90.00000000
_cell_angle_beta   105.31298709
_cell_angle_gamma   90.00000000
_symmetry_Int_Tables_number   1
_chemical_formula_structural   YMg2
_chemical_formula_sum   'Y4 Mg8'
_cell_volume   319.62238661
_cell_formula_units_Z   4
loop_
 _symmetry_equiv_pos_site_id
 _symmetry_equiv_pos_as_xyz
  1  'x, y, z'
loop_
 _atom_site_type_symbol
 _atom_site_label
 _atom_site_symmetry_multiplicity
 _atom_site_fract_x
 _atom_site_fract_y
 _atom_site_fract_z
 _atom_site_occupancy
  Y  Y0  1  0.18933275  -0.00000000  0.63966389  1
  Y  Y1  1  0.31066725  0.50000000  0.36033611  1
  Y  Y2  1  0.68933275  0.50000000  0.63966389  1
  Y  Y3  1  0.81066725  0.00000000  0.36033611  1
  Mg  Mg4  1  0.36552243  0.50000000  0.97640060  1
  Mg  Mg5  1  0.46932734  0.00000000  0.70328086  1
  Mg  Mg6  1  0.03067266  0.50000000  0.29671914  1
  Mg  Mg7  1  0.13447757  -0.00000000  0.02359940  1
  Mg  Mg8  1  0.86552243  0.00000000  0.97640060  1
  Mg  Mg9  1  0.96932734  0.50000000  0.70328086  1
  Mg  Mg10  1  0.53067266  -0.00000000  0.29671914  1
  Mg  Mg11  1  0.63447757  0.50000000  0.02359940  1
