# generated using pymatgen
data_In9Cu11
_symmetry_space_group_name_H-M   'P 1'
_cell_length_a   4.39904258
_cell_length_b   7.53028807
_cell_length_c   10.40321770
_cell_angle_alpha   90.60531439
_cell_angle_beta   90.00000000
_cell_angle_gamma   90.00000000
_symmetry_Int_Tables_number   1
_chemical_formula_structural   In9Cu11
_chemical_formula_sum   'In9 Cu11'
_cell_volume   344.59835971
_cell_formula_units_Z   1
loop_
 _symmetry_equiv_pos_site_id
 _symmetry_equiv_pos_as_xyz
  1  'x, y, z'
loop_
 _atom_site_type_symbol
 _atom_site_label
 _atom_site_symmetry_multiplicity
 _atom_site_fract_x
 _atom_site_fract_y
 _atom_site_fract_z
 _atom_site_occupancy
  In  In0  1  -0.00000000  0.30602936  0.85940367  1
  In  In1  1  -0.00000000  0.69397064  0.14059633  1
  In  In2  1  0.50000000  0.80180439  0.34199272  1
  In  In3  1  0.50000000  0.19819561  0.65800728  1
  In  In4  1  -0.00000000  0.61493615  0.62330961  1
  In  In5  1  -0.00000000  0.38506385  0.37669039  1
  In  In6  1  0.50000000  0.14058969  0.11173427  1
  In  In7  1  0.50000000  0.85941031  0.88826573  1
  In  In8  1  -0.00000000  0.00000000  0.50000000  1
  Cu  Cu9  1  -0.00000000  0.00000000  0.00000000  1
  Cu  Cu10  1  0.50000000  0.50000000  0.50000000  1
  Cu  Cu11  1  -0.00000000  0.97024284  0.75076869  1
  Cu  Cu12  1  -0.00000000  0.02975716  0.24923131  1
  Cu  Cu13  1  0.50000000  0.47315533  0.23701615  1
  Cu  Cu14  1  0.50000000  0.52684467  0.76298385  1
  Cu  Cu15  1  0.00000000  0.65817753  0.88494334  1
  Cu  Cu16  1  -0.00000000  0.34182247  0.11505666  1
  Cu  Cu17  1  0.50000000  0.17314718  0.38027961  1
  Cu  Cu18  1  0.50000000  0.82685282  0.61972039  1
  Cu  Cu19  1  0.50000000  0.50000000  0.00000000  1
