# generated using pymatgen
data_Li2Ti3O7
_symmetry_space_group_name_H-M   'P 1'
_cell_length_a   3.75975738
_cell_length_b   7.64884660
_cell_length_c   9.42030695
_cell_angle_alpha   97.32367912
_cell_angle_beta   90.00000000
_cell_angle_gamma   90.00000000
_symmetry_Int_Tables_number   1
_chemical_formula_structural   Li2Ti3O7
_chemical_formula_sum   'Li4 Ti6 O14'
_cell_volume   268.69726909
_cell_formula_units_Z   2
loop_
 _symmetry_equiv_pos_site_id
 _symmetry_equiv_pos_as_xyz
  1  'x, y, z'
loop_
 _atom_site_type_symbol
 _atom_site_label
 _atom_site_symmetry_multiplicity
 _atom_site_fract_x
 _atom_site_fract_y
 _atom_site_fract_z
 _atom_site_occupancy
  Li  Li0  1  0.25000000  0.59877388  0.82742693  1
  Li  Li1  1  0.75000000  0.40122612  0.17257307  1
  Li  Li2  1  0.25000000  0.42614591  0.40399804  1
  Li  Li3  1  0.75000000  0.57385409  0.59600196  1
  Ti  Ti4  1  0.25000000  0.16376118  0.96844453  1
  Ti  Ti5  1  0.75000000  0.83623882  0.03155547  1
  Ti  Ti6  1  0.25000000  0.26377417  0.65863401  1
  Ti  Ti7  1  0.75000000  0.73622583  0.34136599  1
  Ti  Ti8  1  0.25000000  0.05143949  0.27921026  1
  Ti  Ti9  1  0.75000000  0.94856051  0.72078974  1
  O  O10  1  0.25000000  0.25539049  0.16485622  1
  O  O11  1  0.75000000  0.74460951  0.83514378  1
  O  O12  1  0.25000000  0.17723905  0.44983011  1
  O  O13  1  0.75000000  0.82276095  0.55016989  1
  O  O14  1  0.25000000  0.48778967  0.62434036  1
  O  O15  1  0.75000000  0.51221033  0.37565964  1
  O  O16  1  0.25000000  0.35187527  0.87273997  1
  O  O17  1  0.75000000  0.64812473  0.12726003  1
  O  O18  1  0.25000000  0.00848734  0.75637928  1
  O  O19  1  0.75000000  0.99151266  0.24362072  1
  O  O20  1  0.25000000  0.80405586  0.33541614  1
  O  O21  1  0.75000000  0.19594414  0.66458386  1
  O  O22  1  0.25000000  0.90502043  0.04785539  1
  O  O23  1  0.75000000  0.09497957  0.95214461  1
