# generated using pymatgen
data_NdCrB4
_symmetry_space_group_name_H-M   'P 1'
_cell_length_a   3.54911291
_cell_length_b   6.03580623
_cell_length_c   11.67399317
_cell_angle_alpha   90.00000000
_cell_angle_beta   90.00000000
_cell_angle_gamma   90.00000000
_symmetry_Int_Tables_number   1
_chemical_formula_structural   NdCrB4
_chemical_formula_sum   'Nd4 Cr4 B16'
_cell_volume   250.07745440
_cell_formula_units_Z   4
loop_
 _symmetry_equiv_pos_site_id
 _symmetry_equiv_pos_as_xyz
  1  'x, y, z'
loop_
 _atom_site_type_symbol
 _atom_site_label
 _atom_site_symmetry_multiplicity
 _atom_site_fract_x
 _atom_site_fract_y
 _atom_site_fract_z
 _atom_site_occupancy
  Nd  Nd0  1  0.00000000  0.62375117  0.34856294  1
  Nd  Nd1  1  0.00000000  0.37624883  0.65143706  1
  Nd  Nd2  1  0.00000000  0.12375117  0.15143706  1
  Nd  Nd3  1  -0.00000000  0.87624883  0.84856294  1
  Cr  Cr4  1  -0.00000000  0.61995448  0.07768494  1
  Cr  Cr5  1  -0.00000000  0.38004552  0.92231506  1
  Cr  Cr6  1  0.00000000  0.11995448  0.42231506  1
  Cr  Cr7  1  0.00000000  0.88004552  0.57768494  1
  B  B8  1  0.50000000  0.77670146  0.18148764  1
  B  B9  1  0.50000000  0.22329854  0.81851236  1
  B  B10  1  0.50000000  0.27670146  0.31851236  1
  B  B11  1  0.50000000  0.72329854  0.68148764  1
  B  B12  1  0.50000000  0.85921037  0.03271994  1
  B  B13  1  0.50000000  0.14078963  0.96728006  1
  B  B14  1  0.50000000  0.35921037  0.46728006  1
  B  B15  1  0.50000000  0.64078963  0.53271994  1
  B  B16  1  0.50000000  0.88883883  0.45442398  1
  B  B17  1  0.50000000  0.11116117  0.54557602  1
  B  B18  1  0.50000000  0.38883883  0.04557602  1
  B  B19  1  0.50000000  0.61116117  0.95442398  1
  B  B20  1  0.50000000  0.97712478  0.31120309  1
  B  B21  1  0.50000000  0.02287522  0.68879691  1
  B  B22  1  0.50000000  0.47712478  0.18879691  1
  B  B23  1  0.50000000  0.52287522  0.81120309  1
