# generated using pymatgen
data_Li6Cu(B2O5)2
_symmetry_space_group_name_H-M   'P 1'
_cell_length_a   3.36529261
_cell_length_b   6.76795891
_cell_length_c   9.36622165
_cell_angle_alpha   78.80499303
_cell_angle_beta   89.60042806
_cell_angle_gamma   86.22320345
_symmetry_Int_Tables_number   1
_chemical_formula_structural   Li6Cu(B2O5)2
_chemical_formula_sum   'Li6 Cu1 B4 O10'
_cell_volume   208.80925488
_cell_formula_units_Z   1
loop_
 _symmetry_equiv_pos_site_id
 _symmetry_equiv_pos_as_xyz
  1  'x, y, z'
loop_
 _atom_site_type_symbol
 _atom_site_label
 _atom_site_symmetry_multiplicity
 _atom_site_fract_x
 _atom_site_fract_y
 _atom_site_fract_z
 _atom_site_occupancy
  Li  Li0  1  0.42857847  0.79109343  0.53002116  1
  Li  Li1  1  0.57142153  0.20890657  0.46997884  1
  Li  Li2  1  0.97029929  0.51936112  0.64725721  1
  Li  Li3  1  0.02970071  0.48063888  0.35274279  1
  Li  Li4  1  0.51466896  0.34714507  0.87611899  1
  Li  Li5  1  0.48533104  0.65285493  0.12388101  1
  Cu  Cu6  1  -0.00000000  0.00000000  0.00000000  1
  B  B7  1  0.38448145  0.78108087  0.78981825  1
  B  B8  1  0.61551855  0.21891913  0.21018175  1
  B  B9  1  0.12358362  0.14740072  0.68617916  1
  B  B10  1  0.87641638  0.85259928  0.31382084  1
  O  O11  1  0.35404211  0.79351851  0.93127696  1
  O  O12  1  0.64595789  0.20648149  0.06872304  1
  O  O13  1  0.02469047  0.20151093  0.81571856  1
  O  O14  1  0.97530953  0.79848907  0.18428144  1
  O  O15  1  0.31960792  0.95866556  0.67664678  1
  O  O16  1  0.68039208  0.04133444  0.32335322  1
  O  O17  1  0.47036196  0.60903312  0.73505825  1
  O  O18  1  0.52963804  0.39096688  0.26494175  1
  O  O19  1  0.05753176  0.27901382  0.55624786  1
  O  O20  1  0.94246824  0.72098618  0.44375214  1
