# generated using pymatgen
data_CsPr2Ag3Te5
_symmetry_space_group_name_H-M   'P 1'
_cell_length_a   4.76102469
_cell_length_b   8.58432982
_cell_length_c   19.05321310
_cell_angle_alpha   90.00000000
_cell_angle_beta   90.00000000
_cell_angle_gamma   106.09966756
_symmetry_Int_Tables_number   1
_chemical_formula_structural   CsPr2Ag3Te5
_chemical_formula_sum   'Cs2 Pr4 Ag6 Te10'
_cell_volume   748.16838565
_cell_formula_units_Z   2
loop_
 _symmetry_equiv_pos_site_id
 _symmetry_equiv_pos_as_xyz
  1  'x, y, z'
loop_
 _atom_site_type_symbol
 _atom_site_label
 _atom_site_symmetry_multiplicity
 _atom_site_fract_x
 _atom_site_fract_y
 _atom_site_fract_z
 _atom_site_occupancy
  Cs  Cs0  1  0.43990933  0.87981866  0.25000000  1
  Cs  Cs1  1  0.56009067  0.12018134  0.75000000  1
  Pr  Pr2  1  0.30885908  0.61771815  0.90690397  1
  Pr  Pr3  1  0.69114092  0.38228185  0.09309603  1
  Pr  Pr4  1  0.30885908  0.61771815  0.59309603  1
  Pr  Pr5  1  0.69114092  0.38228185  0.40690397  1
  Ag  Ag6  1  0.15846373  0.31692745  0.25000000  1
  Ag  Ag7  1  0.84153627  0.68307255  0.75000000  1
  Ag  Ag8  1  0.91504755  0.83009509  0.46937509  1
  Ag  Ag9  1  0.08495245  0.16990491  0.53062491  1
  Ag  Ag10  1  0.91504755  0.83009509  0.03062491  1
  Ag  Ag11  1  0.08495245  0.16990491  0.96937509  1
  Te  Te12  1  0.93864417  0.87728834  0.88078269  1
  Te  Te13  1  0.06135583  0.12271166  0.11921731  1
  Te  Te14  1  0.93864417  0.87728834  0.61921731  1
  Te  Te15  1  0.06135583  0.12271166  0.38078269  1
  Te  Te16  1  0.32446737  0.64893474  0.42707773  1
  Te  Te17  1  0.67553263  0.35106526  0.57292227  1
  Te  Te18  1  0.32446737  0.64893474  0.07292227  1
  Te  Te19  1  0.67553263  0.35106526  0.92707773  1
  Te  Te20  1  0.75361614  0.50723229  0.25000000  1
  Te  Te21  1  0.24638386  0.49276771  0.75000000  1
