# generated using pymatgen
data_YMg2
_symmetry_space_group_name_H-M   'P 1'
_cell_length_a   5.45052016
_cell_length_b   3.38328593
_cell_length_c   17.49363325
_cell_angle_alpha   90.00000000
_cell_angle_beta   90.00000000
_cell_angle_gamma   90.00000000
_symmetry_Int_Tables_number   1
_chemical_formula_structural   YMg2
_chemical_formula_sum   'Y4 Mg8'
_cell_volume   322.59428582
_cell_formula_units_Z   4
loop_
 _symmetry_equiv_pos_site_id
 _symmetry_equiv_pos_as_xyz
  1  'x, y, z'
loop_
 _atom_site_type_symbol
 _atom_site_label
 _atom_site_symmetry_multiplicity
 _atom_site_fract_x
 _atom_site_fract_y
 _atom_site_fract_z
 _atom_site_occupancy
  Y  Y0  1  0.50000000  0.50000000  0.71718704  1
  Y  Y1  1  0.50000000  0.00000000  0.89254282  1
  Y  Y2  1  0.50000000  -0.00000000  0.21718704  1
  Y  Y3  1  0.50000000  0.50000000  0.39254282  1
  Mg  Mg4  1  -0.00000000  0.00000000  0.00260217  1
  Mg  Mg5  1  0.00000000  0.00000000  0.66631804  1
  Mg  Mg6  1  0.00000000  0.50000000  0.83151768  1
  Mg  Mg7  1  0.50000000  -0.00000000  0.55649925  1
  Mg  Mg8  1  -0.00000000  0.50000000  0.50260217  1
  Mg  Mg9  1  0.00000000  0.50000000  0.16631804  1
  Mg  Mg10  1  0.00000000  0.00000000  0.33151768  1
  Mg  Mg11  1  0.50000000  0.50000000  0.05649925  1
