# generated using pymatgen
data_UVB4
_symmetry_space_group_name_H-M   'P 1'
_cell_length_a   3.54741049
_cell_length_b   5.90361622
_cell_length_c   11.42275099
_cell_angle_alpha   90.00000000
_cell_angle_beta   90.00000000
_cell_angle_gamma   90.00000000
_symmetry_Int_Tables_number   1
_chemical_formula_structural   UVB4
_chemical_formula_sum   'U4 V4 B16'
_cell_volume   239.22153498
_cell_formula_units_Z   4
loop_
 _symmetry_equiv_pos_site_id
 _symmetry_equiv_pos_as_xyz
  1  'x, y, z'
loop_
 _atom_site_type_symbol
 _atom_site_label
 _atom_site_symmetry_multiplicity
 _atom_site_fract_x
 _atom_site_fract_y
 _atom_site_fract_z
 _atom_site_occupancy
  U  U0  1  0.00000000  0.62501281  0.34893602  1
  U  U1  1  0.00000000  0.37498719  0.65106398  1
  U  U2  1  -0.00000000  0.12501281  0.15106398  1
  U  U3  1  -0.00000000  0.87498719  0.84893602  1
  V  V4  1  -0.00000000  0.62753575  0.08445119  1
  V  V5  1  0.00000000  0.37246425  0.91554881  1
  V  V6  1  -0.00000000  0.12753575  0.41554881  1
  V  V7  1  0.00000000  0.87246425  0.58445119  1
  B  B8  1  0.50000000  0.78446729  0.18653491  1
  B  B9  1  0.50000000  0.21553271  0.81346509  1
  B  B10  1  0.50000000  0.28446729  0.31346509  1
  B  B11  1  0.50000000  0.71553271  0.68653491  1
  B  B12  1  0.50000000  0.86578834  0.03286365  1
  B  B13  1  0.50000000  0.13421166  0.96713635  1
  B  B14  1  0.50000000  0.36578834  0.46713635  1
  B  B15  1  0.50000000  0.63421166  0.53286365  1
  B  B16  1  0.50000000  0.88502892  0.45321195  1
  B  B17  1  0.50000000  0.11497108  0.54678805  1
  B  B18  1  0.50000000  0.38502892  0.04678805  1
  B  B19  1  0.50000000  0.61497108  0.95321195  1
  B  B20  1  0.50000000  0.97252931  0.30735636  1
  B  B21  1  0.50000000  0.02747069  0.69264364  1
  B  B22  1  0.50000000  0.47252931  0.19264364  1
  B  B23  1  0.50000000  0.52747069  0.80735636  1
