# generated using pymatgen
data_Lu2Co7
_symmetry_space_group_name_H-M   'P 1'
_cell_length_a   4.90395865
_cell_length_b   4.90395865
_cell_length_c   12.29268712
_cell_angle_alpha   78.49423535
_cell_angle_beta   78.49423535
_cell_angle_gamma   59.99999770
_symmetry_Int_Tables_number   1
_chemical_formula_structural   Lu2Co7
_chemical_formula_sum   'Lu4 Co14'
_cell_volume   249.13500812
_cell_formula_units_Z   2
loop_
 _symmetry_equiv_pos_site_id
 _symmetry_equiv_pos_as_xyz
  1  'x, y, z'
loop_
 _atom_site_type_symbol
 _atom_site_label
 _atom_site_symmetry_multiplicity
 _atom_site_fract_x
 _atom_site_fract_y
 _atom_site_fract_z
 _atom_site_occupancy
  Lu  Lu0  1  0.05185959  0.05185959  0.84442122  1
  Lu  Lu1  1  0.94814041  0.94814041  0.15557878  1
  Lu  Lu2  1  0.14814784  0.14814784  0.55555649  1
  Lu  Lu3  1  0.85185216  0.85185216  0.44444351  1
  Co  Co4  1  0.50000000  0.50000000  0.50000000  1
  Co  Co5  1  0.27810790  0.27810790  0.16567630  1
  Co  Co6  1  0.72189210  0.72189210  0.83432370  1
  Co  Co7  1  0.38889023  0.38889023  0.83332932  1
  Co  Co8  1  0.61110977  0.61110977  0.16667068  1
  Co  Co9  1  0.50000000  0.50000000  -0.00000000  1
  Co  Co10  1  0.50000000  0.00000000  -0.00000000  1
  Co  Co11  1  -0.00000000  0.50000000  -0.00000000  1
  Co  Co12  1  0.10851931  0.61118842  0.66910385  1
  Co  Co13  1  0.61118842  0.61118842  0.66910385  1
  Co  Co14  1  0.61118842  0.10851931  0.66910385  1
  Co  Co15  1  0.89148069  0.38881158  0.33089615  1
  Co  Co16  1  0.38881158  0.38881158  0.33089615  1
  Co  Co17  1  0.38881158  0.89148069  0.33089615  1
