# generated using pymatgen
data_TbAl3
_symmetry_space_group_name_H-M   'P 1'
_cell_length_a   6.14355554
_cell_length_b   6.14355554
_cell_length_c   12.51424941
_cell_angle_alpha   75.79083687
_cell_angle_beta   75.79083687
_cell_angle_gamma   59.99999329
_symmetry_Int_Tables_number   1
_chemical_formula_structural   TbAl3
_chemical_formula_sum   'Tb5 Al15'
_cell_volume   392.27410822
_cell_formula_units_Z   5
loop_
 _symmetry_equiv_pos_site_id
 _symmetry_equiv_pos_as_xyz
  1  'x, y, z'
loop_
 _atom_site_type_symbol
 _atom_site_label
 _atom_site_symmetry_multiplicity
 _atom_site_fract_x
 _atom_site_fract_y
 _atom_site_fract_z
 _atom_site_occupancy
  Tb  Tb0  1  -0.00000000  0.00000000  -0.00000000  1
  Tb  Tb1  1  0.13075917  0.13075917  0.60772250  1
  Tb  Tb2  1  0.86924083  0.86924083  0.39227750  1
  Tb  Tb3  1  0.40016530  0.40016530  0.79950411  1
  Tb  Tb4  1  0.59983470  0.59983470  0.20049589  1
  Al  Al5  1  0.50000000  0.50000000  -0.00000000  1
  Al  Al6  1  0.50000000  0.00000000  -0.00000000  1
  Al  Al7  1  -0.00000000  0.50000000  -0.00000000  1
  Al  Al8  1  0.12815159  0.63645891  0.59893059  1
  Al  Al9  1  0.63645891  0.63645891  0.59893059  1
  Al  Al10  1  0.63645891  0.12815159  0.59893059  1
  Al  Al11  1  0.87184841  0.36354109  0.40106941  1
  Al  Al12  1  0.36354109  0.36354109  0.40106941  1
  Al  Al13  1  0.36354109  0.87184841  0.40106941  1
  Al  Al14  1  0.43718355  0.88103938  0.80073770  1
  Al  Al15  1  0.88103938  0.88103938  0.80073770  1
  Al  Al16  1  0.88103938  0.43718355  0.80073770  1
  Al  Al17  1  0.56281645  0.11896062  0.19926230  1
  Al  Al18  1  0.11896062  0.11896062  0.19926230  1
  Al  Al19  1  0.11896062  0.56281645  0.19926230  1
