# generated using pymatgen
data_Pr3Sn5
_symmetry_space_group_name_H-M   'P 1'
_cell_length_a   6.60120165
_cell_length_b   6.60120165
_cell_length_c   10.74087825
_cell_angle_alpha   90.00000000
_cell_angle_beta   90.00000000
_cell_angle_gamma   102.33248990
_symmetry_Int_Tables_number   1
_chemical_formula_structural   Pr3Sn5
_chemical_formula_sum   'Pr6 Sn10'
_cell_volume   457.24276944
_cell_formula_units_Z   2
loop_
 _symmetry_equiv_pos_site_id
 _symmetry_equiv_pos_as_xyz
  1  'x, y, z'
loop_
 _atom_site_type_symbol
 _atom_site_label
 _atom_site_symmetry_multiplicity
 _atom_site_fract_x
 _atom_site_fract_y
 _atom_site_fract_z
 _atom_site_occupancy
  Pr  Pr0  1  0.63666545  0.63666545  0.25000000  1
  Pr  Pr1  1  0.36333455  0.36333455  0.75000000  1
  Pr  Pr2  1  0.79808070  0.20191930  0.50000000  1
  Pr  Pr3  1  0.79808070  0.20191930  0.00000000  1
  Pr  Pr4  1  0.20191930  0.79808070  0.50000000  1
  Pr  Pr5  1  0.20191930  0.79808070  0.00000000  1
  Sn  Sn6  1  0.02567786  0.02567786  0.25000000  1
  Sn  Sn7  1  0.97432214  0.97432214  0.75000000  1
  Sn  Sn8  1  0.32101250  0.32101250  0.04591221  1
  Sn  Sn9  1  0.67898750  0.67898750  0.95408779  1
  Sn  Sn10  1  0.32101250  0.32101250  0.45408779  1
  Sn  Sn11  1  0.67898750  0.67898750  0.54591221  1
  Sn  Sn12  1  0.08058187  0.50167827  0.25000000  1
  Sn  Sn13  1  0.49832173  0.91941813  0.75000000  1
  Sn  Sn14  1  0.91941813  0.49832173  0.75000000  1
  Sn  Sn15  1  0.50167827  0.08058187  0.25000000  1
