# generated using pymatgen
data_Nd5Co19
_symmetry_space_group_name_H-M   'P 1'
_cell_length_a   5.03170154
_cell_length_b   5.03170154
_cell_length_c   16.46640799
_cell_angle_alpha   81.21153545
_cell_angle_beta   81.21153545
_cell_angle_gamma   60.00000845
_symmetry_Int_Tables_number   1
_chemical_formula_structural   Nd5Co19
_chemical_formula_sum   'Nd5 Co19'
_cell_volume   355.38012540
_cell_formula_units_Z   1
loop_
 _symmetry_equiv_pos_site_id
 _symmetry_equiv_pos_as_xyz
  1  'x, y, z'
loop_
 _atom_site_type_symbol
 _atom_site_label
 _atom_site_symmetry_multiplicity
 _atom_site_fract_x
 _atom_site_fract_y
 _atom_site_fract_z
 _atom_site_occupancy
  Nd  Nd0  1  0.00000000  -0.00000000  0.00000000  1
  Nd  Nd1  1  0.07903218  0.07903218  0.76290347  1
  Nd  Nd2  1  0.92096782  0.92096782  0.23709653  1
  Nd  Nd3  1  0.15271352  0.15271352  0.54185944  1
  Nd  Nd4  1  0.84728648  0.84728648  0.45814056  1
  Co  Co5  1  0.50000000  0.50000000  0.50000000  1
  Co  Co6  1  0.25120562  0.25120562  0.24638313  1
  Co  Co7  1  0.74879438  0.74879438  0.75361687  1
  Co  Co8  1  0.33368695  0.33368695  0.99893915  1
  Co  Co9  1  0.66631305  0.66631305  0.00106085  1
  Co  Co10  1  0.41470284  0.41470284  0.75589149  1
  Co  Co11  1  0.58529716  0.58529716  0.24410851  1
  Co  Co12  1  0.12578847  0.61986793  0.63447568  1
  Co  Co13  1  0.61986793  0.61986793  0.63447568  1
  Co  Co14  1  0.61986793  0.12578847  0.63447568  1
  Co  Co15  1  0.87421153  0.38013207  0.36552432  1
  Co  Co16  1  0.38013207  0.38013207  0.36552432  1
  Co  Co17  1  0.38013207  0.87421153  0.36552432  1
  Co  Co18  1  0.03999616  0.54091608  0.87817168  1
  Co  Co19  1  0.54091608  0.54091608  0.87817168  1
  Co  Co20  1  0.54091608  0.03999616  0.87817168  1
  Co  Co21  1  0.96000384  0.45908392  0.12182832  1
  Co  Co22  1  0.45908392  0.45908392  0.12182832  1
  Co  Co23  1  0.45908392  0.96000384  0.12182832  1
