# generated using pymatgen
data_Y6Zn23
_symmetry_space_group_name_H-M   'P 1'
_cell_length_a   8.98067080
_cell_length_b   8.98067080
_cell_length_c   8.98067080
_cell_angle_alpha   60.00000000
_cell_angle_beta   60.00000000
_cell_angle_gamma   60.00000000
_symmetry_Int_Tables_number   1
_chemical_formula_structural   Y6Zn23
_chemical_formula_sum   'Y6 Zn23'
_cell_volume   512.16669346
_cell_formula_units_Z   1
loop_
 _symmetry_equiv_pos_site_id
 _symmetry_equiv_pos_as_xyz
  1  'x, y, z'
loop_
 _atom_site_type_symbol
 _atom_site_label
 _atom_site_symmetry_multiplicity
 _atom_site_fract_x
 _atom_site_fract_y
 _atom_site_fract_z
 _atom_site_occupancy
  Y  Y0  1  0.70808827  0.29191173  0.29191173  1
  Y  Y1  1  0.70808827  0.29191173  0.70808827  1
  Y  Y2  1  0.70808827  0.70808827  0.29191173  1
  Y  Y3  1  0.29191173  0.70808827  0.70808827  1
  Y  Y4  1  0.29191173  0.70808827  0.29191173  1
  Y  Y5  1  0.29191173  0.29191173  0.70808827  1
  Zn  Zn6  1  0.00000000  -0.00000000  -0.00000000  1
  Zn  Zn7  1  0.50000000  -0.00000000  -0.00000000  1
  Zn  Zn8  1  0.50000000  -0.00000000  0.50000000  1
  Zn  Zn9  1  0.50000000  0.50000000  -0.00000000  1
  Zn  Zn10  1  0.00000000  0.50000000  0.50000000  1
  Zn  Zn11  1  0.00000000  0.50000000  -0.00000000  1
  Zn  Zn12  1  0.00000000  -0.00000000  0.50000000  1
  Zn  Zn13  1  0.63134745  0.12288418  0.12288418  1
  Zn  Zn14  1  0.12288418  0.63134745  0.12288418  1
  Zn  Zn15  1  0.12288418  0.12288418  0.63134745  1
  Zn  Zn16  1  0.12288418  0.12288418  0.12288418  1
  Zn  Zn17  1  0.36865255  0.87711582  0.87711582  1
  Zn  Zn18  1  0.87711582  0.36865255  0.87711582  1
  Zn  Zn19  1  0.87711582  0.87711582  0.36865255  1
  Zn  Zn20  1  0.87711582  0.87711582  0.87711582  1
  Zn  Zn21  1  0.01551441  0.32816186  0.32816186  1
  Zn  Zn22  1  0.32816186  0.01551441  0.32816186  1
  Zn  Zn23  1  0.32816186  0.32816186  0.01551441  1
  Zn  Zn24  1  0.32816186  0.32816186  0.32816186  1
  Zn  Zn25  1  0.98448559  0.67183814  0.67183814  1
  Zn  Zn26  1  0.67183814  0.98448559  0.67183814  1
  Zn  Zn27  1  0.67183814  0.67183814  0.98448559  1
  Zn  Zn28  1  0.67183814  0.67183814  0.67183814  1
