# generated using pymatgen
data_Y2ZnS4
_symmetry_space_group_name_H-M   'P 1'
_cell_length_a   6.34517169
_cell_length_b   7.91795054
_cell_length_c   13.59870624
_cell_angle_alpha   90.00000000
_cell_angle_beta   90.00000000
_cell_angle_gamma   90.00000000
_symmetry_Int_Tables_number   1
_chemical_formula_structural   Y2ZnS4
_chemical_formula_sum   'Y8 Zn4 S16'
_cell_volume   683.20927681
_cell_formula_units_Z   4
loop_
 _symmetry_equiv_pos_site_id
 _symmetry_equiv_pos_as_xyz
  1  'x, y, z'
loop_
 _atom_site_type_symbol
 _atom_site_label
 _atom_site_symmetry_multiplicity
 _atom_site_fract_x
 _atom_site_fract_y
 _atom_site_fract_z
 _atom_site_occupancy
  Y  Y0  1  0.50000000  -0.00000000  0.50000000  1
  Y  Y1  1  -0.00000000  0.50000000  -0.00000000  1
  Y  Y2  1  0.50000000  0.50000000  0.50000000  1
  Y  Y3  1  -0.00000000  -0.00000000  -0.00000000  1
  Y  Y4  1  0.49722922  0.75000000  0.23417214  1
  Y  Y5  1  0.00277078  0.75000000  0.73417214  1
  Y  Y6  1  0.50277078  0.25000000  0.76582786  1
  Y  Y7  1  0.99722922  0.25000000  0.26582786  1
  Zn  Zn8  1  0.91104012  0.75000000  0.40749890  1
  Zn  Zn9  1  0.58895988  0.75000000  0.90749890  1
  Zn  Zn10  1  0.08895988  0.25000000  0.59250110  1
  Zn  Zn11  1  0.41104012  0.25000000  0.09250110  1
  S  S12  1  0.27459189  0.75000000  0.40882434  1
  S  S13  1  0.22540811  0.75000000  0.90882434  1
  S  S14  1  0.72540811  0.25000000  0.59117566  1
  S  S15  1  0.77459189  0.25000000  0.09117566  1
  S  S16  1  0.74282295  0.75000000  0.06874332  1
  S  S17  1  0.75717705  0.75000000  0.56874332  1
  S  S18  1  0.25717705  0.25000000  0.93125668  1
  S  S19  1  0.24282295  0.25000000  0.43125668  1
  S  S20  1  0.74481107  0.98612867  0.33236601  1
  S  S21  1  0.75518893  0.51387133  0.83236601  1
  S  S22  1  0.25518893  0.48612867  0.66763399  1
  S  S23  1  0.24481107  0.01387133  0.16763399  1
  S  S24  1  0.25518893  0.01387133  0.66763399  1
  S  S25  1  0.24481107  0.48612867  0.16763399  1
  S  S26  1  0.74481107  0.51387133  0.33236601  1
  S  S27  1  0.75518893  0.98612867  0.83236601  1
