# generated using pymatgen
data_ZrCl3
_symmetry_space_group_name_H-M   'P 1'
_cell_length_a   6.90861651
_cell_length_b   13.46947215
_cell_length_c   13.57775174
_cell_angle_alpha   119.73654271
_cell_angle_beta   105.22969050
_cell_angle_gamma   90.00000000
_symmetry_Int_Tables_number   1
_chemical_formula_structural   ZrCl3
_chemical_formula_sum   'Zr6 Cl18'
_cell_volume   1045.69252577
_cell_formula_units_Z   6
loop_
 _symmetry_equiv_pos_site_id
 _symmetry_equiv_pos_as_xyz
  1  'x, y, z'
loop_
 _atom_site_type_symbol
 _atom_site_label
 _atom_site_symmetry_multiplicity
 _atom_site_fract_x
 _atom_site_fract_y
 _atom_site_fract_z
 _atom_site_occupancy
  Zr  Zr0  1  0.32830437  0.91414829  0.82829658  1
  Zr  Zr1  1  0.67169563  0.08585171  0.17170342  1
  Zr  Zr2  1  0.08647344  0.67110180  0.58551092  1
  Zr  Zr3  1  0.91352656  0.08559088  0.41448908  1
  Zr  Zr4  1  0.91352656  0.32889820  0.41448908  1
  Zr  Zr5  1  0.08647344  0.91440912  0.58551092  1
  Cl  Cl6  1  0.70466019  0.97939546  0.95879093  1
  Cl  Cl7  1  0.29533981  0.02060454  0.04120907  1
  Cl  Cl8  1  0.45692382  0.72547891  0.71388793  1
  Cl  Cl9  1  0.54307618  0.01159098  0.28611207  1
  Cl  Cl10  1  0.54307618  0.27452109  0.28611207  1
  Cl  Cl11  1  0.45692382  0.98840902  0.71388793  1
  Cl  Cl12  1  0.05057574  0.76663630  0.79482120  1
  Cl  Cl13  1  0.94942426  0.97181509  0.20517880  1
  Cl  Cl14  1  0.94942426  0.23336370  0.20517880  1
  Cl  Cl15  1  0.05057574  0.02818491  0.79482120  1
  Cl  Cl16  1  0.20077384  0.72647687  0.45295375  1
  Cl  Cl17  1  0.79922616  0.27352313  0.54704625  1
  Cl  Cl18  1  0.79117167  0.76639468  0.53278937  1
  Cl  Cl19  1  0.20882833  0.23360532  0.46721063  1
  Cl  Cl20  1  0.79500529  0.52098596  0.54269703  1
  Cl  Cl21  1  0.20499471  0.97828893  0.45730297  1
  Cl  Cl22  1  0.20499471  0.47901404  0.45730297  1
  Cl  Cl23  1  0.79500529  0.02171107  0.54269703  1
