# generated using pymatgen
data_Tm3AlNi8
_symmetry_space_group_name_H-M   'P 1'
_cell_length_a   5.01318042
_cell_length_b   5.01318042
_cell_length_c   15.96269682
_cell_angle_alpha   90.00000000
_cell_angle_beta   90.00000000
_cell_angle_gamma   120.01864194
_symmetry_Int_Tables_number   1
_chemical_formula_structural   Tm3AlNi8
_chemical_formula_sum   'Tm6 Al2 Ni16'
_cell_volume   347.36171867
_cell_formula_units_Z   2
loop_
 _symmetry_equiv_pos_site_id
 _symmetry_equiv_pos_as_xyz
  1  'x, y, z'
loop_
 _atom_site_type_symbol
 _atom_site_label
 _atom_site_symmetry_multiplicity
 _atom_site_fract_x
 _atom_site_fract_y
 _atom_site_fract_z
 _atom_site_occupancy
  Tm  Tm0  1  0.66658376  0.33341624  0.04087558  1
  Tm  Tm1  1  0.33341624  0.66658376  0.95912442  1
  Tm  Tm2  1  0.33341624  0.66658376  0.54087558  1
  Tm  Tm3  1  0.66658376  0.33341624  0.45912442  1
  Tm  Tm4  1  0.66652885  0.33347115  0.25000000  1
  Tm  Tm5  1  0.33347115  0.66652885  0.75000000  1
  Al  Al6  1  0.66660058  0.33339942  0.75000000  1
  Al  Al7  1  0.33339942  0.66660058  0.25000000  1
  Ni  Ni8  1  0.83221450  0.66440406  0.62630763  1
  Ni  Ni9  1  0.83221328  0.16778672  0.62630867  1
  Ni  Ni10  1  0.33559594  0.16778550  0.62630763  1
  Ni  Ni11  1  0.16778550  0.33559594  0.37369237  1
  Ni  Ni12  1  0.16778672  0.83221328  0.37369133  1
  Ni  Ni13  1  0.66440406  0.83221450  0.37369237  1
  Ni  Ni14  1  0.16778550  0.33559594  0.12630763  1
  Ni  Ni15  1  0.16778672  0.83221328  0.12630867  1
  Ni  Ni16  1  0.66440406  0.83221450  0.12630763  1
  Ni  Ni17  1  0.83221450  0.66440406  0.87369237  1
  Ni  Ni18  1  0.83221328  0.16778672  0.87369133  1
  Ni  Ni19  1  0.33559594  0.16778550  0.87369237  1
  Ni  Ni20  1  -0.00008946  0.00008946  0.75000000  1
  Ni  Ni21  1  0.00008946  -0.00008946  0.25000000  1
  Ni  Ni22  1  -0.00000000  -0.00000000  0.50000000  1
  Ni  Ni23  1  -0.00000000  -0.00000000  0.00000000  1
