# generated using pymatgen
data_BaH2Br2O7
_symmetry_space_group_name_H-M   'P 1'
_cell_length_a   7.78554929
_cell_length_b   7.78554929
_cell_length_c   8.00392459
_cell_angle_alpha   103.52821737
_cell_angle_beta   108.88480611
_cell_angle_gamma   115.26271949
_symmetry_Int_Tables_number   1
_chemical_formula_structural   BaH2Br2O7
_chemical_formula_sum   'Ba2 H4 Br4 O14'
_cell_volume   373.84193627
_cell_formula_units_Z   2
loop_
 _symmetry_equiv_pos_site_id
 _symmetry_equiv_pos_as_xyz
  1  'x, y, z'
loop_
 _atom_site_type_symbol
 _atom_site_label
 _atom_site_symmetry_multiplicity
 _atom_site_fract_x
 _atom_site_fract_y
 _atom_site_fract_z
 _atom_site_occupancy
  Ba  Ba0  1  0.60605190  0.85605190  0.25000000  1
  Ba  Ba1  1  0.39394810  0.14394810  0.75000000  1
  H  H2  1  0.07072365  0.29117118  0.36515641  1
  H  H3  1  0.07398523  0.79443276  0.86515641  1
  H  H4  1  0.92927635  0.70882882  0.63484359  1
  H  H5  1  0.92601477  0.20556724  0.13484359  1
  Br  Br6  1  0.97947002  0.67014594  0.19327803  1
  Br  Br7  1  0.52313209  0.71380801  0.69327803  1
  Br  Br8  1  0.02052998  0.32985406  0.80672197  1
  Br  Br9  1  0.47686791  0.28619199  0.30672197  1
  O  O10  1  0.93036819  0.18036819  0.25000000  1
  O  O11  1  0.06963181  0.81963181  0.75000000  1
  O  O12  1  0.73557931  0.59733872  0.02010249  1
  O  O13  1  0.42276377  0.78452319  0.52010249  1
  O  O14  1  0.26442069  0.40266128  0.97989751  1
  O  O15  1  0.57723623  0.21547681  0.47989751  1
  O  O16  1  0.15169654  0.75835958  0.10245645  1
  O  O17  1  0.34409687  0.45075991  0.60245645  1
  O  O18  1  0.84830346  0.24164042  0.89754355  1
  O  O19  1  0.65590313  0.54924009  0.39754355  1
  O  O20  1  0.04718879  0.88601838  0.37487447  1
  O  O21  1  0.48885609  0.82768568  0.87487447  1
  O  O22  1  0.95281121  0.11398162  0.62512553  1
  O  O23  1  0.51114391  0.17231432  0.12512553  1
