# generated using pymatgen
data_LiH6IO7
_symmetry_space_group_name_H-M   'P 1'
_cell_length_a   5.88845180
_cell_length_b   6.00785710
_cell_length_c   9.79016088
_cell_angle_alpha   105.49544667
_cell_angle_beta   91.90851071
_cell_angle_gamma   115.59858242
_symmetry_Int_Tables_number   1
_chemical_formula_structural   LiH6IO7
_chemical_formula_sum   'Li2 H12 I2 O14'
_cell_volume   296.55578671
_cell_formula_units_Z   2
loop_
 _symmetry_equiv_pos_site_id
 _symmetry_equiv_pos_as_xyz
  1  'x, y, z'
loop_
 _atom_site_type_symbol
 _atom_site_label
 _atom_site_symmetry_multiplicity
 _atom_site_fract_x
 _atom_site_fract_y
 _atom_site_fract_z
 _atom_site_occupancy
  Li  Li0  1  0.25492410  0.27118319  0.98900536  1
  Li  Li1  1  0.74507590  0.72881681  0.01099464  1
  H  H2  1  0.80470084  0.46513753  0.73122231  1
  H  H3  1  0.19529916  0.53486247  0.26877769  1
  H  H4  1  0.27348106  0.93931349  0.72612475  1
  H  H5  1  0.72651894  0.06068651  0.27387525  1
  H  H6  1  0.37969991  0.59869517  0.59065346  1
  H  H7  1  0.62030009  0.40130483  0.40934654  1
  H  H8  1  0.95516041  0.19243220  0.57305251  1
  H  H9  1  0.04483959  0.80756780  0.42694749  1
  H  H10  1  0.70624966  0.26425024  0.98246896  1
  H  H11  1  0.29375034  0.73574976  0.01753104  1
  H  H12  1  0.65994343  0.37447005  0.13844792  1
  H  H13  1  0.34005657  0.62552995  0.86155208  1
  I  I14  1  0.82857080  0.89211145  0.71920420  1
  I  I15  1  0.17142920  0.10788855  0.28079580  1
  O  O16  1  0.20211986  0.05907955  0.77055186  1
  O  O17  1  0.79788014  0.94092045  0.22944814  1
  O  O18  1  0.63981233  0.37942902  0.03975202  1
  O  O19  1  0.36018767  0.62057098  0.96024798  1
  O  O20  1  0.45156217  0.74780605  0.68242211  1
  O  O21  1  0.54843783  0.25219395  0.31757789  1
  O  O22  1  0.83108504  0.06947021  0.90249080  1
  O  O23  1  0.16891496  0.93052979  0.09750920  1
  O  O24  1  0.85495353  0.18200681  0.65454883  1
  O  O25  1  0.14504647  0.81799319  0.34545117  1
  O  O26  1  0.83316757  0.70124707  0.53958186  1
  O  O27  1  0.16683243  0.29875293  0.46041814  1
  O  O28  1  0.79234462  0.61454191  0.79910548  1
  O  O29  1  0.20765538  0.38545809  0.20089452  1
