# generated using pymatgen
data_Ca2Mg(CO3)3
_symmetry_space_group_name_H-M   'P 1'
_cell_length_a   4.91062735
_cell_length_b   4.91062418
_cell_length_c   16.74625988
_cell_angle_alpha   89.99999141
_cell_angle_beta   90.00001716
_cell_angle_gamma   120.00003178
_symmetry_Int_Tables_number   1
_chemical_formula_structural   Ca2Mg(CO3)3
_chemical_formula_sum   'Ca4 Mg2 C6 O18'
_cell_volume   349.72122919
_cell_formula_units_Z   2
loop_
 _symmetry_equiv_pos_site_id
 _symmetry_equiv_pos_as_xyz
  1  'x, y, z'
loop_
 _atom_site_type_symbol
 _atom_site_label
 _atom_site_symmetry_multiplicity
 _atom_site_fract_x
 _atom_site_fract_y
 _atom_site_fract_z
 _atom_site_occupancy
  Ca  Ca0  1  0.00000037  0.99999989  0.49795290  1
  Ca  Ca1  1  0.00000048  0.00000011  0.99795290  1
  Ca  Ca2  1  0.33333240  0.66666798  0.31680998  1
  Ca  Ca3  1  0.66666442  0.33333202  0.81680998  1
  Mg  Mg4  1  0.66666665  0.33333294  0.15829038  1
  Mg  Mg5  1  0.33333371  0.66666706  0.65829038  1
  C  C6  1  0.66666681  0.33333287  0.40576574  1
  C  C7  1  0.33333394  0.66666713  0.90576574  1
  C  C8  1  0.99999997  0.99999960  0.23172753  1
  C  C9  1  0.00000037  0.00000040  0.73172753  1
  C  C10  1  0.33333296  0.66666644  0.08568305  1
  C  C11  1  0.66666652  0.33333356  0.58568305  1
  O  O12  1  0.66894214  0.07008094  0.40607439  1
  O  O13  1  0.40114039  0.33105781  0.40607402  1
  O  O14  1  0.92991866  0.59885885  0.40607441  1
  O  O15  1  0.59886120  0.92991906  0.90607439  1
  O  O16  1  0.07008258  0.66894219  0.90607402  1
  O  O17  1  0.33105981  0.40114115  0.90607441  1
  O  O18  1  0.28216436  0.03960075  0.23278251  1
  O  O19  1  0.75743598  0.71783542  0.23278318  1
  O  O20  1  0.96040028  0.24256351  0.23278335  1
  O  O21  1  0.24256361  0.96039925  0.73278251  1
  O  O22  1  0.03960056  0.28216458  0.73278318  1
  O  O23  1  0.71783677  0.75743649  0.73278335  1
  O  O24  1  0.05128870  0.62744082  0.08428963  1
  O  O25  1  0.57615018  0.94871147  0.08428927  1
  O  O26  1  0.37255988  0.42385018  0.08428966  1
  O  O27  1  0.42384788  0.37255918  0.58428963  1
  O  O28  1  0.62743871  0.05128853  0.58428927  1
  O  O29  1  0.94870969  0.57614982  0.58428966  1
