# generated using pymatgen
data_La6Fe13Pb
_symmetry_space_group_name_H-M   'P 1'
_cell_length_a   8.07648491
_cell_length_b   8.07648491
_cell_length_c   13.27022646
_cell_angle_alpha   107.71656307
_cell_angle_beta   107.71656307
_cell_angle_gamma   90.00000000
_symmetry_Int_Tables_number   1
_chemical_formula_structural   La6Fe13Pb
_chemical_formula_sum   'La12 Fe26 Pb2'
_cell_volume   781.35191700
_cell_formula_units_Z   2
loop_
 _symmetry_equiv_pos_site_id
 _symmetry_equiv_pos_as_xyz
  1  'x, y, z'
loop_
 _atom_site_type_symbol
 _atom_site_label
 _atom_site_symmetry_multiplicity
 _atom_site_fract_x
 _atom_site_fract_y
 _atom_site_fract_z
 _atom_site_occupancy
  La  La0  1  0.60413661  0.60413661  0.20827322  1
  La  La1  1  0.10413661  0.10413661  0.20827322  1
  La  La2  1  0.39586339  0.39586339  0.79172678  1
  La  La3  1  0.89586339  0.89586339  0.79172678  1
  La  La4  1  0.98013069  0.48013069  0.63534748  1
  La  La5  1  0.65521679  0.15521679  0.63534748  1
  La  La6  1  0.15521679  0.98013069  0.63534748  1
  La  La7  1  0.48013069  0.65521679  0.63534748  1
  La  La8  1  0.01986931  0.51986931  0.36465252  1
  La  La9  1  0.34478321  0.84478321  0.36465252  1
  La  La10  1  0.84478321  0.01986931  0.36465252  1
  La  La11  1  0.51986931  0.34478321  0.36465252  1
  Fe  Fe12  1  -0.00000000  0.50000000  0.00000000  1
  Fe  Fe13  1  0.50000000  0.00000000  0.00000000  1
  Fe  Fe14  1  0.71041259  0.56688560  0.00000000  1
  Fe  Fe15  1  0.28958741  0.43311440  1.00000000  1
  Fe  Fe16  1  0.78958741  0.06688560  1.00000000  1
  Fe  Fe17  1  0.21041259  0.93311440  0.00000000  1
  Fe  Fe18  1  0.56688560  0.28958741  1.00000000  1
  Fe  Fe19  1  0.43311440  0.71041259  0.00000000  1
  Fe  Fe20  1  0.06688560  0.21041259  0.00000000  1
  Fe  Fe21  1  0.93311440  0.78958741  1.00000000  1
  Fe  Fe22  1  0.12107082  0.62107082  0.88587894  1
  Fe  Fe23  1  0.76480812  0.26480812  0.88587894  1
  Fe  Fe24  1  0.26480812  0.12107082  0.88587894  1
  Fe  Fe25  1  0.62107082  0.76480812  0.88587894  1
  Fe  Fe26  1  0.87892918  0.37892918  0.11412106  1
  Fe  Fe27  1  0.23519188  0.73519188  0.11412106  1
  Fe  Fe28  1  0.73519188  0.87892918  0.11412106  1
  Fe  Fe29  1  0.37892918  0.23519188  0.11412106  1
  Fe  Fe30  1  0.29594650  0.79594650  0.81816701  1
  Fe  Fe31  1  0.52222052  0.02222052  0.81816701  1
  Fe  Fe32  1  0.02222052  0.29594650  0.81816701  1
  Fe  Fe33  1  0.79594650  0.52222052  0.81816701  1
  Fe  Fe34  1  0.70405350  0.20405350  0.18183299  1
  Fe  Fe35  1  0.47777948  0.97777948  0.18183299  1
  Fe  Fe36  1  0.97777948  0.70405350  0.18183299  1
  Fe  Fe37  1  0.20405350  0.47777948  0.18183299  1
  Pb  Pb38  1  0.25000000  0.25000000  0.50000000  1
  Pb  Pb39  1  0.75000000  0.75000000  0.50000000  1
