# generated using pymatgen
data_MgV4(H4O7)2
_symmetry_space_group_name_H-M   'P 1'
_cell_length_a   6.41170590
_cell_length_b   6.55906481
_cell_length_c   8.04965116
_cell_angle_alpha   86.66645163
_cell_angle_beta   66.11857055
_cell_angle_gamma   79.22831085
_symmetry_Int_Tables_number   1
_chemical_formula_structural   MgV4(H4O7)2
_chemical_formula_sum   'Mg1 V4 H8 O14'
_cell_volume   304.03150164
_cell_formula_units_Z   1
loop_
 _symmetry_equiv_pos_site_id
 _symmetry_equiv_pos_as_xyz
  1  'x, y, z'
loop_
 _atom_site_type_symbol
 _atom_site_label
 _atom_site_symmetry_multiplicity
 _atom_site_fract_x
 _atom_site_fract_y
 _atom_site_fract_z
 _atom_site_occupancy
  Mg  Mg0  1  0.50000000  0.50000000  0.50000000  1
  V  V1  1  0.12577652  0.84040025  0.10099089  1
  V  V2  1  0.87422348  0.15959975  0.89900911  1
  V  V3  1  0.30810126  0.31999248  0.96986202  1
  V  V4  1  0.69189874  0.68000752  0.03013798  1
  H  H5  1  0.54585689  0.78971066  0.71247057  1
  H  H6  1  0.45414311  0.21028934  0.28752943  1
  H  H7  1  0.68498538  0.85349432  0.50948914  1
  H  H8  1  0.31501462  0.14650568  0.49051086  1
  H  H9  1  0.96779082  0.42112151  0.32407601  1
  H  H10  1  0.03220918  0.57887849  0.67592399  1
  H  H11  1  0.90570152  0.25718260  0.48707822  1
  H  H12  1  0.09429848  0.74281740  0.51292178  1
  O  O13  1  0.14115684  0.53348410  0.11153622  1
  O  O14  1  0.85884316  0.46651590  0.88846378  1
  O  O15  1  0.87552893  0.87139118  0.01058752  1
  O  O16  1  0.12447107  0.12860882  0.98941248  1
  O  O17  1  0.46426190  0.78787433  0.96526697  1
  O  O18  1  0.53573810  0.21212567  0.03473303  1
  O  O19  1  0.02870011  0.89520536  0.31957907  1
  O  O20  1  0.97129989  0.10479464  0.68042093  1
  O  O21  1  0.41960453  0.39210931  0.75526444  1
  O  O22  1  0.58039547  0.60789069  0.24473556  1
  O  O23  1  0.56040384  0.78055270  0.58634060  1
  O  O24  1  0.43959616  0.21944730  0.41365940  1
  O  O25  1  0.84210484  0.36902197  0.42538960  1
  O  O26  1  0.15789516  0.63097803  0.57461040  1
