# generated using pymatgen
data_CaH18Br2O9
_symmetry_space_group_name_H-M   'P 1'
_cell_length_a   7.93057551
_cell_length_b   8.85077628
_cell_length_c   18.53139249
_cell_angle_alpha   90.00000000
_cell_angle_beta   100.58019399
_cell_angle_gamma   90.00000000
_symmetry_Int_Tables_number   1
_chemical_formula_structural   CaH18Br2O9
_chemical_formula_sum   'Ca4 H72 Br8 O36'
_cell_volume   1278.63663888
_cell_formula_units_Z   4
loop_
 _symmetry_equiv_pos_site_id
 _symmetry_equiv_pos_as_xyz
  1  'x, y, z'
loop_
 _atom_site_type_symbol
 _atom_site_label
 _atom_site_symmetry_multiplicity
 _atom_site_fract_x
 _atom_site_fract_y
 _atom_site_fract_z
 _atom_site_occupancy
  Ca  Ca0  1  0.08607518  0.73932629  0.39796080  1
  Ca  Ca1  1  0.58607518  0.76067371  0.89796080  1
  Ca  Ca2  1  0.91392482  0.26067371  0.60203920  1
  Ca  Ca3  1  0.41392482  0.23932629  0.10203920  1
  H  H4  1  0.47322674  0.81244920  0.43248953  1
  H  H5  1  0.97322674  0.68755080  0.93248953  1
  H  H6  1  0.52677326  0.18755080  0.56751047  1
  H  H7  1  0.02677326  0.31244920  0.06751047  1
  H  H8  1  0.42989880  0.70139118  0.49200739  1
  H  H9  1  0.92989880  0.79860882  0.99200739  1
  H  H10  1  0.57010120  0.29860882  0.50799261  1
  H  H11  1  0.07010120  0.20139118  0.00799261  1
  H  H12  1  0.22664646  0.03062040  0.48446271  1
  H  H13  1  0.72664646  0.46937960  0.98446271  1
  H  H14  1  0.77335354  0.96937960  0.51553729  1
  H  H15  1  0.27335354  0.53062040  0.01553729  1
  H  H16  1  0.18369645  0.06008518  0.39841994  1
  H  H17  1  0.68369645  0.43991482  0.89841994  1
  H  H18  1  0.81630355  0.93991482  0.60158006  1
  H  H19  1  0.31630355  0.56008518  0.10158006  1
  H  H20  1  0.18948193  0.73541639  0.56606043  1
  H  H21  1  0.68948193  0.76458361  0.06606043  1
  H  H22  1  0.81051807  0.26458361  0.43393957  1
  H  H23  1  0.31051807  0.23541639  0.93393957  1
  H  H24  1  0.01782718  0.83390040  0.54879981  1
  H  H25  1  0.51782718  0.66609960  0.04879981  1
  H  H26  1  0.98217282  0.16609960  0.45120019  1
  H  H27  1  0.48217282  0.33390040  0.95120019  1
  H  H28  1  0.76263851  0.84086267  0.29349340  1
  H  H29  1  0.26263851  0.65913733  0.79349340  1
  H  H30  1  0.23736149  0.15913733  0.70650660  1
  H  H31  1  0.73736149  0.34086267  0.20650660  1
  H  H32  1  0.86994241  0.99375716  0.30725578  1
  H  H33  1  0.36994241  0.50624284  0.80725578  1
  H  H34  1  0.13005759  0.00624284  0.69274422  1
  H  H35  1  0.63005759  0.49375716  0.19274422  1
  H  H36  1  0.30971891  0.82363015  0.28765491  1
  H  H37  1  0.80971891  0.67636985  0.78765491  1
  H  H38  1  0.69028109  0.17636985  0.71234509  1
  H  H39  1  0.19028109  0.32363015  0.21234509  1
  H  H40  1  0.15193711  0.93018510  0.26476532  1
  H  H41  1  0.65193711  0.56981490  0.76476532  1
  H  H42  1  0.84806289  0.06981490  0.73523468  1
  H  H43  1  0.34806289  0.43018510  0.23523468  1
  H  H44  1  0.79434370  0.57707173  0.45818714  1
  H  H45  1  0.29434370  0.92292827  0.95818714  1
  H  H46  1  0.20565630  0.42292827  0.54181286  1
  H  H47  1  0.70565630  0.07707173  0.04181286  1
  H  H48  1  0.71637755  0.59789797  0.37427512  1
  H  H49  1  0.21637755  0.90210203  0.87427512  1
  H  H50  1  0.28362245  0.40210203  0.62572488  1
  H  H51  1  0.78362245  0.09789797  0.12572488  1
  H  H52  1  0.26342323  0.43224870  0.41840492  1
  H  H53  1  0.76342323  0.06775130  0.91840492  1
  H  H54  1  0.73657677  0.56775130  0.58159508  1
  H  H55  1  0.23657677  0.93224870  0.08159508  1
  H  H56  1  0.07513010  0.40217272  0.43307548  1
  H  H57  1  0.57513010  0.09782728  0.93307548  1
  H  H58  1  0.92486990  0.59782728  0.56692452  1
  H  H59  1  0.42486990  0.90217272  0.06692452  1
  H  H60  1  0.00737899  0.48639918  0.27967025  1
  H  H61  1  0.50737899  0.01360082  0.77967025  1
  H  H62  1  0.99262101  0.51360082  0.72032975  1
  H  H63  1  0.49262101  0.98639918  0.22032975  1
  H  H64  1  0.02484000  0.63943871  0.23680048  1
  H  H65  1  0.52484000  0.86056129  0.73680048  1
  H  H66  1  0.97516000  0.36056129  0.76319952  1
  H  H67  1  0.47516000  0.13943871  0.26319952  1
  H  H68  1  0.41937854  0.94581835  0.58307024  1
  H  H69  1  0.91937854  0.55418165  0.08307024  1
  H  H70  1  0.58062146  0.05418165  0.41692976  1
  H  H71  1  0.08062146  0.44581835  0.91692976  1
  H  H72  1  0.29475134  0.07072310  0.60370742  1
  H  H73  1  0.79475134  0.42927690  0.10370742  1
  H  H74  1  0.70524866  0.92927690  0.39629258  1
  H  H75  1  0.20524866  0.57072310  0.89629258  1
  Br  Br76  1  0.97322730  0.21629573  0.26649566  1
  Br  Br77  1  0.47322730  0.28370427  0.76649566  1
  Br  Br78  1  0.02677270  0.78370427  0.73350434  1
  Br  Br79  1  0.52677270  0.71629573  0.23350434  1
  Br  Br80  1  0.49600333  0.70245455  0.62232718  1
  Br  Br81  1  0.99600333  0.79754545  0.12232718  1
  Br  Br82  1  0.50399667  0.29754545  0.37767282  1
  Br  Br83  1  0.00399667  0.20245455  0.87767282  1
  O  O84  1  0.39146986  0.73176214  0.44048211  1
  O  O85  1  0.89146986  0.76823786  0.94048211  1
  O  O86  1  0.60853014  0.26823786  0.55951789  1
  O  O87  1  0.10853014  0.23176214  0.05951789  1
  O  O88  1  0.13437511  0.02186644  0.43966075  1
  O  O89  1  0.63437511  0.47813356  0.93966075  1
  O  O90  1  0.86562489  0.97813356  0.56033925  1
  O  O91  1  0.36562489  0.52186644  0.06033925  1
  O  O92  1  0.07613349  0.74258628  0.53368182  1
  O  O93  1  0.57613349  0.75741372  0.03368182  1
  O  O94  1  0.92386651  0.25741372  0.46631818  1
  O  O95  1  0.42386651  0.24258628  0.96631818  1
  O  O96  1  0.84285120  0.89828152  0.33104942  1
  O  O97  1  0.34285120  0.60171848  0.83104942  1
  O  O98  1  0.15714880  0.10171848  0.66895058  1
  O  O99  1  0.65714880  0.39828152  0.16895058  1
  O  O100  1  0.22262774  0.88235032  0.30762031  1
  O  O101  1  0.72262774  0.61764968  0.80762031  1
  O  O102  1  0.77737226  0.11764968  0.69237969  1
  O  O103  1  0.27737226  0.38235032  0.19237969  1
  O  O104  1  0.81549610  0.62249326  0.41217002  1
  O  O105  1  0.31549610  0.87750674  0.91217002  1
  O  O106  1  0.18450390  0.37750674  0.58782998  1
  O  O107  1  0.68450390  0.12249326  0.08782998  1
  O  O108  1  0.17068939  0.47567396  0.44092975  1
  O  O109  1  0.67068939  0.02432604  0.94092975  1
  O  O110  1  0.82931061  0.52432604  0.55907025  1
  O  O111  1  0.32931061  0.97567396  0.05907025  1
  O  O112  1  0.02649054  0.59589165  0.28571501  1
  O  O113  1  0.52649054  0.90410835  0.78571501  1
  O  O114  1  0.97350946  0.40410835  0.71428499  1
  O  O115  1  0.47350946  0.09589165  0.21428499  1
  O  O116  1  0.36766466  0.04513622  0.56694675  1
  O  O117  1  0.86766466  0.45486378  0.06694675  1
  O  O118  1  0.63233534  0.95486378  0.43305325  1
  O  O119  1  0.13233534  0.54513622  0.93305325  1
