# generated using pymatgen
data_CuH10SO9
_symmetry_space_group_name_H-M   'P 1'
_cell_length_a   5.98701733
_cell_length_b   6.04151784
_cell_length_c   11.07002577
_cell_angle_alpha   102.54051383
_cell_angle_beta   98.31031607
_cell_angle_gamma   72.78242543
_symmetry_Int_Tables_number   1
_chemical_formula_structural   CuH10SO9
_chemical_formula_sum   'Cu2 H20 S2 O18'
_cell_volume   371.95645369
_cell_formula_units_Z   2
loop_
 _symmetry_equiv_pos_site_id
 _symmetry_equiv_pos_as_xyz
  1  'x, y, z'
loop_
 _atom_site_type_symbol
 _atom_site_label
 _atom_site_symmetry_multiplicity
 _atom_site_fract_x
 _atom_site_fract_y
 _atom_site_fract_z
 _atom_site_occupancy
  Cu  Cu0  1  -0.00000000  0.00000000  -0.00000000  1
  Cu  Cu1  1  -0.00000000  0.50000000  0.50000000  1
  H  H2  1  0.94396755  0.28641694  0.20129767  1
  H  H3  1  0.05603245  0.71358306  0.79870233  1
  H  H4  1  0.68151149  0.32674566  0.12819900  1
  H  H5  1  0.31848851  0.67325434  0.87180100  1
  H  H6  1  0.76111864  0.71139119  0.99857555  1
  H  H7  1  0.23888136  0.28860881  0.00142445  1
  H  H8  1  0.73927725  0.89043032  0.12962910  1
  H  H9  1  0.26072275  0.10956968  0.87037090  1
  H  H10  1  0.34127365  0.68666253  0.62326884  1
  H  H11  1  0.65872635  0.31333747  0.37673116  1
  H  H12  1  0.43316872  0.39690508  0.60760510  1
  H  H13  1  0.56683128  0.60309492  0.39239490  1
  H  H14  1  0.88440827  0.19445958  0.59640501  1
  H  H15  1  0.11559173  0.80554042  0.40359499  1
  H  H16  1  0.16770087  0.14243226  0.62014419  1
  H  H17  1  0.83229913  0.85756774  0.37985581  1
  H  H18  1  0.34578588  0.59754215  0.13253905  1
  H  H19  1  0.65421412  0.40245785  0.86746095  1
  H  H20  1  0.31798957  0.39758100  0.19660655  1
  H  H21  1  0.68201043  0.60241900  0.80339345  1
  S  S22  1  0.37846200  0.00275861  0.28435079  1
  S  S23  1  0.62153800  0.99724139  0.71564921  1
  O  O24  1  0.62180136  0.03534914  0.30350786  1
  O  O25  1  0.37819864  0.96465086  0.69649214  1
  O  O26  1  0.20667004  0.24005909  0.30622913  1
  O  O27  1  0.79332996  0.75994091  0.69377087  1
  O  O28  1  0.35923415  0.85608762  0.37272139  1
  O  O29  1  0.64076585  0.14391238  0.62727861  1
  O  O30  1  0.33942697  0.88259272  0.15390518  1
  O  O31  1  0.66057303  0.11740728  0.84609482  1
  O  O32  1  0.85398201  0.28683775  0.11879728  1
  O  O33  1  0.14601799  0.71316225  0.88120272  1
  O  O34  1  0.84663472  0.80591588  0.06516326  1
  O  O35  1  0.15336528  0.19408412  0.93483674  1
  O  O36  1  0.29670479  0.53620531  0.59725101  1
  O  O37  1  0.70329521  0.46379469  0.40274899  1
  O  O38  1  0.02372821  0.23248682  0.57554654  1
  O  O39  1  0.97627179  0.76751318  0.42445346  1
  O  O40  1  0.38206872  0.42258190  0.12508229  1
  O  O41  1  0.61793128  0.57741810  0.87491771  1
