# generated using pymatgen
data_Ba3V4ZnO14
_symmetry_space_group_name_H-M   'P 1'
_cell_length_a   7.36759962
_cell_length_b   13.72502422
_cell_length_c   14.17197563
_cell_angle_alpha   90.00000000
_cell_angle_beta   90.00000000
_cell_angle_gamma   101.48418683
_symmetry_Int_Tables_number   1
_chemical_formula_structural   Ba3V4ZnO14
_chemical_formula_sum   'Ba12 V16 Zn4 O56'
_cell_volume   1404.38638017
_cell_formula_units_Z   4
loop_
 _symmetry_equiv_pos_site_id
 _symmetry_equiv_pos_as_xyz
  1  'x, y, z'
loop_
 _atom_site_type_symbol
 _atom_site_label
 _atom_site_symmetry_multiplicity
 _atom_site_fract_x
 _atom_site_fract_y
 _atom_site_fract_z
 _atom_site_occupancy
  Ba  Ba0  1  0.74106104  0.29761554  0.26925751  1
  Ba  Ba1  1  0.75893896  0.20238446  0.76925751  1
  Ba  Ba2  1  0.25893896  0.70238446  0.73074249  1
  Ba  Ba3  1  0.24106104  0.79761554  0.23074249  1
  Ba  Ba4  1  0.75495621  0.98564499  0.10496940  1
  Ba  Ba5  1  0.74504379  0.51435501  0.60496940  1
  Ba  Ba6  1  0.24504379  0.01435501  0.89503060  1
  Ba  Ba7  1  0.25495621  0.48564499  0.39503060  1
  Ba  Ba8  1  0.16866960  0.28373120  0.05435792  1
  Ba  Ba9  1  0.33133040  0.21626880  0.55435792  1
  Ba  Ba10  1  0.83133040  0.71626880  0.94564208  1
  Ba  Ba11  1  0.66866960  0.78373120  0.44564208  1
  V  V12  1  0.24833633  0.23199453  0.31214804  1
  V  V13  1  0.25166367  0.26800547  0.81214804  1
  V  V14  1  0.75166367  0.76800547  0.68785196  1
  V  V15  1  0.74833633  0.73199453  0.18785196  1
  V  V16  1  0.24779573  0.05152511  0.16845237  1
  V  V17  1  0.25220427  0.44847489  0.66845237  1
  V  V18  1  0.75220427  0.94847489  0.83154763  1
  V  V19  1  0.74779573  0.55152511  0.33154763  1
  V  V20  1  0.66085899  0.26224490  0.02635549  1
  V  V21  1  0.83914101  0.23775510  0.52635549  1
  V  V22  1  0.33914101  0.73775510  0.97364451  1
  V  V23  1  0.16085899  0.76224490  0.47364451  1
  V  V24  1  0.83646507  0.45188301  0.88741438  1
  V  V25  1  0.66353493  0.04811699  0.38741438  1
  V  V26  1  0.16353493  0.54811699  0.11258562  1
  V  V27  1  0.33646507  0.95188301  0.61258562  1
  Zn  Zn28  1  0.09919038  0.99296339  0.40048590  1
  Zn  Zn29  1  0.40080962  0.50703661  0.90048590  1
  Zn  Zn30  1  0.90080962  0.00703661  0.59951410  1
  Zn  Zn31  1  0.59919038  0.49296339  0.09951410  1
  O  O32  1  0.41328480  0.31127780  0.37487986  1
  O  O33  1  0.08671520  0.18872220  0.87487986  1
  O  O34  1  0.58671520  0.68872220  0.62512014  1
  O  O35  1  0.91328480  0.81127780  0.12512014  1
  O  O36  1  0.14572968  0.14173702  0.39101698  1
  O  O37  1  0.35427032  0.35826298  0.89101698  1
  O  O38  1  0.85427032  0.85826298  0.60898302  1
  O  O39  1  0.64572968  0.64173702  0.10898302  1
  O  O40  1  0.10655989  0.29950355  0.25639743  1
  O  O41  1  0.39344011  0.20049645  0.75639743  1
  O  O42  1  0.89344011  0.70049645  0.74360257  1
  O  O43  1  0.60655989  0.79950355  0.24360257  1
  O  O44  1  0.36435164  0.17158866  0.22171414  1
  O  O45  1  0.13564836  0.32841134  0.72171414  1
  O  O46  1  0.63564836  0.82841134  0.77828586  1
  O  O47  1  0.86435164  0.67158866  0.27828586  1
  O  O48  1  0.39070705  0.97795348  0.12792551  1
  O  O49  1  0.10929295  0.52204652  0.62792551  1
  O  O50  1  0.60929295  0.02204652  0.87207449  1
  O  O51  1  0.89070705  0.47795348  0.37207449  1
  O  O52  1  0.10329188  0.98380842  0.25049558  1
  O  O53  1  0.39670812  0.51619158  0.75049558  1
  O  O54  1  0.89670812  0.01619158  0.74950442  1
  O  O55  1  0.60329188  0.48380842  0.24950442  1
  O  O56  1  0.11580427  0.07885014  0.07543172  1
  O  O57  1  0.38419573  0.42114986  0.57543172  1
  O  O58  1  0.88419573  0.92114986  0.92456828  1
  O  O59  1  0.61580427  0.57885014  0.42456828  1
  O  O60  1  0.48665821  0.18166457  0.97436021  1
  O  O61  1  0.01334179  0.31833543  0.47436021  1
  O  O62  1  0.51334179  0.81833543  0.02563979  1
  O  O63  1  0.98665821  0.68166457  0.52563979  1
  O  O64  1  0.79015665  0.20118335  0.09766116  1
  O  O65  1  0.70984335  0.29881665  0.59766116  1
  O  O66  1  0.20984335  0.79881665  0.90233884  1
  O  O67  1  0.29015665  0.70118335  0.40233884  1
  O  O68  1  0.56562313  0.34328187  0.09761154  1
  O  O69  1  0.93437687  0.15671813  0.59761154  1
  O  O70  1  0.43437687  0.65671813  0.90238846  1
  O  O71  1  0.06562313  0.84328187  0.40238846  1
  O  O72  1  0.83047766  0.32755095  0.94101323  1
  O  O73  1  0.66952234  0.17244905  0.44101323  1
  O  O74  1  0.16952234  0.67244905  0.05898677  1
  O  O75  1  0.33047766  0.82755095  0.55898677  1
  O  O76  1  0.76823966  0.42431701  0.77558578  1
  O  O77  1  0.73176034  0.07568299  0.27558578  1
  O  O78  1  0.23176034  0.57568299  0.22441422  1
  O  O79  1  0.26823966  0.92431701  0.72441422  1
  O  O80  1  0.05118962  0.52521716  0.88652466  1
  O  O81  1  0.44881038  0.97478284  0.38652466  1
  O  O82  1  0.94881038  0.47478284  0.11347534  1
  O  O83  1  0.55118962  0.02521716  0.61347534  1
  O  O84  1  0.67641396  0.51366632  0.94624350  1
  O  O85  1  0.82358604  0.98633368  0.44624350  1
  O  O86  1  0.32358604  0.48633368  0.05375650  1
  O  O87  1  0.17641396  0.01366632  0.55375650  1
