# generated using pymatgen
data_Na4H6Se2O11
_symmetry_space_group_name_H-M   'P 1'
_cell_length_a   5.58353293
_cell_length_b   5.58353293
_cell_length_c   18.29789607
_cell_angle_alpha   96.74568169
_cell_angle_beta   96.74568169
_cell_angle_gamma   103.30429742
_symmetry_Int_Tables_number   1
_chemical_formula_structural   Na4H6Se2O11
_chemical_formula_sum   'Na8 H12 Se4 O22'
_cell_volume   545.10242484
_cell_formula_units_Z   2
loop_
 _symmetry_equiv_pos_site_id
 _symmetry_equiv_pos_as_xyz
  1  'x, y, z'
loop_
 _atom_site_type_symbol
 _atom_site_label
 _atom_site_symmetry_multiplicity
 _atom_site_fract_x
 _atom_site_fract_y
 _atom_site_fract_z
 _atom_site_occupancy
  Na  Na0  1  0.56403383  0.24352026  0.19127874  1
  Na  Na1  1  0.05224152  0.37275509  0.80872126  1
  Na  Na2  1  0.62275509  0.80224152  0.30872126  1
  Na  Na3  1  0.49352026  0.31403383  0.69127874  1
  Na  Na4  1  0.89905881  0.31377242  0.00535446  1
  Na  Na5  1  0.30841796  0.89370436  0.99464554  1
  Na  Na6  1  0.14370436  0.05841796  0.49464554  1
  Na  Na7  1  0.56377242  0.64905881  0.50535446  1
  H  H8  1  0.26624538  0.64175662  0.17139823  1
  H  H9  1  0.47035839  0.09484715  0.82860177  1
  H  H10  1  0.34484715  0.22035839  0.32860177  1
  H  H11  1  0.89175662  0.01624538  0.67139823  1
  H  H12  1  0.15237834  0.49827387  0.23240910  1
  H  H13  1  0.26586477  0.91996925  0.76759090  1
  H  H14  1  0.16996925  0.01586477  0.26759090  1
  H  H15  1  0.74827387  0.90237834  0.73240910  1
  H  H16  1  0.37327671  0.42183464  0.95796526  1
  H  H17  1  0.46386938  0.41531144  0.04203474  1
  H  H18  1  0.66531144  0.21386938  0.54203474  1
  H  H19  1  0.67183464  0.12327671  0.45796526  1
  Se  Se20  1  0.86269845  0.83686491  0.12297954  1
  Se  Se21  1  0.71388537  0.73971891  0.87702046  1
  Se  Se22  1  0.98971891  0.46388537  0.37702046  1
  Se  Se23  1  0.08686491  0.61269845  0.62297954  1
  O  O24  1  0.72863701  0.52893937  0.10506993  1
  O  O25  1  0.42386944  0.62356708  0.89493007  1
  O  O26  1  0.87356708  0.17386944  0.39493007  1
  O  O27  1  0.77893937  0.47863701  0.60506993  1
  O  O28  1  0.71390203  0.98432052  0.06534220  1
  O  O29  1  0.91897831  0.64855983  0.93465780  1
  O  O30  1  0.89855983  0.66897831  0.43465780  1
  O  O31  1  0.23432052  0.46390203  0.56534220  1
  O  O32  1  0.84592744  0.95482857  0.21009811  1
  O  O33  1  0.74473045  0.63582933  0.78990189  1
  O  O34  1  0.88582933  0.49473045  0.28990189  1
  O  O35  1  0.20482857  0.59592744  0.71009811  1
  O  O36  1  0.16319348  0.87435554  0.11214306  1
  O  O37  1  0.76221248  0.05105042  0.88785694  1
  O  O38  1  0.30105042  0.51221248  0.38785694  1
  O  O39  1  0.12435554  0.91319348  0.61214306  1
  O  O40  1  0.30049670  0.52935273  0.20687582  1
  O  O41  1  0.32247691  0.09362088  0.79312418  1
  O  O42  1  0.34362088  0.07247691  0.29312418  1
  O  O43  1  0.77935273  0.05049670  0.70687582  1
  O  O44  1  0.32926684  0.32926684  0.00000000  1
  O  O45  1  0.57926684  0.07926684  0.50000000  1
