# generated using pymatgen
data_ThTe2WO9
_symmetry_space_group_name_H-M   'P 1'
_cell_length_a   7.77712945
_cell_length_b   14.49630427
_cell_length_c   14.49630427
_cell_angle_alpha   85.87368593
_cell_angle_beta   74.44012269
_cell_angle_gamma   74.44012269
_symmetry_Int_Tables_number   1
_chemical_formula_structural   ThTe2WO9
_chemical_formula_sum   'Th8 Te16 W8 O72'
_cell_volume   1516.71054935
_cell_formula_units_Z   8
loop_
 _symmetry_equiv_pos_site_id
 _symmetry_equiv_pos_as_xyz
  1  'x, y, z'
loop_
 _atom_site_type_symbol
 _atom_site_label
 _atom_site_symmetry_multiplicity
 _atom_site_fract_x
 _atom_site_fract_y
 _atom_site_fract_z
 _atom_site_occupancy
  Th  Th0  1  0.84459361  0.36832482  0.39617134  1
  Th  Th1  1  0.60908978  0.13167518  0.10382866  1
  Th  Th2  1  0.71291843  0.39617134  0.13167518  1
  Th  Th3  1  0.24076495  0.10382866  0.36832482  1
  Th  Th4  1  0.15540639  0.63167518  0.60382866  1
  Th  Th5  1  0.39091022  0.86832482  0.89617134  1
  Th  Th6  1  0.28708157  0.60382866  0.86832482  1
  Th  Th7  1  0.75923505  0.89617134  0.63167518  1
  Te  Te8  1  0.55194871  0.59865897  0.34653563  1
  Te  Te9  1  0.49714331  0.90134103  0.15346437  1
  Te  Te10  1  0.65060768  0.34653563  0.90134103  1
  Te  Te11  1  0.89848434  0.15346437  0.59865897  1
  Te  Te12  1  0.44805129  0.40134103  0.65346437  1
  Te  Te13  1  0.50285669  0.09865897  0.84653563  1
  Te  Te14  1  0.34939232  0.65346437  0.09865897  1
  Te  Te15  1  0.10151566  0.84653563  0.40134103  1
  Te  Te16  1  0.31793769  0.37166257  0.35639863  1
  Te  Te17  1  0.04599889  0.12833743  0.14360137  1
  Te  Te18  1  0.18960027  0.35639863  0.12833743  1
  Te  Te19  1  0.67433632  0.14360137  0.37166257  1
  Te  Te20  1  0.68206231  0.62833743  0.64360137  1
  Te  Te21  1  0.95400111  0.87166257  0.85639863  1
  Te  Te22  1  0.81039973  0.64360137  0.87166257  1
  Te  Te23  1  0.32566368  0.85639863  0.62833743  1
  W  W24  1  0.99976803  0.60871107  0.35950309  1
  W  W25  1  0.96798219  0.89128893  0.14049691  1
  W  W26  1  0.10847910  0.35950309  0.89128893  1
  W  W27  1  0.35927112  0.14049691  0.60871107  1
  W  W28  1  0.00023197  0.39128893  0.64049691  1
  W  W29  1  0.03201781  0.10871107  0.85950309  1
  W  W30  1  0.89152090  0.64049691  0.10871107  1
  W  W31  1  0.64072888  0.85950309  0.39128893  1
  O  O32  1  0.76089966  0.55293335  0.40400845  1
  O  O33  1  0.71784145  0.94706665  0.09599155  1
  O  O34  1  0.81383300  0.40400845  0.94706665  1
  O  O35  1  0.16490810  0.09599155  0.55293335  1
  O  O36  1  0.23910034  0.44706665  0.59599155  1
  O  O37  1  0.28215855  0.05293335  0.90400845  1
  O  O38  1  0.18616700  0.59599155  0.05293335  1
  O  O39  1  0.83509190  0.90400845  0.44706665  1
  O  O40  1  0.17601545  0.27946504  0.36049917  1
  O  O41  1  0.81597966  0.22053496  0.13950083  1
  O  O42  1  0.95548049  0.36049917  0.22053496  1
  O  O43  1  0.53651462  0.13950083  0.27946504  1
  O  O44  1  0.82398455  0.72053496  0.63950083  1
  O  O45  1  0.18402034  0.77946504  0.86049917  1
  O  O46  1  0.04451951  0.63950083  0.77946504  1
  O  O47  1  0.46348538  0.86049917  0.72053496  1
  O  O48  1  0.65334863  0.27660624  0.35765873  1
  O  O49  1  0.28761360  0.22339376  0.14234127  1
  O  O50  1  0.42995488  0.35765873  0.22339376  1
  O  O51  1  0.01100736  0.14234127  0.27660624  1
  O  O52  1  0.34665137  0.72339376  0.64234127  1
  O  O53  1  0.71238640  0.77660624  0.85765873  1
  O  O54  1  0.57004512  0.64234127  0.77660624  1
  O  O55  1  0.98899264  0.85765873  0.72339376  1
  O  O56  1  0.96926903  0.40499062  0.51865200  1
  O  O57  1  0.89291166  0.09500938  0.98134800  1
  O  O58  1  0.87425965  0.51865200  0.09500938  1
  O  O59  1  0.48792104  0.98134800  0.40499062  1
  O  O60  1  0.03073097  0.59500938  0.48134800  1
  O  O61  1  0.10708834  0.90499062  0.01865200  1
  O  O62  1  0.12574035  0.48134800  0.90499062  1
  O  O63  1  0.51207896  0.01865200  0.59500938  1
  O  O64  1  0.09947972  0.46475682  0.32999250  1
  O  O65  1  0.89422904  0.03524318  0.17000750  1
  O  O66  1  0.06423654  0.32999250  0.03524318  1
  O  O67  1  0.42947222  0.17000750  0.46475682  1
  O  O68  1  0.90052028  0.53524318  0.67000750  1
  O  O69  1  0.10577096  0.96475682  0.82999250  1
  O  O70  1  0.93576346  0.67000750  0.96475682  1
  O  O71  1  0.57052778  0.82999250  0.53524318  1
  O  O72  1  0.92113713  0.61609168  0.23358278  1
  O  O73  1  0.77081159  0.88390832  0.26641722  1
  O  O74  1  0.03722881  0.23358278  0.88390832  1
  O  O75  1  0.15471991  0.26641722  0.61609168  1
  O  O76  1  0.07886287  0.38390832  0.76641722  1
  O  O77  1  0.22918841  0.11609168  0.73358278  1
  O  O78  1  0.96277119  0.76641722  0.11609168  1
  O  O79  1  0.84528009  0.73358278  0.38390832  1
  O  O80  1  0.38609118  0.60281432  0.46744374  1
  O  O81  1  0.45634923  0.89718568  0.03255626  1
  O  O82  1  0.48890549  0.46744374  0.89718568  1
  O  O83  1  0.85353492  0.03255626  0.60281432  1
  O  O84  1  0.61390882  0.39718568  0.53255626  1
  O  O85  1  0.54365077  0.10281432  0.96744374  1
  O  O86  1  0.51109451  0.53255626  0.10281432  1
  O  O87  1  0.14646508  0.96744374  0.39718568  1
  O  O88  1  0.22101514  0.63078916  0.29751911  1
  O  O89  1  0.14932341  0.86921084  0.20248089  1
  O  O90  1  0.35180430  0.29751911  0.86921084  1
  O  O91  1  0.51853426  0.20248089  0.63078916  1
  O  O92  1  0.77898486  0.36921084  0.70248089  1
  O  O93  1  0.85067659  0.13078916  0.79751911  1
  O  O94  1  0.64819570  0.70248089  0.13078916  1
  O  O95  1  0.48146574  0.79751911  0.36921084  1
  O  O96  1  0.59789589  0.46690880  0.30868405  1
  O  O97  1  0.37348875  0.03309120  0.19131595  1
  O  O98  1  0.56480469  0.30868405  0.03309120  1
  O  O99  1  0.90657995  0.19131595  0.46690880  1
  O  O100  1  0.40210411  0.53309120  0.69131595  1
  O  O101  1  0.62651125  0.96690880  0.80868405  1
  O  O102  1  0.43519531  0.69131595  0.96690880  1
  O  O103  1  0.09342005  0.80868405  0.53309120  1
