# generated using pymatgen
data_Tb2Fe17
_symmetry_space_group_name_H-M   'P 1'
_cell_length_a   8.24559039
_cell_length_b   8.51205299
_cell_length_c   8.51205299
_cell_angle_alpha   120.00410995
_cell_angle_beta   90.00000000
_cell_angle_gamma   90.00000000
_symmetry_Int_Tables_number   1
_chemical_formula_structural   Tb2Fe17
_chemical_formula_sum   'Tb4 Fe34'
_cell_volume   517.37213934
_cell_formula_units_Z   2
loop_
 _symmetry_equiv_pos_site_id
 _symmetry_equiv_pos_as_xyz
  1  'x, y, z'
loop_
 _atom_site_type_symbol
 _atom_site_label
 _atom_site_symmetry_multiplicity
 _atom_site_fract_x
 _atom_site_fract_y
 _atom_site_fract_z
 _atom_site_occupancy
  Tb  Tb0  1  0.75000000  0.00002799  0.99997201  1
  Tb  Tb1  1  0.25000000  0.99997201  0.00002799  1
  Tb  Tb2  1  0.25000000  0.66674211  0.33325789  1
  Tb  Tb3  1  0.75000000  0.33325789  0.66674211  1
  Fe  Fe4  1  0.60661556  0.66670945  0.33329055  1
  Fe  Fe5  1  0.39338444  0.33329055  0.66670945  1
  Fe  Fe6  1  0.10661556  0.33329055  0.66670945  1
  Fe  Fe7  1  0.89338444  0.66670945  0.33329055  1
  Fe  Fe8  1  0.50000000  0.50000000  -0.00000000  1
  Fe  Fe9  1  0.50000000  0.50000000  0.50000000  1
  Fe  Fe10  1  0.50000000  0.00000000  0.50000000  1
  Fe  Fe11  1  0.00000000  0.50000000  -0.00000000  1
  Fe  Fe12  1  0.00000000  0.50000000  0.50000000  1
  Fe  Fe13  1  0.00000000  0.00000000  0.50000000  1
  Fe  Fe14  1  0.75000000  0.67050777  0.03978720  1
  Fe  Fe15  1  0.75000000  0.36918769  0.32934682  1
  Fe  Fe16  1  0.75000000  0.96025061  0.63067356  1
  Fe  Fe17  1  0.75000000  0.36932644  0.03974939  1
  Fe  Fe18  1  0.75000000  0.96021280  0.32949223  1
  Fe  Fe19  1  0.75000000  0.67065318  0.63081231  1
  Fe  Fe20  1  0.25000000  0.32949223  0.96021280  1
  Fe  Fe21  1  0.25000000  0.63081231  0.67065318  1
  Fe  Fe22  1  0.25000000  0.03974939  0.36932644  1
  Fe  Fe23  1  0.25000000  0.63067356  0.96025061  1
  Fe  Fe24  1  0.25000000  0.03978720  0.67050777  1
  Fe  Fe25  1  0.25000000  0.32934682  0.36918769  1
  Fe  Fe26  1  0.48422069  0.83406934  0.66793599  1
  Fe  Fe27  1  0.48414775  0.83395310  0.16604690  1
  Fe  Fe28  1  0.48422069  0.33206401  0.16593066  1
  Fe  Fe29  1  0.51577931  0.16593066  0.33206401  1
  Fe  Fe30  1  0.51585225  0.16604690  0.83395310  1
  Fe  Fe31  1  0.51577931  0.66793599  0.83406934  1
  Fe  Fe32  1  0.98422069  0.16593066  0.33206401  1
  Fe  Fe33  1  0.98414775  0.16604690  0.83395310  1
  Fe  Fe34  1  0.98422069  0.66793599  0.83406934  1
  Fe  Fe35  1  0.01577931  0.83406934  0.66793599  1
  Fe  Fe36  1  0.01585225  0.83395310  0.16604690  1
  Fe  Fe37  1  0.01577931  0.33206401  0.16593066  1
