# generated using pymatgen
data_Tb2CuH4(SO6)2
_symmetry_space_group_name_H-M   'P 1'
_cell_length_a   6.36197614
_cell_length_b   6.78631277
_cell_length_c   10.83314200
_cell_angle_alpha   90.00000000
_cell_angle_beta   97.91415510
_cell_angle_gamma   90.00000000
_symmetry_Int_Tables_number   1
_chemical_formula_structural   Tb2CuH4(SO6)2
_chemical_formula_sum   'Tb4 Cu2 H8 S4 O24'
_cell_volume   463.25921898
_cell_formula_units_Z   2
loop_
 _symmetry_equiv_pos_site_id
 _symmetry_equiv_pos_as_xyz
  1  'x, y, z'
loop_
 _atom_site_type_symbol
 _atom_site_label
 _atom_site_symmetry_multiplicity
 _atom_site_fract_x
 _atom_site_fract_y
 _atom_site_fract_z
 _atom_site_occupancy
  Tb  Tb0  1  0.07915479  0.49257819  0.31905085  1
  Tb  Tb1  1  0.92084521  0.99257819  0.18094915  1
  Tb  Tb2  1  0.92084521  0.50742181  0.68094915  1
  Tb  Tb3  1  0.07915479  0.00742181  0.81905085  1
  Cu  Cu4  1  0.00000000  0.50000000  -0.00000000  1
  Cu  Cu5  1  0.00000000  0.00000000  0.50000000  1
  H  H6  1  0.76251121  0.28298081  0.88188526  1
  H  H7  1  0.23748879  0.78298081  0.61811474  1
  H  H8  1  0.23748879  0.71701919  0.11811474  1
  H  H9  1  0.76251121  0.21701919  0.38188526  1
  H  H10  1  0.72943582  0.37715712  0.11788270  1
  H  H11  1  0.27056418  0.87715712  0.38211730  1
  H  H12  1  0.27056418  0.62284288  0.88211730  1
  H  H13  1  0.72943582  0.12284288  0.61788270  1
  S  S14  1  0.64001889  0.66958815  0.37124019  1
  S  S15  1  0.35998111  0.16958815  0.12875981  1
  S  S16  1  0.35998111  0.33041185  0.62875981  1
  S  S17  1  0.64001889  0.83041185  0.87124019  1
  O  O18  1  0.90498021  0.31576236  0.86432434  1
  O  O19  1  0.09501979  0.81576236  0.63567566  1
  O  O20  1  0.09501979  0.68423764  0.13567566  1
  O  O21  1  0.90498021  0.18423764  0.36432434  1
  O  O22  1  0.88051939  0.33968693  0.12945779  1
  O  O23  1  0.11948061  0.83968693  0.37054221  1
  O  O24  1  0.11948061  0.66031307  0.87054221  1
  O  O25  1  0.88051939  0.16031307  0.62945779  1
  O  O26  1  0.74960437  0.69227446  0.25603266  1
  O  O27  1  0.25039563  0.19227446  0.24396734  1
  O  O28  1  0.25039563  0.30772554  0.74396734  1
  O  O29  1  0.74960437  0.80772554  0.75603266  1
  O  O30  1  0.80224658  0.55242721  0.45792760  1
  O  O31  1  0.19775342  0.05242721  0.04207240  1
  O  O32  1  0.19775342  0.44757279  0.54207240  1
  O  O33  1  0.80224658  0.94757279  0.95792760  1
  O  O34  1  0.44795358  0.54769426  0.33919165  1
  O  O35  1  0.55204642  0.04769426  0.16080835  1
  O  O36  1  0.55204642  0.45230574  0.66080835  1
  O  O37  1  0.44795358  0.95230574  0.83919165  1
  O  O38  1  0.59564676  0.85836187  0.42574863  1
  O  O39  1  0.40435324  0.35836187  0.07425137  1
  O  O40  1  0.40435324  0.14163813  0.57425137  1
  O  O41  1  0.59564676  0.64163813  0.92574863  1
