# generated using pymatgen
data_Pr6Fe13Hg
_symmetry_space_group_name_H-M   'P 1'
_cell_length_a   8.07079845
_cell_length_b   8.07079845
_cell_length_c   12.97117931
_cell_angle_alpha   108.12583553
_cell_angle_beta   108.12583553
_cell_angle_gamma   90.00000000
_symmetry_Int_Tables_number   1
_chemical_formula_structural   Pr6Fe13Hg
_chemical_formula_sum   'Pr12 Fe26 Hg2'
_cell_volume   758.74369165
_cell_formula_units_Z   2
loop_
 _symmetry_equiv_pos_site_id
 _symmetry_equiv_pos_as_xyz
  1  'x, y, z'
loop_
 _atom_site_type_symbol
 _atom_site_label
 _atom_site_symmetry_multiplicity
 _atom_site_fract_x
 _atom_site_fract_y
 _atom_site_fract_z
 _atom_site_occupancy
  Pr  Pr0  1  0.97673695  0.47673695  0.62815624  1
  Pr  Pr1  1  0.65141930  0.15141930  0.62815624  1
  Pr  Pr2  1  0.15141930  0.97673695  0.62815624  1
  Pr  Pr3  1  0.47673695  0.65141930  0.62815624  1
  Pr  Pr4  1  0.02326305  0.52326305  0.37184376  1
  Pr  Pr5  1  0.34858070  0.84858070  0.37184376  1
  Pr  Pr6  1  0.84858070  0.02326305  0.37184376  1
  Pr  Pr7  1  0.52326305  0.34858070  0.37184376  1
  Pr  Pr8  1  0.60548030  0.60548030  0.21096060  1
  Pr  Pr9  1  0.10548030  0.10548030  0.21096060  1
  Pr  Pr10  1  0.39451970  0.39451970  0.78903940  1
  Pr  Pr11  1  0.89451970  0.89451970  0.78903940  1
  Fe  Fe12  1  0.11973349  0.61973349  0.88272942  1
  Fe  Fe13  1  0.76299592  0.26299592  0.88272942  1
  Fe  Fe14  1  0.26299592  0.11973349  0.88272942  1
  Fe  Fe15  1  0.61973349  0.76299592  0.88272942  1
  Fe  Fe16  1  0.88026651  0.38026651  0.11727058  1
  Fe  Fe17  1  0.23700408  0.73700408  0.11727058  1
  Fe  Fe18  1  0.73700408  0.88026651  0.11727058  1
  Fe  Fe19  1  0.38026651  0.23700408  0.11727058  1
  Fe  Fe20  1  0.71087865  0.56655698  -0.00000000  1
  Fe  Fe21  1  0.28912135  0.43344302  0.00000000  1
  Fe  Fe22  1  0.78912135  0.06655698  0.00000000  1
  Fe  Fe23  1  0.21087865  0.93344302  -0.00000000  1
  Fe  Fe24  1  0.56655698  0.28912135  0.00000000  1
  Fe  Fe25  1  0.43344302  0.71087865  -0.00000000  1
  Fe  Fe26  1  0.06655698  0.21087865  -0.00000000  1
  Fe  Fe27  1  0.93344302  0.78912135  0.00000000  1
  Fe  Fe28  1  0.29277741  0.79277741  0.81198467  1
  Fe  Fe29  1  0.51920726  0.01920726  0.81198467  1
  Fe  Fe30  1  0.01920726  0.29277741  0.81198467  1
  Fe  Fe31  1  0.79277741  0.51920726  0.81198467  1
  Fe  Fe32  1  0.70722259  0.20722259  0.18801533  1
  Fe  Fe33  1  0.48079274  0.98079274  0.18801533  1
  Fe  Fe34  1  0.98079274  0.70722259  0.18801533  1
  Fe  Fe35  1  0.20722259  0.48079274  0.18801533  1
  Fe  Fe36  1  -0.00000000  0.50000000  0.00000000  1
  Fe  Fe37  1  0.50000000  0.00000000  0.00000000  1
  Hg  Hg38  1  0.25000000  0.25000000  0.50000000  1
  Hg  Hg39  1  0.75000000  0.75000000  0.50000000  1
