# generated using pymatgen
data_CaB6(H4O7)2
_symmetry_space_group_name_H-M   'P 1'
_cell_length_a   8.08752554
_cell_length_b   9.90254236
_cell_length_c   14.71644697
_cell_angle_alpha   107.54397609
_cell_angle_beta   90.00000000
_cell_angle_gamma   90.00000000
_symmetry_Int_Tables_number   1
_chemical_formula_structural   CaB6(H4O7)2
_chemical_formula_sum   'Ca4 B24 H32 O56'
_cell_volume   1123.77561778
_cell_formula_units_Z   4
loop_
 _symmetry_equiv_pos_site_id
 _symmetry_equiv_pos_as_xyz
  1  'x, y, z'
loop_
 _atom_site_type_symbol
 _atom_site_label
 _atom_site_symmetry_multiplicity
 _atom_site_fract_x
 _atom_site_fract_y
 _atom_site_fract_z
 _atom_site_occupancy
  Ca  Ca0  1  0.55751170  0.47192725  0.69087726  1
  Ca  Ca1  1  0.05751170  0.02807275  0.80912274  1
  Ca  Ca2  1  0.44248830  0.52807275  0.30912274  1
  Ca  Ca3  1  0.94248830  0.97192725  0.19087726  1
  B  B4  1  0.65092284  0.83920710  0.68405204  1
  B  B5  1  0.15092284  0.66079290  0.81594796  1
  B  B6  1  0.34907716  0.16079290  0.31594796  1
  B  B7  1  0.84907716  0.33920710  0.18405204  1
  B  B8  1  0.65303501  0.10429344  0.68603348  1
  B  B9  1  0.15303501  0.39570656  0.81396652  1
  B  B10  1  0.34696499  0.89570656  0.31396652  1
  B  B11  1  0.84696499  0.60429344  0.18603348  1
  B  B12  1  0.73094513  0.91219063  0.54215034  1
  B  B13  1  0.23094513  0.58780937  0.95784966  1
  B  B14  1  0.26905487  0.08780937  0.45784966  1
  B  B15  1  0.76905487  0.41219063  0.04215034  1
  B  B16  1  0.44870967  0.02557011  0.79669063  1
  B  B17  1  0.94870967  0.47442989  0.70330937  1
  B  B18  1  0.55129033  0.97442989  0.20330937  1
  B  B19  1  0.05129033  0.52557011  0.29669063  1
  B  B20  1  0.38661463  0.23227469  0.74501498  1
  B  B21  1  0.88661463  0.26772531  0.75498502  1
  B  B22  1  0.61338537  0.76772531  0.25498502  1
  B  B23  1  0.11338537  0.73227469  0.24501498  1
  B  B24  1  0.39087274  0.76772676  0.75148837  1
  B  B25  1  0.89087274  0.73227324  0.74851163  1
  B  B26  1  0.60912726  0.23227324  0.24851163  1
  B  B27  1  0.10912726  0.26772676  0.25148837  1
  H  H28  1  0.83726432  0.77732272  0.42501352  1
  H  H29  1  0.33726432  0.72267728  0.07498648  1
  H  H30  1  0.16273568  0.22267728  0.57498648  1
  H  H31  1  0.66273568  0.27732272  0.92501352  1
  H  H32  1  0.65537616  0.35064403  0.47599845  1
  H  H33  1  0.15537616  0.14935597  0.02400155  1
  H  H34  1  0.34462384  0.64935597  0.52400155  1
  H  H35  1  0.84462384  0.85064403  0.97599845  1
  H  H36  1  0.68055330  0.22689555  0.52400054  1
  H  H37  1  0.18055330  0.27310445  0.97599946  1
  H  H38  1  0.31944670  0.77310445  0.47599946  1
  H  H39  1  0.81944670  0.72689555  0.02400054  1
  H  H40  1  0.45551224  0.11169779  0.93676622  1
  H  H41  1  0.95551224  0.38830221  0.56323378  1
  H  H42  1  0.54448776  0.88830221  0.06323378  1
  H  H43  1  0.04448776  0.61169779  0.43676622  1
  H  H44  1  0.23867948  0.45755064  0.58963508  1
  H  H45  1  0.73867948  0.04244936  0.91036492  1
  H  H46  1  0.76132052  0.54244936  0.41036492  1
  H  H47  1  0.26132052  0.95755064  0.08963508  1
  H  H48  1  0.35279222  0.37278218  0.50743424  1
  H  H49  1  0.85279222  0.12721782  0.99256576  1
  H  H50  1  0.64720778  0.62721782  0.49256576  1
  H  H51  1  0.14720778  0.87278218  0.00743424  1
  H  H52  1  0.55234188  0.64811981  0.90392123  1
  H  H53  1  0.05234188  0.85188019  0.59607877  1
  H  H54  1  0.44765812  0.35188019  0.09607877  1
  H  H55  1  0.94765812  0.14811981  0.40392123  1
  H  H56  1  0.63576845  0.50124663  0.89843106  1
  H  H57  1  0.13576845  0.99875337  0.60156894  1
  H  H58  1  0.36423155  0.49875337  0.10156894  1
  H  H59  1  0.86423155  0.00124663  0.39843106  1
  O  O60  1  0.53123146  0.73387619  0.69509038  1
  O  O61  1  0.03123146  0.76612381  0.80490962  1
  O  O62  1  0.46876854  0.26612381  0.30490962  1
  O  O63  1  0.96876854  0.23387619  0.19509038  1
  O  O64  1  0.53740230  0.22258305  0.69998446  1
  O  O65  1  0.03740230  0.27741695  0.80001554  1
  O  O66  1  0.46259770  0.77741695  0.30001554  1
  O  O67  1  0.96259770  0.72258305  0.19998446  1
  O  O68  1  0.80449980  0.87715083  0.45248425  1
  O  O69  1  0.30449980  0.62284917  0.04751575  1
  O  O70  1  0.19550020  0.12284917  0.54751575  1
  O  O71  1  0.69550020  0.37715083  0.95248425  1
  O  O72  1  0.69743675  0.32801931  0.53230231  1
  O  O73  1  0.19743675  0.17198069  0.96769769  1
  O  O74  1  0.30256325  0.67198069  0.46769769  1
  O  O75  1  0.80256325  0.82801931  0.03230231  1
  O  O76  1  0.53998530  0.08832980  0.88681450  1
  O  O77  1  0.03998530  0.41167020  0.61318550  1
  O  O78  1  0.46001470  0.91167020  0.11318550  1
  O  O79  1  0.96001470  0.58832980  0.38681450  1
  O  O80  1  0.30038579  0.35402614  0.75326174  1
  O  O81  1  0.80038579  0.14597386  0.74673826  1
  O  O82  1  0.69961421  0.64597386  0.24673826  1
  O  O83  1  0.19961421  0.85402614  0.25326174  1
  O  O84  1  0.33095755  0.12806113  0.78057263  1
  O  O85  1  0.83095755  0.37193887  0.71942737  1
  O  O86  1  0.66904245  0.87193887  0.21942737  1
  O  O87  1  0.16904245  0.62806113  0.28057263  1
  O  O88  1  0.29864994  0.65444935  0.75665104  1
  O  O89  1  0.79864994  0.84555065  0.74334896  1
  O  O90  1  0.70135006  0.34555065  0.24334896  1
  O  O91  1  0.20135006  0.15444935  0.25665104  1
  O  O92  1  0.34997485  0.90416608  0.80058448  1
  O  O93  1  0.84997485  0.59583392  0.69941552  1
  O  O94  1  0.65002515  0.09583392  0.19941552  1
  O  O95  1  0.15002515  0.40416608  0.30058448  1
  O  O96  1  0.69702622  0.80698162  0.58295911  1
  O  O97  1  0.19702622  0.69301838  0.91704089  1
  O  O98  1  0.30297378  0.19301838  0.41704089  1
  O  O99  1  0.80297378  0.30698162  0.08295911  1
  O  O100  1  0.69797845  0.05197371  0.58526572  1
  O  O101  1  0.19797845  0.44802629  0.91473428  1
  O  O102  1  0.30202155  0.94802629  0.41473428  1
  O  O103  1  0.80202155  0.55197371  0.08526572  1
  O  O104  1  0.35415529  0.45581782  0.56505707  1
  O  O105  1  0.85415529  0.04418218  0.93494293  1
  O  O106  1  0.64584471  0.54418218  0.43494293  1
  O  O107  1  0.14584471  0.95581782  0.06505707  1
  O  O108  1  0.60435951  0.56550077  0.86043116  1
  O  O109  1  0.10435951  0.93449923  0.63956884  1
  O  O110  1  0.39564049  0.43449923  0.13956884  1
  O  O111  1  0.89564049  0.06550077  0.36043116  1
  O  O112  1  0.57044421  0.98495488  0.71547214  1
  O  O113  1  0.07044421  0.51504512  0.78452786  1
  O  O114  1  0.42955579  0.01504512  0.28452786  1
  O  O115  1  0.92955579  0.48495488  0.21547214  1
