# generated using pymatgen
data_Sr5Bi3
_symmetry_space_group_name_H-M   'P 1'
_cell_length_a   8.94565495
_cell_length_b   10.34240158
_cell_length_c   13.64727702
_cell_angle_alpha   90.00000000
_cell_angle_beta   90.00000000
_cell_angle_gamma   90.00000000
_symmetry_Int_Tables_number   1
_chemical_formula_structural   Sr5Bi3
_chemical_formula_sum   'Sr20 Bi12'
_cell_volume   1262.64000898
_cell_formula_units_Z   4
loop_
 _symmetry_equiv_pos_site_id
 _symmetry_equiv_pos_as_xyz
  1  'x, y, z'
loop_
 _atom_site_type_symbol
 _atom_site_label
 _atom_site_symmetry_multiplicity
 _atom_site_fract_x
 _atom_site_fract_y
 _atom_site_fract_z
 _atom_site_occupancy
  Sr  Sr0  1  0.69207885  0.96019769  0.42200872  1
  Sr  Sr1  1  0.80792115  0.53980231  0.92200872  1
  Sr  Sr2  1  0.30792115  0.46019769  0.57799128  1
  Sr  Sr3  1  0.19207885  0.03980231  0.07799128  1
  Sr  Sr4  1  0.30792115  0.03980231  0.57799128  1
  Sr  Sr5  1  0.19207885  0.46019769  0.07799128  1
  Sr  Sr6  1  0.69207885  0.53980231  0.42200872  1
  Sr  Sr7  1  0.80792115  0.96019769  0.92200872  1
  Sr  Sr8  1  0.32329149  0.75000000  0.27396395  1
  Sr  Sr9  1  0.17670851  0.75000000  0.77396395  1
  Sr  Sr10  1  0.67670851  0.25000000  0.72603605  1
  Sr  Sr11  1  0.82329149  0.25000000  0.22603605  1
  Sr  Sr12  1  0.03755354  0.75000000  0.49532968  1
  Sr  Sr13  1  0.46244646  0.75000000  0.99532968  1
  Sr  Sr14  1  0.96244646  0.25000000  0.50467032  1
  Sr  Sr15  1  0.53755354  0.25000000  0.00467032  1
  Sr  Sr16  1  0.84883966  0.75000000  0.20724524  1
  Sr  Sr17  1  0.65116034  0.75000000  0.70724524  1
  Sr  Sr18  1  0.15116034  0.25000000  0.79275476  1
  Sr  Sr19  1  0.34883966  0.25000000  0.29275476  1
  Bi  Bi20  1  0.07559797  0.75000000  0.01521140  1
  Bi  Bi21  1  0.42440203  0.75000000  0.51521140  1
  Bi  Bi22  1  0.92440203  0.25000000  0.98478860  1
  Bi  Bi23  1  0.57559797  0.25000000  0.48478860  1
  Bi  Bi24  1  0.56352730  0.98794293  0.17074896  1
  Bi  Bi25  1  0.93647270  0.51205707  0.67074896  1
  Bi  Bi26  1  0.43647270  0.48794293  0.82925104  1
  Bi  Bi27  1  0.06352730  0.01205707  0.32925104  1
  Bi  Bi28  1  0.43647270  0.01205707  0.82925104  1
  Bi  Bi29  1  0.06352730  0.48794293  0.32925104  1
  Bi  Bi30  1  0.56352730  0.51205707  0.17074896  1
  Bi  Bi31  1  0.93647270  0.98794293  0.67074896  1
