# generated using pymatgen
data_CsFe5(MoO4)7
_symmetry_space_group_name_H-M   'P 1'
_cell_length_a   7.06069176
_cell_length_b   8.82019713
_cell_length_c   21.83487648
_cell_angle_alpha   90.00000000
_cell_angle_beta   90.00000000
_cell_angle_gamma   101.93328047
_symmetry_Int_Tables_number   1
_chemical_formula_structural   CsFe5(MoO4)7
_chemical_formula_sum   'Cs2 Fe10 Mo14 O56'
_cell_volume   1330.41724346
_cell_formula_units_Z   2
loop_
 _symmetry_equiv_pos_site_id
 _symmetry_equiv_pos_as_xyz
  1  'x, y, z'
loop_
 _atom_site_type_symbol
 _atom_site_label
 _atom_site_symmetry_multiplicity
 _atom_site_fract_x
 _atom_site_fract_y
 _atom_site_fract_z
 _atom_site_occupancy
  Cs  Cs0  1  0.49481861  0.96874969  0.75000000  1
  Cs  Cs1  1  0.50518139  0.03125031  0.25000000  1
  Fe  Fe2  1  0.64804089  0.65864936  0.59861680  1
  Fe  Fe3  1  0.35195911  0.34135064  0.09861680  1
  Fe  Fe4  1  0.35195911  0.34135064  0.40138320  1
  Fe  Fe5  1  0.64804089  0.65864936  0.90138320  1
  Fe  Fe6  1  0.04535122  0.31124070  0.75000000  1
  Fe  Fe7  1  0.95464878  0.68875930  0.25000000  1
  Fe  Fe8  1  0.97487867  0.81130037  0.00241480  1
  Fe  Fe9  1  0.02512133  0.18869963  0.50241480  1
  Fe  Fe10  1  0.02512133  0.18869963  0.99758520  1
  Fe  Fe11  1  0.97487867  0.81130037  0.49758520  1
  Mo  Mo12  1  0.98725155  0.96969561  0.64235354  1
  Mo  Mo13  1  0.01274845  0.03030439  0.14235354  1
  Mo  Mo14  1  0.01274845  0.03030439  0.35764646  1
  Mo  Mo15  1  0.98725155  0.96969561  0.85764646  1
  Mo  Mo16  1  0.11864519  0.55015315  0.60836396  1
  Mo  Mo17  1  0.88135481  0.44984685  0.10836396  1
  Mo  Mo18  1  0.88135481  0.44984685  0.39163604  1
  Mo  Mo19  1  0.11864519  0.55015315  0.89163604  1
  Mo  Mo20  1  0.58555095  0.43669710  0.75000000  1
  Mo  Mo21  1  0.41444905  0.56330290  0.25000000  1
  Mo  Mo22  1  0.47103962  0.75146566  0.04233968  1
  Mo  Mo23  1  0.52896038  0.24853434  0.54233968  1
  Mo  Mo24  1  0.52896038  0.24853434  0.95766032  1
  Mo  Mo25  1  0.47103962  0.75146566  0.45766032  1
  O  O26  1  0.73907435  0.85739032  0.64511474  1
  O  O27  1  0.26092565  0.14260968  0.14511474  1
  O  O28  1  0.26092565  0.14260968  0.35488526  1
  O  O29  1  0.73907435  0.85739032  0.85488526  1
  O  O30  1  0.00185470  0.14745227  0.68528934  1
  O  O31  1  0.99814530  0.85254773  0.18528934  1
  O  O32  1  0.99814530  0.85254773  0.31471066  1
  O  O33  1  0.00185470  0.14745227  0.81471066  1
  O  O34  1  0.04343046  0.00577383  0.56148779  1
  O  O35  1  0.95656954  0.99422617  0.06148779  1
  O  O36  1  0.95656954  0.99422617  0.43851221  1
  O  O37  1  0.04343046  0.00577383  0.93851221  1
  O  O38  1  0.13947425  0.85912649  0.67476455  1
  O  O39  1  0.86052575  0.14087351  0.17476455  1
  O  O40  1  0.86052575  0.14087351  0.32523545  1
  O  O41  1  0.13947425  0.85912649  0.82523545  1
  O  O42  1  0.36490295  0.65491878  0.59907406  1
  O  O43  1  0.63509705  0.34508122  0.09907406  1
  O  O44  1  0.63509705  0.34508122  0.40092594  1
  O  O45  1  0.36490295  0.65491878  0.90092594  1
  O  O46  1  0.07349795  0.48258116  0.68530586  1
  O  O47  1  0.92650205  0.51741884  0.18530586  1
  O  O48  1  0.92650205  0.51741884  0.31469414  1
  O  O49  1  0.07349795  0.48258116  0.81469414  1
  O  O50  1  0.09170009  0.38372243  0.56220325  1
  O  O51  1  0.90829991  0.61627757  0.06220325  1
  O  O52  1  0.90829991  0.61627757  0.43779675  1
  O  O53  1  0.09170009  0.38372243  0.93779675  1
  O  O54  1  0.94375833  0.66432357  0.58014832  1
  O  O55  1  0.05624167  0.33567643  0.08014832  1
  O  O56  1  0.05624167  0.33567643  0.41985168  1
  O  O57  1  0.94375833  0.66432357  0.91985168  1
  O  O58  1  0.33962726  0.32683190  0.75000000  1
  O  O59  1  0.66037274  0.67316810  0.25000000  1
  O  O60  1  0.75078669  0.30605832  0.75000000  1
  O  O61  1  0.24921331  0.69394168  0.25000000  1
  O  O62  1  0.62783534  0.55553339  0.81708796  1
  O  O63  1  0.37216466  0.44446661  0.31708796  1
  O  O64  1  0.37216466  0.44446661  0.18291204  1
  O  O65  1  0.62783534  0.55553339  0.68291204  1
  O  O66  1  0.66858962  0.77471710  0.98323587  1
  O  O67  1  0.33141038  0.22528290  0.48323587  1
  O  O68  1  0.33141038  0.22528290  0.01676413  1
  O  O69  1  0.66858962  0.77471710  0.51676413  1
  O  O70  1  0.26431026  0.82170382  0.01681990  1
  O  O71  1  0.73568974  0.17829618  0.51681990  1
  O  O72  1  0.73568974  0.17829618  0.98318010  1
  O  O73  1  0.26431026  0.82170382  0.48318010  1
  O  O74  1  0.55645908  0.84730350  0.10932864  1
  O  O75  1  0.44354092  0.15269650  0.60932864  1
  O  O76  1  0.44354092  0.15269650  0.89067136  1
  O  O77  1  0.55645908  0.84730350  0.39067136  1
  O  O78  1  0.39468020  0.54797181  0.05994508  1
  O  O79  1  0.60531980  0.45202819  0.55994508  1
  O  O80  1  0.60531980  0.45202819  0.94005492  1
  O  O81  1  0.39468020  0.54797181  0.44005492  1
