# generated using pymatgen
data_PHN2
_symmetry_space_group_name_H-M   'P 1'
_cell_length_a   4.89273075
_cell_length_b   8.09643106
_cell_length_c   8.31718399
_cell_angle_alpha   108.86120531
_cell_angle_beta   90.00000000
_cell_angle_gamma   90.00000000
_symmetry_Int_Tables_number   1
_chemical_formula_structural   PHN2
_chemical_formula_sum   'P8 H8 N16'
_cell_volume   311.78278875
_cell_formula_units_Z   8
loop_
 _symmetry_equiv_pos_site_id
 _symmetry_equiv_pos_as_xyz
  1  'x, y, z'
loop_
 _atom_site_type_symbol
 _atom_site_label
 _atom_site_symmetry_multiplicity
 _atom_site_fract_x
 _atom_site_fract_y
 _atom_site_fract_z
 _atom_site_occupancy
  P  P0  1  0.71178862  0.31813836  0.26437283  1
  P  P1  1  0.71178862  0.68186164  0.23562717  1
  P  P2  1  0.28821138  0.68186164  0.73562717  1
  P  P3  1  0.28821138  0.31813836  0.76437283  1
  P  P4  1  0.80742686  0.18178061  0.87814267  1
  P  P5  1  0.80742686  0.81821939  0.62185733  1
  P  P6  1  0.19257314  0.81821939  0.12185733  1
  P  P7  1  0.19257314  0.18178061  0.37814267  1
  H  H8  1  0.30120167  0.45520128  0.36928222  1
  H  H9  1  0.30120167  0.54479872  0.13071778  1
  H  H10  1  0.69879833  0.54479872  0.63071778  1
  H  H11  1  0.69879833  0.45520128  0.86928222  1
  H  H12  1  0.68982544  0.04381592  0.06844413  1
  H  H13  1  0.68982544  0.95618408  0.43155587  1
  H  H14  1  0.31017456  0.95618408  0.93155587  1
  H  H15  1  0.31017456  0.04381592  0.56844413  1
  N  N16  1  0.79945967  0.50000000  0.25000000  1
  N  N17  1  0.20054033  0.50000000  0.75000000  1
  N  N18  1  0.71926666  0.16910419  0.06919003  1
  N  N19  1  0.71926666  0.83089581  0.43080997  1
  N  N20  1  0.28073334  0.83089581  0.93080997  1
  N  N21  1  0.28073334  0.16910419  0.56919003  1
  N  N22  1  0.38645401  0.33383922  0.33541742  1
  N  N23  1  0.38645401  0.66616078  0.16458258  1
  N  N24  1  0.61354599  0.66616078  0.66458258  1
  N  N25  1  0.61354599  0.33383922  0.83541742  1
  N  N26  1  0.71647591  -0.00000000  0.75000000  1
  N  N27  1  0.28352409  -0.00000000  0.25000000  1
  N  N28  1  0.88235503  0.24570766  0.39096865  1
  N  N29  1  0.88235503  0.75429234  0.10903135  1
  N  N30  1  0.11764497  0.75429234  0.60903135  1
  N  N31  1  0.11764497  0.24570766  0.89096865  1
