# generated using pymatgen
data_Dy12(ReC3)5
_symmetry_space_group_name_H-M   'P 1'
_cell_length_a   5.10419464
_cell_length_b   10.73623480
_cell_length_c   10.73664473
_cell_angle_alpha   119.99873327
_cell_angle_beta   90.00000000
_cell_angle_gamma   90.00000000
_symmetry_Int_Tables_number   1
_chemical_formula_structural   Dy12(ReC3)5
_chemical_formula_sum   'Dy12 Re5 C15'
_cell_volume   509.54669089
_cell_formula_units_Z   1
loop_
 _symmetry_equiv_pos_site_id
 _symmetry_equiv_pos_as_xyz
  1  'x, y, z'
loop_
 _atom_site_type_symbol
 _atom_site_label
 _atom_site_symmetry_multiplicity
 _atom_site_fract_x
 _atom_site_fract_y
 _atom_site_fract_z
 _atom_site_occupancy
  Dy  Dy0  1  0.00000000  0.27009956  0.45578484  1
  Dy  Dy1  1  0.00000000  0.18568034  0.72990282  1
  Dy  Dy2  1  0.00000000  0.54422080  0.81431508  1
  Dy  Dy3  1  -0.00000000  0.81431472  0.54421516  1
  Dy  Dy4  1  -0.00000000  0.45577753  0.27009718  1
  Dy  Dy5  1  0.00000000  0.72990573  0.18568492  1
  Dy  Dy6  1  0.50000000  0.42627021  1.00000000  1
  Dy  Dy7  1  0.50000000  0.57373095  0.57373556  1
  Dy  Dy8  1  0.50000000  0.99999539  0.42626444  1
  Dy  Dy9  1  0.50000000  0.79467682  0.00000000  1
  Dy  Dy10  1  0.50000000  0.20532218  0.20532319  1
  Dy  Dy11  1  0.50000000  0.99999900  0.79467681  1
  Re  Re12  1  -0.00000000  0.15174231  0.00000000  1
  Re  Re13  1  -0.00000000  0.84826012  0.84825851  1
  Re  Re14  1  -0.00000000  0.00000160  0.15174149  1
  Re  Re15  1  0.50000000  0.33325156  0.66661248  1
  Re  Re16  1  0.50000000  0.66663909  0.33338752  1
  C  C17  1  0.50000000  0.27823025  0.46767979  1
  C  C18  1  0.50000000  0.18946292  0.72178526  1
  C  C19  1  0.50000000  0.53231372  0.81053818  1
  C  C20  1  0.50000000  0.81055046  0.53232021  1
  C  C21  1  0.50000000  0.46767766  0.27821474  1
  C  C22  1  0.50000000  0.72177554  0.18946182  1
  C  C23  1  -0.00000000  0.33303141  1.00000000  1
  C  C24  1  0.00000000  0.66695787  0.66695907  1
  C  C25  1  0.00000000  -0.00000120  0.33304093  1
  C  C26  1  0.00000000  0.45930213  0.00000000  1
  C  C27  1  0.00000000  0.54070207  0.54068284  1
  C  C28  1  0.00000000  0.00001923  0.45931716  1
  C  C29  1  -0.00000000  0.78431261  1.00000000  1
  C  C30  1  -0.00000000  0.21568459  0.21569176  1
  C  C31  1  -0.00000000  0.99999283  0.78430824  1
