# generated using pymatgen
data_K2TaF7
_symmetry_space_group_name_H-M   'P 1'
_cell_length_a   5.87280580
_cell_length_b   9.91288845
_cell_length_c   11.88896139
_cell_angle_alpha   90.00000000
_cell_angle_beta   90.00000000
_cell_angle_gamma   90.00000000
_symmetry_Int_Tables_number   1
_chemical_formula_structural   K2TaF7
_chemical_formula_sum   'K8 Ta4 F28'
_cell_volume   692.13334963
_cell_formula_units_Z   4
loop_
 _symmetry_equiv_pos_site_id
 _symmetry_equiv_pos_as_xyz
  1  'x, y, z'
loop_
 _atom_site_type_symbol
 _atom_site_label
 _atom_site_symmetry_multiplicity
 _atom_site_fract_x
 _atom_site_fract_y
 _atom_site_fract_z
 _atom_site_occupancy
  K  K0  1  0.25000000  0.37179492  0.45081372  1
  K  K1  1  0.25000000  0.87179492  0.04918628  1
  K  K2  1  0.75000000  0.62820508  0.54918628  1
  K  K3  1  0.75000000  0.12820508  0.95081372  1
  K  K4  1  0.75000000  0.03638592  0.32834134  1
  K  K5  1  0.75000000  0.53638592  0.17165866  1
  K  K6  1  0.25000000  0.96361408  0.67165866  1
  K  K7  1  0.25000000  0.46361408  0.82834134  1
  Ta  Ta8  1  0.75000000  0.25736297  0.63156605  1
  Ta  Ta9  1  0.75000000  0.75736297  0.86843395  1
  Ta  Ta10  1  0.25000000  0.74263703  0.36843395  1
  Ta  Ta11  1  0.25000000  0.24263703  0.13156605  1
  F  F12  1  0.96881149  0.13926878  0.55299154  1
  F  F13  1  0.53118851  0.63926878  0.94700846  1
  F  F14  1  0.46881149  0.86073122  0.44700846  1
  F  F15  1  0.03118851  0.36073122  0.05299154  1
  F  F16  1  0.03118851  0.86073122  0.44700846  1
  F  F17  1  0.46881149  0.36073122  0.05299154  1
  F  F18  1  0.53118851  0.13926878  0.55299154  1
  F  F19  1  0.96881149  0.63926878  0.94700846  1
  F  F20  1  0.96916371  0.40911587  0.64684385  1
  F  F21  1  0.53083629  0.90911587  0.85315615  1
  F  F22  1  0.46916371  0.59088413  0.35315615  1
  F  F23  1  0.03083629  0.09088413  0.14684385  1
  F  F24  1  0.03083629  0.59088413  0.35315615  1
  F  F25  1  0.46916371  0.09088413  0.14684385  1
  F  F26  1  0.53083629  0.40911587  0.64684385  1
  F  F27  1  0.96916371  0.90911587  0.85315615  1
  F  F28  1  0.95461773  0.19921476  0.75417087  1
  F  F29  1  0.54538227  0.69921476  0.74582913  1
  F  F30  1  0.45461773  0.80078524  0.24582913  1
  F  F31  1  0.04538227  0.30078524  0.25417087  1
  F  F32  1  0.04538227  0.80078524  0.24582913  1
  F  F33  1  0.45461773  0.30078524  0.25417087  1
  F  F34  1  0.54538227  0.19921476  0.75417087  1
  F  F35  1  0.95461773  0.69921476  0.74582913  1
  F  F36  1  0.75000000  0.33798630  0.47749411  1
  F  F37  1  0.75000000  0.83798630  0.02250589  1
  F  F38  1  0.25000000  0.66201370  0.52250589  1
  F  F39  1  0.25000000  0.16201370  0.97749411  1
