# generated using pymatgen
data_Mg5Sb
_symmetry_space_group_name_H-M   'P 1'
_cell_length_a   11.72810140
_cell_length_b   3.25853861
_cell_length_c   7.67632392
_cell_angle_alpha   90.00000000
_cell_angle_beta   106.54235164
_cell_angle_gamma   90.00000000
_symmetry_Int_Tables_number   1
_chemical_formula_structural   Mg5Sb
_chemical_formula_sum   'Mg10 Sb2'
_cell_volume   281.21962250
_cell_formula_units_Z   2
loop_
 _symmetry_equiv_pos_site_id
 _symmetry_equiv_pos_as_xyz
  1  'x, y, z'
loop_
 _atom_site_type_symbol
 _atom_site_label
 _atom_site_symmetry_multiplicity
 _atom_site_fract_x
 _atom_site_fract_y
 _atom_site_fract_z
 _atom_site_occupancy
  Mg  Mg0  1  0.00151323  0.00000000  0.99692802  1
  Mg  Mg1  1  0.16669923  0.50000000  0.33212521  1
  Mg  Mg2  1  0.05625638  -0.00000000  0.61129333  1
  Mg  Mg3  1  0.33117807  -0.00000000  0.66842078  1
  Mg  Mg4  1  0.22015219  0.50000000  0.94237677  1
  Mg  Mg5  1  0.50151323  0.50000000  0.99692802  1
  Mg  Mg6  1  0.66669923  -0.00000000  0.33212521  1
  Mg  Mg7  1  0.55625638  0.50000000  0.61129333  1
  Mg  Mg8  1  0.83117807  0.50000000  0.66842078  1
  Mg  Mg9  1  0.72015219  -0.00000000  0.94237677  1
  Sb  Sb10  1  0.39086790  0.00000000  0.28218889  1
  Sb  Sb11  1  0.89086790  0.50000000  0.28218889  1
