# generated using pymatgen
data_B2H8N
_symmetry_space_group_name_H-M   'P 1'
_cell_length_a   8.37991232
_cell_length_b   9.41505107
_cell_length_c   9.55950179
_cell_angle_alpha   90.00000000
_cell_angle_beta   90.00000000
_cell_angle_gamma   90.00000000
_symmetry_Int_Tables_number   1
_chemical_formula_structural   B2H8N
_chemical_formula_sum   'B16 H64 N8'
_cell_volume   754.21890404
_cell_formula_units_Z   8
loop_
 _symmetry_equiv_pos_site_id
 _symmetry_equiv_pos_as_xyz
  1  'x, y, z'
loop_
 _atom_site_type_symbol
 _atom_site_label
 _atom_site_symmetry_multiplicity
 _atom_site_fract_x
 _atom_site_fract_y
 _atom_site_fract_z
 _atom_site_occupancy
  B  B0  1  0.76666434  0.87189685  0.93346624  1
  B  B1  1  0.73333566  0.12810315  0.43346624  1
  B  B2  1  0.26666434  0.62810315  0.06653376  1
  B  B3  1  0.23333566  0.37189685  0.56653376  1
  B  B4  1  0.36046773  0.84182467  0.68534871  1
  B  B5  1  0.13953227  0.15817533  0.18534871  1
  B  B6  1  0.86046773  0.65817533  0.31465129  1
  B  B7  1  0.63953227  0.34182467  0.81465129  1
  B  B8  1  0.23509304  0.82245839  0.53613856  1
  B  B9  1  0.26490696  0.17754161  0.03613856  1
  B  B10  1  0.73509304  0.67754161  0.46386144  1
  B  B11  1  0.76490696  0.32245839  0.96386144  1
  B  B12  1  0.14688251  0.85081518  0.70401046  1
  B  B13  1  0.35311749  0.14918482  0.20401046  1
  B  B14  1  0.64688251  0.64918482  0.29598954  1
  B  B15  1  0.85311749  0.35081518  0.79598954  1
  H  H16  1  0.61136155  0.69320295  0.87190528  1
  H  H17  1  0.88863845  0.30679705  0.37190528  1
  H  H18  1  0.11136155  0.80679705  0.12809472  1
  H  H19  1  0.38863845  0.19320295  0.62809472  1
  H  H20  1  0.71638663  0.66343600  0.01395009  1
  H  H21  1  0.78361337  0.33656400  0.51395009  1
  H  H22  1  0.21638663  0.83656400  0.98604991  1
  H  H23  1  0.28361337  0.16343600  0.48604991  1
  H  H24  1  0.80011078  0.64585584  0.85917085  1
  H  H25  1  0.69988922  0.35414416  0.35917085  1
  H  H26  1  0.30011078  0.85414416  0.14082915  1
  H  H27  1  0.19988922  0.14585584  0.64082915  1
  H  H28  1  0.78211523  0.05585709  0.80055831  1
  H  H29  1  0.71788477  0.94414291  0.30055831  1
  H  H30  1  0.28211523  0.44414291  0.19944169  1
  H  H31  1  0.21788477  0.55585709  0.69944169  1
  H  H32  1  0.66765509  0.93514582  0.72736781  1
  H  H33  1  0.83234491  0.06485418  0.22736781  1
  H  H34  1  0.16765509  0.56485418  0.27263219  1
  H  H35  1  0.33234491  0.43514582  0.77263219  1
  H  H36  1  0.86656645  0.91907287  0.72429061  1
  H  H37  1  0.63343355  0.08092713  0.22429061  1
  H  H38  1  0.36656645  0.58092713  0.27570939  1
  H  H39  1  0.13343355  0.41907287  0.77570939  1
  H  H40  1  0.42093672  0.95440474  0.71722375  1
  H  H41  1  0.07906328  0.04559526  0.21722375  1
  H  H42  1  0.92093672  0.54559526  0.28277625  1
  H  H43  1  0.57906328  0.45440474  0.78277625  1
  H  H44  1  0.41583664  0.73880998  0.74476837  1
  H  H45  1  0.08416336  0.26119002  0.24476837  1
  H  H46  1  0.91583664  0.76119002  0.25523163  1
  H  H47  1  0.58416336  0.23880998  0.75523163  1
  H  H48  1  0.22157345  0.70519514  0.48585342  1
  H  H49  1  0.27842655  0.29480486  0.98585342  1
  H  H50  1  0.72157345  0.79480486  0.51414658  1
  H  H51  1  0.77842655  0.20519514  0.01414658  1
  H  H52  1  0.22708182  0.91721429  0.45129028  1
  H  H53  1  0.27291818  0.08278571  0.95129028  1
  H  H54  1  0.72708182  0.58278571  0.54870972  1
  H  H55  1  0.77291818  0.41721429  0.04870972  1
  H  H56  1  0.09771701  0.75364212  0.77590323  1
  H  H57  1  0.40228299  0.24635788  0.27590323  1
  H  H58  1  0.59771701  0.74635788  0.22409677  1
  H  H59  1  0.90228299  0.25364212  0.72409677  1
  H  H60  1  0.10447911  0.96761317  0.74415239  1
  H  H61  1  0.39552089  0.03238683  0.24415239  1
  H  H62  1  0.60447911  0.53238683  0.25584761  1
  H  H63  1  0.89552089  0.46761317  0.75584761  1
  H  H64  1  0.07029166  0.83541502  0.59103799  1
  H  H65  1  0.42970834  0.16458498  0.09103799  1
  H  H66  1  0.57029166  0.66458498  0.40896201  1
  H  H67  1  0.92970834  0.33541502  0.90896201  1
  H  H68  1  0.40587589  0.82211075  0.55992950  1
  H  H69  1  0.09412411  0.17788925  0.05992950  1
  H  H70  1  0.90587589  0.67788925  0.44007050  1
  H  H71  1  0.59412411  0.32211075  0.94007050  1
  H  H72  1  0.66213016  0.92560371  0.00240366  1
  H  H73  1  0.83786984  0.07439629  0.50240366  1
  H  H74  1  0.16213016  0.57439629  0.99759634  1
  H  H75  1  0.33786984  0.42560371  0.49759634  1
  H  H76  1  0.89707686  0.88217419  0.98634932  1
  H  H77  1  0.60292314  0.11782581  0.48634932  1
  H  H78  1  0.39707686  0.61782581  0.01365068  1
  H  H79  1  0.10292314  0.38217419  0.51365068  1
  N  N80  1  0.72236721  0.70813723  0.91558858  1
  N  N81  1  0.77763279  0.29186277  0.41558858  1
  N  N82  1  0.22236721  0.79186277  0.08441142  1
  N  N83  1  0.27763279  0.20813723  0.58441142  1
  N  N84  1  0.77055807  0.94785329  0.78513364  1
  N  N85  1  0.72944193  0.05214671  0.28513364  1
  N  N86  1  0.27055807  0.55214671  0.21486636  1
  N  N87  1  0.22944193  0.44785329  0.71486636  1
