# generated using pymatgen
data_CaH4Se2O9
_symmetry_space_group_name_H-M   'P 1'
_cell_length_a   5.95645433
_cell_length_b   8.39014111
_cell_length_c   15.67509279
_cell_angle_alpha   90.00000000
_cell_angle_beta   90.00000000
_cell_angle_gamma   92.28406462
_symmetry_Int_Tables_number   1
_chemical_formula_structural   CaH4Se2O9
_chemical_formula_sum   'Ca4 H16 Se8 O36'
_cell_volume   782.74810657
_cell_formula_units_Z   4
loop_
 _symmetry_equiv_pos_site_id
 _symmetry_equiv_pos_as_xyz
  1  'x, y, z'
loop_
 _atom_site_type_symbol
 _atom_site_label
 _atom_site_symmetry_multiplicity
 _atom_site_fract_x
 _atom_site_fract_y
 _atom_site_fract_z
 _atom_site_occupancy
  Ca  Ca0  1  0.23192411  0.07365767  0.89946812  1
  Ca  Ca1  1  0.76807589  0.42634233  0.39946812  1
  Ca  Ca2  1  0.76807589  0.92634233  0.10053188  1
  Ca  Ca3  1  0.23192411  0.57365767  0.60053188  1
  H  H4  1  0.52414604  0.60770159  0.79743632  1
  H  H5  1  0.47585396  0.89229841  0.29743632  1
  H  H6  1  0.47585396  0.39229841  0.20256368  1
  H  H7  1  0.52414604  0.10770159  0.70256368  1
  H  H8  1  0.74811788  0.52162966  0.98684580  1
  H  H9  1  0.25188212  0.97837034  0.48684580  1
  H  H10  1  0.25188212  0.47837034  0.01315420  1
  H  H11  1  0.74811788  0.02162966  0.51315420  1
  H  H12  1  0.16410028  0.19162859  0.71170308  1
  H  H13  1  0.83589972  0.30837141  0.21170308  1
  H  H14  1  0.83589972  0.80837141  0.28829692  1
  H  H15  1  0.16410028  0.69162859  0.78829692  1
  H  H16  1  0.16424151  0.00640441  0.70932281  1
  H  H17  1  0.83575849  0.49359559  0.20932281  1
  H  H18  1  0.83575849  0.99359559  0.29067719  1
  H  H19  1  0.16424151  0.50640441  0.79067719  1
  Se  Se20  1  0.72490567  0.79683199  0.87126236  1
  Se  Se21  1  0.27509433  0.70316801  0.37126236  1
  Se  Se22  1  0.27509433  0.20316801  0.12873764  1
  Se  Se23  1  0.72490567  0.29683199  0.62873764  1
  Se  Se24  1  0.76710169  0.26981161  0.92513316  1
  Se  Se25  1  0.23289831  0.23018839  0.42513316  1
  Se  Se26  1  0.23289831  0.73018839  0.07486684  1
  Se  Se27  1  0.76710169  0.76981161  0.57486684  1
  O  O28  1  0.72877526  0.74286174  0.97323064  1
  O  O29  1  0.27122474  0.75713826  0.47323064  1
  O  O30  1  0.27122474  0.25713826  0.02676936  1
  O  O31  1  0.72877526  0.24286174  0.52676936  1
  O  O32  1  0.50910320  0.90441368  0.84649427  1
  O  O33  1  0.49089680  0.59558632  0.34649427  1
  O  O34  1  0.49089680  0.09558632  0.15350573  1
  O  O35  1  0.50910320  0.40441368  0.65350573  1
  O  O36  1  0.97328629  0.86843057  0.83729737  1
  O  O37  1  0.02671371  0.63156943  0.33729737  1
  O  O38  1  0.02671371  0.13156943  0.16270263  1
  O  O39  1  0.97328629  0.36843057  0.66270263  1
  O  O40  1  0.68852245  0.61769348  0.81471489  1
  O  O41  1  0.31147755  0.88230652  0.31471489  1
  O  O42  1  0.31147755  0.38230652  0.18528511  1
  O  O43  1  0.68852245  0.11769348  0.68528511  1
  O  O44  1  0.99622844  0.29941780  0.86602050  1
  O  O45  1  0.00377156  0.20058220  0.36602050  1
  O  O46  1  0.00377156  0.70058220  0.13397950  1
  O  O47  1  0.99622844  0.79941780  0.63397950  1
  O  O48  1  0.53110345  0.27284281  0.87094933  1
  O  O49  1  0.46889655  0.22715719  0.37094933  1
  O  O50  1  0.46889655  0.72715719  0.12905067  1
  O  O51  1  0.53110345  0.77284281  0.62905067  1
  O  O52  1  0.79584622  0.10208298  0.97957323  1
  O  O53  1  0.20415378  0.39791702  0.47957323  1
  O  O54  1  0.20415378  0.89791702  0.02042677  1
  O  O55  1  0.79584622  0.60208298  0.52042677  1
  O  O56  1  0.76435052  0.41053376  0.00873984  1
  O  O57  1  0.23564948  0.08946624  0.50873984  1
  O  O58  1  0.23564948  0.58946624  0.99126016  1
  O  O59  1  0.76435052  0.91053376  0.49126016  1
  O  O60  1  0.24534119  0.10008829  0.73321342  1
  O  O61  1  0.75465881  0.39991171  0.23321342  1
  O  O62  1  0.75465881  0.89991171  0.26678658  1
  O  O63  1  0.24534119  0.60008829  0.76678658  1
