# generated using pymatgen
data_NaAl3Si3(HO6)2
_symmetry_space_group_name_H-M   'P 1'
_cell_length_a   5.16854934
_cell_length_b   8.96481025
_cell_length_c   19.36970092
_cell_angle_alpha   89.99966841
_cell_angle_beta   94.23324515
_cell_angle_gamma   89.99999244
_symmetry_Int_Tables_number   1
_chemical_formula_structural   NaAl3Si3(HO6)2
_chemical_formula_sum   'Na4 Al12 Si12 H8 O48'
_cell_volume   895.04779741
_cell_formula_units_Z   4
loop_
 _symmetry_equiv_pos_site_id
 _symmetry_equiv_pos_as_xyz
  1  'x, y, z'
loop_
 _atom_site_type_symbol
 _atom_site_label
 _atom_site_symmetry_multiplicity
 _atom_site_fract_x
 _atom_site_fract_y
 _atom_site_fract_z
 _atom_site_occupancy
  Na  Na0  1  0.50000118  0.41647366  0.75000091  1
  Na  Na1  1  0.49999833  0.58352795  0.25000049  1
  Na  Na2  1  0.99999702  0.88951420  0.74999951  1
  Na  Na3  1  0.00000217  0.11048839  0.24999947  1
  Al  Al4  1  0.24885959  0.91421503  0.50131002  1
  Al  Al5  1  0.45262875  0.74042964  0.64259966  1
  Al  Al6  1  0.75113596  0.91421872  0.99868578  1
  Al  Al7  1  0.54736565  0.74043640  0.85739811  1
  Al  Al8  1  0.75112569  0.08579044  0.49868767  1
  Al  Al9  1  0.54736420  0.25957246  0.35739873  1
  Al  Al10  1  0.24886921  0.08579290  0.00130918  1
  Al  Al11  1  0.45263257  0.25957587  0.14259901  1
  Al  Al12  1  0.74697147  0.41558155  0.49917054  1
  Al  Al13  1  0.25301910  0.41558460  0.00082811  1
  Al  Al14  1  0.25302172  0.58442443  0.50082680  1
  Al  Al15  1  0.74697292  0.58442637  0.99917110  1
  Si  Si16  1  0.44641476  0.07143722  0.64206153  1
  Si  Si17  1  0.55358546  0.07144539  0.85793599  1
  Si  Si18  1  0.55356940  0.92856333  0.35793691  1
  Si  Si19  1  0.44642369  0.92856925  0.14206076  1
  Si  Si20  1  0.96960777  0.57050597  0.64261098  1
  Si  Si21  1  0.93705234  0.24416134  0.64109203  1
  Si  Si22  1  0.03038769  0.57051411  0.85738843  1
  Si  Si23  1  0.06295075  0.24416628  0.85890523  1
  Si  Si24  1  0.03038764  0.42949779  0.35738857  1
  Si  Si25  1  0.06293468  0.75584230  0.35890647  1
  Si  Si26  1  0.96961011  0.42949989  0.14261120  1
  Si  Si27  1  0.93705972  0.75584594  0.14109252  1
  H  H28  1  0.35393220  0.34000020  0.55585944  1
  H  H29  1  0.64605766  0.34000249  0.94413983  1
  H  H30  1  0.64605545  0.66000429  0.44413373  1
  H  H31  1  0.35394286  0.66000132  0.05586552  1
  H  H32  1  0.86728378  0.85240589  0.57021091  1
  H  H33  1  0.13272017  0.85241045  0.92978752  1
  H  H34  1  0.13270666  0.14759609  0.42978866  1
  H  H35  1  0.86728034  0.14760268  0.07020538  1
  O  O36  1  0.45611514  0.05809626  0.55745892  1
  O  O37  1  0.37664188  0.74947838  0.55273350  1
  O  O38  1  0.44778335  0.43252679  0.55077096  1
  O  O39  1  0.37154246  0.91563437  0.67732923  1
  O  O40  1  0.24112221  0.20214989  0.66505686  1
  O  O41  1  0.73862052  0.12540688  0.67481060  1
  O  O42  1  0.54388349  0.05810305  0.94253877  1
  O  O43  1  0.62335849  0.74948580  0.94726411  1
  O  O44  1  0.55221188  0.43253113  0.94923133  1
  O  O45  1  0.62845111  0.91563844  0.82266882  1
  O  O46  1  0.75887812  0.20215760  0.83494149  1
  O  O47  1  0.26138031  0.12541696  0.82518613  1
  O  O48  1  0.54387088  0.94190848  0.44254072  1
  O  O49  1  0.62335459  0.25052576  0.44726558  1
  O  O50  1  0.55220852  0.56747803  0.44922738  1
  O  O51  1  0.62844333  0.08436897  0.32266963  1
  O  O52  1  0.75886349  0.79785006  0.33494292  1
  O  O53  1  0.26136245  0.87459733  0.32518775  1
  O  O54  1  0.45612053  0.94191216  0.05745627  1
  O  O55  1  0.37664849  0.25052680  0.05273137  1
  O  O56  1  0.44778426  0.56747739  0.05077084  1
  O  O57  1  0.37155134  0.08436936  0.17732758  1
  O  O58  1  0.24113830  0.79785198  0.16505357  1
  O  O59  1  0.73863372  0.87460083  0.17481159  1
  O  O60  1  0.95976715  0.55235976  0.55739829  1
  O  O61  1  0.88941888  0.24856891  0.55709436  1
  O  O62  1  0.94808170  0.93983313  0.55139241  1
  O  O63  1  0.87347428  0.40805267  0.67421694  1
  O  O64  1  0.78252166  0.70564859  0.66500179  1
  O  O65  1  0.26169108  0.60105094  0.67732758  1
  O  O66  1  0.04022769  0.55236523  0.94260059  1
  O  O67  1  0.11057399  0.24857259  0.94290518  1
  O  O68  1  0.05191552  0.93983453  0.94860570  1
  O  O69  1  0.12652383  0.40806164  0.82578309  1
  O  O70  1  0.21747209  0.70565642  0.83499891  1
  O  O71  1  0.73830551  0.60106037  0.82267181  1
  O  O72  1  0.04022479  0.44764353  0.44260179  1
  O  O73  1  0.11057105  0.75143746  0.44290649  1
  O  O74  1  0.05190309  0.06017006  0.44860835  1
  O  O75  1  0.12651528  0.59195061  0.32578349  1
  O  O76  1  0.21747285  0.29435444  0.33499832  1
  O  O77  1  0.73830425  0.39894968  0.32267228  1
  O  O78  1  0.95976880  0.44764429  0.05739681  1
  O  O79  1  0.88942617  0.75143687  0.05709112  1
  O  O80  1  0.94809538  0.06017170  0.05138937  1
  O  O81  1  0.87348176  0.59195178  0.17421532  1
  O  O82  1  0.78252218  0.29435520  0.16500160  1
  O  O83  1  0.26169351  0.39895210  0.17732576  1
