# generated using pymatgen
data_Ga16Rh3
_symmetry_space_group_name_H-M   'P 1'
_cell_length_a   6.58348971
_cell_length_b   6.58377600
_cell_length_c   15.65893874
_cell_angle_alpha   102.13549175
_cell_angle_beta   90.00000000
_cell_angle_gamma   90.00000000
_symmetry_Int_Tables_number   1
_chemical_formula_structural   Ga16Rh3
_chemical_formula_sum   'Ga32 Rh6'
_cell_volume   663.55719005
_cell_formula_units_Z   2
loop_
 _symmetry_equiv_pos_site_id
 _symmetry_equiv_pos_as_xyz
  1  'x, y, z'
loop_
 _atom_site_type_symbol
 _atom_site_label
 _atom_site_symmetry_multiplicity
 _atom_site_fract_x
 _atom_site_fract_y
 _atom_site_fract_z
 _atom_site_occupancy
  Ga  Ga0  1  0.50000000  0.07971214  0.15942428  1
  Ga  Ga1  1  0.50000000  0.92028786  0.84057572  1
  Ga  Ga2  1  0.00000000  0.42028786  0.84057572  1
  Ga  Ga3  1  -0.00000000  0.57971214  0.15942428  1
  Ga  Ga4  1  0.50000000  0.24091338  0.48182677  1
  Ga  Ga5  1  0.50000000  0.75908662  0.51817323  1
  Ga  Ga6  1  -0.00000000  0.25908662  0.51817323  1
  Ga  Ga7  1  -0.00000000  0.74091338  0.48182677  1
  Ga  Ga8  1  0.15084543  0.18321576  0.06734343  1
  Ga  Ga9  1  0.15084543  0.81678424  0.93265657  1
  Ga  Ga10  1  0.84915457  0.11587232  0.93265657  1
  Ga  Ga11  1  0.84915457  0.88412768  0.06734343  1
  Ga  Ga12  1  0.34915457  0.31678424  0.93265657  1
  Ga  Ga13  1  0.34915457  0.68321576  0.06734343  1
  Ga  Ga14  1  0.65084543  0.38412768  0.06734343  1
  Ga  Ga15  1  0.65084543  0.61587232  0.93265657  1
  Ga  Ga16  1  0.83811935  0.35178503  0.37956096  1
  Ga  Ga17  1  0.83811935  0.64821497  0.62043904  1
  Ga  Ga18  1  0.16188065  0.97222408  0.62043904  1
  Ga  Ga19  1  0.16188065  0.02777592  0.37956096  1
  Ga  Ga20  1  0.66188065  0.14821497  0.62043904  1
  Ga  Ga21  1  0.66188065  0.85178503  0.37956096  1
  Ga  Ga22  1  0.33811935  0.52777592  0.37956096  1
  Ga  Ga23  1  0.33811935  0.47222408  0.62043904  1
  Ga  Ga24  1  0.64635520  0.47723395  0.24432751  1
  Ga  Ga25  1  0.64635520  0.52276605  0.75567249  1
  Ga  Ga26  1  0.35364480  0.23290644  0.75567249  1
  Ga  Ga27  1  0.35364480  0.76709356  0.24432751  1
  Ga  Ga28  1  0.85364480  0.02276605  0.75567249  1
  Ga  Ga29  1  0.85364480  0.97723395  0.24432751  1
  Ga  Ga30  1  0.14635520  0.26709356  0.24432751  1
  Ga  Ga31  1  0.14635520  0.73290644  0.75567249  1
  Rh  Rh32  1  0.50000000  -0.00000000  0.00000000  1
  Rh  Rh33  1  0.00000000  0.50000000  -0.00000000  1
  Rh  Rh34  1  0.50000000  0.15983892  0.31967785  1
  Rh  Rh35  1  0.50000000  0.84016108  0.68032215  1
  Rh  Rh36  1  -0.00000000  0.34016108  0.68032215  1
  Rh  Rh37  1  -0.00000000  0.65983892  0.31967785  1
