# generated using pymatgen
data_PH9PtC3Cl2
_symmetry_space_group_name_H-M   'P 1'
_cell_length_a   7.06942272
_cell_length_b   11.37378008
_cell_length_c   12.00674365
_cell_angle_alpha   90.00000000
_cell_angle_beta   105.36577092
_cell_angle_gamma   90.00000000
_symmetry_Int_Tables_number   1
_chemical_formula_structural   PH9PtC3Cl2
_chemical_formula_sum   'P4 H36 Pt4 C12 Cl8'
_cell_volume   930.90510231
_cell_formula_units_Z   4
loop_
 _symmetry_equiv_pos_site_id
 _symmetry_equiv_pos_as_xyz
  1  'x, y, z'
loop_
 _atom_site_type_symbol
 _atom_site_label
 _atom_site_symmetry_multiplicity
 _atom_site_fract_x
 _atom_site_fract_y
 _atom_site_fract_z
 _atom_site_occupancy
  P  P0  1  0.41382508  0.65921447  0.21282593  1
  P  P1  1  0.91382508  0.84078553  0.71282593  1
  P  P2  1  0.58617492  0.34078553  0.78717407  1
  P  P3  1  0.08617492  0.15921447  0.28717407  1
  H  H4  1  0.34082090  0.86456582  0.22416192  1
  H  H5  1  0.84082090  0.63543418  0.72416192  1
  H  H6  1  0.65917910  0.13543418  0.77583808  1
  H  H7  1  0.15917910  0.36456582  0.27583808  1
  H  H8  1  0.45701988  0.83671037  0.11072146  1
  H  H9  1  0.95701988  0.66328963  0.61072146  1
  H  H10  1  0.54298012  0.16328963  0.88927854  1
  H  H11  1  0.04298012  0.33671037  0.38927854  1
  H  H12  1  0.60053220  0.83765126  0.25733803  1
  H  H13  1  0.10053220  0.66234874  0.75733803  1
  H  H14  1  0.39946780  0.16234874  0.74266197  1
  H  H15  1  0.89946780  0.33765126  0.24266197  1
  H  H16  1  0.58324426  0.49277948  0.16229354  1
  H  H17  1  0.08324426  0.00722052  0.66229354  1
  H  H18  1  0.41675574  0.50722052  0.83770646  1
  H  H19  1  0.91675574  0.99277948  0.33770646  1
  H  H20  1  0.75141975  0.60705256  0.22696713  1
  H  H21  1  0.25141975  0.89294744  0.72696713  1
  H  H22  1  0.24858025  0.39294744  0.77303287  1
  H  H23  1  0.74858025  0.10705256  0.27303287  1
  H  H24  1  0.60944390  0.62189171  0.08025029  1
  H  H25  1  0.10944390  0.87810829  0.58025029  1
  H  H26  1  0.39055610  0.37810829  0.91974971  1
  H  H27  1  0.89055610  0.12189171  0.41974971  1
  H  H28  1  0.07725141  0.69109958  0.10182466  1
  H  H29  1  0.57725141  0.80890042  0.60182466  1
  H  H30  1  0.92274859  0.30890042  0.89817534  1
  H  H31  1  0.42274859  0.19109958  0.39817534  1
  H  H32  1  0.14429273  0.53882910  0.10711148  1
  H  H33  1  0.64429273  0.96117090  0.60711148  1
  H  H34  1  0.85570727  0.46117090  0.89288852  1
  H  H35  1  0.35570727  0.03882910  0.39288852  1
  H  H36  1  0.22998542  0.63817748  0.01497889  1
  H  H37  1  0.72998542  0.86182252  0.51497889  1
  H  H38  1  0.77001458  0.36182252  0.98502111  1
  H  H39  1  0.27001458  0.13817748  0.48502111  1
  Pt  Pt40  1  0.38915484  0.60274365  0.38572398  1
  Pt  Pt41  1  0.88915484  0.89725635  0.88572398  1
  Pt  Pt42  1  0.61084516  0.39725635  0.61427602  1
  Pt  Pt43  1  0.11084516  0.10274365  0.11427602  1
  C  C44  1  0.45741233  0.81501396  0.20008488  1
  C  C45  1  0.95741233  0.68498604  0.70008488  1
  C  C46  1  0.54258767  0.18498604  0.79991512  1
  C  C47  1  0.04258767  0.31501396  0.29991512  1
  C  C48  1  0.60921779  0.58803680  0.16601525  1
  C  C49  1  0.10921779  0.91196320  0.66601525  1
  C  C50  1  0.39078221  0.41196320  0.83398475  1
  C  C51  1  0.89078221  0.08803680  0.33398475  1
  C  C52  1  0.19403553  0.62857100  0.09804704  1
  C  C53  1  0.69403553  0.87142900  0.59804704  1
  C  C54  1  0.80596447  0.37142900  0.90195296  1
  C  C55  1  0.30596447  0.12857100  0.40195296  1
  Cl  Cl56  1  0.64071591  0.46231399  0.42445986  1
  Cl  Cl57  1  0.14071591  0.03768601  0.92445986  1
  Cl  Cl58  1  0.35928409  0.53768601  0.57554014  1
  Cl  Cl59  1  0.85928409  0.96231399  0.07554014  1
  Cl  Cl60  1  0.13671820  0.73593107  0.36758118  1
  Cl  Cl61  1  0.63671820  0.76406893  0.86758118  1
  Cl  Cl62  1  0.86328180  0.26406893  0.63241882  1
  Cl  Cl63  1  0.36328180  0.23593107  0.13241882  1
