# generated using pymatgen
data_Bi3Pd8
_symmetry_space_group_name_H-M   'P 1'
_cell_length_a   7.98008727
_cell_length_b   7.98008728
_cell_length_c   15.29084311
_cell_angle_alpha   74.87395546
_cell_angle_beta   74.87395545
_cell_angle_gamma   60.00000070
_symmetry_Int_Tables_number   1
_chemical_formula_structural   Bi3Pd8
_chemical_formula_sum   'Bi12 Pd32'
_cell_volume   804.09949815
_cell_formula_units_Z   4
loop_
 _symmetry_equiv_pos_site_id
 _symmetry_equiv_pos_as_xyz
  1  'x, y, z'
loop_
 _atom_site_type_symbol
 _atom_site_label
 _atom_site_symmetry_multiplicity
 _atom_site_fract_x
 _atom_site_fract_y
 _atom_site_fract_z
 _atom_site_occupancy
  Bi  Bi0  1  0.63845778  0.00761343  0.01848110  1
  Bi  Bi1  1  0.00761343  0.33544769  0.01848110  1
  Bi  Bi2  1  0.33544769  0.63845778  0.01848110  1
  Bi  Bi3  1  0.83780506  0.50693060  0.51696312  1
  Bi  Bi4  1  0.50693060  0.13830122  0.51696312  1
  Bi  Bi5  1  0.13830122  0.83780506  0.51696312  1
  Bi  Bi6  1  0.92502459  0.92502459  0.22492624  1
  Bi  Bi7  1  0.73154924  0.73154924  0.80535229  1
  Bi  Bi8  1  0.57159540  0.57159540  0.28521380  1
  Bi  Bi9  1  0.42463229  0.42463229  0.72610314  1
  Bi  Bi10  1  0.23011155  0.23011155  0.30966536  1
  Bi  Bi11  1  0.07283633  0.07283633  0.78149102  1
  Pd  Pd12  1  0.25471121  0.95923573  0.11730578  1
  Pd  Pd13  1  0.95923573  0.66874728  0.11730578  1
  Pd  Pd14  1  0.66874728  0.25471121  0.11730578  1
  Pd  Pd15  1  0.16826679  0.45824107  0.61821949  1
  Pd  Pd16  1  0.45824107  0.75527265  0.61821949  1
  Pd  Pd17  1  0.75527265  0.16826679  0.61821949  1
  Pd  Pd18  1  0.56283831  0.93094361  0.21458653  1
  Pd  Pd19  1  0.93094361  0.29163155  0.21458653  1
  Pd  Pd20  1  0.29163155  0.56283831  0.21458653  1
  Pd  Pd21  1  0.79033558  0.43255719  0.71440701  1
  Pd  Pd22  1  0.43255719  0.06270022  0.71440701  1
  Pd  Pd23  1  0.06270022  0.79033558  0.71440701  1
  Pd  Pd24  1  0.20675490  0.88603396  0.31767665  1
  Pd  Pd25  1  0.88603396  0.58953449  0.31767665  1
  Pd  Pd26  1  0.58953449  0.20675490  0.31767665  1
  Pd  Pd27  1  0.09187657  0.38028162  0.81973099  1
  Pd  Pd28  1  0.38028162  0.70811082  0.81973099  1
  Pd  Pd29  1  0.70811082  0.09187657  0.81973099  1
  Pd  Pd30  1  0.49260938  0.88326632  0.41584109  1
  Pd  Pd31  1  0.88326632  0.20828321  0.41584109  1
  Pd  Pd32  1  0.20828321  0.49260938  0.41584109  1
  Pd  Pd33  1  0.70571074  0.39370185  0.91729876  1
  Pd  Pd34  1  0.39370185  0.98328864  0.91729876  1
  Pd  Pd35  1  0.98328864  0.70571074  0.91729876  1
  Pd  Pd36  1  0.86082273  0.86082273  0.41753180  1
  Pd  Pd37  1  0.79436928  0.79436928  0.61689215  1
  Pd  Pd38  1  0.63770496  0.63770496  0.08688513  1
  Pd  Pd39  1  0.50624507  0.50624507  0.48126479  1
  Pd  Pd40  1  0.36003746  0.36003746  0.91988762  1
  Pd  Pd41  1  0.29300597  0.29300597  0.12098210  1
  Pd  Pd42  1  0.13829630  0.13829630  0.58511109  1
  Pd  Pd43  1  0.00827935  0.00827935  0.97516194  1
