# generated using pymatgen
data_KSc(BH4)4
_symmetry_space_group_name_H-M   'P 1'
_cell_length_a   8.24986185
_cell_length_b   9.97139307
_cell_length_c   12.58270763
_cell_angle_alpha   90.00000000
_cell_angle_beta   90.00000000
_cell_angle_gamma   90.00000000
_symmetry_Int_Tables_number   1
_chemical_formula_structural   KSc(BH4)4
_chemical_formula_sum   'K4 Sc4 B16 H64'
_cell_volume   1035.08643694
_cell_formula_units_Z   4
loop_
 _symmetry_equiv_pos_site_id
 _symmetry_equiv_pos_as_xyz
  1  'x, y, z'
loop_
 _atom_site_type_symbol
 _atom_site_label
 _atom_site_symmetry_multiplicity
 _atom_site_fract_x
 _atom_site_fract_y
 _atom_site_fract_z
 _atom_site_occupancy
  K  K0  1  0.25000000  0.84796759  0.69300115  1
  K  K1  1  0.25000000  0.65203241  0.19300115  1
  K  K2  1  0.75000000  0.15203241  0.30699885  1
  K  K3  1  0.75000000  0.34796759  0.80699885  1
  Sc  Sc4  1  0.25000000  0.29602998  0.55798461  1
  Sc  Sc5  1  0.25000000  0.20397002  0.05798461  1
  Sc  Sc6  1  0.75000000  0.70397002  0.44201539  1
  Sc  Sc7  1  0.75000000  0.79602998  0.94201539  1
  B  B8  1  0.25000000  0.48272648  0.66632269  1
  B  B9  1  0.25000000  0.01727352  0.16632269  1
  B  B10  1  0.75000000  0.51727352  0.33367731  1
  B  B11  1  0.75000000  0.98272648  0.83367731  1
  B  B12  1  0.25000000  0.12125564  0.88761958  1
  B  B13  1  0.25000000  0.37874436  0.38761958  1
  B  B14  1  0.75000000  0.87874436  0.11238042  1
  B  B15  1  0.75000000  0.62125564  0.61238042  1
  B  B16  1  0.01574980  0.16558499  0.58723431  1
  B  B17  1  0.48425020  0.33441501  0.08723431  1
  B  B18  1  0.51574980  0.83441501  0.41276569  1
  B  B19  1  0.98425020  0.66558499  0.91276569  1
  B  B20  1  0.98425020  0.83441501  0.41276569  1
  B  B21  1  0.51574980  0.66558499  0.91276569  1
  B  B22  1  0.48425020  0.16558499  0.58723431  1
  B  B23  1  0.01574980  0.33441501  0.08723431  1
  H  H24  1  0.25000000  0.38696769  0.72833046  1
  H  H25  1  0.25000000  0.11303231  0.22833046  1
  H  H26  1  0.75000000  0.61303231  0.27166954  1
  H  H27  1  0.75000000  0.88696769  0.77166954  1
  H  H28  1  0.25000000  0.58923040  0.71038030  1
  H  H29  1  0.25000000  0.91076960  0.21038030  1
  H  H30  1  0.75000000  0.41076960  0.28961970  1
  H  H31  1  0.75000000  0.08923040  0.78961970  1
  H  H32  1  0.37057776  0.47057738  0.60822987  1
  H  H33  1  0.12942224  0.02942262  0.10822987  1
  H  H34  1  0.87057776  0.52942262  0.39177013  1
  H  H35  1  0.62942224  0.97057738  0.89177013  1
  H  H36  1  0.62942224  0.52942262  0.39177013  1
  H  H37  1  0.87057776  0.97057738  0.89177013  1
  H  H38  1  0.12942224  0.47057738  0.60822987  1
  H  H39  1  0.37057776  0.02942262  0.10822987  1
  H  H40  1  0.25000000  0.24558571  0.88710097  1
  H  H41  1  0.25000000  0.25441429  0.38710097  1
  H  H42  1  0.75000000  0.75441429  0.11289903  1
  H  H43  1  0.75000000  0.74558571  0.61289903  1
  H  H44  1  0.25000000  0.07563463  0.79920935  1
  H  H45  1  0.25000000  0.42436537  0.29920935  1
  H  H46  1  0.75000000  0.92436537  0.20079065  1
  H  H47  1  0.75000000  0.57563463  0.70079065  1
  H  H48  1  0.37032800  0.08641008  0.93936358  1
  H  H49  1  0.12967200  0.41358992  0.43936358  1
  H  H50  1  0.87032800  0.91358992  0.06063642  1
  H  H51  1  0.62967200  0.58641008  0.56063642  1
  H  H52  1  0.62967200  0.91358992  0.06063642  1
  H  H53  1  0.87032800  0.58641008  0.56063642  1
  H  H54  1  0.12967200  0.08641008  0.93936358  1
  H  H55  1  0.37032800  0.41358992  0.43936358  1
  H  H56  1  0.89530518  0.09740659  0.58135659  1
  H  H57  1  0.60469482  0.40259341  0.08135659  1
  H  H58  1  0.39530518  0.90259341  0.41864341  1
  H  H59  1  0.10469482  0.59740659  0.91864341  1
  H  H60  1  0.10469482  0.90259341  0.41864341  1
  H  H61  1  0.39530518  0.59740659  0.91864341  1
  H  H62  1  0.60469482  0.09740659  0.58135659  1
  H  H63  1  0.89530518  0.40259341  0.08135659  1
  H  H64  1  0.99003695  0.28011605  0.55257857  1
  H  H65  1  0.50996305  0.21988395  0.05257857  1
  H  H66  1  0.49003695  0.71988395  0.44742143  1
  H  H67  1  0.00996305  0.78011605  0.94742143  1
  H  H68  1  0.00996305  0.71988395  0.44742143  1
  H  H69  1  0.49003695  0.78011605  0.94742143  1
  H  H70  1  0.50996305  0.28011605  0.55257857  1
  H  H71  1  0.99003695  0.21988395  0.05257857  1
  H  H72  1  0.07012415  0.17695631  0.67796194  1
  H  H73  1  0.42987585  0.32304369  0.17796194  1
  H  H74  1  0.57012415  0.82304369  0.32203806  1
  H  H75  1  0.92987585  0.67695631  0.82203806  1
  H  H76  1  0.92987585  0.82304369  0.32203806  1
  H  H77  1  0.57012415  0.67695631  0.82203806  1
  H  H78  1  0.42987585  0.17695631  0.67796194  1
  H  H79  1  0.07012415  0.32304369  0.17796194  1
  H  H80  1  0.12334363  0.11560483  0.53101298  1
  H  H81  1  0.37665637  0.38439517  0.03101298  1
  H  H82  1  0.62334363  0.88439517  0.46898702  1
  H  H83  1  0.87665637  0.61560483  0.96898702  1
  H  H84  1  0.87665637  0.88439517  0.46898702  1
  H  H85  1  0.62334363  0.61560483  0.96898702  1
  H  H86  1  0.37665637  0.11560483  0.53101298  1
  H  H87  1  0.12334363  0.38439517  0.03101298  1
