# generated using pymatgen
data_SrGa
_symmetry_space_group_name_H-M   'P 1'
_cell_length_a   12.59135434
_cell_length_b   12.59135434
_cell_length_c   12.59135434
_cell_angle_alpha   90.00000000
_cell_angle_beta   90.00000000
_cell_angle_gamma   90.00000000
_symmetry_Int_Tables_number   1
_chemical_formula_structural   SrGa
_chemical_formula_sum   'Sr32 Ga32'
_cell_volume   1996.26106986
_cell_formula_units_Z   32
loop_
 _symmetry_equiv_pos_site_id
 _symmetry_equiv_pos_as_xyz
  1  'x, y, z'
loop_
 _atom_site_type_symbol
 _atom_site_label
 _atom_site_symmetry_multiplicity
 _atom_site_fract_x
 _atom_site_fract_y
 _atom_site_fract_z
 _atom_site_occupancy
  Sr  Sr0  1  0.50785470  0.79834532  0.93989927  1
  Sr  Sr1  1  0.06010073  0.00785470  0.70165468  1
  Sr  Sr2  1  0.29834532  0.56010073  0.49214530  1
  Sr  Sr3  1  0.00785470  0.70165468  0.06010073  1
  Sr  Sr4  1  0.56010073  0.49214530  0.29834532  1
  Sr  Sr5  1  0.79834532  0.93989927  0.50785470  1
  Sr  Sr6  1  0.49214530  0.29834532  0.56010073  1
  Sr  Sr7  1  0.93989927  0.50785470  0.79834532  1
  Sr  Sr8  1  0.70165468  0.06010073  0.00785470  1
  Sr  Sr9  1  0.99214530  0.20165468  0.43989927  1
  Sr  Sr10  1  0.43989927  0.99214530  0.20165468  1
  Sr  Sr11  1  0.20165468  0.43989927  0.99214530  1
  Sr  Sr12  1  0.43651588  0.51957585  0.79123224  1
  Sr  Sr13  1  0.20876776  0.93651588  0.98042415  1
  Sr  Sr14  1  0.01957585  0.70876776  0.56348412  1
  Sr  Sr15  1  0.93651588  0.98042415  0.20876776  1
  Sr  Sr16  1  0.70876776  0.56348412  0.01957585  1
  Sr  Sr17  1  0.51957585  0.79123224  0.43651588  1
  Sr  Sr18  1  0.56348412  0.01957585  0.70876776  1
  Sr  Sr19  1  0.79123224  0.43651588  0.51957585  1
  Sr  Sr20  1  0.98042415  0.20876776  0.93651588  1
  Sr  Sr21  1  0.06348412  0.48042415  0.29123224  1
  Sr  Sr22  1  0.29123224  0.06348412  0.48042415  1
  Sr  Sr23  1  0.48042415  0.29123224  0.06348412  1
  Sr  Sr24  1  0.31347241  0.81347241  0.68652759  1
  Sr  Sr25  1  0.81347241  0.68652759  0.31347241  1
  Sr  Sr26  1  0.68652759  0.31347241  0.81347241  1
  Sr  Sr27  1  0.18652759  0.18652759  0.18652759  1
  Sr  Sr28  1  0.69421470  0.19421470  0.30578530  1
  Sr  Sr29  1  0.19421470  0.30578530  0.69421470  1
  Sr  Sr30  1  0.30578530  0.69421470  0.19421470  1
  Sr  Sr31  1  0.80578530  0.80578530  0.80578530  1
  Ga  Ga32  1  0.07364291  0.75324372  0.30988971  1
  Ga  Ga33  1  0.69011029  0.57364291  0.74675628  1
  Ga  Ga34  1  0.25324372  0.19011029  0.92635709  1
  Ga  Ga35  1  0.57364291  0.74675628  0.69011029  1
  Ga  Ga36  1  0.19011029  0.92635709  0.25324372  1
  Ga  Ga37  1  0.75324372  0.30988971  0.07364291  1
  Ga  Ga38  1  0.92635709  0.25324372  0.19011029  1
  Ga  Ga39  1  0.30988971  0.07364291  0.75324372  1
  Ga  Ga40  1  0.74675628  0.69011029  0.57364291  1
  Ga  Ga41  1  0.42635709  0.24675628  0.80988971  1
  Ga  Ga42  1  0.80988971  0.42635709  0.24675628  1
  Ga  Ga43  1  0.24675628  0.80988971  0.42635709  1
  Ga  Ga44  1  0.08112073  0.76335907  0.81817153  1
  Ga  Ga45  1  0.18182847  0.58112073  0.73664093  1
  Ga  Ga46  1  0.26335907  0.68182847  0.91887927  1
  Ga  Ga47  1  0.58112073  0.73664093  0.18182847  1
  Ga  Ga48  1  0.68182847  0.91887927  0.26335907  1
  Ga  Ga49  1  0.76335907  0.81817153  0.08112073  1
  Ga  Ga50  1  0.91887927  0.26335907  0.68182847  1
  Ga  Ga51  1  0.81817153  0.08112073  0.76335907  1
  Ga  Ga52  1  0.73664093  0.18182847  0.58112073  1
  Ga  Ga53  1  0.41887927  0.23664093  0.31817153  1
  Ga  Ga54  1  0.31817153  0.41887927  0.23664093  1
  Ga  Ga55  1  0.23664093  0.31817153  0.41887927  1
  Ga  Ga56  1  0.93406263  0.43406263  0.06593737  1
  Ga  Ga57  1  0.43406263  0.06593737  0.93406263  1
  Ga  Ga58  1  0.06593737  0.93406263  0.43406263  1
  Ga  Ga59  1  0.56593737  0.56593737  0.56593737  1
  Ga  Ga60  1  0.55258915  0.05258915  0.44741085  1
  Ga  Ga61  1  0.05258915  0.44741085  0.55258915  1
  Ga  Ga62  1  0.44741085  0.55258915  0.05258915  1
  Ga  Ga63  1  0.94741085  0.94741085  0.94741085  1
