# generated using pymatgen
data_MgSiO3
_symmetry_space_group_name_H-M   'P 1'
_cell_length_a   5.38500948
_cell_length_b   8.83255393
_cell_length_c   9.39323153
_cell_angle_alpha   90.00000000
_cell_angle_beta   90.00000000
_cell_angle_gamma   90.00000000
_symmetry_Int_Tables_number   1
_chemical_formula_structural   MgSiO3
_chemical_formula_sum   'Mg8 Si8 O24'
_cell_volume   446.77390311
_cell_formula_units_Z   8
loop_
 _symmetry_equiv_pos_site_id
 _symmetry_equiv_pos_as_xyz
  1  'x, y, z'
loop_
 _atom_site_type_symbol
 _atom_site_label
 _atom_site_symmetry_multiplicity
 _atom_site_fract_x
 _atom_site_fract_y
 _atom_site_fract_z
 _atom_site_occupancy
  Mg  Mg0  1  0.76173954  0.48696849  0.99707657  1
  Mg  Mg1  1  0.23826046  0.51303151  0.49707657  1
  Mg  Mg2  1  0.73826046  0.98696849  0.49707657  1
  Mg  Mg3  1  0.26173954  0.01303151  0.99707657  1
  Mg  Mg4  1  0.26423838  0.65105430  0.00103511  1
  Mg  Mg5  1  0.73576162  0.34894570  0.50103511  1
  Mg  Mg6  1  0.23576162  0.15105430  0.50103511  1
  Mg  Mg7  1  0.76423838  0.84894570  0.00103511  1
  Si  Si8  1  0.57066159  0.65783062  0.70837252  1
  Si  Si9  1  0.42933841  0.34216938  0.20837252  1
  Si  Si10  1  0.92933841  0.15783062  0.20837252  1
  Si  Si11  1  0.07066159  0.84216938  0.70837252  1
  Si  Si12  1  0.56807700  0.15960883  0.78978317  1
  Si  Si13  1  0.43192300  0.84039117  0.28978317  1
  Si  Si14  1  0.93192300  0.65960883  0.28978317  1
  Si  Si15  1  0.06807700  0.34039117  0.78978317  1
  O  O16  1  0.58669110  0.65486454  0.88192028  1
  O  O17  1  0.41330890  0.34513546  0.38192028  1
  O  O18  1  0.91330890  0.15486454  0.38192028  1
  O  O19  1  0.08669110  0.84513546  0.88192028  1
  O  O20  1  0.31387337  0.74478901  0.65056340  1
  O  O21  1  0.68612663  0.25521099  0.15056340  1
  O  O22  1  0.18612663  0.24478901  0.15056340  1
  O  O23  1  0.81387337  0.75521099  0.65056340  1
  O  O24  1  0.54661694  0.49945692  0.62444080  1
  O  O25  1  0.45338306  0.50054308  0.12444080  1
  O  O26  1  0.95338306  0.99945692  0.12444080  1
  O  O27  1  0.04661694  0.00054308  0.62444080  1
  O  O28  1  0.56800085  0.15503096  0.61617475  1
  O  O29  1  0.43199915  0.84496904  0.11617475  1
  O  O30  1  0.93199915  0.65503096  0.11617475  1
  O  O31  1  0.06800085  0.34496904  0.61617475  1
  O  O32  1  0.28674427  0.21981235  0.84529862  1
  O  O33  1  0.71325573  0.78018765  0.34529862  1
  O  O34  1  0.21325573  0.71981235  0.34529862  1
  O  O35  1  0.78674427  0.28018765  0.84529862  1
  O  O36  1  0.58276739  0.00390392  0.87793477  1
  O  O37  1  0.41723261  0.99609608  0.37793477  1
  O  O38  1  0.91723261  0.50390392  0.37793477  1
  O  O39  1  0.08276739  0.49609608  0.87793477  1
