# generated using pymatgen
data_TbCO4
_symmetry_space_group_name_H-M   'P 1'
_cell_length_a   9.71301601
_cell_length_b   12.14709148
_cell_length_c   12.14707120
_cell_angle_alpha   120.00024280
_cell_angle_beta   90.00000000
_cell_angle_gamma   90.00000000
_symmetry_Int_Tables_number   1
_chemical_formula_structural   TbCO4
_chemical_formula_sum   'Tb18 C18 O72'
_cell_volume   1241.15937756
_cell_formula_units_Z   18
loop_
 _symmetry_equiv_pos_site_id
 _symmetry_equiv_pos_as_xyz
  1  'x, y, z'
loop_
 _atom_site_type_symbol
 _atom_site_label
 _atom_site_symmetry_multiplicity
 _atom_site_fract_x
 _atom_site_fract_y
 _atom_site_fract_z
 _atom_site_occupancy
  Tb  Tb0  1  0.23983767  0.88147504  0.76930617  1
  Tb  Tb1  1  0.23983835  0.23069390  0.11216386  1
  Tb  Tb2  1  0.23984060  0.88783518  0.11853210  1
  Tb  Tb3  1  0.76016233  0.88147504  0.76930617  1
  Tb  Tb4  1  0.76016165  0.23069390  0.11216386  1
  Tb  Tb5  1  0.76015940  0.88783518  0.11853210  1
  Tb  Tb6  1  0.25681891  0.21537569  0.43689822  1
  Tb  Tb7  1  0.25681662  0.56311489  0.77848566  1
  Tb  Tb8  1  0.25681864  0.22152014  0.78462469  1
  Tb  Tb9  1  0.74318109  0.21537569  0.43689822  1
  Tb  Tb10  1  0.74318338  0.56311489  0.77848566  1
  Tb  Tb11  1  0.74318136  0.22152014  0.78462469  1
  Tb  Tb12  1  0.25609337  0.89735927  0.45429988  1
  Tb  Tb13  1  0.25608906  0.54569086  0.44305918  1
  Tb  Tb14  1  0.25608712  0.55693884  0.10263223  1
  Tb  Tb15  1  0.74390663  0.89735927  0.45429988  1
  Tb  Tb16  1  0.74391094  0.54569086  0.44305918  1
  Tb  Tb17  1  0.74391288  0.55693884  0.10263223  1
  C  C18  1  -0.00000000  0.35218436  0.49038878  1
  C  C19  1  -0.00000000  0.50961528  0.86179433  1
  C  C20  1  -0.00000000  0.13820357  0.64781422  1
  C  C21  1  -0.00000000  0.79617462  0.88848982  1
  C  C22  1  -0.00000000  0.11151700  0.90768781  1
  C  C23  1  -0.00000000  0.09231336  0.20383254  1
  C  C24  1  -0.00000000  0.83679765  0.53088727  1
  C  C25  1  -0.00000000  0.46910723  0.30590179  1
  C  C26  1  -0.00000000  0.69410187  0.16321269  1
  C  C27  1  0.50000000  0.12842101  0.57620838  1
  C  C28  1  0.50000000  0.42379575  0.55222328  1
  C  C29  1  0.50000000  0.44778916  0.87157832  1
  C  C30  1  0.50000000  0.76423131  0.22585067  1
  C  C31  1  0.50000000  0.77412798  0.53838093  1
  C  C32  1  0.50000000  0.46161340  0.23574333  1
  C  C33  1  0.50000000  0.79940897  0.81995235  1
  C  C34  1  0.50000000  0.18005042  0.97945111  1
  C  C35  1  0.50000000  0.02054413  0.20061057  1
  O  O36  1  -0.00000000  0.24286910  0.48598452  1
  O  O37  1  -0.00000000  0.51402679  0.75688575  1
  O  O38  1  -0.00000000  0.24311352  0.75713140  1
  O  O39  1  0.11760927  0.40181229  0.49075440  1
  O  O40  1  0.11760878  0.50925167  0.91106013  1
  O  O41  1  0.11760907  0.08894421  0.59818530  1
  O  O42  1  0.88239073  0.40181229  0.49075440  1
  O  O43  1  0.88239122  0.50925167  0.91106013  1
  O  O44  1  0.88239093  0.08894421  0.59818530  1
  O  O45  1  -0.00000000  0.85904535  0.82811550  1
  O  O46  1  -0.00000000  0.17189087  0.03093224  1
  O  O47  1  -0.00000000  0.96906947  0.14096201  1
  O  O48  1  0.11680328  0.08228236  0.84835222  1
  O  O49  1  0.11680264  0.15164935  0.23393234  1
  O  O50  1  0.11680371  0.76607368  0.91772470  1
  O  O51  1  0.88319672  0.08228236  0.84835222  1
  O  O52  1  0.88319736  0.15164935  0.23393234  1
  O  O53  1  0.88319629  0.76607368  0.91772470  1
  O  O54  1  -0.00000000  0.84162163  0.42679403  1
  O  O55  1  -0.00000000  0.57319493  0.41481940  1
  O  O56  1  -0.00000000  0.58518254  0.15837831  1
  O  O57  1  0.11688616  0.83691694  0.58124882  1
  O  O58  1  0.11688592  0.41874294  0.25566065  1
  O  O59  1  0.11688560  0.74434352  0.16309017  1
  O  O60  1  0.88311384  0.83691694  0.58124882  1
  O  O61  1  0.88311408  0.41874294  0.25566065  1
  O  O62  1  0.88311440  0.74434352  0.16309017  1
  O  O63  1  0.50000000  0.30112727  0.49611406  1
  O  O64  1  0.50000000  0.50390547  0.80502488  1
  O  O65  1  0.50000000  0.19498893  0.69887463  1
  O  O66  1  0.38391960  0.09523379  0.51578983  1
  O  O67  1  0.38391662  0.48421539  0.57945081  1
  O  O68  1  0.38391573  0.42055276  0.90476436  1
  O  O69  1  0.61608040  0.09523379  0.51578983  1
  O  O70  1  0.61608338  0.48421539  0.57945081  1
  O  O71  1  0.61608427  0.42055276  0.90476436  1
  O  O72  1  0.50000000  0.83981819  0.48081623  1
  O  O73  1  0.50000000  0.51916463  0.35899421  1
  O  O74  1  0.50000000  0.64098239  0.16016129  1
  O  O75  1  0.38347893  0.82391612  0.25783433  1
  O  O76  1  0.38347379  0.74214861  0.56609124  1
  O  O77  1  0.38347105  0.43389475  0.17604718  1
  O  O78  1  0.61652107  0.82391612  0.25783433  1
  O  O79  1  0.61652621  0.74214861  0.56609124  1
  O  O80  1  0.61652895  0.43389475  0.17604718  1
  O  O81  1  0.50000000  0.90488468  0.81738292  1
  O  O82  1  0.50000000  0.18261865  0.08749705  1
  O  O83  1  0.50000000  0.91250804  0.09512384  1
  O  O84  1  0.38335119  0.74874010  0.81962584  1
  O  O85  1  0.38335039  0.18037911  0.92911034  1
  O  O86  1  0.38335034  0.07089132  0.25127094  1
  O  O87  1  0.61664881  0.74874010  0.81962584  1
  O  O88  1  0.61664961  0.18037911  0.92911034  1
  O  O89  1  0.61664966  0.07089132  0.25127094  1
  O  O90  1  0.25771701  0.00000139  0.00000209  1
  O  O91  1  0.74228299  0.00000139  0.00000209  1
  O  O92  1  0.24707023  0.33334132  0.66667275  1
  O  O93  1  0.75292977  0.33334132  0.66667275  1
  O  O94  1  0.24456639  0.66665810  0.33333157  1
  O  O95  1  0.75543361  0.66665810  0.33333157  1
  O  O96  1  0.30982698  0.32312938  0.32528957  1
  O  O97  1  0.30982506  0.67471264  0.99784236  1
  O  O98  1  0.30982599  0.00215699  0.67686620  1
  O  O99  1  0.69017302  0.32312938  0.32528957  1
  O  O100  1  0.69017494  0.67471264  0.99784236  1
  O  O101  1  0.69017401  0.00215699  0.67686620  1
  O  O102  1  0.19168016  0.99882436  0.34082972  1
  O  O103  1  0.19167002  0.65917750  0.65799809  1
  O  O104  1  0.19166941  0.34200084  0.00117181  1
  O  O105  1  0.80831984  0.99882436  0.34082972  1
  O  O106  1  0.80832998  0.65917750  0.65799809  1
  O  O107  1  0.80833059  0.34200084  0.00117181  1
