# generated using pymatgen
data_Tl2Mo9S11
_symmetry_space_group_name_H-M   'P 1'
_cell_length_a   9.40918752
_cell_length_b   9.40918752
_cell_length_c   13.13929733
_cell_angle_alpha   69.01919023
_cell_angle_beta   69.01919023
_cell_angle_gamma   59.99999493
_symmetry_Int_Tables_number   1
_chemical_formula_structural   Tl2Mo9S11
_chemical_formula_sum   'Tl4 Mo18 S22'
_cell_volume   917.27696006
_cell_formula_units_Z   2
loop_
 _symmetry_equiv_pos_site_id
 _symmetry_equiv_pos_as_xyz
  1  'x, y, z'
loop_
 _atom_site_type_symbol
 _atom_site_label
 _atom_site_symmetry_multiplicity
 _atom_site_fract_x
 _atom_site_fract_y
 _atom_site_fract_z
 _atom_site_occupancy
  Tl  Tl0  1  0.55297080  0.55297080  0.34108761  1
  Tl  Tl1  1  0.05297080  0.05297080  0.84108761  1
  Tl  Tl2  1  0.44702920  0.44702920  0.65891239  1
  Tl  Tl3  1  0.94702920  0.94702920  0.15891239  1
  Mo  Mo4  1  0.91724718  0.75000000  0.75000000  1
  Mo  Mo5  1  0.75000000  0.58275282  0.75000000  1
  Mo  Mo6  1  0.58275282  0.91724718  0.75000000  1
  Mo  Mo7  1  0.41724718  0.08275282  0.25000000  1
  Mo  Mo8  1  0.08275282  0.25000000  0.25000000  1
  Mo  Mo9  1  0.25000000  0.41724718  0.25000000  1
  Mo  Mo10  1  0.67661939  0.85611509  0.94017193  1
  Mo  Mo11  1  0.85611509  0.52709359  0.94017193  1
  Mo  Mo12  1  0.52709359  0.67661939  0.94017193  1
  Mo  Mo13  1  0.17661939  0.02709359  0.44017193  1
  Mo  Mo14  1  0.02709359  0.35611509  0.44017193  1
  Mo  Mo15  1  0.35611509  0.17661939  0.44017193  1
  Mo  Mo16  1  0.32338061  0.14388491  0.05982807  1
  Mo  Mo17  1  0.14388491  0.47290641  0.05982807  1
  Mo  Mo18  1  0.47290641  0.32338061  0.05982807  1
  Mo  Mo19  1  0.82338061  0.97290641  0.55982807  1
  Mo  Mo20  1  0.97290641  0.64388491  0.55982807  1
  Mo  Mo21  1  0.64388491  0.82338061  0.55982807  1
  S  S22  1  0.75000000  0.05399446  0.75000000  1
  S  S23  1  0.05399446  0.44600554  0.75000000  1
  S  S24  1  0.44600554  0.75000000  0.75000000  1
  S  S25  1  0.25000000  0.94600554  0.25000000  1
  S  S26  1  0.94600554  0.55399446  0.25000000  1
  S  S27  1  0.55399446  0.25000000  0.25000000  1
  S  S28  1  0.98144458  0.71568727  0.92409139  1
  S  S29  1  0.71568727  0.37877676  0.92409139  1
  S  S30  1  0.37877676  0.98144458  0.92409139  1
  S  S31  1  0.48144458  0.87877676  0.42409139  1
  S  S32  1  0.87877676  0.21568727  0.42409139  1
  S  S33  1  0.21568727  0.48144458  0.42409139  1
  S  S34  1  0.01855542  0.28431273  0.07590861  1
  S  S35  1  0.28431273  0.62122324  0.07590861  1
  S  S36  1  0.62122324  0.01855542  0.07590861  1
  S  S37  1  0.51855542  0.12122324  0.57590861  1
  S  S38  1  0.12122324  0.78431273  0.57590861  1
  S  S39  1  0.78431273  0.51855542  0.57590861  1
  S  S40  1  0.63548209  0.63548209  0.09355373  1
  S  S41  1  0.13548209  0.13548209  0.59355373  1
  S  S42  1  0.36451791  0.36451791  0.90644627  1
  S  S43  1  0.86451791  0.86451791  0.40644627  1
