# generated using pymatgen
data_Co2P2H4PbO10
_symmetry_space_group_name_H-M   'P 1'
_cell_length_a   6.37900152
_cell_length_b   7.57391071
_cell_length_c   9.04286271
_cell_angle_alpha   114.39098176
_cell_angle_beta   90.00000000
_cell_angle_gamma   90.00000000
_symmetry_Int_Tables_number   1
_chemical_formula_structural   Co2P2H4PbO10
_chemical_formula_sum   'Co4 P4 H8 Pb2 O20'
_cell_volume   397.90314346
_cell_formula_units_Z   2
loop_
 _symmetry_equiv_pos_site_id
 _symmetry_equiv_pos_as_xyz
  1  'x, y, z'
loop_
 _atom_site_type_symbol
 _atom_site_label
 _atom_site_symmetry_multiplicity
 _atom_site_fract_x
 _atom_site_fract_y
 _atom_site_fract_z
 _atom_site_occupancy
  Co  Co0  1  0.50000000  0.50000000  -0.00000000  1
  Co  Co1  1  0.00000000  0.50000000  -0.00000000  1
  Co  Co2  1  0.00000000  0.50000000  0.50000000  1
  Co  Co3  1  0.50000000  0.50000000  0.50000000  1
  P  P4  1  0.25000000  0.23133355  0.67757791  1
  P  P5  1  0.75000000  0.76866645  0.32242209  1
  P  P6  1  0.75000000  0.21062529  0.16186293  1
  P  P7  1  0.25000000  0.78937471  0.83813707  1
  H  H8  1  0.25000000  0.92145727  0.62394254  1
  H  H9  1  0.75000000  0.07854273  0.37605746  1
  H  H10  1  0.75000000  0.31125460  0.60468133  1
  H  H11  1  0.25000000  0.68874540  0.39531867  1
  H  H12  1  0.75000000  0.75006231  0.96358872  1
  H  H13  1  0.25000000  0.24993769  0.03641128  1
  H  H14  1  0.75000000  0.55054625  0.78338269  1
  H  H15  1  0.25000000  0.44945375  0.21661731  1
  Pb  Pb16  1  0.75000000  0.99024850  0.76714334  1
  Pb  Pb17  1  0.25000000  0.00975150  0.23285666  1
  O  O18  1  0.25000000  0.32428149  0.55410832  1
  O  O19  1  0.75000000  0.67571851  0.44589168  1
  O  O20  1  0.25000000  0.00093039  0.56093158  1
  O  O21  1  0.75000000  0.99906961  0.43906842  1
  O  O22  1  0.45284438  0.27038349  0.77874586  1
  O  O23  1  0.95284438  0.72961651  0.22125414  1
  O  O24  1  0.54715562  0.72961651  0.22125414  1
  O  O25  1  0.04715562  0.27038349  0.77874586  1
  O  O26  1  0.75000000  0.99635261  0.03494671  1
  O  O27  1  0.25000000  0.00364739  0.96505329  1
  O  O28  1  0.75000000  0.33965063  0.06344755  1
  O  O29  1  0.25000000  0.66034937  0.93655245  1
  O  O30  1  0.55309965  0.24874841  0.27415584  1
  O  O31  1  0.05309965  0.75125159  0.72584416  1
  O  O32  1  0.44690035  0.75125159  0.72584416  1
  O  O33  1  0.94690035  0.24874841  0.27415584  1
  O  O34  1  0.75000000  0.44187785  0.60871647  1
  O  O35  1  0.25000000  0.55812215  0.39128353  1
  O  O36  1  0.75000000  0.60504448  0.91186674  1
  O  O37  1  0.25000000  0.39495552  0.08813326  1
