# generated using pymatgen
data_RbH4CN3
_symmetry_space_group_name_H-M   'P 1'
_cell_length_a   7.19318537
_cell_length_b   7.11957443
_cell_length_c   7.86226767
_cell_angle_alpha   90.00000000
_cell_angle_beta   90.00000000
_cell_angle_gamma   90.00000000
_symmetry_Int_Tables_number   1
_chemical_formula_structural   RbH4CN3
_chemical_formula_sum   'Rb4 H16 C4 N12'
_cell_volume   402.64574330
_cell_formula_units_Z   4
loop_
 _symmetry_equiv_pos_site_id
 _symmetry_equiv_pos_as_xyz
  1  'x, y, z'
loop_
 _atom_site_type_symbol
 _atom_site_label
 _atom_site_symmetry_multiplicity
 _atom_site_fract_x
 _atom_site_fract_y
 _atom_site_fract_z
 _atom_site_occupancy
  Rb  Rb0  1  0.52410352  0.25000000  0.90917974  1
  Rb  Rb1  1  0.02410352  0.25000000  0.59082026  1
  Rb  Rb2  1  0.47589648  0.75000000  0.09082026  1
  Rb  Rb3  1  0.97589648  0.75000000  0.40917974  1
  H  H4  1  0.95958798  0.12823027  0.94480142  1
  H  H5  1  0.45958798  0.37176973  0.55519858  1
  H  H6  1  0.04041202  0.62823027  0.05519858  1
  H  H7  1  0.54041202  0.87176973  0.44480142  1
  H  H8  1  0.04041202  0.87176973  0.05519858  1
  H  H9  1  0.54041202  0.62823027  0.44480142  1
  H  H10  1  0.95958798  0.37176973  0.94480142  1
  H  H11  1  0.45958798  0.12823027  0.55519858  1
  H  H12  1  0.28748192  0.09433877  0.27158925  1
  H  H13  1  0.78748192  0.40566123  0.22841075  1
  H  H14  1  0.71251808  0.59433877  0.72841075  1
  H  H15  1  0.21251808  0.90566123  0.77158925  1
  H  H16  1  0.71251808  0.90566123  0.72841075  1
  H  H17  1  0.21251808  0.59433877  0.77158925  1
  H  H18  1  0.28748192  0.40566123  0.27158925  1
  H  H19  1  0.78748192  0.09433877  0.22841075  1
  C  C20  1  0.85401395  0.75000000  0.88412906  1
  C  C21  1  0.35401395  0.75000000  0.61587094  1
  C  C22  1  0.14598605  0.25000000  0.11587094  1
  C  C23  1  0.64598605  0.25000000  0.38412906  1
  N  N24  1  0.02945487  0.25000000  0.97499392  1
  N  N25  1  0.52945487  0.25000000  0.52500608  1
  N  N26  1  0.97054513  0.75000000  0.02500608  1
  N  N27  1  0.47054513  0.75000000  0.47499392  1
  N  N28  1  0.80225287  0.57843506  0.82862780  1
  N  N29  1  0.30225287  0.92156494  0.67137220  1
  N  N30  1  0.19774713  0.07843506  0.17137220  1
  N  N31  1  0.69774713  0.42156494  0.32862780  1
  N  N32  1  0.19774713  0.42156494  0.17137220  1
  N  N33  1  0.69774713  0.07843506  0.32862780  1
  N  N34  1  0.80225287  0.92156494  0.82862780  1
  N  N35  1  0.30225287  0.57843506  0.67137220  1
