# generated using pymatgen
data_CsPSO2
_symmetry_space_group_name_H-M   'P 1'
_cell_length_a   8.53639557
_cell_length_b   13.21681337
_cell_length_c   13.66097697
_cell_angle_alpha   91.45561831
_cell_angle_beta   90.00000000
_cell_angle_gamma   90.00000000
_symmetry_Int_Tables_number   1
_chemical_formula_structural   CsPSO2
_chemical_formula_sum   'Cs12 P12 S12 O24'
_cell_volume   1540.78797237
_cell_formula_units_Z   12
loop_
 _symmetry_equiv_pos_site_id
 _symmetry_equiv_pos_as_xyz
  1  'x, y, z'
loop_
 _atom_site_type_symbol
 _atom_site_label
 _atom_site_symmetry_multiplicity
 _atom_site_fract_x
 _atom_site_fract_y
 _atom_site_fract_z
 _atom_site_occupancy
  Cs  Cs0  1  0.72203226  0.16302234  0.03365255  1
  Cs  Cs1  1  0.22203226  0.33697766  0.96634745  1
  Cs  Cs2  1  0.27796774  0.83697766  0.96634745  1
  Cs  Cs3  1  0.77796774  0.66302234  0.03365255  1
  Cs  Cs4  1  0.21131571  0.81844230  0.57606501  1
  Cs  Cs5  1  0.71131571  0.68155770  0.42393499  1
  Cs  Cs6  1  0.78868429  0.18155770  0.42393499  1
  Cs  Cs7  1  0.28868429  0.31844230  0.57606501  1
  Cs  Cs8  1  0.50111748  0.59821336  0.74469694  1
  Cs  Cs9  1  0.00111748  0.90178664  0.25530306  1
  Cs  Cs10  1  0.49888252  0.40178664  0.25530306  1
  Cs  Cs11  1  0.99888252  0.09821336  0.74469694  1
  P  P12  1  0.69098823  0.87959602  0.85064485  1
  P  P13  1  0.19098823  0.62040398  0.14935515  1
  P  P14  1  0.30901177  0.12040398  0.14935515  1
  P  P15  1  0.80901177  0.37959602  0.85064485  1
  P  P16  1  0.45240408  0.01759850  0.76052945  1
  P  P17  1  0.95240408  0.48240150  0.23947055  1
  P  P18  1  0.54759592  0.98240150  0.23947055  1
  P  P19  1  0.04759592  0.51759850  0.76052945  1
  P  P20  1  0.16637368  0.60977468  0.36457067  1
  P  P21  1  0.66637368  0.89022532  0.63542933  1
  P  P22  1  0.83362632  0.39022532  0.63542933  1
  P  P23  1  0.33362632  0.10977468  0.36457067  1
  S  S24  1  0.63895745  0.41982187  0.94062523  1
  S  S25  1  0.13895745  0.08017813  0.05937477  1
  S  S26  1  0.36104255  0.58017813  0.05937477  1
  S  S27  1  0.86104255  0.91982187  0.94062523  1
  S  S28  1  0.32153735  0.56773318  0.46239851  1
  S  S29  1  0.82153735  0.93226682  0.53760149  1
  S  S30  1  0.67846265  0.43226682  0.53760149  1
  S  S31  1  0.17846265  0.06773318  0.46239851  1
  S  S32  1  0.44992822  0.16562638  0.77592149  1
  S  S33  1  0.94992822  0.33437362  0.22407851  1
  S  S34  1  0.55007178  0.83437362  0.22407851  1
  S  S35  1  0.05007178  0.66562638  0.77592149  1
  O  O36  1  0.23754211  0.11921667  0.26076356  1
  O  O37  1  0.73754211  0.38078333  0.73923644  1
  O  O38  1  0.76245789  0.88078333  0.73923644  1
  O  O39  1  0.26245789  0.61921667  0.26076356  1
  O  O40  1  0.43180622  0.02478887  0.15263937  1
  O  O41  1  0.93180622  0.47521113  0.84736063  1
  O  O42  1  0.56819378  0.97521113  0.84736063  1
  O  O43  1  0.06819378  0.52478887  0.15263937  1
  O  O44  1  0.60179217  0.78361326  0.86814637  1
  O  O45  1  0.10179217  0.71638674  0.13185363  1
  O  O46  1  0.39820783  0.21638674  0.13185363  1
  O  O47  1  0.89820783  0.28361326  0.86814637  1
  O  O48  1  0.44467341  0.01183680  0.33820378  1
  O  O49  1  0.94467341  0.48816320  0.66179622  1
  O  O50  1  0.55532659  0.98816320  0.66179622  1
  O  O51  1  0.05532659  0.51183680  0.33820378  1
  O  O52  1  0.30243817  0.95831629  0.75962131  1
  O  O53  1  0.80243817  0.54168371  0.24037869  1
  O  O54  1  0.69756183  0.04168371  0.24037869  1
  O  O55  1  0.19756183  0.45831629  0.75962131  1
  O  O56  1  0.06923474  0.70276227  0.38508996  1
  O  O57  1  0.56923474  0.79723773  0.61491004  1
  O  O58  1  0.93076526  0.29723773  0.61491004  1
  O  O59  1  0.43076526  0.20276227  0.38508996  1
