# generated using pymatgen
data_NaSb2H2OF7
_symmetry_space_group_name_H-M   'P 1'
_cell_length_a   5.57220700
_cell_length_b   9.74732594
_cell_length_c   13.70013169
_cell_angle_alpha   90.00000000
_cell_angle_beta   97.60857990
_cell_angle_gamma   90.00000000
_symmetry_Int_Tables_number   1
_chemical_formula_structural   NaSb2H2OF7
_chemical_formula_sum   'Na4 Sb8 H8 O4 F28'
_cell_volume   737.55921269
_cell_formula_units_Z   4
loop_
 _symmetry_equiv_pos_site_id
 _symmetry_equiv_pos_as_xyz
  1  'x, y, z'
loop_
 _atom_site_type_symbol
 _atom_site_label
 _atom_site_symmetry_multiplicity
 _atom_site_fract_x
 _atom_site_fract_y
 _atom_site_fract_z
 _atom_site_occupancy
  Na  Na0  1  0.24302970  0.44073592  0.92561032  1
  Na  Na1  1  0.75697030  0.94073592  0.57438968  1
  Na  Na2  1  0.75697030  0.55926408  0.07438968  1
  Na  Na3  1  0.24302970  0.05926408  0.42561032  1
  Sb  Sb4  1  0.79501954  0.16628625  0.97279029  1
  Sb  Sb5  1  0.20498046  0.66628625  0.52720971  1
  Sb  Sb6  1  0.20498046  0.83371375  0.02720971  1
  Sb  Sb7  1  0.79501954  0.33371375  0.47279029  1
  Sb  Sb8  1  0.38846191  0.19964059  0.70680364  1
  Sb  Sb9  1  0.61153809  0.69964059  0.79319636  1
  Sb  Sb10  1  0.61153809  0.80035941  0.29319636  1
  Sb  Sb11  1  0.38846191  0.30035941  0.20680364  1
  H  H12  1  0.15658119  0.91901342  0.73801344  1
  H  H13  1  0.84341881  0.41901342  0.76198656  1
  H  H14  1  0.84341881  0.08098658  0.26198656  1
  H  H15  1  0.15658119  0.58098658  0.23801344  1
  H  H16  1  0.97097075  0.03080479  0.76069823  1
  H  H17  1  0.02902925  0.53080479  0.73930177  1
  H  H18  1  0.02902925  0.96919521  0.23930177  1
  H  H19  1  0.97097075  0.46919521  0.26069823  1
  O  O20  1  0.06178454  0.99809871  0.70865208  1
  O  O21  1  0.93821546  0.49809871  0.79134792  1
  O  O22  1  0.93821546  0.00190129  0.29134792  1
  O  O23  1  0.06178454  0.50190129  0.20865208  1
  F  F24  1  0.00683813  0.17809253  0.86933642  1
  F  F25  1  0.99316187  0.67809253  0.63066358  1
  F  F26  1  0.99316187  0.82190747  0.13066358  1
  F  F27  1  0.00683813  0.32190747  0.36933642  1
  F  F28  1  0.10454460  0.10911943  0.06212989  1
  F  F29  1  0.89545540  0.60911943  0.43787011  1
  F  F30  1  0.89545540  0.89088057  0.93787011  1
  F  F31  1  0.10454460  0.39088057  0.56212989  1
  F  F32  1  0.90467794  0.35569266  0.00560621  1
  F  F33  1  0.09532206  0.85569266  0.49439379  1
  F  F34  1  0.09532206  0.64430734  0.99439379  1
  F  F35  1  0.90467794  0.14430734  0.50560621  1
  F  F36  1  0.43983673  0.10282968  0.57955849  1
  F  F37  1  0.56016327  0.60282968  0.92044151  1
  F  F38  1  0.56016327  0.89717032  0.42044151  1
  F  F39  1  0.43983673  0.39717032  0.07955849  1
  F  F40  1  0.69327954  0.29470979  0.67866827  1
  F  F41  1  0.30672046  0.79470979  0.82133173  1
  F  F42  1  0.30672046  0.70529021  0.32133173  1
  F  F43  1  0.69327954  0.20529021  0.17866827  1
  F  F44  1  0.58445844  0.04605230  0.76854460  1
  F  F45  1  0.41554156  0.54605230  0.73145540  1
  F  F46  1  0.41554156  0.95394770  0.23145540  1
  F  F47  1  0.58445844  0.45394770  0.26854460  1
  F  F48  1  0.52167537  0.28148199  0.86190682  1
  F  F49  1  0.47832463  0.78148199  0.63809318  1
  F  F50  1  0.47832463  0.71851801  0.13809318  1
  F  F51  1  0.52167537  0.21851801  0.36190682  1
