# generated using pymatgen
data_Y3InS6
_symmetry_space_group_name_H-M   'P 1'
_cell_length_a   3.87745429
_cell_length_b   13.44844371
_cell_length_c   16.60662260
_cell_angle_alpha   90.00000000
_cell_angle_beta   90.00000000
_cell_angle_gamma   90.00000000
_symmetry_Int_Tables_number   1
_chemical_formula_structural   Y3InS6
_chemical_formula_sum   'Y12 In4 S24'
_cell_volume   865.96438785
_cell_formula_units_Z   4
loop_
 _symmetry_equiv_pos_site_id
 _symmetry_equiv_pos_as_xyz
  1  'x, y, z'
loop_
 _atom_site_type_symbol
 _atom_site_label
 _atom_site_symmetry_multiplicity
 _atom_site_fract_x
 _atom_site_fract_y
 _atom_site_fract_z
 _atom_site_occupancy
  Y  Y0  1  0.25397141  0.03613087  0.77657143  1
  Y  Y1  1  0.25397141  0.96386913  0.22342857  1
  Y  Y2  1  0.74602859  0.46386913  0.27657143  1
  Y  Y3  1  0.74602859  0.53613087  0.72342857  1
  Y  Y4  1  0.26359755  0.24678355  0.61058343  1
  Y  Y5  1  0.26359755  0.75321645  0.38941657  1
  Y  Y6  1  0.73640245  0.25321645  0.11058343  1
  Y  Y7  1  0.73640245  0.74678355  0.88941657  1
  Y  Y8  1  0.74723512  0.30939567  0.85635597  1
  Y  Y9  1  0.74723512  0.69060433  0.14364403  1
  Y  Y10  1  0.25276488  0.19060433  0.35635597  1
  Y  Y11  1  0.25276488  0.80939567  0.64364403  1
  In  In12  1  0.75319940  -0.00000000  0.50000000  1
  In  In13  1  0.24680060  0.50000000  -0.00000000  1
  In  In14  1  0.39159883  0.50000000  0.50000000  1
  In  In15  1  0.60840117  -0.00000000  -0.00000000  1
  S  S16  1  0.76820466  0.39704538  0.59309363  1
  S  S17  1  0.76820466  0.60295462  0.40690637  1
  S  S18  1  0.23179534  0.10295462  0.09309363  1
  S  S19  1  0.23179534  0.89704538  0.90690637  1
  S  S20  1  0.24606476  0.30736228  0.98069348  1
  S  S21  1  0.24606476  0.69263772  0.01930652  1
  S  S22  1  0.75393524  0.19263772  0.48069348  1
  S  S23  1  0.75393524  0.80736228  0.51930652  1
  S  S24  1  0.75163518  0.10770437  0.88480645  1
  S  S25  1  0.75163518  0.89229563  0.11519355  1
  S  S26  1  0.24836482  0.39229563  0.38480645  1
  S  S27  1  0.24836482  0.60770437  0.61519355  1
  S  S28  1  0.75912319  0.17891471  0.71724166  1
  S  S29  1  0.75912319  0.82108529  0.28275834  1
  S  S30  1  0.24087681  0.32108529  0.21724166  1
  S  S31  1  0.24087681  0.67891471  0.78275834  1
  S  S32  1  0.24863237  0.38454144  0.75612022  1
  S  S33  1  0.24863237  0.61545856  0.24387978  1
  S  S34  1  0.75136763  0.11545856  0.25612022  1
  S  S35  1  0.75136763  0.88454144  0.74387978  1
  S  S36  1  0.25361461  0.02066918  0.60550010  1
  S  S37  1  0.25361461  0.97933082  0.39449990  1
  S  S38  1  0.74638539  0.47933082  0.10550010  1
  S  S39  1  0.74638539  0.52066918  0.89449990  1
