# generated using pymatgen
data_Nd4In8Ni7
_symmetry_space_group_name_H-M   'P 1'
_cell_length_a   4.34521095
_cell_length_b   14.13588486
_cell_length_c   14.13588486
_cell_angle_alpha   117.21858698
_cell_angle_beta   90.00000000
_cell_angle_gamma   90.00000000
_symmetry_Int_Tables_number   1
_chemical_formula_structural   Nd4In8Ni7
_chemical_formula_sum   'Nd8 In16 Ni14'
_cell_volume   772.12843903
_cell_formula_units_Z   2
loop_
 _symmetry_equiv_pos_site_id
 _symmetry_equiv_pos_as_xyz
  1  'x, y, z'
loop_
 _atom_site_type_symbol
 _atom_site_label
 _atom_site_symmetry_multiplicity
 _atom_site_fract_x
 _atom_site_fract_y
 _atom_site_fract_z
 _atom_site_occupancy
  Nd  Nd0  1  -0.00000000  0.81577972  0.81577972  1
  Nd  Nd1  1  -0.00000000  0.18422028  0.18422028  1
  Nd  Nd2  1  0.00000000  0.00494819  0.65173175  1
  Nd  Nd3  1  -0.00000000  0.99505181  0.34826825  1
  Nd  Nd4  1  0.00000000  0.65173175  0.00494819  1
  Nd  Nd5  1  0.00000000  0.34826825  0.99505181  1
  Nd  Nd6  1  0.50000000  0.60561088  0.39438912  1
  Nd  Nd7  1  0.50000000  0.39438912  0.60561088  1
  In  In8  1  0.50000000  0.18945461  0.81054539  1
  In  In9  1  0.50000000  0.81054539  0.18945461  1
  In  In10  1  -0.00000000  0.08709570  0.91290430  1
  In  In11  1  -0.00000000  0.91290430  0.08709570  1
  In  In12  1  0.50000000  0.55738034  0.12540066  1
  In  In13  1  0.50000000  0.44261966  0.87459934  1
  In  In14  1  0.50000000  0.12540066  0.55738034  1
  In  In15  1  0.50000000  0.87459934  0.44261966  1
  In  In16  1  0.50000000  0.00000000  0.00000000  1
  In  In17  1  -0.00000000  0.50000000  0.50000000  1
  In  In18  1  0.50000000  0.18133127  0.36900525  1
  In  In19  1  0.50000000  0.81866873  0.63099475  1
  In  In20  1  0.50000000  0.36900525  0.18133127  1
  In  In21  1  0.50000000  0.63099475  0.81866873  1
  In  In22  1  -0.00000000  0.72260048  0.27739952  1
  In  In23  1  -0.00000000  0.27739952  0.72260048  1
  Ni  Ni24  1  0.50000000  0.99841698  0.80929581  1
  Ni  Ni25  1  0.50000000  0.00158302  0.19070419  1
  Ni  Ni26  1  0.50000000  0.80929581  0.99841698  1
  Ni  Ni27  1  0.50000000  0.19070419  0.00158302  1
  Ni  Ni28  1  0.00000000  0.41051616  0.30194810  1
  Ni  Ni29  1  0.00000000  0.58948384  0.69805190  1
  Ni  Ni30  1  0.00000000  0.30194810  0.41051616  1
  Ni  Ni31  1  -0.00000000  0.69805190  0.58948384  1
  Ni  Ni32  1  0.50000000  0.37805898  0.37805898  1
  Ni  Ni33  1  0.50000000  0.62194102  0.62194102  1
  Ni  Ni34  1  -0.00000000  0.20832334  0.51557362  1
  Ni  Ni35  1  -0.00000000  0.79167666  0.48442638  1
  Ni  Ni36  1  0.00000000  0.51557362  0.20832334  1
  Ni  Ni37  1  -0.00000000  0.48442638  0.79167666  1
