# generated using pymatgen
data_TlHg6Se4Br5
_symmetry_space_group_name_H-M   'P 1'
_cell_length_a   9.09104103
_cell_length_b   11.49107619
_cell_length_c   11.49107620
_cell_angle_alpha   80.99763213
_cell_angle_beta   66.69849866
_cell_angle_gamma   66.69849865
_symmetry_Int_Tables_number   1
_chemical_formula_structural   TlHg6Se4Br5
_chemical_formula_sum   'Tl2 Hg12 Se8 Br10'
_cell_volume   1012.58814597
_cell_formula_units_Z   2
loop_
 _symmetry_equiv_pos_site_id
 _symmetry_equiv_pos_as_xyz
  1  'x, y, z'
loop_
 _atom_site_type_symbol
 _atom_site_label
 _atom_site_symmetry_multiplicity
 _atom_site_fract_x
 _atom_site_fract_y
 _atom_site_fract_z
 _atom_site_occupancy
  Tl  Tl0  1  0.25000000  0.50000000  0.50000000  1
  Tl  Tl1  1  0.75000000  0.50000000  0.50000000  1
  Hg  Hg2  1  0.69838014  0.21578490  0.86304359  1
  Hg  Hg3  1  0.77720862  0.78421510  0.13695641  1
  Hg  Hg4  1  0.91416504  0.86304359  0.78421510  1
  Hg  Hg5  1  0.56142372  0.13695641  0.21578490  1
  Hg  Hg6  1  0.30161986  0.78421510  0.13695641  1
  Hg  Hg7  1  0.22279138  0.21578490  0.86304359  1
  Hg  Hg8  1  0.08583496  0.13695641  0.21578490  1
  Hg  Hg9  1  0.43857628  0.86304359  0.78421510  1
  Hg  Hg10  1  0.76052000  0.37582409  0.10313591  1
  Hg  Hg11  1  0.23948000  0.62417591  0.89686409  1
  Hg  Hg12  1  0.13634409  0.10313591  0.62417591  1
  Hg  Hg13  1  0.86365591  0.89686409  0.37582409  1
  Se  Se14  1  0.51911605  0.33417727  0.07396429  1
  Se  Se15  1  0.92725762  0.66582273  0.92603571  1
  Se  Se16  1  0.85329332  0.07396429  0.66582273  1
  Se  Se17  1  0.59308034  0.92603571  0.33417727  1
  Se  Se18  1  0.48088395  0.66582273  0.92603571  1
  Se  Se19  1  0.07274238  0.33417727  0.07396429  1
  Se  Se20  1  0.14670668  0.92603571  0.33417727  1
  Se  Se21  1  0.40691966  0.07396429  0.66582273  1
  Br  Br22  1  0.50000000  -0.00000000  -0.00000000  1
  Br  Br23  1  -0.00000000  -0.00000000  -0.00000000  1
  Br  Br24  1  0.56993372  0.59853661  0.26159594  1
  Br  Br25  1  0.43006628  0.40146339  0.73840406  1
  Br  Br26  1  0.16847033  0.26159594  0.40146339  1
  Br  Br27  1  0.83152967  0.73840406  0.59853661  1
  Br  Br28  1  0.93312812  0.37932899  0.75441477  1
  Br  Br29  1  0.06687188  0.62067101  0.24558523  1
  Br  Br30  1  0.31245711  0.75441477  0.62067101  1
  Br  Br31  1  0.68754289  0.24558523  0.37932899  1
