# generated using pymatgen
data_MgH12SO10
_symmetry_space_group_name_H-M   'P 1'
_cell_length_a   6.27616631
_cell_length_b   6.27616631
_cell_length_c   25.16971446
_cell_angle_alpha   80.92769823
_cell_angle_beta   80.92769823
_cell_angle_gamma   69.49550686
_symmetry_Int_Tables_number   1
_chemical_formula_structural   MgH12SO10
_chemical_formula_sum   'Mg4 H48 S4 O40'
_cell_volume   911.36905895
_cell_formula_units_Z   4
loop_
 _symmetry_equiv_pos_site_id
 _symmetry_equiv_pos_as_xyz
  1  'x, y, z'
loop_
 _atom_site_type_symbol
 _atom_site_label
 _atom_site_symmetry_multiplicity
 _atom_site_fract_x
 _atom_site_fract_y
 _atom_site_fract_z
 _atom_site_occupancy
  Mg  Mg0  1  0.00000000  -0.00000000  0.50000000  1
  Mg  Mg1  1  0.00000000  -0.00000000  0.00000000  1
  Mg  Mg2  1  0.05770196  0.94229804  0.25000000  1
  Mg  Mg3  1  0.94229804  0.05770196  0.75000000  1
  H  H4  1  0.96969389  0.34160794  0.41939973  1
  H  H5  1  0.65839206  0.03030611  0.08060027  1
  H  H6  1  0.03030611  0.65839206  0.58060027  1
  H  H7  1  0.34160794  0.96969389  0.91939973  1
  H  H8  1  0.71311400  0.35029243  0.44150674  1
  H  H9  1  0.64970757  0.28688600  0.05849326  1
  H  H10  1  0.28688600  0.64970757  0.55849326  1
  H  H11  1  0.35029243  0.71311400  0.94150674  1
  H  H12  1  0.28431663  0.69426599  0.43255326  1
  H  H13  1  0.30573401  0.71568337  0.06744674  1
  H  H14  1  0.71568337  0.30573401  0.56744674  1
  H  H15  1  0.69426599  0.28431663  0.93255326  1
  H  H16  1  0.32845061  0.92882574  0.41149078  1
  H  H17  1  0.07117426  0.67154939  0.08850922  1
  H  H18  1  0.67154939  0.07117426  0.58850922  1
  H  H19  1  0.92882574  0.32845061  0.91149078  1
  H  H20  1  0.67023507  0.93341644  0.44933923  1
  H  H21  1  0.06658356  0.32976493  0.05066077  1
  H  H22  1  0.32976493  0.06658356  0.55066077  1
  H  H23  1  0.93341644  0.67023507  0.94933923  1
  H  H24  1  0.69552222  0.76463974  0.50412594  1
  H  H25  1  0.23536026  0.30447778  0.99587406  1
  H  H26  1  0.30447778  0.23536026  0.49587406  1
  H  H27  1  0.76463974  0.69552222  0.00412594  1
  H  H28  1  0.73950192  0.93561189  0.19175326  1
  H  H29  1  0.06438811  0.26049808  0.30824674  1
  H  H30  1  0.26049808  0.06438811  0.80824674  1
  H  H31  1  0.93561189  0.73950192  0.69175326  1
  H  H32  1  0.67699555  0.19485416  0.19936781  1
  H  H33  1  0.80514584  0.32300445  0.30063219  1
  H  H34  1  0.32300445  0.80514584  0.80063219  1
  H  H35  1  0.19485416  0.67699555  0.69936781  1
  H  H36  1  0.30201350  0.55960917  0.19913265  1
  H  H37  1  0.44039083  0.69798650  0.30086735  1
  H  H38  1  0.69798650  0.44039083  0.80086735  1
  H  H39  1  0.55960917  0.30201350  0.69913265  1
  H  H40  1  0.07966216  0.51171736  0.23174250  1
  H  H41  1  0.48828264  0.92033784  0.26825750  1
  H  H42  1  0.92033784  0.48828264  0.76825750  1
  H  H43  1  0.51171736  0.07966216  0.73174250  1
  H  H44  1  0.00769102  0.66115339  0.34117894  1
  H  H45  1  0.33884661  0.99230898  0.15882106  1
  H  H46  1  0.99230898  0.33884661  0.65882106  1
  H  H47  1  0.66115339  0.00769102  0.84117894  1
  H  H48  1  0.78971386  0.88902978  0.34490437  1
  H  H49  1  0.11097022  0.21028614  0.15509563  1
  H  H50  1  0.21028614  0.11097022  0.65509563  1
  H  H51  1  0.88902978  0.78971386  0.84490437  1
  S  S52  1  0.42096811  0.31764979  0.37693796  1
  S  S53  1  0.68235021  0.57903189  0.12306204  1
  S  S54  1  0.57903189  0.68235021  0.62306204  1
  S  S55  1  0.31764979  0.42096811  0.87693796  1
  O  O56  1  0.17893576  0.37608978  0.36538090  1
  O  O57  1  0.62391022  0.82106424  0.13461910  1
  O  O58  1  0.82106424  0.62391022  0.63461910  1
  O  O59  1  0.37608978  0.17893576  0.86538090  1
  O  O60  1  0.54661250  0.42605915  0.33187872  1
  O  O61  1  0.57394085  0.45338750  0.16812128  1
  O  O62  1  0.45338750  0.57394085  0.66812128  1
  O  O63  1  0.42605915  0.54661250  0.83187872  1
  O  O64  1  0.42272232  0.40410966  0.42903195  1
  O  O65  1  0.59589034  0.57727768  0.07096805  1
  O  O66  1  0.57727768  0.59589034  0.57096805  1
  O  O67  1  0.40410966  0.42272232  0.92903195  1
  O  O68  1  0.53481129  0.06345392  0.38272892  1
  O  O69  1  0.93654608  0.46518871  0.11727108  1
  O  O70  1  0.46518871  0.93654608  0.61727108  1
  O  O71  1  0.06345392  0.53481129  0.88272892  1
  O  O72  1  0.86938196  0.30896722  0.45183107  1
  O  O73  1  0.69103278  0.13061804  0.04816893  1
  O  O74  1  0.13061804  0.69103278  0.54816893  1
  O  O75  1  0.30896722  0.86938196  0.95183107  1
  O  O76  1  0.21640356  0.86237465  0.43298910  1
  O  O77  1  0.13762535  0.78359644  0.06701090  1
  O  O78  1  0.78359644  0.13762535  0.56701090  1
  O  O79  1  0.86237465  0.21640356  0.93298910  1
  O  O80  1  0.76286419  0.86821240  0.47971020  1
  O  O81  1  0.13178760  0.23713581  0.02028980  1
  O  O82  1  0.23713581  0.13178760  0.52028980  1
  O  O83  1  0.86821240  0.76286419  0.97971020  1
  O  O84  1  0.73606020  0.03625734  0.21844008  1
  O  O85  1  0.96374266  0.26393980  0.28155992  1
  O  O86  1  0.26393980  0.96374266  0.78155992  1
  O  O87  1  0.03625734  0.73606020  0.71844008  1
  O  O88  1  0.14769976  0.63135676  0.21829333  1
  O  O89  1  0.36864324  0.85230024  0.28170667  1
  O  O90  1  0.85230024  0.36864324  0.78170667  1
  O  O91  1  0.63135676  0.14769976  0.71829333  1
  O  O92  1  0.91337388  0.79803011  0.31988617  1
  O  O93  1  0.20196989  0.08662612  0.18011383  1
  O  O94  1  0.08662612  0.20196989  0.68011383  1
  O  O95  1  0.79803011  0.91337388  0.81988617  1
