# generated using pymatgen
data_Y2WO6
_symmetry_space_group_name_H-M   'P 1'
_cell_length_a   5.30077359
_cell_length_b   8.72291876
_cell_length_c   21.11898557
_cell_angle_alpha   90.00000000
_cell_angle_beta   90.00000000
_cell_angle_gamma   90.00000000
_symmetry_Int_Tables_number   1
_chemical_formula_structural   Y2WO6
_chemical_formula_sum   'Y16 W8 O48'
_cell_volume   976.50424586
_cell_formula_units_Z   8
loop_
 _symmetry_equiv_pos_site_id
 _symmetry_equiv_pos_as_xyz
  1  'x, y, z'
loop_
 _atom_site_type_symbol
 _atom_site_label
 _atom_site_symmetry_multiplicity
 _atom_site_fract_x
 _atom_site_fract_y
 _atom_site_fract_z
 _atom_site_occupancy
  Y  Y0  1  0.99006774  0.25660339  0.79939768  1
  Y  Y1  1  0.49006774  0.24339661  0.20060232  1
  Y  Y2  1  0.00993226  0.75660339  0.70060232  1
  Y  Y3  1  0.50993226  0.74339661  0.29939768  1
  Y  Y4  1  0.96035103  0.40876132  0.56434962  1
  Y  Y5  1  0.46035103  0.09123868  0.43565038  1
  Y  Y6  1  0.03964897  0.90876132  0.93565038  1
  Y  Y7  1  0.53964897  0.59123868  0.06434962  1
  Y  Y8  1  0.41278875  0.10543725  0.66599250  1
  Y  Y9  1  0.91278875  0.39456275  0.33400750  1
  Y  Y10  1  0.58721125  0.60543725  0.83400750  1
  Y  Y11  1  0.08721125  0.89456275  0.16599250  1
  Y  Y12  1  0.46384017  0.74477767  0.56874189  1
  Y  Y13  1  0.96384017  0.75522233  0.43125811  1
  Y  Y14  1  0.53615983  0.24477767  0.93125811  1
  Y  Y15  1  0.03615983  0.25522233  0.06874189  1
  W  W16  1  0.48581079  0.47849957  0.68824931  1
  W  W17  1  0.98581079  0.02150043  0.31175069  1
  W  W18  1  0.51418921  0.97849957  0.81175069  1
  W  W19  1  0.01418921  0.52150043  0.18824931  1
  W  W20  1  0.06313005  0.51570246  0.94302876  1
  W  W21  1  0.56313005  0.98429754  0.05697124  1
  W  W22  1  0.93686995  0.01570246  0.55697124  1
  W  W23  1  0.43686995  0.48429754  0.44302876  1
  O  O24  1  0.29128562  0.12878080  0.85779339  1
  O  O25  1  0.79128562  0.37121920  0.14220661  1
  O  O26  1  0.70871438  0.62878080  0.64220661  1
  O  O27  1  0.20871438  0.87121920  0.35779339  1
  O  O28  1  0.79751903  0.04614754  0.12200330  1
  O  O29  1  0.29751903  0.45385246  0.87799670  1
  O  O30  1  0.20248097  0.54614754  0.37799670  1
  O  O31  1  0.70248097  0.95385246  0.62200330  1
  O  O32  1  0.30770194  0.04269677  0.99670678  1
  O  O33  1  0.80770194  0.45730323  0.00329322  1
  O  O34  1  0.69229806  0.54269677  0.50329322  1
  O  O35  1  0.19229806  0.95730323  0.49670678  1
  O  O36  1  0.32538519  0.11113877  0.11844873  1
  O  O37  1  0.82538519  0.38886123  0.88155127  1
  O  O38  1  0.67461481  0.61113877  0.38155127  1
  O  O39  1  0.17461481  0.88886123  0.61844873  1
  O  O40  1  0.77597446  0.12652312  0.00403761  1
  O  O41  1  0.27597446  0.37347688  0.99596239  1
  O  O42  1  0.22402554  0.62652312  0.49596239  1
  O  O43  1  0.72402554  0.87347688  0.50403761  1
  O  O44  1  0.24790434  0.96924926  0.74810840  1
  O  O45  1  0.74790434  0.53075074  0.25189160  1
  O  O46  1  0.75209566  0.46924926  0.75189160  1
  O  O47  1  0.25209566  0.03075074  0.24810840  1
  O  O48  1  0.32109555  0.62447758  0.74584304  1
  O  O49  1  0.82109555  0.87552242  0.25415696  1
  O  O50  1  0.67890445  0.12447758  0.75415696  1
  O  O51  1  0.17890445  0.37552242  0.24584304  1
  O  O52  1  0.39181371  0.81836375  0.09857578  1
  O  O53  1  0.89181371  0.68163625  0.90142422  1
  O  O54  1  0.60818629  0.31836375  0.40142422  1
  O  O55  1  0.10818629  0.18163625  0.59857578  1
  O  O56  1  0.72888491  0.81826760  0.77848216  1
  O  O57  1  0.22888491  0.68173240  0.22151784  1
  O  O58  1  0.27111509  0.31826760  0.72151784  1
  O  O59  1  0.77111509  0.18173240  0.27848216  1
  O  O60  1  0.37171330  0.82581887  0.86648793  1
  O  O61  1  0.87171330  0.67418113  0.13351207  1
  O  O62  1  0.62828670  0.32581887  0.63351207  1
  O  O63  1  0.12828670  0.17418113  0.36648793  1
  O  O64  1  0.22864906  0.55266995  0.62700642  1
  O  O65  1  0.72864906  0.94733005  0.37299358  1
  O  O66  1  0.77135094  0.05266995  0.87299358  1
  O  O67  1  0.27135094  0.44733005  0.12700642  1
  O  O68  1  0.26175123  0.32684650  0.48500914  1
  O  O69  1  0.76175123  0.17315350  0.51499086  1
  O  O70  1  0.73824877  0.82684650  0.01499086  1
  O  O71  1  0.23824877  0.67315350  0.98500914  1
