# generated using pymatgen
data_KNdH2S2O9
_symmetry_space_group_name_H-M   'P 1'
_cell_length_a   8.64320964
_cell_length_b   10.10993956
_cell_length_c   10.61681459
_cell_angle_alpha   117.39696173
_cell_angle_beta   90.00000000
_cell_angle_gamma   90.00000000
_symmetry_Int_Tables_number   1
_chemical_formula_structural   KNdH2S2O9
_chemical_formula_sum   'K4 Nd4 H8 S8 O36'
_cell_volume   823.66847200
_cell_formula_units_Z   4
loop_
 _symmetry_equiv_pos_site_id
 _symmetry_equiv_pos_as_xyz
  1  'x, y, z'
loop_
 _atom_site_type_symbol
 _atom_site_label
 _atom_site_symmetry_multiplicity
 _atom_site_fract_x
 _atom_site_fract_y
 _atom_site_fract_z
 _atom_site_occupancy
  K  K0  1  0.68973013  0.22653523  0.70174774  1
  K  K1  1  0.18973013  0.77346477  0.79825226  1
  K  K2  1  0.31026987  0.77346477  0.29825226  1
  K  K3  1  0.81026987  0.22653523  0.20174774  1
  Nd  Nd4  1  0.84394703  0.73806256  0.47189131  1
  Nd  Nd5  1  0.34394703  0.26193744  0.02810869  1
  Nd  Nd6  1  0.15605297  0.26193744  0.52810869  1
  Nd  Nd7  1  0.65605297  0.73806256  0.97189131  1
  H  H8  1  0.51268207  0.61051220  0.45232998  1
  H  H9  1  0.01268207  0.38948780  0.04767002  1
  H  H10  1  0.48731793  0.38948780  0.54767002  1
  H  H11  1  0.98731793  0.61051220  0.95232998  1
  H  H12  1  0.52301365  0.77250100  0.57383845  1
  H  H13  1  0.02301365  0.22749900  0.92616155  1
  H  H14  1  0.47698635  0.22749900  0.42616155  1
  H  H15  1  0.97698635  0.77250100  0.07383845  1
  S  S16  1  0.18198599  0.47574119  0.38282915  1
  S  S17  1  0.68198599  0.52425881  0.11717085  1
  S  S18  1  0.81801401  0.52425881  0.61717085  1
  S  S19  1  0.31801401  0.47574119  0.88282915  1
  S  S20  1  0.86914893  0.95272044  0.32688915  1
  S  S21  1  0.36914893  0.04727956  0.17311085  1
  S  S22  1  0.13085107  0.04727956  0.67311085  1
  S  S23  1  0.63085107  0.95272044  0.82688915  1
  O  O24  1  0.30509902  0.45355828  0.27668123  1
  O  O25  1  0.80509902  0.54644172  0.22331877  1
  O  O26  1  0.69490098  0.54644172  0.72331877  1
  O  O27  1  0.19490098  0.45355828  0.77668123  1
  O  O28  1  0.07935495  0.59618532  0.38983058  1
  O  O29  1  0.57935495  0.40381468  0.11016942  1
  O  O30  1  0.92064505  0.40381468  0.61016942  1
  O  O31  1  0.42064505  0.59618532  0.88983058  1
  O  O32  1  0.09458500  0.33348679  0.33984674  1
  O  O33  1  0.59458500  0.66651321  0.16015326  1
  O  O34  1  0.90541500  0.66651321  0.66015326  1
  O  O35  1  0.40541500  0.33348679  0.83984674  1
  O  O36  1  0.25180269  0.51405455  0.52414526  1
  O  O37  1  0.75180269  0.48594545  0.97585474  1
  O  O38  1  0.74819731  0.48594545  0.47585474  1
  O  O39  1  0.24819731  0.51405455  0.02414526  1
  O  O40  1  0.79204195  0.93232310  0.19400085  1
  O  O41  1  0.29204195  0.06767690  0.30599915  1
  O  O42  1  0.20795805  0.06767690  0.80599915  1
  O  O43  1  0.70795805  0.93232310  0.69400085  1
  O  O44  1  0.94958416  0.09901087  0.38710132  1
  O  O45  1  0.44958416  0.90098913  0.11289868  1
  O  O46  1  0.05041584  0.90098913  0.61289868  1
  O  O47  1  0.55041584  0.09901087  0.88710132  1
  O  O48  1  0.75446409  0.95020214  0.43166920  1
  O  O49  1  0.25446409  0.04979786  0.06833080  1
  O  O50  1  0.24553591  0.04979786  0.56833080  1
  O  O51  1  0.74553591  0.95020214  0.93166920  1
  O  O52  1  0.98002384  0.82821648  0.29698680  1
  O  O53  1  0.48002384  0.17178352  0.20301320  1
  O  O54  1  0.01997616  0.17178352  0.70301320  1
  O  O55  1  0.51997616  0.82821648  0.79698680  1
  O  O56  1  0.54326572  0.71164605  0.47211186  1
  O  O57  1  0.04326572  0.28835395  0.02788814  1
  O  O58  1  0.45673428  0.28835395  0.52788814  1
  O  O59  1  0.95673428  0.71164605  0.97211186  1
