# generated using pymatgen
data_KUH3SO8
_symmetry_space_group_name_H-M   'P 1'
_cell_length_a   8.13323950
_cell_length_b   8.27984377
_cell_length_c   11.75077760
_cell_angle_alpha   109.63361594
_cell_angle_beta   90.00000000
_cell_angle_gamma   90.00000000
_symmetry_Int_Tables_number   1
_chemical_formula_structural   KUH3SO8
_chemical_formula_sum   'K4 U4 H12 S4 O32'
_cell_volume   745.31332137
_cell_formula_units_Z   4
loop_
 _symmetry_equiv_pos_site_id
 _symmetry_equiv_pos_as_xyz
  1  'x, y, z'
loop_
 _atom_site_type_symbol
 _atom_site_label
 _atom_site_symmetry_multiplicity
 _atom_site_fract_x
 _atom_site_fract_y
 _atom_site_fract_z
 _atom_site_occupancy
  K  K0  1  0.03613477  0.93131134  0.20310310  1
  K  K1  1  0.53613477  0.06868866  0.29689690  1
  K  K2  1  0.96386523  0.06868866  0.79689690  1
  K  K3  1  0.46386523  0.93131134  0.70310310  1
  U  U4  1  0.89921732  0.42534288  0.20349815  1
  U  U5  1  0.39921732  0.57465712  0.29650185  1
  U  U6  1  0.10078268  0.57465712  0.79650185  1
  U  U7  1  0.60078268  0.42534288  0.70349815  1
  H  H8  1  0.65973020  0.65035052  0.15506337  1
  H  H9  1  0.15973020  0.34964948  0.34493663  1
  H  H10  1  0.34026980  0.34964948  0.84493663  1
  H  H11  1  0.84026980  0.65035052  0.65506337  1
  H  H12  1  0.20465850  0.86229823  0.50975242  1
  H  H13  1  0.70465850  0.13770177  0.99024758  1
  H  H14  1  0.79534150  0.13770177  0.49024758  1
  H  H15  1  0.29534150  0.86229823  0.00975242  1
  H  H16  1  0.14068323  0.67242911  0.48814653  1
  H  H17  1  0.64068323  0.32757089  0.01185347  1
  H  H18  1  0.85931677  0.32757089  0.51185347  1
  H  H19  1  0.35931677  0.67242911  0.98814653  1
  S  S20  1  0.76248990  0.79637794  0.46124442  1
  S  S21  1  0.26248990  0.20362206  0.03875558  1
  S  S22  1  0.23751010  0.20362206  0.53875558  1
  S  S23  1  0.73751010  0.79637794  0.96124442  1
  O  O24  1  0.57941554  0.77537943  0.43754790  1
  O  O25  1  0.07941554  0.22462057  0.06245210  1
  O  O26  1  0.42058446  0.22462057  0.56245210  1
  O  O27  1  0.92058446  0.77537943  0.93754790  1
  O  O28  1  0.64412454  0.55991877  0.19136455  1
  O  O29  1  0.14412454  0.44008123  0.30863545  1
  O  O30  1  0.35587546  0.44008123  0.80863545  1
  O  O31  1  0.85587546  0.55991877  0.69136455  1
  O  O32  1  0.70886460  0.84497652  0.09235555  1
  O  O33  1  0.20886460  0.15502348  0.40764445  1
  O  O34  1  0.29113540  0.15502348  0.90764445  1
  O  O35  1  0.79113540  0.84497652  0.59235555  1
  O  O36  1  0.83274765  0.25085421  0.25490520  1
  O  O37  1  0.33274765  0.74914579  0.24509480  1
  O  O38  1  0.16725235  0.74914579  0.74509480  1
  O  O39  1  0.66725235  0.25085421  0.75490520  1
  O  O40  1  0.97812360  0.59306131  0.15234001  1
  O  O41  1  0.47812360  0.40693869  0.34765999  1
  O  O42  1  0.02187640  0.40693869  0.84765999  1
  O  O43  1  0.52187640  0.59306131  0.65234001  1
  O  O44  1  0.84699149  0.62795154  0.39949992  1
  O  O45  1  0.34699149  0.37204846  0.10050008  1
  O  O46  1  0.15300851  0.37204846  0.60050008  1
  O  O47  1  0.65300851  0.62795154  0.89949992  1
  O  O48  1  0.82399905  0.92686137  0.41078486  1
  O  O49  1  0.32399905  0.07313863  0.08921514  1
  O  O50  1  0.17600095  0.07313863  0.58921514  1
  O  O51  1  0.67600095  0.92686137  0.91078486  1
  O  O52  1  0.23812033  0.73872691  0.48349822  1
  O  O53  1  0.73812033  0.26127309  0.01650178  1
  O  O54  1  0.76187967  0.26127309  0.51650178  1
  O  O55  1  0.26187967  0.73872691  0.98349822  1
