# generated using pymatgen
data_Ga2CuSe3O10
_symmetry_space_group_name_H-M   'P 1'
_cell_length_a   6.69383543
_cell_length_b   9.92966974
_cell_length_c   13.29246444
_cell_angle_alpha   90.00000000
_cell_angle_beta   90.00000000
_cell_angle_gamma   90.00000000
_symmetry_Int_Tables_number   1
_chemical_formula_structural   Ga2CuSe3O10
_chemical_formula_sum   'Ga8 Cu4 Se12 O40'
_cell_volume   883.51787861
_cell_formula_units_Z   4
loop_
 _symmetry_equiv_pos_site_id
 _symmetry_equiv_pos_as_xyz
  1  'x, y, z'
loop_
 _atom_site_type_symbol
 _atom_site_label
 _atom_site_symmetry_multiplicity
 _atom_site_fract_x
 _atom_site_fract_y
 _atom_site_fract_z
 _atom_site_occupancy
  Ga  Ga0  1  0.75000000  0.21376173  0.25000000  1
  Ga  Ga1  1  0.75000000  0.78623827  0.75000000  1
  Ga  Ga2  1  0.25000000  0.78623827  0.75000000  1
  Ga  Ga3  1  0.25000000  0.21376173  0.25000000  1
  Ga  Ga4  1  0.50000000  -0.00348852  0.12703926  1
  Ga  Ga5  1  0.50000000  0.00348852  0.87296074  1
  Ga  Ga6  1  -0.00000000  -0.00348852  0.37296074  1
  Ga  Ga7  1  -0.00000000  0.00348852  0.62703926  1
  Cu  Cu8  1  0.75000000  0.66146120  0.25000000  1
  Cu  Cu9  1  0.75000000  0.33853880  0.75000000  1
  Cu  Cu10  1  0.25000000  0.33853880  0.75000000  1
  Cu  Cu11  1  0.25000000  0.66146120  0.25000000  1
  Se  Se12  1  0.50000000  0.44111323  0.37929830  1
  Se  Se13  1  0.50000000  0.55888677  0.62070170  1
  Se  Se14  1  -0.00000000  0.44111323  0.12070170  1
  Se  Se15  1  -0.00000000  0.55888677  0.87929830  1
  Se  Se16  1  0.50000000  0.91547757  0.36774926  1
  Se  Se17  1  0.50000000  0.08452243  0.63225074  1
  Se  Se18  1  -0.00000000  0.91547757  0.13225074  1
  Se  Se19  1  -0.00000000  0.08452243  0.86774926  1
  Se  Se20  1  0.50000000  0.69391034  0.03209884  1
  Se  Se21  1  0.50000000  0.30608966  0.96790116  1
  Se  Se22  1  -0.00000000  0.69391034  0.46790116  1
  Se  Se23  1  -0.00000000  0.30608966  0.53209884  1
  O  O24  1  0.50000000  0.15778267  0.20402003  1
  O  O25  1  0.50000000  0.84221733  0.79597997  1
  O  O26  1  -0.00000000  0.15778267  0.29597997  1
  O  O27  1  -0.00000000  0.84221733  0.70402003  1
  O  O28  1  0.70242549  0.33674289  0.35906252  1
  O  O29  1  0.70242549  0.66325711  0.64093748  1
  O  O30  1  0.79757451  0.33674289  0.14093748  1
  O  O31  1  0.79757451  0.66325711  0.85906252  1
  O  O32  1  0.29757451  0.66325711  0.64093748  1
  O  O33  1  0.29757451  0.33674289  0.35906252  1
  O  O34  1  0.20242549  0.66325711  0.85906252  1
  O  O35  1  0.20242549  0.33674289  0.14093748  1
  O  O36  1  0.50000000  0.54304814  0.27139506  1
  O  O37  1  0.50000000  0.45695186  0.72860494  1
  O  O38  1  -0.00000000  0.54304814  0.22860494  1
  O  O39  1  -0.00000000  0.45695186  0.77139506  1
  O  O40  1  0.50000000  0.85976142  0.24145279  1
  O  O41  1  0.50000000  0.14023858  0.75854721  1
  O  O42  1  -0.00000000  0.85976142  0.25854721  1
  O  O43  1  -0.00000000  0.14023858  0.74145279  1
  O  O44  1  0.69744248  0.02858674  0.36859009  1
  O  O45  1  0.69744248  0.97141326  0.63140991  1
  O  O46  1  0.80255752  0.02858674  0.13140991  1
  O  O47  1  0.80255752  0.97141326  0.86859009  1
  O  O48  1  0.30255752  0.97141326  0.63140991  1
  O  O49  1  0.30255752  0.02858674  0.36859009  1
  O  O50  1  0.19744248  0.97141326  0.86859009  1
  O  O51  1  0.19744248  0.02858674  0.13140991  1
  O  O52  1  0.70900382  0.67164558  0.10619986  1
  O  O53  1  0.70900382  0.32835442  0.89380014  1
  O  O54  1  0.79099618  0.67164558  0.39380014  1
  O  O55  1  0.79099618  0.32835442  0.60619986  1
  O  O56  1  0.29099618  0.32835442  0.89380014  1
  O  O57  1  0.29099618  0.67164558  0.10619986  1
  O  O58  1  0.20900382  0.32835442  0.60619986  1
  O  O59  1  0.20900382  0.67164558  0.39380014  1
  O  O60  1  0.50000000  0.87306693  0.01630427  1
  O  O61  1  0.50000000  0.12693307  0.98369573  1
  O  O62  1  -0.00000000  0.87306693  0.48369573  1
  O  O63  1  -0.00000000  0.12693307  0.51630427  1
