# generated using pymatgen
data_CaAl2Si3H6O13
_symmetry_space_group_name_H-M   'P 1'
_cell_length_a   6.60881633
_cell_length_b   9.91098616
_cell_length_c   10.07414281
_cell_angle_alpha   84.31190900
_cell_angle_beta   70.85203374
_cell_angle_gamma   72.41229248
_symmetry_Int_Tables_number   1
_chemical_formula_structural   CaAl2Si3H6O13
_chemical_formula_sum   'Ca2 Al4 Si6 H12 O26'
_cell_volume   594.21039019
_cell_formula_units_Z   2
loop_
 _symmetry_equiv_pos_site_id
 _symmetry_equiv_pos_as_xyz
  1  'x, y, z'
loop_
 _atom_site_type_symbol
 _atom_site_label
 _atom_site_symmetry_multiplicity
 _atom_site_fract_x
 _atom_site_fract_y
 _atom_site_fract_z
 _atom_site_occupancy
  Ca  Ca0  1  0.38287841  0.43918373  0.03815600  1
  Ca  Ca1  1  0.17103441  0.93918373  0.46184400  1
  Al  Al2  1  0.41917241  0.56594391  0.31609373  1
  Al  Al3  1  0.48526615  0.06594391  0.18390627  1
  Al  Al4  1  0.31968873  0.40339730  0.67689855  1
  Al  Al5  1  0.74658728  0.90339730  0.82310145  1
  Si  Si6  1  0.75311540  0.49989897  0.48837563  1
  Si  Si7  1  0.99149103  -0.00010103  0.01162437  1
  Si  Si8  1  0.41650197  0.80137057  0.08725334  1
  Si  Si9  1  0.25375531  0.30137057  0.41274666  1
  Si  Si10  1  0.34199683  0.16585805  0.91132330  1
  Si  Si11  1  0.00332013  0.66585805  0.58867670  1
  H  H12  1  0.87458304  0.55676577  0.19376733  1
  H  H13  1  0.81835037  0.05676577  0.30623267  1
  H  H14  1  0.97607642  0.65799357  0.07526864  1
  H  H15  1  0.80134506  0.15799357  0.42473136  1
  H  H16  1  0.89631434  0.31204281  0.93843831  1
  H  H17  1  0.58475265  0.81204281  0.56156169  1
  H  H18  1  0.83535942  0.46733910  0.88117908  1
  H  H19  1  0.46653850  0.96733910  0.61882092  1
  H  H20  1  0.30438035  0.71621525  0.86600532  1
  H  H21  1  0.92038567  0.21621525  0.63399468  1
  H  H22  1  0.45519781  0.58481823  0.76279905  1
  H  H23  1  0.96799686  0.08481823  0.73720095  1
  O  O24  1  0.67828435  0.53445596  0.34637416  1
  O  O25  1  0.77465850  0.03445596  0.15362584  1
  O  O26  1  0.55496717  0.46956035  0.62232804  1
  O  O27  1  0.92729521  0.96956035  0.87767196  1
  O  O28  1  0.41969244  0.64397622  0.15219949  1
  O  O29  1  0.32189193  0.14397622  0.34780051  1
  O  O30  1  0.30997319  0.32349757  0.84234879  1
  O  O31  1  0.90232197  0.82349757  0.65765121  1
  O  O32  1  0.21627421  0.68035016  0.45149516  1
  O  O33  1  0.41776937  0.18035016  0.04850484  1
  O  O34  1  0.34430725  0.29327089  0.54460038  1
  O  O35  1  0.63890763  0.79327089  0.95539962  1
  O  O36  1  0.35546333  0.40961166  0.29143216  1
  O  O37  1  0.39689549  0.90961166  0.20856784  1
  O  O38  1  0.07073521  0.54198281  0.69654988  1
  O  O39  1  0.51728509  0.04198281  0.80345012  1
  O  O40  1  0.97552775  0.36146870  0.46161561  1
  O  O41  1  0.18714337  0.86146870  0.03838439  1
  O  O42  1  0.81201432  0.63896846  0.52816130  1
  O  O43  1  0.09017562  0.13896846  0.97183870  1
  O  O44  1  0.00066148  0.55998582  0.10660345  1
  O  O45  1  0.85726492  0.05998582  0.39339655  1
  O  O46  1  0.77074037  0.39130135  0.92671752  1
  O  O47  1  0.44745789  0.89130135  0.57328248  1
  O  O48  1  0.37850860  0.61516277  0.86240616  1
  O  O49  1  0.99091476  0.11516277  0.63759384  1
