# generated using pymatgen
data_NaCu4P2ClO9
_symmetry_space_group_name_H-M   'P 1'
_cell_length_a   6.46877656
_cell_length_b   8.48613858
_cell_length_c   16.05381539
_cell_angle_alpha   100.53587783
_cell_angle_beta   90.00000000
_cell_angle_gamma   90.00000000
_symmetry_Int_Tables_number   1
_chemical_formula_structural   NaCu4P2ClO9
_chemical_formula_sum   'Na4 Cu16 P8 Cl4 O36'
_cell_volume   866.41540694
_cell_formula_units_Z   4
loop_
 _symmetry_equiv_pos_site_id
 _symmetry_equiv_pos_as_xyz
  1  'x, y, z'
loop_
 _atom_site_type_symbol
 _atom_site_label
 _atom_site_symmetry_multiplicity
 _atom_site_fract_x
 _atom_site_fract_y
 _atom_site_fract_z
 _atom_site_occupancy
  Na  Na0  1  0.00110615  0.98348268  0.32684996  1
  Na  Na1  1  0.50110615  0.51651732  0.17315004  1
  Na  Na2  1  0.99889385  0.01651732  0.67315004  1
  Na  Na3  1  0.49889385  0.48348268  0.82684996  1
  Cu  Cu4  1  0.00000000  -0.00000000  0.00000000  1
  Cu  Cu5  1  0.50000000  0.50000000  0.50000000  1
  Cu  Cu6  1  0.50000000  -0.00000000  0.00000000  1
  Cu  Cu7  1  -0.00000000  0.50000000  0.50000000  1
  Cu  Cu8  1  0.76011967  0.44056917  0.33564187  1
  Cu  Cu9  1  0.26011967  0.05943083  0.16435813  1
  Cu  Cu10  1  0.23988033  0.55943083  0.66435813  1
  Cu  Cu11  1  0.73988033  0.94056917  0.83564187  1
  Cu  Cu12  1  0.74865469  0.77313207  0.44484177  1
  Cu  Cu13  1  0.24865469  0.72686793  0.05515823  1
  Cu  Cu14  1  0.25134531  0.22686793  0.55515823  1
  Cu  Cu15  1  0.75134531  0.27313207  0.94484177  1
  Cu  Cu16  1  0.99676540  0.45886469  0.15294321  1
  Cu  Cu17  1  0.49676540  0.04113531  0.34705679  1
  Cu  Cu18  1  0.00323460  0.54113531  0.84705679  1
  Cu  Cu19  1  0.50323460  0.95886469  0.65294321  1
  P  P20  1  0.24656136  0.34676696  0.30883449  1
  P  P21  1  0.74656136  0.15323304  0.19116551  1
  P  P22  1  0.75343864  0.65323304  0.69116551  1
  P  P23  1  0.25343864  0.84676696  0.80883449  1
  P  P24  1  0.26488863  0.86542463  0.48384375  1
  P  P25  1  0.76488863  0.63457537  0.01615625  1
  P  P26  1  0.73511137  0.13457537  0.51615625  1
  P  P27  1  0.23511137  0.36542463  0.98384375  1
  Cl  Cl28  1  0.28010674  0.79708654  0.20989625  1
  Cl  Cl29  1  0.78010674  0.70291346  0.29010375  1
  Cl  Cl30  1  0.71989326  0.20291346  0.79010375  1
  Cl  Cl31  1  0.21989326  0.29708654  0.70989625  1
  O  O32  1  0.05604145  0.38704407  0.36731236  1
  O  O33  1  0.55604145  0.11295593  0.13268764  1
  O  O34  1  0.94395855  0.61295593  0.63268764  1
  O  O35  1  0.44395855  0.88704407  0.86731236  1
  O  O36  1  0.44302810  0.41966774  0.35418493  1
  O  O37  1  0.94302810  0.08033226  0.14581507  1
  O  O38  1  0.55697190  0.58033226  0.64581507  1
  O  O39  1  0.05697190  0.91966774  0.85418493  1
  O  O40  1  0.75014713  0.54794683  0.45327072  1
  O  O41  1  0.25014713  0.95205317  0.04672928  1
  O  O42  1  0.24985287  0.45205317  0.54672928  1
  O  O43  1  0.74985287  0.04794683  0.95327072  1
  O  O44  1  0.77223045  0.34372929  0.21268014  1
  O  O45  1  0.27223045  0.15627071  0.28731986  1
  O  O46  1  0.22776955  0.65627071  0.78731986  1
  O  O47  1  0.72776955  0.84372929  0.71268014  1
  O  O48  1  0.21827508  0.39907647  0.22230758  1
  O  O49  1  0.71827508  0.10092353  0.27769242  1
  O  O50  1  0.78172492  0.60092353  0.77769242  1
  O  O51  1  0.28172492  0.89907647  0.72230758  1
  O  O52  1  0.44863243  0.74882866  0.48826766  1
  O  O53  1  0.94863243  0.75117134  0.01173234  1
  O  O54  1  0.55136757  0.25117134  0.51173234  1
  O  O55  1  0.05136757  0.24882866  0.98826766  1
  O  O56  1  0.05812923  0.77756644  0.48321627  1
  O  O57  1  0.55812923  0.72243356  0.01678373  1
  O  O58  1  0.94187077  0.22243356  0.51678373  1
  O  O59  1  0.44187077  0.27756644  0.98321627  1
  O  O60  1  0.21978949  0.49988647  0.06789592  1
  O  O61  1  0.71978949  0.00011353  0.43210408  1
  O  O62  1  0.78021051  0.50011353  0.93210408  1
  O  O63  1  0.28021051  0.99988647  0.56789592  1
  O  O64  1  0.27989626  0.95469444  0.40848567  1
  O  O65  1  0.77989626  0.54530556  0.09151433  1
  O  O66  1  0.72010374  0.04530556  0.59151433  1
  O  O67  1  0.22010374  0.45469444  0.90848567  1
