# generated using pymatgen
data_CaTiO3
_symmetry_space_group_name_H-M   'P 1'
_cell_length_a   5.46289737
_cell_length_b   5.46307168
_cell_length_c   7.69697110
_cell_angle_alpha   90.00000000
_cell_angle_beta   90.00000000
_cell_angle_gamma   89.37042128
_symmetry_Int_Tables_number   1
_chemical_formula_structural   CaTiO3
_chemical_formula_sum   'Ca4 Ti4 O12'
_cell_volume   229.69607675
_cell_formula_units_Z   4
loop_
 _symmetry_equiv_pos_site_id
 _symmetry_equiv_pos_as_xyz
  1  'x, y, z'
loop_
 _atom_site_type_symbol
 _atom_site_label
 _atom_site_symmetry_multiplicity
 _atom_site_fract_x
 _atom_site_fract_y
 _atom_site_fract_z
 _atom_site_occupancy
  Ca  Ca0  1  0.98725283  0.48718851  0.25000000  1
  Ca  Ca1  1  0.01274717  0.51281149  0.75000000  1
  Ca  Ca2  1  0.49520402  0.99525835  0.25000000  1
  Ca  Ca3  1  0.50479598  0.00474165  0.75000000  1
  Ti  Ti4  1  0.00000000  0.00000000  0.50000000  1
  Ti  Ti5  1  0.00000000  0.00000000  -0.00000000  1
  Ti  Ti6  1  0.50000000  0.50000000  0.50000000  1
  Ti  Ti7  1  0.50000000  0.50000000  -0.00000000  1
  O  O8  1  0.95340968  0.05574758  0.25000000  1
  O  O9  1  0.04659032  0.94425242  0.75000000  1
  O  O10  1  0.55568134  0.45315270  0.25000000  1
  O  O11  1  0.44431866  0.54684730  0.75000000  1
  O  O12  1  0.21420456  0.71428347  0.04883302  1
  O  O13  1  0.78579544  0.28571653  0.54883302  1
  O  O14  1  0.78579544  0.28571653  0.95116698  1
  O  O15  1  0.21420456  0.71428347  0.45116698  1
  O  O16  1  0.71051046  0.78957690  0.00006758  1
  O  O17  1  0.28948954  0.21042310  0.50006758  1
  O  O18  1  0.28948954  0.21042310  0.99993242  1
  O  O19  1  0.71051046  0.78957690  0.49993242  1
