# generated using pymatgen
data_BaZn2H16O11
_symmetry_space_group_name_H-M   'P 1'
_cell_length_a   6.27099711
_cell_length_b   11.25998432
_cell_length_c   16.29710449
_cell_angle_alpha   90.00000000
_cell_angle_beta   90.00000000
_cell_angle_gamma   99.38699874
_symmetry_Int_Tables_number   1
_chemical_formula_structural   BaZn2H16O11
_chemical_formula_sum   'Ba4 Zn8 H64 O44'
_cell_volume   1135.35060540
_cell_formula_units_Z   4
loop_
 _symmetry_equiv_pos_site_id
 _symmetry_equiv_pos_as_xyz
  1  'x, y, z'
loop_
 _atom_site_type_symbol
 _atom_site_label
 _atom_site_symmetry_multiplicity
 _atom_site_fract_x
 _atom_site_fract_y
 _atom_site_fract_z
 _atom_site_occupancy
  Ba  Ba0  1  0.71015935  0.34605041  0.02190790  1
  Ba  Ba1  1  0.78984065  0.65394959  0.52190790  1
  Ba  Ba2  1  0.28984065  0.65394959  0.97809210  1
  Ba  Ba3  1  0.21015935  0.34605041  0.47809210  1
  Zn  Zn4  1  0.54016565  0.72789422  0.20769467  1
  Zn  Zn5  1  0.95983435  0.27210578  0.70769467  1
  Zn  Zn6  1  0.45983435  0.27210578  0.79230533  1
  Zn  Zn7  1  0.04016565  0.72789422  0.29230533  1
  Zn  Zn8  1  0.50318341  0.24891233  0.29167800  1
  Zn  Zn9  1  0.99681659  0.75108767  0.79167800  1
  Zn  Zn10  1  0.49681659  0.75108767  0.70832200  1
  Zn  Zn11  1  0.00318341  0.24891233  0.20832200  1
  H  H12  1  0.66670718  0.10552205  0.75829602  1
  H  H13  1  0.83329282  0.89447795  0.25829602  1
  H  H14  1  0.33329282  0.89447795  0.24170398  1
  H  H15  1  0.16670718  0.10552205  0.74170398  1
  H  H16  1  0.60613474  0.53457868  0.25041358  1
  H  H17  1  0.89386526  0.46542132  0.75041358  1
  H  H18  1  0.39386526  0.46542132  0.74958642  1
  H  H19  1  0.10613474  0.53457868  0.24958642  1
  H  H20  1  0.68746264  0.80837457  0.08159205  1
  H  H21  1  0.81253736  0.19162543  0.58159205  1
  H  H22  1  0.31253736  0.19162543  0.91840795  1
  H  H23  1  0.18746264  0.80837457  0.41840795  1
  H  H24  1  0.79667964  0.40700570  0.23183427  1
  H  H25  1  0.70332036  0.59299430  0.73183427  1
  H  H26  1  0.20332036  0.59299430  0.76816573  1
  H  H27  1  0.29667964  0.40700570  0.26816573  1
  H  H28  1  0.59497915  0.05636803  0.25561858  1
  H  H29  1  0.90502085  0.94363197  0.75561858  1
  H  H30  1  0.40502085  0.94363197  0.74438142  1
  H  H31  1  0.09497915  0.05636803  0.24438142  1
  H  H32  1  0.66073500  0.22474351  0.42622362  1
  H  H33  1  0.83926500  0.77525649  0.92622362  1
  H  H34  1  0.33926500  0.77525649  0.57377638  1
  H  H35  1  0.16073500  0.22474351  0.07377638  1
  H  H36  1  0.75190175  0.39989810  0.40838060  1
  H  H37  1  0.74809825  0.60010190  0.90838060  1
  H  H38  1  0.24809825  0.60010190  0.59161940  1
  H  H39  1  0.25190175  0.39989810  0.09161940  1
  H  H40  1  0.90892467  0.50023848  0.35652516  1
  H  H41  1  0.59107533  0.49976152  0.85652516  1
  H  H42  1  0.09107533  0.49976152  0.64347484  1
  H  H43  1  0.40892467  0.50023848  0.14347484  1
  H  H44  1  0.93855921  0.57165249  0.14323739  1
  H  H45  1  0.56144079  0.42834751  0.64323739  1
  H  H46  1  0.06144079  0.42834751  0.85676261  1
  H  H47  1  0.43855921  0.57165249  0.35676261  1
  H  H48  1  0.80318468  0.63664706  0.08117498  1
  H  H49  1  0.69681532  0.36335294  0.58117498  1
  H  H50  1  0.19681532  0.36335294  0.91882502  1
  H  H51  1  0.30318468  0.63664706  0.41882502  1
  H  H52  1  0.92921369  0.09098646  0.93280064  1
  H  H53  1  0.57078631  0.90901354  0.43280064  1
  H  H54  1  0.07078631  0.90901354  0.06719936  1
  H  H55  1  0.42921369  0.09098646  0.56719936  1
  H  H56  1  0.75523324  0.14464027  0.88196203  1
  H  H57  1  0.74476676  0.85535973  0.38196203  1
  H  H58  1  0.24476676  0.85535973  0.11803797  1
  H  H59  1  0.25523324  0.14464027  0.61803797  1
  H  H60  1  0.94197481  0.11492328  0.34845325  1
  H  H61  1  0.55802519  0.88507672  0.84845325  1
  H  H62  1  0.05802519  0.88507672  0.65154675  1
  H  H63  1  0.44197481  0.11492328  0.15154675  1
  H  H64  1  0.88538006  0.05365279  0.43239238  1
  H  H65  1  0.61461994  0.94634721  0.93239238  1
  H  H66  1  0.11461994  0.94634721  0.56760762  1
  H  H67  1  0.38538006  0.05365279  0.06760762  1
  H  H68  1  0.87554577  0.01452594  0.14571920  1
  H  H69  1  0.62445423  0.98547406  0.64571920  1
  H  H70  1  0.12445423  0.98547406  0.85428080  1
  H  H71  1  0.37554577  0.01452594  0.35428080  1
  H  H72  1  0.79158449  0.03414788  0.05574479  1
  H  H73  1  0.70841551  0.96585212  0.55574479  1
  H  H74  1  0.20841551  0.96585212  0.94425521  1
  H  H75  1  0.29158449  0.03414788  0.44425521  1
  O  O76  1  0.71697750  0.18746727  0.77872411  1
  O  O77  1  0.78302250  0.81253273  0.27872411  1
  O  O78  1  0.28302250  0.81253273  0.22127589  1
  O  O79  1  0.21697750  0.18746727  0.72127589  1
  O  O80  1  0.96385749  0.55929911  0.25205195  1
  O  O81  1  0.53614251  0.44070089  0.75205195  1
  O  O82  1  0.03614251  0.44070089  0.74794805  1
  O  O83  1  0.46385749  0.55929911  0.24794805  1
  O  O84  1  0.61340878  0.72572561  0.09068553  1
  O  O85  1  0.88659122  0.27427439  0.59068553  1
  O  O86  1  0.38659122  0.27427439  0.90931447  1
  O  O87  1  0.11340878  0.72572561  0.40931447  1
  O  O88  1  0.73603878  0.32382070  0.21545356  1
  O  O89  1  0.76396122  0.67617930  0.71545356  1
  O  O90  1  0.26396122  0.67617930  0.78454644  1
  O  O91  1  0.23603878  0.32382070  0.28454644  1
  O  O92  1  0.94811663  0.07515713  0.24063815  1
  O  O93  1  0.55188337  0.92484287  0.74063815  1
  O  O94  1  0.05188337  0.92484287  0.75936185  1
  O  O95  1  0.44811663  0.07515713  0.25936185  1
  O  O96  1  0.56990150  0.28201930  0.40772566  1
  O  O97  1  0.93009850  0.71798070  0.90772566  1
  O  O98  1  0.43009850  0.71798070  0.59227434  1
  O  O99  1  0.06990150  0.28201930  0.09227434  1
  O  O100  1  0.87747105  0.46951281  0.41315351  1
  O  O101  1  0.62252895  0.53048719  0.91315351  1
  O  O102  1  0.12252895  0.53048719  0.58684649  1
  O  O103  1  0.37747105  0.46951281  0.08684649  1
  O  O104  1  0.91177782  0.57897441  0.08319129  1
  O  O105  1  0.58822218  0.42102559  0.58319129  1
  O  O106  1  0.08822218  0.42102559  0.91680871  1
  O  O107  1  0.41177782  0.57897441  0.41680871  1
  O  O108  1  0.78604115  0.11736886  0.93866633  1
  O  O109  1  0.71395885  0.88263114  0.43866633  1
  O  O110  1  0.21395885  0.88263114  0.06133367  1
  O  O111  1  0.28604115  0.11736886  0.56133367  1
  O  O112  1  0.94164248  0.13281789  0.40847770  1
  O  O113  1  0.55835752  0.86718211  0.90847770  1
  O  O114  1  0.05835752  0.86718211  0.59152230  1
  O  O115  1  0.44164248  0.13281789  0.09152230  1
  O  O116  1  0.16088315  0.02638481  0.90864189  1
  O  O117  1  0.33911685  0.97361519  0.40864189  1
  O  O118  1  0.83911685  0.97361519  0.09135811  1
  O  O119  1  0.66088315  0.02638481  0.59135811  1
