# generated using pymatgen
data_NaFe2(Si2O5)3
_symmetry_space_group_name_H-M   'P 1'
_cell_length_a   10.20729225
_cell_length_b   11.36391214
_cell_length_c   11.36391214
_cell_angle_alpha   100.28031340
_cell_angle_beta   90.00000000
_cell_angle_gamma   90.00000000
_symmetry_Int_Tables_number   1
_chemical_formula_structural   NaFe2(Si2O5)3
_chemical_formula_sum   'Na4 Fe8 Si24 O60'
_cell_volume   1296.99329770
_cell_formula_units_Z   4
loop_
 _symmetry_equiv_pos_site_id
 _symmetry_equiv_pos_as_xyz
  1  'x, y, z'
loop_
 _atom_site_type_symbol
 _atom_site_label
 _atom_site_symmetry_multiplicity
 _atom_site_fract_x
 _atom_site_fract_y
 _atom_site_fract_z
 _atom_site_occupancy
  Na  Na0  1  0.25000000  0.97016266  0.52983734  1
  Na  Na1  1  0.75000000  0.52983734  0.97016266  1
  Na  Na2  1  0.75000000  0.02983734  0.47016266  1
  Na  Na3  1  0.25000000  0.47016266  0.02983734  1
  Fe  Fe4  1  0.50000000  0.74853610  0.74853610  1
  Fe  Fe5  1  0.00000000  0.24853610  0.24853610  1
  Fe  Fe6  1  0.50000000  0.25146390  0.25146390  1
  Fe  Fe7  1  0.00000000  0.75146390  0.75146390  1
  Fe  Fe8  1  0.25000000  0.65619908  0.84380092  1
  Fe  Fe9  1  0.75000000  0.84380092  0.65619908  1
  Fe  Fe10  1  0.75000000  0.34380092  0.15619908  1
  Fe  Fe11  1  0.25000000  0.15619908  0.34380092  1
  Si  Si12  1  0.48859544  0.02377308  0.75939364  1
  Si  Si13  1  0.51140456  0.75939364  0.02377308  1
  Si  Si14  1  0.98859544  0.25939364  0.52377308  1
  Si  Si15  1  0.01140456  0.52377308  0.25939364  1
  Si  Si16  1  0.51140456  0.97622692  0.24060636  1
  Si  Si17  1  0.48859544  0.24060636  0.97622692  1
  Si  Si18  1  0.01140456  0.74060636  0.47622692  1
  Si  Si19  1  0.98859544  0.47622692  0.74060636  1
  Si  Si20  1  0.19565179  0.96097056  0.82008167  1
  Si  Si21  1  0.80434821  0.82008167  0.96097056  1
  Si  Si22  1  0.69565179  0.32008167  0.46097056  1
  Si  Si23  1  0.30434821  0.46097056  0.32008167  1
  Si  Si24  1  0.80434821  0.03902944  0.17991833  1
  Si  Si25  1  0.19565179  0.17991833  0.03902944  1
  Si  Si26  1  0.30434821  0.67991833  0.53902944  1
  Si  Si27  1  0.69565179  0.53902944  0.67991833  1
  Si  Si28  1  0.95751802  0.07969759  0.70210371  1
  Si  Si29  1  0.04248198  0.70210371  0.07969759  1
  Si  Si30  1  0.45751802  0.20210371  0.57969759  1
  Si  Si31  1  0.54248198  0.57969759  0.20210371  1
  Si  Si32  1  0.04248198  0.92030241  0.29789629  1
  Si  Si33  1  0.95751802  0.29789629  0.92030241  1
  Si  Si34  1  0.54248198  0.79789629  0.42030241  1
  Si  Si35  1  0.45751802  0.42030241  0.79789629  1
  O  O36  1  0.50798418  0.09326935  0.64701391  1
  O  O37  1  0.49201582  0.64701391  0.09326935  1
  O  O38  1  0.00798418  0.14701391  0.59326935  1
  O  O39  1  0.99201582  0.59326935  0.14701391  1
  O  O40  1  0.49201582  0.90673065  0.35298609  1
  O  O41  1  0.50798418  0.35298609  0.90673065  1
  O  O42  1  0.99201582  0.85298609  0.40673065  1
  O  O43  1  0.00798418  0.40673065  0.85298609  1
  O  O44  1  0.58486359  0.90928699  0.74860810  1
  O  O45  1  0.41513641  0.74860810  0.90928699  1
  O  O46  1  0.08486359  0.24860810  0.40928699  1
  O  O47  1  0.91513641  0.40928699  0.24860810  1
  O  O48  1  0.41513641  0.09071301  0.25139190  1
  O  O49  1  0.58486359  0.25139190  0.09071301  1
  O  O50  1  0.91513641  0.75139190  0.59071301  1
  O  O51  1  0.08486359  0.59071301  0.75139190  1
  O  O52  1  0.33601645  0.97305858  0.75183564  1
  O  O53  1  0.66398355  0.75183564  0.97305858  1
  O  O54  1  0.83601645  0.25183564  0.47305858  1
  O  O55  1  0.16398355  0.47305858  0.25183564  1
  O  O56  1  0.66398355  0.02694142  0.24816436  1
  O  O57  1  0.33601645  0.24816436  0.02694142  1
  O  O58  1  0.16398355  0.74816436  0.52694142  1
  O  O59  1  0.83601645  0.52694142  0.74816436  1
  O  O60  1  0.16356598  0.82456814  0.83340433  1
  O  O61  1  0.83643402  0.83340433  0.82456814  1
  O  O62  1  0.66356598  0.33340433  0.32456814  1
  O  O63  1  0.33643402  0.32456814  0.33340433  1
  O  O64  1  0.83643402  0.17543186  0.16659567  1
  O  O65  1  0.16356598  0.16659567  0.17543186  1
  O  O66  1  0.33643402  0.66659567  0.67543186  1
  O  O67  1  0.66356598  0.67543186  0.66659567  1
  O  O68  1  0.08707498  0.00111626  0.72733574  1
  O  O69  1  0.91292502  0.72733574  0.00111626  1
  O  O70  1  0.58707498  0.22733574  0.50111626  1
  O  O71  1  0.41292502  0.50111626  0.22733574  1
  O  O72  1  0.91292502  0.99888374  0.27266426  1
  O  O73  1  0.08707498  0.27266426  0.99888374  1
  O  O74  1  0.41292502  0.77266426  0.49888374  1
  O  O75  1  0.58707498  0.49888374  0.77266426  1
  O  O76  1  0.83259279  0.99900922  0.65592595  1
  O  O77  1  0.16740721  0.65592595  0.99900922  1
  O  O78  1  0.33259279  0.15592595  0.49900922  1
  O  O79  1  0.66740721  0.49900922  0.15592595  1
  O  O80  1  0.16740721  0.00099078  0.34407405  1
  O  O81  1  0.83259279  0.34407405  0.00099078  1
  O  O82  1  0.66740721  0.84407405  0.50099078  1
  O  O83  1  0.33259279  0.50099078  0.84407405  1
  O  O84  1  0.50999625  0.11434882  0.88565118  1
  O  O85  1  0.49000375  0.88565118  0.11434882  1
  O  O86  1  0.00999625  0.38565118  0.61434882  1
  O  O87  1  0.99000375  0.61434882  0.38565118  1
  O  O88  1  0.19241493  0.05238478  0.94761522  1
  O  O89  1  0.80758507  0.94761522  0.05238478  1
  O  O90  1  0.69241493  0.44761522  0.55238478  1
  O  O91  1  0.30758507  0.55238478  0.44761522  1
  O  O92  1  0.92482890  0.17945448  0.82054552  1
  O  O93  1  0.07517110  0.82054552  0.17945448  1
  O  O94  1  0.42482890  0.32054552  0.67945448  1
  O  O95  1  0.57517110  0.67945448  0.32054552  1
