# generated using pymatgen
data_Ca6Te5N2O21
_symmetry_space_group_name_H-M   'P 1'
_cell_length_a   5.66654165
_cell_length_b   15.72121574
_cell_length_c   24.38648103
_cell_angle_alpha   90.26599651
_cell_angle_beta   90.00000000
_cell_angle_gamma   90.00000000
_symmetry_Int_Tables_number   1
_chemical_formula_structural   Ca6Te5N2O21
_chemical_formula_sum   'Ca24 Te20 N8 O84'
_cell_volume   2172.44439250
_cell_formula_units_Z   4
loop_
 _symmetry_equiv_pos_site_id
 _symmetry_equiv_pos_as_xyz
  1  'x, y, z'
loop_
 _atom_site_type_symbol
 _atom_site_label
 _atom_site_symmetry_multiplicity
 _atom_site_fract_x
 _atom_site_fract_y
 _atom_site_fract_z
 _atom_site_occupancy
  Ca  Ca0  1  0.26278161  0.46764941  0.45489523  1
  Ca  Ca1  1  0.76278161  0.53235059  0.04510477  1
  Ca  Ca2  1  0.73721839  0.53235059  0.54510477  1
  Ca  Ca3  1  0.23721839  0.46764941  0.95489523  1
  Ca  Ca4  1  0.73528533  0.08315811  0.96612173  1
  Ca  Ca5  1  0.23528533  0.91684189  0.53387827  1
  Ca  Ca6  1  0.26471467  0.91684189  0.03387827  1
  Ca  Ca7  1  0.76471467  0.08315811  0.46612173  1
  Ca  Ca8  1  0.26282357  0.97646045  0.37229286  1
  Ca  Ca9  1  0.76282357  0.02353955  0.12770714  1
  Ca  Ca10  1  0.73717643  0.02353955  0.62770714  1
  Ca  Ca11  1  0.23717643  0.97646045  0.87229286  1
  Ca  Ca12  1  0.28959682  0.21894669  0.40441002  1
  Ca  Ca13  1  0.78959682  0.78105331  0.09558998  1
  Ca  Ca14  1  0.71040318  0.78105331  0.59558998  1
  Ca  Ca15  1  0.21040318  0.21894669  0.90441002  1
  Ca  Ca16  1  0.83706154  0.36960145  0.34994446  1
  Ca  Ca17  1  0.33706154  0.63039855  0.15005554  1
  Ca  Ca18  1  0.16293846  0.63039855  0.65005554  1
  Ca  Ca19  1  0.66293846  0.36960145  0.84994446  1
  Ca  Ca20  1  0.32565739  0.52941343  0.29625914  1
  Ca  Ca21  1  0.82565739  0.47058657  0.20374086  1
  Ca  Ca22  1  0.67434261  0.47058657  0.70374086  1
  Ca  Ca23  1  0.17434261  0.52941343  0.79625914  1
  Te  Te24  1  0.79493389  0.57767206  0.38833721  1
  Te  Te25  1  0.29493389  0.42232794  0.11166279  1
  Te  Te26  1  0.20506611  0.42232794  0.61166279  1
  Te  Te27  1  0.70506611  0.57767206  0.88833721  1
  Te  Te28  1  0.81101407  0.31225951  0.49911786  1
  Te  Te29  1  0.31101407  0.68774049  0.00088214  1
  Te  Te30  1  0.18898593  0.68774049  0.50088214  1
  Te  Te31  1  0.68898593  0.31225951  0.99911786  1
  Te  Te32  1  0.76839657  0.86436594  0.44368812  1
  Te  Te33  1  0.26839657  0.13563406  0.05631188  1
  Te  Te34  1  0.23160343  0.13563406  0.55631188  1
  Te  Te35  1  0.73160343  0.86436594  0.94368812  1
  Te  Te36  1  0.74208373  0.12374908  0.32704155  1
  Te  Te37  1  0.24208373  0.87625092  0.17295845  1
  Te  Te38  1  0.25791627  0.87625092  0.67295845  1
  Te  Te39  1  0.75791627  0.12374908  0.82704155  1
  Te  Te40  1  0.85318635  0.67867366  0.23790828  1
  Te  Te41  1  0.35318635  0.32132634  0.26209172  1
  Te  Te42  1  0.14681365  0.32132634  0.76209172  1
  Te  Te43  1  0.64681365  0.67867366  0.73790828  1
  N  N44  1  0.77367678  0.92044361  0.28384332  1
  N  N45  1  0.27367678  0.07955639  0.21615668  1
  N  N46  1  0.22632322  0.07955639  0.71615668  1
  N  N47  1  0.72632322  0.92044361  0.78384332  1
  N  N48  1  0.30461911  0.74992179  0.34100577  1
  N  N49  1  0.80461911  0.25007821  0.15899423  1
  N  N50  1  0.69538089  0.25007821  0.65899423  1
  N  N51  1  0.19538089  0.74992179  0.84100577  1
  O  O52  1  0.91294015  0.55915960  0.45960888  1
  O  O53  1  0.41294015  0.44084040  0.04039112  1
  O  O54  1  0.08705985  0.44084040  0.54039112  1
  O  O55  1  0.58705985  0.55915960  0.95960888  1
  O  O56  1  0.54681492  0.49713100  0.38263731  1
  O  O57  1  0.04681492  0.50286900  0.11736269  1
  O  O58  1  0.45318508  0.50286900  0.61736269  1
  O  O59  1  0.95318508  0.49713100  0.88263731  1
  O  O60  1  0.02229930  0.50407566  0.35670293  1
  O  O61  1  0.52229930  0.49592434  0.14329707  1
  O  O62  1  0.97770070  0.49592434  0.64329707  1
  O  O63  1  0.47770070  0.50407566  0.85670293  1
  O  O64  1  0.59437979  0.40435931  0.49956114  1
  O  O65  1  0.09437979  0.59564069  0.00043886  1
  O  O66  1  0.40562021  0.59564069  0.50043886  1
  O  O67  1  0.90562021  0.40435931  0.99956114  1
  O  O68  1  0.61702479  0.22930427  0.46453504  1
  O  O69  1  0.11702479  0.77069573  0.03546496  1
  O  O70  1  0.38297521  0.77069573  0.53546496  1
  O  O71  1  0.88297521  0.22930427  0.96453504  1
  O  O72  1  0.00468815  0.34148919  0.43705812  1
  O  O73  1  0.50468815  0.65851081  0.06294188  1
  O  O74  1  0.99531185  0.65851081  0.56294188  1
  O  O75  1  0.49531185  0.34148919  0.93705812  1
  O  O76  1  0.87094514  0.83829301  0.51507085  1
  O  O77  1  0.37094514  0.16170699  0.98492915  1
  O  O78  1  0.12905486  0.16170699  0.48492915  1
  O  O79  1  0.62905486  0.83829301  0.01507085  1
  O  O80  1  0.50528416  0.93563160  0.45589276  1
  O  O81  1  0.00528416  0.06436840  0.04410724  1
  O  O82  1  0.49471584  0.06436840  0.54410724  1
  O  O83  1  0.99471584  0.93563160  0.95589276  1
  O  O84  1  0.98804452  0.95515742  0.43933657  1
  O  O85  1  0.48804452  0.04484258  0.06066343  1
  O  O86  1  0.01195548  0.04484258  0.56066343  1
  O  O87  1  0.51195548  0.95515742  0.93933657  1
  O  O88  1  0.65962037  0.23983508  0.33194180  1
  O  O89  1  0.15962037  0.76016492  0.16805820  1
  O  O90  1  0.34037963  0.76016492  0.66805820  1
  O  O91  1  0.84037963  0.23983508  0.83194180  1
  O  O92  1  0.00336333  0.11674687  0.37511837  1
  O  O93  1  0.50336333  0.88325313  0.12488163  1
  O  O94  1  0.99663667  0.88325313  0.62488163  1
  O  O95  1  0.49663667  0.11674687  0.87511837  1
  O  O96  1  0.52075053  0.09078241  0.38252155  1
  O  O97  1  0.02075053  0.90921759  0.11747845  1
  O  O98  1  0.47924947  0.90921759  0.61747845  1
  O  O99  1  0.97924947  0.09078241  0.88252155  1
  O  O100  1  0.71471074  0.68145154  0.16755048  1
  O  O101  1  0.21471074  0.31854846  0.33244952  1
  O  O102  1  0.28528926  0.31854846  0.83244952  1
  O  O103  1  0.78528926  0.68145154  0.66755048  1
  O  O104  1  0.65712131  0.58912465  0.26329375  1
  O  O105  1  0.15712131  0.41087535  0.23670625  1
  O  O106  1  0.34287869  0.41087535  0.73670625  1
  O  O107  1  0.84287869  0.58912465  0.76329375  1
  O  O108  1  0.09764215  0.59742364  0.22554910  1
  O  O109  1  0.59764215  0.40257636  0.27445090  1
  O  O110  1  0.90235785  0.40257636  0.77445090  1
  O  O111  1  0.40235785  0.59742364  0.72554910  1
  O  O112  1  0.59750705  0.93889600  0.31358222  1
  O  O113  1  0.09750705  0.06110400  0.18641778  1
  O  O114  1  0.40249295  0.06110400  0.68641778  1
  O  O115  1  0.90249295  0.93889600  0.81358222  1
  O  O116  1  0.74616362  0.89903696  0.23440102  1
  O  O117  1  0.24616362  0.10096304  0.26559898  1
  O  O118  1  0.25383638  0.10096304  0.76559898  1
  O  O119  1  0.75383638  0.89903696  0.73440102  1
  O  O120  1  0.98004018  0.92434929  0.30409688  1
  O  O121  1  0.48004018  0.07565071  0.19590312  1
  O  O122  1  0.01995982  0.07565071  0.69590312  1
  O  O123  1  0.51995982  0.92434929  0.80409688  1
  O  O124  1  0.25977936  0.80762718  0.37652536  1
  O  O125  1  0.75977936  0.19237282  0.12347464  1
  O  O126  1  0.74022064  0.19237282  0.62347464  1
  O  O127  1  0.24022064  0.80762718  0.87652536  1
  O  O128  1  0.40299986  0.76734334  0.29648481  1
  O  O129  1  0.90299986  0.23265666  0.20351519  1
  O  O130  1  0.59700014  0.23265666  0.70351519  1
  O  O131  1  0.09700014  0.76734334  0.79648481  1
  O  O132  1  0.24692201  0.67271534  0.35205615  1
  O  O133  1  0.74692201  0.32728466  0.14794385  1
  O  O134  1  0.75307799  0.32728466  0.64794385  1
  O  O135  1  0.25307799  0.67271534  0.85205615  1
