# generated using pymatgen
data_Tm3Co6Sn5
_symmetry_space_group_name_H-M   'P 1'
_cell_length_a   4.29913228
_cell_length_b   8.05922957
_cell_length_c   8.05922957
_cell_angle_alpha   72.71671046
_cell_angle_beta   74.53075381
_cell_angle_gamma   74.53075381
_symmetry_Int_Tables_number   1
_chemical_formula_structural   Tm3Co6Sn5
_chemical_formula_sum   'Tm3 Co6 Sn5'
_cell_volume   251.57771083
_cell_formula_units_Z   1
loop_
 _symmetry_equiv_pos_site_id
 _symmetry_equiv_pos_as_xyz
  1  'x, y, z'
loop_
 _atom_site_type_symbol
 _atom_site_label
 _atom_site_symmetry_multiplicity
 _atom_site_fract_x
 _atom_site_fract_y
 _atom_site_fract_z
 _atom_site_occupancy
  Tm  Tm0  1  -0.00000000  0.00000000  0.00000000  1
  Tm  Tm1  1  0.68311561  0.31688439  0.31688439  1
  Tm  Tm2  1  0.31688439  0.68311561  0.68311561  1
  Co  Co3  1  0.50000000  0.30439085  0.69560915  1
  Co  Co4  1  0.50000000  0.69560915  0.30439085  1
  Co  Co5  1  0.89187510  0.83487028  0.38137952  1
  Co  Co6  1  0.10812490  0.16512972  0.61862048  1
  Co  Co7  1  0.89187510  0.38137952  0.83487028  1
  Co  Co8  1  0.10812490  0.61862048  0.16512972  1
  Sn  Sn9  1  0.67679868  0.98058392  0.66581872  1
  Sn  Sn10  1  0.32320132  0.01941608  0.33418128  1
  Sn  Sn11  1  0.67679868  0.66581872  0.98058392  1
  Sn  Sn12  1  0.32320132  0.33418128  0.01941608  1
  Sn  Sn13  1  -0.00000000  0.50000000  0.50000000  1
