# generated using pymatgen
data_YbNi5P3
_symmetry_space_group_name_H-M   'P 1'
_cell_length_a   3.54613417
_cell_length_b   6.07129547
_cell_length_c   11.44001994
_cell_angle_alpha   90.00000000
_cell_angle_beta   90.00000000
_cell_angle_gamma   106.98018610
_symmetry_Int_Tables_number   1
_chemical_formula_structural   YbNi5P3
_chemical_formula_sum   'Yb2 Ni10 P6'
_cell_volume   235.56215458
_cell_formula_units_Z   2
loop_
 _symmetry_equiv_pos_site_id
 _symmetry_equiv_pos_as_xyz
  1  'x, y, z'
loop_
 _atom_site_type_symbol
 _atom_site_label
 _atom_site_symmetry_multiplicity
 _atom_site_fract_x
 _atom_site_fract_y
 _atom_site_fract_z
 _atom_site_occupancy
  Yb  Yb0  1  0.83891580  0.67783160  0.25000000  1
  Yb  Yb1  1  0.16108420  0.32216840  0.75000000  1
  Ni  Ni2  1  0.19974777  0.39949554  0.07135963  1
  Ni  Ni3  1  0.80025223  0.60050446  0.92864037  1
  Ni  Ni4  1  0.80025223  0.60050446  0.57135963  1
  Ni  Ni5  1  0.19974777  0.39949554  0.42864037  1
  Ni  Ni6  1  0.54913399  0.09826798  0.14530159  1
  Ni  Ni7  1  0.45086601  0.90173202  0.85469841  1
  Ni  Ni8  1  0.45086601  0.90173202  0.64530159  1
  Ni  Ni9  1  0.54913399  0.09826798  0.35469841  1
  Ni  Ni10  1  -0.00000000  -0.00000000  -0.00000000  1
  Ni  Ni11  1  -0.00000000  -0.00000000  0.50000000  1
  P  P12  1  0.11748581  0.23497162  0.25000000  1
  P  P13  1  0.88251419  0.76502838  0.75000000  1
  P  P14  1  0.38187127  0.76374253  0.04227306  1
  P  P15  1  0.61812873  0.23625747  0.95772694  1
  P  P16  1  0.61812873  0.23625747  0.54227306  1
  P  P17  1  0.38187127  0.76374253  0.45772694  1
