# generated using pymatgen
data_TlFe(SeO4)2
_symmetry_space_group_name_H-M   'P 1'
_cell_length_a   5.19943596
_cell_length_b   5.19943596
_cell_length_c   9.09409415
_cell_angle_alpha   90.00000000
_cell_angle_beta   90.00000000
_cell_angle_gamma   120.00000665
_symmetry_Int_Tables_number   1
_chemical_formula_structural   TlFe(SeO4)2
_chemical_formula_sum   'Tl1 Fe1 Se2 O8'
_cell_volume   212.91316512
_cell_formula_units_Z   1
loop_
 _symmetry_equiv_pos_site_id
 _symmetry_equiv_pos_as_xyz
  1  'x, y, z'
loop_
 _atom_site_type_symbol
 _atom_site_label
 _atom_site_symmetry_multiplicity
 _atom_site_fract_x
 _atom_site_fract_y
 _atom_site_fract_z
 _atom_site_occupancy
  Tl  Tl0  1  -0.00000000  -0.00000000  0.50000000  1
  Fe  Fe1  1  -0.00000000  -0.00000000  -0.00000000  1
  Se  Se2  1  0.66666700  0.33333300  0.79755765  1
  Se  Se3  1  0.33333300  0.66666700  0.20244235  1
  O  O4  1  0.92696784  0.25784258  0.85742512  1
  O  O5  1  0.33087474  0.07303216  0.85742512  1
  O  O6  1  0.66912526  0.74215742  0.14257488  1
  O  O7  1  0.74215742  0.66912526  0.85742512  1
  O  O8  1  0.25784258  0.92696784  0.14257488  1
  O  O9  1  0.07303216  0.33087474  0.14257488  1
  O  O10  1  0.66666700  0.33333300  0.61625808  1
  O  O11  1  0.33333300  0.66666700  0.38374192  1
