# generated using pymatgen
data_Tm6Mn4Al43
_symmetry_space_group_name_H-M   'P 1'
_cell_length_a   10.86095009
_cell_length_b   10.86095009
_cell_length_c   17.42807651
_cell_angle_alpha   90.00000000
_cell_angle_beta   90.00000000
_cell_angle_gamma   119.99999604
_symmetry_Int_Tables_number   1
_chemical_formula_structural   Tm6Mn4Al43
_chemical_formula_sum   'Tm12 Mn8 Al86'
_cell_volume   1780.39244539
_cell_formula_units_Z   2
loop_
 _symmetry_equiv_pos_site_id
 _symmetry_equiv_pos_as_xyz
  1  'x, y, z'
loop_
 _atom_site_type_symbol
 _atom_site_label
 _atom_site_symmetry_multiplicity
 _atom_site_fract_x
 _atom_site_fract_y
 _atom_site_fract_z
 _atom_site_occupancy
  Tm  Tm0  1  0.46808743  0.46808743  0.90503395  1
  Tm  Tm1  1  0.53191257  0.53191257  0.09496605  1
  Tm  Tm2  1  0.00000000  0.53191257  0.90503395  1
  Tm  Tm3  1  0.53191257  0.53191257  0.40503395  1
  Tm  Tm4  1  0.00000000  0.53191257  0.59496605  1
  Tm  Tm5  1  1.00000000  0.46808743  0.09496605  1
  Tm  Tm6  1  0.46808743  0.46808743  0.59496605  1
  Tm  Tm7  1  1.00000000  0.46808743  0.40503395  1
  Tm  Tm8  1  0.53191257  0.00000000  0.90503395  1
  Tm  Tm9  1  0.46808743  1.00000000  0.09496605  1
  Tm  Tm10  1  0.46808743  1.00000000  0.40503395  1
  Tm  Tm11  1  0.53191257  0.00000000  0.59496605  1
  Mn  Mn12  1  -0.00000000  0.00000000  0.00000000  1
  Mn  Mn13  1  -0.00000000  0.00000000  0.50000000  1
  Mn  Mn14  1  0.26794807  0.26794807  0.75000000  1
  Mn  Mn15  1  0.73205193  0.73205193  0.25000000  1
  Mn  Mn16  1  0.00000000  0.73205193  0.75000000  1
  Mn  Mn17  1  1.00000000  0.26794807  0.25000000  1
  Mn  Mn18  1  0.73205193  0.00000000  0.75000000  1
  Mn  Mn19  1  0.26794807  1.00000000  0.25000000  1
  Al  Al20  1  0.85488235  0.45256000  0.75000000  1
  Al  Al21  1  0.14511765  0.54744000  0.25000000  1
  Al  Al22  1  0.59767765  0.14511765  0.75000000  1
  Al  Al23  1  0.40232235  0.54744000  0.75000000  1
  Al  Al24  1  0.40232235  0.85488235  0.25000000  1
  Al  Al25  1  0.59767765  0.45256000  0.25000000  1
  Al  Al26  1  0.54744000  0.40232235  0.75000000  1
  Al  Al27  1  0.45256000  0.85488235  0.75000000  1
  Al  Al28  1  0.45256000  0.59767765  0.25000000  1
  Al  Al29  1  0.54744000  0.14511765  0.25000000  1
  Al  Al30  1  0.14511765  0.59767765  0.75000000  1
  Al  Al31  1  0.85488235  0.40232235  0.25000000  1
  Al  Al32  1  0.84306550  0.84306550  0.38458632  1
  Al  Al33  1  0.15693450  0.15693450  0.61541368  1
  Al  Al34  1  1.00000000  0.15693450  0.38458632  1
  Al  Al35  1  0.15693450  0.15693450  0.88458632  1
  Al  Al36  1  1.00000000  0.15693450  0.11541368  1
  Al  Al37  1  0.00000000  0.84306550  0.61541368  1
  Al  Al38  1  0.84306550  0.84306550  0.11541368  1
  Al  Al39  1  0.00000000  0.84306550  0.88458632  1
  Al  Al40  1  0.15693450  1.00000000  0.38458632  1
  Al  Al41  1  0.84306550  0.00000000  0.61541368  1
  Al  Al42  1  0.84306550  0.00000000  0.88458632  1
  Al  Al43  1  0.15693450  1.00000000  0.11541368  1
  Al  Al44  1  0.75330701  0.24669299  0.00000000  1
  Al  Al45  1  0.24669299  0.75330701  0.00000000  1
  Al  Al46  1  0.49338598  0.24669299  0.00000000  1
  Al  Al47  1  0.24669299  0.75330701  0.50000000  1
  Al  Al48  1  0.50661402  0.75330701  0.50000000  1
  Al  Al49  1  0.50661402  0.75330701  0.00000000  1
  Al  Al50  1  0.75330701  0.24669299  0.50000000  1
  Al  Al51  1  0.49338598  0.24669299  0.50000000  1
  Al  Al52  1  0.75330701  0.50661402  0.00000000  1
  Al  Al53  1  0.24669299  0.49338598  0.00000000  1
  Al  Al54  1  0.24669299  0.49338598  0.50000000  1
  Al  Al55  1  0.75330701  0.50661402  0.50000000  1
  Al  Al56  1  0.85392702  0.85392702  0.75000000  1
  Al  Al57  1  0.14607298  0.14607298  0.25000000  1
  Al  Al58  1  1.00000000  0.14607298  0.75000000  1
  Al  Al59  1  0.00000000  0.85392702  0.25000000  1
  Al  Al60  1  0.14607298  1.00000000  0.75000000  1
  Al  Al61  1  0.85392702  0.00000000  0.25000000  1
  Al  Al62  1  0.66666700  0.33333300  0.87332481  1
  Al  Al63  1  0.33333300  0.66666700  0.12667519  1
  Al  Al64  1  0.33333300  0.66666700  0.37332481  1
  Al  Al65  1  0.33333300  0.66666700  0.62667519  1
  Al  Al66  1  0.66666700  0.33333300  0.62667519  1
  Al  Al67  1  0.66666700  0.33333300  0.37332481  1
  Al  Al68  1  0.66666700  0.33333300  0.12667519  1
  Al  Al69  1  0.33333300  0.66666700  0.87332481  1
  Al  Al70  1  0.74737277  0.74737277  0.96946872  1
  Al  Al71  1  0.25262723  0.25262723  0.03053128  1
  Al  Al72  1  1.00000000  0.25262723  0.96946872  1
  Al  Al73  1  0.25262723  0.25262723  0.46946872  1
  Al  Al74  1  1.00000000  0.25262723  0.53053128  1
  Al  Al75  1  0.00000000  0.74737277  0.03053128  1
  Al  Al76  1  0.74737277  0.74737277  0.53053128  1
  Al  Al77  1  0.00000000  0.74737277  0.46946872  1
  Al  Al78  1  0.25262723  1.00000000  0.96946872  1
  Al  Al79  1  0.74737277  0.00000000  0.03053128  1
  Al  Al80  1  0.74737277  0.00000000  0.46946872  1
  Al  Al81  1  0.25262723  1.00000000  0.53053128  1
  Al  Al82  1  0.84168405  0.23358635  0.83492481  1
  Al  Al83  1  0.15831595  0.76641365  0.16507519  1
  Al  Al84  1  0.39190230  0.15831595  0.83492481  1
  Al  Al85  1  0.15831595  0.76641365  0.33492481  1
  Al  Al86  1  0.60809770  0.76641365  0.66507519  1
  Al  Al87  1  0.60809770  0.84168405  0.16507519  1
  Al  Al88  1  0.84168405  0.23358635  0.66507519  1
  Al  Al89  1  0.39190230  0.23358635  0.33492481  1
  Al  Al90  1  0.76641365  0.60809770  0.83492481  1
  Al  Al91  1  0.60809770  0.84168405  0.33492481  1
  Al  Al92  1  0.23358635  0.84168405  0.66507519  1
  Al  Al93  1  0.23358635  0.39190230  0.16507519  1
  Al  Al94  1  0.39190230  0.15831595  0.66507519  1
  Al  Al95  1  0.76641365  0.15831595  0.33492481  1
  Al  Al96  1  0.39190230  0.23358635  0.16507519  1
  Al  Al97  1  0.60809770  0.76641365  0.83492481  1
  Al  Al98  1  0.23358635  0.39190230  0.33492481  1
  Al  Al99  1  0.76641365  0.15831595  0.16507519  1
  Al  Al100  1  0.76641365  0.60809770  0.66507519  1
  Al  Al101  1  0.23358635  0.84168405  0.83492481  1
  Al  Al102  1  0.15831595  0.39190230  0.66507519  1
  Al  Al103  1  0.84168405  0.60809770  0.33492481  1
  Al  Al104  1  0.84168405  0.60809770  0.16507519  1
  Al  Al105  1  0.15831595  0.39190230  0.83492481  1
