# generated using pymatgen
data_Y3Co2Si3
_symmetry_space_group_name_H-M   'P 1'
_cell_length_a   4.11866483
_cell_length_b   5.65340245
_cell_length_c   13.69262769
_cell_angle_alpha   90.00000000
_cell_angle_beta   90.00000000
_cell_angle_gamma   111.36231664
_symmetry_Int_Tables_number   1
_chemical_formula_structural   Y3Co2Si3
_chemical_formula_sum   'Y6 Co4 Si6'
_cell_volume   296.92085448
_cell_formula_units_Z   2
loop_
 _symmetry_equiv_pos_site_id
 _symmetry_equiv_pos_as_xyz
  1  'x, y, z'
loop_
 _atom_site_type_symbol
 _atom_site_label
 _atom_site_symmetry_multiplicity
 _atom_site_fract_x
 _atom_site_fract_y
 _atom_site_fract_z
 _atom_site_occupancy
  Y  Y0  1  0.36153034  0.72306068  0.25000000  1
  Y  Y1  1  0.63846966  0.27693932  0.75000000  1
  Y  Y2  1  0.07950066  0.15900132  0.11259784  1
  Y  Y3  1  0.92049934  0.84099868  0.88740216  1
  Y  Y4  1  0.92049934  0.84099868  0.61259784  1
  Y  Y5  1  0.07950066  0.15900132  0.38740216  1
  Co  Co6  1  0.21437832  0.42875664  0.58122776  1
  Co  Co7  1  0.78562168  0.57124336  0.41877224  1
  Co  Co8  1  0.78562168  0.57124336  0.08122776  1
  Co  Co9  1  0.21437832  0.42875664  0.91877224  1
  Si  Si10  1  0.66961820  0.33923639  0.25000000  1
  Si  Si11  1  0.33038180  0.66076361  0.75000000  1
  Si  Si12  1  0.37964761  0.75929522  0.03882654  1
  Si  Si13  1  0.62035239  0.24070478  0.96117346  1
  Si  Si14  1  0.62035239  0.24070478  0.53882654  1
  Si  Si15  1  0.37964761  0.75929522  0.46117346  1
