# generated using pymatgen
data_Zr3Bi5
_symmetry_space_group_name_H-M   'P 1'
_cell_length_a   7.06783707
_cell_length_b   7.06783707
_cell_length_c   17.28529331
_cell_angle_alpha   90.00000000
_cell_angle_beta   90.00000000
_cell_angle_gamma   90.00000000
_symmetry_Int_Tables_number   1
_chemical_formula_structural   Zr3Bi5
_chemical_formula_sum   'Zr12 Bi20'
_cell_volume   863.47508796
_cell_formula_units_Z   4
loop_
 _symmetry_equiv_pos_site_id
 _symmetry_equiv_pos_as_xyz
  1  'x, y, z'
loop_
 _atom_site_type_symbol
 _atom_site_label
 _atom_site_symmetry_multiplicity
 _atom_site_fract_x
 _atom_site_fract_y
 _atom_site_fract_z
 _atom_site_occupancy
  Zr  Zr0  1  0.00000000  0.50000000  0.58767514  1
  Zr  Zr1  1  0.50000000  -0.00000000  0.41232486  1
  Zr  Zr2  1  0.50000000  -0.00000000  0.08767514  1
  Zr  Zr3  1  0.00000000  0.50000000  0.91232486  1
  Zr  Zr4  1  0.00000000  -0.00000000  0.00000000  1
  Zr  Zr5  1  0.50000000  0.50000000  0.50000000  1
  Zr  Zr6  1  0.00000000  -0.00000000  0.32487000  1
  Zr  Zr7  1  -0.00000000  -0.00000000  0.67513000  1
  Zr  Zr8  1  0.50000000  0.50000000  0.82487000  1
  Zr  Zr9  1  0.50000000  0.50000000  0.17513000  1
  Zr  Zr10  1  -0.00000000  0.50000000  0.25000000  1
  Zr  Zr11  1  0.50000000  -0.00000000  0.75000000  1
  Bi  Bi12  1  0.34141591  0.30575372  0.65164326  1
  Bi  Bi13  1  0.65858409  0.69424628  0.65164326  1
  Bi  Bi14  1  0.30575372  0.65858409  0.34835674  1
  Bi  Bi15  1  0.84141591  0.19424628  0.15164326  1
  Bi  Bi16  1  0.69424628  0.34141591  0.34835674  1
  Bi  Bi17  1  0.15858409  0.80575372  0.15164326  1
  Bi  Bi18  1  0.80575372  0.84141591  0.84835674  1
  Bi  Bi19  1  0.19424628  0.15858409  0.84835674  1
  Bi  Bi20  1  0.32941368  0.17058632  0.25000000  1
  Bi  Bi21  1  0.67058632  0.82941368  0.25000000  1
  Bi  Bi22  1  0.17058632  0.67058632  0.75000000  1
  Bi  Bi23  1  0.82941368  0.32941368  0.75000000  1
  Bi  Bi24  1  0.23063953  0.34507402  0.05191487  1
  Bi  Bi25  1  0.76936047  0.65492598  0.05191487  1
  Bi  Bi26  1  0.34507402  0.76936047  0.94808513  1
  Bi  Bi27  1  0.73063953  0.15492598  0.55191487  1
  Bi  Bi28  1  0.65492598  0.23063953  0.94808513  1
  Bi  Bi29  1  0.26936047  0.84507402  0.55191487  1
  Bi  Bi30  1  0.84507402  0.73063953  0.44808513  1
  Bi  Bi31  1  0.15492598  0.26936047  0.44808513  1
