# generated using pymatgen
data_Zn10Sn(B4Rh9)2
_symmetry_space_group_name_H-M   'P 1'
_cell_length_a   2.89900103
_cell_length_b   17.99309995
_cell_length_c   17.99309995
_cell_angle_alpha   90.00000000
_cell_angle_beta   90.00000000
_cell_angle_gamma   90.00000000
_symmetry_Int_Tables_number   1
_chemical_formula_structural   Zn10Sn(B4Rh9)2
_chemical_formula_sum   'Zn20 Sn2 B16 Rh36'
_cell_volume   938.55635467
_cell_formula_units_Z   2
loop_
 _symmetry_equiv_pos_site_id
 _symmetry_equiv_pos_as_xyz
  1  'x, y, z'
loop_
 _atom_site_type_symbol
 _atom_site_label
 _atom_site_symmetry_multiplicity
 _atom_site_fract_x
 _atom_site_fract_y
 _atom_site_fract_z
 _atom_site_occupancy
  Zn  Zn0  1  -0.00000000  0.05020359  0.55020359  1
  Zn  Zn1  1  0.00000000  0.94979641  0.44979641  1
  Zn  Zn2  1  -0.00000000  0.44979641  0.05020359  1
  Zn  Zn3  1  0.00000000  0.55020359  0.94979641  1
  Zn  Zn4  1  -0.00000000  0.19204403  0.03278213  1
  Zn  Zn5  1  0.00000000  0.80795597  0.96721787  1
  Zn  Zn6  1  -0.00000000  0.96721787  0.19204403  1
  Zn  Zn7  1  -0.00000000  0.30795597  0.53278213  1
  Zn  Zn8  1  0.00000000  0.03278213  0.80795597  1
  Zn  Zn9  1  0.00000000  0.69204403  0.46721787  1
  Zn  Zn10  1  -0.00000000  0.53278213  0.69204403  1
  Zn  Zn11  1  0.00000000  0.46721787  0.30795597  1
  Zn  Zn12  1  -0.00000000  0.71010121  0.21010121  1
  Zn  Zn13  1  0.00000000  0.28989879  0.78989879  1
  Zn  Zn14  1  -0.00000000  0.78989879  0.71010121  1
  Zn  Zn15  1  0.00000000  0.21010121  0.28989879  1
  Zn  Zn16  1  0.00000000  0.16741534  0.66741534  1
  Zn  Zn17  1  -0.00000000  0.83258466  0.33258466  1
  Zn  Zn18  1  0.00000000  0.33258466  0.16741534  1
  Zn  Zn19  1  -0.00000000  0.66741534  0.83258466  1
  Sn  Sn20  1  -0.00000000  0.00000000  -0.00000000  1
  Sn  Sn21  1  0.00000000  0.50000000  0.50000000  1
  B  B22  1  -0.00000000  0.03912392  0.33554731  1
  B  B23  1  0.00000000  0.96087608  0.66445269  1
  B  B24  1  -0.00000000  0.66445269  0.03912392  1
  B  B25  1  -0.00000000  0.46087608  0.83554731  1
  B  B26  1  0.00000000  0.33554731  0.96087608  1
  B  B27  1  0.00000000  0.53912392  0.16445269  1
  B  B28  1  -0.00000000  0.83554731  0.53912392  1
  B  B29  1  0.00000000  0.16445269  0.46087608  1
  B  B30  1  -0.00000000  0.12722415  0.17187854  1
  B  B31  1  0.00000000  0.87277585  0.82812146  1
  B  B32  1  -0.00000000  0.82812146  0.12722415  1
  B  B33  1  -0.00000000  0.37277585  0.67187854  1
  B  B34  1  0.00000000  0.17187854  0.87277585  1
  B  B35  1  0.00000000  0.62722415  0.32812146  1
  B  B36  1  -0.00000000  0.67187854  0.62722415  1
  B  B37  1  0.00000000  0.32812146  0.37277585  1
  Rh  Rh38  1  0.50000000  0.08959338  0.25820119  1
  Rh  Rh39  1  0.50000000  0.91040662  0.74179881  1
  Rh  Rh40  1  0.50000000  0.74179881  0.08959338  1
  Rh  Rh41  1  0.50000000  0.41040662  0.75820119  1
  Rh  Rh42  1  0.50000000  0.25820119  0.91040662  1
  Rh  Rh43  1  0.50000000  0.58959338  0.24179881  1
  Rh  Rh44  1  0.50000000  0.75820119  0.58959338  1
  Rh  Rh45  1  0.50000000  0.24179881  0.41040662  1
  Rh  Rh46  1  0.50000000  0.32591273  0.04681492  1
  Rh  Rh47  1  0.50000000  0.67408727  0.95318508  1
  Rh  Rh48  1  0.50000000  0.95318508  0.32591273  1
  Rh  Rh49  1  0.50000000  0.17408727  0.54681492  1
  Rh  Rh50  1  0.50000000  0.04681492  0.67408727  1
  Rh  Rh51  1  0.50000000  0.82591273  0.45318508  1
  Rh  Rh52  1  0.50000000  0.54681492  0.82591273  1
  Rh  Rh53  1  0.50000000  0.45318508  0.17408727  1
  Rh  Rh54  1  0.50000000  0.21257186  0.16067371  1
  Rh  Rh55  1  0.50000000  0.78742814  0.83932629  1
  Rh  Rh56  1  0.50000000  0.83932629  0.21257186  1
  Rh  Rh57  1  0.50000000  0.28742814  0.66067371  1
  Rh  Rh58  1  0.50000000  0.16067371  0.78742814  1
  Rh  Rh59  1  0.50000000  0.71257186  0.33932629  1
  Rh  Rh60  1  0.50000000  0.66067371  0.71257186  1
  Rh  Rh61  1  0.50000000  0.33932629  0.28742814  1
  Rh  Rh62  1  0.50000000  0.06873596  0.10437298  1
  Rh  Rh63  1  0.50000000  0.93126404  0.89562702  1
  Rh  Rh64  1  0.50000000  0.89562702  0.06873596  1
  Rh  Rh65  1  0.50000000  0.43126404  0.60437298  1
  Rh  Rh66  1  0.50000000  0.10437298  0.93126404  1
  Rh  Rh67  1  0.50000000  0.56873596  0.39562702  1
  Rh  Rh68  1  0.50000000  0.60437298  0.56873596  1
  Rh  Rh69  1  0.50000000  0.39562702  0.43126404  1
  Rh  Rh70  1  0.50000000  0.58115941  0.08115941  1
  Rh  Rh71  1  0.50000000  0.41884059  0.91884059  1
  Rh  Rh72  1  0.50000000  0.91884059  0.58115941  1
  Rh  Rh73  1  0.50000000  0.08115941  0.41884059  1
