# generated using pymatgen
data_NbSI
_symmetry_space_group_name_H-M   'P 1'
_cell_length_a   7.66364620
_cell_length_b   7.66364620
_cell_length_c   7.66364620
_cell_angle_alpha   60.00000000
_cell_angle_beta   60.00000000
_cell_angle_gamma   60.00000000
_symmetry_Int_Tables_number   1
_chemical_formula_structural   NbSI
_chemical_formula_sum   'Nb4 S4 I4'
_cell_volume   318.26680446
_cell_formula_units_Z   4
loop_
 _symmetry_equiv_pos_site_id
 _symmetry_equiv_pos_as_xyz
  1  'x, y, z'
loop_
 _atom_site_type_symbol
 _atom_site_label
 _atom_site_symmetry_multiplicity
 _atom_site_fract_x
 _atom_site_fract_y
 _atom_site_fract_z
 _atom_site_occupancy
  Nb  Nb0  1  0.65281309  0.65281309  0.65281309  1
  Nb  Nb1  1  0.04156073  0.65281309  0.65281309  1
  Nb  Nb2  1  0.65281309  0.04156073  0.65281309  1
  Nb  Nb3  1  0.65281309  0.65281309  0.04156073  1
  S  S4  1  0.87411915  0.87411915  0.87411915  1
  S  S5  1  0.37764256  0.87411915  0.87411915  1
  S  S6  1  0.87411915  0.37764256  0.87411915  1
  S  S7  1  0.87411915  0.87411915  0.37764256  1
  I  I8  1  0.37618551  0.37618551  0.37618551  1
  I  I9  1  0.87144347  0.37618551  0.37618551  1
  I  I10  1  0.37618551  0.87144347  0.37618551  1
  I  I11  1  0.37618551  0.37618551  0.87144347  1
