# generated using pymatgen
data_NaYCl4
_symmetry_space_group_name_H-M   'P 1'
_cell_length_a   6.68396434
_cell_length_b   6.76963360
_cell_length_c   7.06926787
_cell_angle_alpha   89.39016289
_cell_angle_beta   87.81621809
_cell_angle_gamma   78.46500946
_symmetry_Int_Tables_number   1
_chemical_formula_structural   NaYCl4
_chemical_formula_sum   'Na2 Y2 Cl8'
_cell_volume   313.18055747
_cell_formula_units_Z   2
loop_
 _symmetry_equiv_pos_site_id
 _symmetry_equiv_pos_as_xyz
  1  'x, y, z'
loop_
 _atom_site_type_symbol
 _atom_site_label
 _atom_site_symmetry_multiplicity
 _atom_site_fract_x
 _atom_site_fract_y
 _atom_site_fract_z
 _atom_site_occupancy
  Na  Na0  1  0.23168246  0.19742335  0.53545087  1
  Na  Na1  1  0.76831754  0.80257665  0.46454913  1
  Y  Y2  1  0.78889823  0.29946647  0.05492368  1
  Y  Y3  1  0.21110177  0.70053353  0.94507632  1
  Cl  Cl4  1  0.61227467  0.20708785  0.36547590  1
  Cl  Cl5  1  0.38772533  0.79291215  0.63452410  1
  Cl  Cl6  1  0.09564050  0.00210210  0.20568444  1
  Cl  Cl7  1  0.90435950  0.99789790  0.79431556  1
  Cl  Cl8  1  0.04702935  0.50340482  0.24125299  1
  Cl  Cl9  1  0.95297065  0.49659518  0.75874701  1
  Cl  Cl10  1  0.56681612  0.68620649  0.11817583  1
  Cl  Cl11  1  0.43318388  0.31379351  0.88182417  1
