# generated using pymatgen
data_RbCu2H3(SeO5)2
_symmetry_space_group_name_H-M   'P 1'
_cell_length_a   5.74614784
_cell_length_b   5.74614784
_cell_length_c   8.04619692
_cell_angle_alpha   98.50037483
_cell_angle_beta   109.55211011
_cell_angle_gamma   108.92890104
_symmetry_Int_Tables_number   1
_chemical_formula_structural   RbCu2H3(SeO5)2
_chemical_formula_sum   'Rb1 Cu2 H3 Se2 O10'
_cell_volume   226.80652077
_cell_formula_units_Z   1
loop_
 _symmetry_equiv_pos_site_id
 _symmetry_equiv_pos_as_xyz
  1  'x, y, z'
loop_
 _atom_site_type_symbol
 _atom_site_label
 _atom_site_symmetry_multiplicity
 _atom_site_fract_x
 _atom_site_fract_y
 _atom_site_fract_z
 _atom_site_occupancy
  Rb  Rb0  1  -0.00000000  0.00000000  -0.00000000  1
  Cu  Cu1  1  -0.00000000  0.00000000  0.50000000  1
  Cu  Cu2  1  0.50000000  0.50000000  0.50000000  1
  H  H3  1  0.50709613  0.19442268  0.70151881  1
  H  H4  1  0.49290387  0.80557732  0.29848119  1
  H  H5  1  0.50000000  0.00000000  0.50000000  1
  Se  Se6  1  0.79513841  0.42901799  0.22415640  1
  Se  Se7  1  0.20486159  0.57098201  0.77584360  1
  O  O8  1  0.01794994  0.31269983  0.33064977  1
  O  O9  1  0.98205006  0.68730017  0.66935023  1
  O  O10  1  0.41723887  0.14910034  0.56633921  1
  O  O11  1  0.58276113  0.85089966  0.43366079  1
  O  O12  1  0.32126625  0.68012814  0.00139439  1
  O  O13  1  0.67873375  0.31987186  0.99860561  1
  O  O14  1  0.95002085  0.75490633  0.28529720  1
  O  O15  1  0.04997915  0.24509367  0.71470280  1
  O  O16  1  0.46960913  0.66472365  0.71470280  1
  O  O17  1  0.53039087  0.33527635  0.28529720  1
