# generated using pymatgen
data_Sr2YbGaCu2O7
_symmetry_space_group_name_H-M   'P 1'
_cell_length_a   5.33633888
_cell_length_b   5.43892994
_cell_length_c   12.21647667
_cell_angle_alpha   102.86216125
_cell_angle_beta   102.61551171
_cell_angle_gamma   90.00000000
_symmetry_Int_Tables_number   1
_chemical_formula_structural   Sr2YbGaCu2O7
_chemical_formula_sum   'Sr4 Yb2 Ga2 Cu4 O14'
_cell_volume   336.88780363
_cell_formula_units_Z   2
loop_
 _symmetry_equiv_pos_site_id
 _symmetry_equiv_pos_as_xyz
  1  'x, y, z'
loop_
 _atom_site_type_symbol
 _atom_site_label
 _atom_site_symmetry_multiplicity
 _atom_site_fract_x
 _atom_site_fract_y
 _atom_site_fract_z
 _atom_site_occupancy
  Sr  Sr0  1  0.35666315  0.33860990  0.70053780  1
  Sr  Sr1  1  0.65612535  0.66139010  0.29946220  1
  Sr  Sr2  1  0.85666315  0.86192790  0.70053780  1
  Sr  Sr3  1  0.15612535  0.13807210  0.29946220  1
  Yb  Yb4  1  0.00766195  -0.00000000  -0.00000000  1
  Yb  Yb5  1  0.50766195  0.50000000  -0.00000000  1
  Ga  Ga6  1  0.30119448  0.68198382  0.50000000  1
  Ga  Ga7  1  0.80119448  0.31801618  0.50000000  1
  Cu  Cu8  1  0.93446595  0.42864301  0.85709336  1
  Cu  Cu9  1  0.07737259  0.57135699  0.14290664  1
  Cu  Cu10  1  0.43446595  0.92845035  0.85709336  1
  Cu  Cu11  1  0.57737259  0.07154965  0.14290664  1
  O  O12  1  0.65675001  0.63766925  0.50000000  1
  O  O13  1  0.15675001  0.36233075  0.50000000  1
  O  O14  1  0.81328057  0.28246269  0.64864136  1
  O  O15  1  0.16463921  0.71753731  0.35135864  1
  O  O16  1  0.31328057  0.86617867  0.64864136  1
  O  O17  1  0.66463921  0.13382133  0.35135864  1
  O  O18  1  0.19420169  0.18849340  0.87330392  1
  O  O19  1  0.32089777  0.81150660  0.12669608  1
  O  O20  1  0.69420169  0.18481052  0.87330392  1
  O  O21  1  0.82089777  0.81518948  0.12669608  1
  O  O22  1  0.68976161  0.68363939  0.86677594  1
  O  O23  1  0.82298567  0.31636061  0.13322406  1
  O  O24  1  0.18976161  0.68313655  0.86677594  1
  O  O25  1  0.32298567  0.31686345  0.13322406  1
