# generated using pymatgen
data_TlCr2FeO8
_symmetry_space_group_name_H-M   'P 1'
_cell_length_a   5.55251085
_cell_length_b   14.81944147
_cell_length_c   8.87440838
_cell_angle_alpha   90.00000000
_cell_angle_beta   90.00000000
_cell_angle_gamma   90.00000000
_symmetry_Int_Tables_number   1
_chemical_formula_structural   TlCr2FeO8
_chemical_formula_sum   'Tl4 Cr8 Fe4 O32'
_cell_volume   730.23166577
_cell_formula_units_Z   4
loop_
 _symmetry_equiv_pos_site_id
 _symmetry_equiv_pos_as_xyz
  1  'x, y, z'
loop_
 _atom_site_type_symbol
 _atom_site_label
 _atom_site_symmetry_multiplicity
 _atom_site_fract_x
 _atom_site_fract_y
 _atom_site_fract_z
 _atom_site_occupancy
  Tl  Tl0  1  0.75000000  0.61767912  0.94335007  1
  Tl  Tl1  1  0.25000000  0.38232088  0.05664993  1
  Tl  Tl2  1  0.25000000  0.88232088  0.44335007  1
  Tl  Tl3  1  0.75000000  0.11767912  0.55664993  1
  Cr  Cr4  1  0.75000000  0.83956079  0.74356039  1
  Cr  Cr5  1  0.25000000  0.16043921  0.25643961  1
  Cr  Cr6  1  0.25000000  0.66043921  0.24356039  1
  Cr  Cr7  1  0.75000000  0.33956079  0.75643961  1
  Cr  Cr8  1  0.75000000  0.93589495  0.18353611  1
  Cr  Cr9  1  0.25000000  0.06410505  0.81646389  1
  Cr  Cr10  1  0.25000000  0.56410505  0.68353611  1
  Cr  Cr11  1  0.75000000  0.43589495  0.31646389  1
  Fe  Fe12  1  0.75000000  0.65682739  0.49559165  1
  Fe  Fe13  1  0.25000000  0.34317261  0.50440835  1
  Fe  Fe14  1  0.25000000  0.84317261  0.99559165  1
  Fe  Fe15  1  0.75000000  0.15682739  0.00440835  1
  O  O16  1  0.75000000  0.94681869  0.71290624  1
  O  O17  1  0.25000000  0.05318131  0.28709376  1
  O  O18  1  0.25000000  0.55318131  0.21290624  1
  O  O19  1  0.75000000  0.44681869  0.78709376  1
  O  O20  1  0.75000000  0.96320078  0.36192093  1
  O  O21  1  0.25000000  0.03679922  0.63807907  1
  O  O22  1  0.25000000  0.53679922  0.86192093  1
  O  O23  1  0.75000000  0.46320078  0.13807907  1
  O  O24  1  0.75000000  0.52753844  0.42411714  1
  O  O25  1  0.25000000  0.47246156  0.57588286  1
  O  O26  1  0.25000000  0.97246156  0.92411714  1
  O  O27  1  0.75000000  0.02753844  0.07588286  1
  O  O28  1  0.00120283  0.62643452  0.65018531  1
  O  O29  1  0.99879717  0.37356548  0.34981469  1
  O  O30  1  0.99879717  0.87356548  0.15018531  1
  O  O31  1  0.50120283  0.37356548  0.34981469  1
  O  O32  1  0.00120283  0.12643452  0.84981469  1
  O  O33  1  0.49879717  0.62643452  0.65018531  1
  O  O34  1  0.49879717  0.12643452  0.84981469  1
  O  O35  1  0.50120283  0.87356548  0.15018531  1
  O  O36  1  0.75000000  0.78517147  0.57557371  1
  O  O37  1  0.25000000  0.21482853  0.42442629  1
  O  O38  1  0.25000000  0.71482853  0.07557371  1
  O  O39  1  0.75000000  0.28517147  0.92442629  1
  O  O40  1  0.99562825  0.81089677  0.84337082  1
  O  O41  1  0.00437175  0.18910323  0.15662918  1
  O  O42  1  0.00437175  0.68910323  0.34337082  1
  O  O43  1  0.49562825  0.18910323  0.15662918  1
  O  O44  1  0.99562825  0.31089677  0.65662918  1
  O  O45  1  0.50437175  0.81089677  0.84337082  1
  O  O46  1  0.50437175  0.31089677  0.65662918  1
  O  O47  1  0.49562825  0.68910323  0.34337082  1
