# generated using pymatgen
data_Sr4Mn3BO10
_symmetry_space_group_name_H-M   'P 1'
_cell_length_a   3.83683256
_cell_length_b   7.79949827
_cell_length_c   8.89730230
_cell_angle_alpha   115.99590874
_cell_angle_beta   90.00000000
_cell_angle_gamma   90.00000000
_symmetry_Int_Tables_number   1
_chemical_formula_structural   Sr4Mn3BO10
_chemical_formula_sum   'Sr4 Mn3 B1 O10'
_cell_volume   239.31679079
_cell_formula_units_Z   1
loop_
 _symmetry_equiv_pos_site_id
 _symmetry_equiv_pos_as_xyz
  1  'x, y, z'
loop_
 _atom_site_type_symbol
 _atom_site_label
 _atom_site_symmetry_multiplicity
 _atom_site_fract_x
 _atom_site_fract_y
 _atom_site_fract_z
 _atom_site_occupancy
  Sr  Sr0  1  0.50000000  0.28499292  0.06149289  1
  Sr  Sr1  1  0.50000000  0.77649996  0.06149289  1
  Sr  Sr2  1  0.50000000  0.50416415  0.54267343  1
  Sr  Sr3  1  0.50000000  0.03850928  0.54267343  1
  Mn  Mn4  1  0.00000000  0.14907905  0.29815811  1
  Mn  Mn5  1  -0.00000000  0.64868637  0.29737274  1
  Mn  Mn6  1  0.00000000  0.39923930  0.79847860  1
  B  B7  1  0.00000000  0.91275713  0.82551426  1
  O  O8  1  -0.00000000  0.27939173  0.55878347  1
  O  O9  1  0.00000000  0.40232134  0.29882881  1
  O  O10  1  -0.00000000  0.89650747  0.29882881  1
  O  O11  1  0.50000000  0.40148078  0.80296157  1
  O  O12  1  0.50000000  0.13923716  0.27847432  1
  O  O13  1  0.50000000  0.67547768  0.35095535  1
  O  O14  1  -0.00000000  0.52015291  0.04030581  1
  O  O15  1  -0.00000000  0.00089935  0.00179869  1
  O  O16  1  -0.00000000  0.71384440  0.74220342  1
  O  O17  1  0.00000000  0.02835902  0.74220342  1
