# generated using pymatgen
data_RbYb(WO4)2
_symmetry_space_group_name_H-M   'P 1'
_cell_length_a   8.09009627
_cell_length_b   9.05705546
_cell_length_c   10.58584963
_cell_angle_alpha   90.00000000
_cell_angle_beta   90.00000000
_cell_angle_gamma   98.83516085
_symmetry_Int_Tables_number   1
_chemical_formula_structural   RbYb(WO4)2
_chemical_formula_sum   'Rb4 Yb4 W8 O32'
_cell_volume   766.44750908
_cell_formula_units_Z   4
loop_
 _symmetry_equiv_pos_site_id
 _symmetry_equiv_pos_as_xyz
  1  'x, y, z'
loop_
 _atom_site_type_symbol
 _atom_site_label
 _atom_site_symmetry_multiplicity
 _atom_site_fract_x
 _atom_site_fract_y
 _atom_site_fract_z
 _atom_site_occupancy
  Rb  Rb0  1  0.07184715  0.51211734  0.21303564  1
  Rb  Rb1  1  0.92815285  0.48788266  0.78696436  1
  Rb  Rb2  1  0.42815285  0.48788266  0.71303564  1
  Rb  Rb3  1  0.57184715  0.51211734  0.28696436  1
  Yb  Yb4  1  0.02432891  0.06076429  0.77315997  1
  Yb  Yb5  1  0.97567109  0.93923571  0.22684003  1
  Yb  Yb6  1  0.47567109  0.93923571  0.27315997  1
  Yb  Yb7  1  0.52432891  0.06076429  0.72684003  1
  W  W8  1  0.29176281  0.21899024  0.00528921  1
  W  W9  1  0.70823719  0.78100976  0.99471079  1
  W  W10  1  0.20823719  0.78100976  0.50528921  1
  W  W11  1  0.79176281  0.21899024  0.49471079  1
  W  W12  1  0.17655767  0.16123728  0.49056388  1
  W  W13  1  0.82344233  0.83876272  0.50943612  1
  W  W14  1  0.32344233  0.83876272  0.99056388  1
  W  W15  1  0.67655767  0.16123728  0.00943612  1
  O  O16  1  0.25396434  0.00505717  0.39773861  1
  O  O17  1  0.74603566  0.99494283  0.60226139  1
  O  O18  1  0.24603566  0.99494283  0.89773861  1
  O  O19  1  0.75396434  0.00505717  0.10226139  1
  O  O20  1  0.34999433  0.39300394  0.08776419  1
  O  O21  1  0.65000567  0.60699606  0.91223581  1
  O  O22  1  0.15000567  0.60699606  0.58776419  1
  O  O23  1  0.84999433  0.39300394  0.41223581  1
  O  O24  1  0.11766592  0.13609207  0.11091098  1
  O  O25  1  0.88233408  0.86390793  0.88908902  1
  O  O26  1  0.38233408  0.86390793  0.61091098  1
  O  O27  1  0.61766592  0.13609207  0.38908902  1
  O  O28  1  0.33124163  0.72672759  0.37176923  1
  O  O29  1  0.66875837  0.27327241  0.62823077  1
  O  O30  1  0.16875837  0.27327241  0.87176923  1
  O  O31  1  0.83124163  0.72672759  0.12823077  1
  O  O32  1  0.26606658  0.32700860  0.41182818  1
  O  O33  1  0.73393342  0.67299140  0.58817182  1
  O  O34  1  0.23393342  0.67299140  0.91182818  1
  O  O35  1  0.76606658  0.32700860  0.08817182  1
  O  O36  1  0.00342015  0.23041305  0.60225073  1
  O  O37  1  0.99657985  0.76958695  0.39774927  1
  O  O38  1  0.49657985  0.76958695  0.10225073  1
  O  O39  1  0.50342015  0.23041305  0.89774927  1
  O  O40  1  0.30167225  0.15436155  0.63581180  1
  O  O41  1  0.69832775  0.84563845  0.36418820  1
  O  O42  1  0.19832775  0.84563845  0.13581180  1
  O  O43  1  0.80167225  0.15436155  0.86418820  1
  O  O44  1  0.45207359  0.09238001  0.09822127  1
  O  O45  1  0.54792641  0.90761999  0.90177873  1
  O  O46  1  0.04792641  0.90761999  0.59822127  1
  O  O47  1  0.95207359  0.09238001  0.40177873  1
