# generated using pymatgen
data_MoW11O36
_symmetry_space_group_name_H-M   'P 1'
_cell_length_a   3.86144664
_cell_length_b   7.50697020
_cell_length_c   25.99736729
_cell_angle_alpha   90.00000000
_cell_angle_beta   90.00000000
_cell_angle_gamma   90.00000000
_symmetry_Int_Tables_number   1
_chemical_formula_structural   MoW11O36
_chemical_formula_sum   'Mo1 W11 O36'
_cell_volume   753.60556986
_cell_formula_units_Z   1
loop_
 _symmetry_equiv_pos_site_id
 _symmetry_equiv_pos_as_xyz
  1  'x, y, z'
loop_
 _atom_site_type_symbol
 _atom_site_label
 _atom_site_symmetry_multiplicity
 _atom_site_fract_x
 _atom_site_fract_y
 _atom_site_fract_z
 _atom_site_occupancy
  Mo  Mo0  1  0.00000000  -0.00000000  0.50000000  1
  W  W1  1  0.00000000  0.50000000  0.24898737  1
  W  W2  1  0.00000000  0.50000000  0.75101263  1
  W  W3  1  0.00000000  0.25055143  0.12408312  1
  W  W4  1  -0.00000000  0.74944857  0.87591688  1
  W  W5  1  -0.00000000  0.74944857  0.12408312  1
  W  W6  1  0.00000000  0.25055143  0.87591688  1
  W  W7  1  -0.00000000  0.00000000  0.00000000  1
  W  W8  1  0.00000000  0.24988446  0.37426361  1
  W  W9  1  -0.00000000  0.75011554  0.62573639  1
  W  W10  1  -0.00000000  0.75011554  0.37426361  1
  W  W11  1  0.00000000  0.24988446  0.62573639  1
  O  O12  1  0.00000000  0.50000000  0.10549317  1
  O  O13  1  0.00000000  0.50000000  0.89450683  1
  O  O14  1  0.00000000  0.00000000  0.14161869  1
  O  O15  1  -0.00000000  0.00000000  0.85838131  1
  O  O16  1  0.00000000  0.32076873  0.19569977  1
  O  O17  1  -0.00000000  0.67923127  0.80430023  1
  O  O18  1  -0.00000000  0.67923127  0.19569977  1
  O  O19  1  0.00000000  0.32076873  0.80430023  1
  O  O20  1  -0.00000000  0.17707755  0.44584946  1
  O  O21  1  0.00000000  0.82292245  0.55415054  1
  O  O22  1  0.00000000  0.82292245  0.44584946  1
  O  O23  1  -0.00000000  0.17707755  0.55415054  1
  O  O24  1  0.50000000  0.00000000  0.00000000  1
  O  O25  1  -0.00000000  0.50000000  0.39305957  1
  O  O26  1  -0.00000000  0.50000000  0.60694043  1
  O  O27  1  0.00000000  0.00000000  0.35592297  1
  O  O28  1  0.00000000  -0.00000000  0.64407703  1
  O  O29  1  -0.00000000  0.32058927  0.30252962  1
  O  O30  1  0.00000000  0.67941073  0.69747038  1
  O  O31  1  0.00000000  0.67941073  0.30252962  1
  O  O32  1  -0.00000000  0.32058927  0.69747038  1
  O  O33  1  -0.00000000  0.18067787  0.05280527  1
  O  O34  1  0.00000000  0.81932213  0.94719473  1
  O  O35  1  0.00000000  0.81932213  0.05280527  1
  O  O36  1  -0.00000000  0.18067787  0.94719473  1
  O  O37  1  0.50000000  0.24901108  0.37359744  1
  O  O38  1  0.50000000  0.75098892  0.62640256  1
  O  O39  1  0.50000000  0.75098892  0.37359744  1
  O  O40  1  0.50000000  0.24901108  0.62640256  1
  O  O41  1  0.50000000  0.50000000  0.24844931  1
  O  O42  1  0.50000000  0.50000000  0.75155069  1
  O  O43  1  0.50000000  0.25126977  0.12430673  1
  O  O44  1  0.50000000  0.74873023  0.87569327  1
  O  O45  1  0.50000000  0.74873023  0.12430673  1
  O  O46  1  0.50000000  0.25126977  0.87569327  1
  O  O47  1  0.50000000  -0.00000000  0.50000000  1
