# generated using pymatgen
data_Na2Fe2F7
_symmetry_space_group_name_H-M   'P 1'
_cell_length_a   7.37573289
_cell_length_b   7.55510690
_cell_length_c   7.55510690
_cell_angle_alpha   61.05340509
_cell_angle_beta   60.78232699
_cell_angle_gamma   60.78232699
_symmetry_Int_Tables_number   1
_chemical_formula_structural   Na2Fe2F7
_chemical_formula_sum   'Na4 Fe4 F14'
_cell_volume   303.54734559
_cell_formula_units_Z   2
loop_
 _symmetry_equiv_pos_site_id
 _symmetry_equiv_pos_as_xyz
  1  'x, y, z'
loop_
 _atom_site_type_symbol
 _atom_site_label
 _atom_site_symmetry_multiplicity
 _atom_site_fract_x
 _atom_site_fract_y
 _atom_site_fract_z
 _atom_site_occupancy
  Na  Na0  1  0.24762533  0.61545057  0.88929877  1
  Na  Na1  1  0.75237467  0.11070123  0.38454943  1
  Na  Na2  1  0.25086677  0.61225727  0.38774273  1
  Na  Na3  1  0.74913323  0.61225727  0.38774273  1
  Fe  Fe4  1  0.24918434  0.11293614  0.38869519  1
  Fe  Fe5  1  0.75081566  0.61130481  0.88706386  1
  Fe  Fe6  1  0.25043947  0.11220758  0.88779242  1
  Fe  Fe7  1  0.74956053  0.11220758  0.88779242  1
  F  F8  1  0.33883578  0.79388301  0.52844542  1
  F  F9  1  0.66116422  0.47155458  0.20611699  1
  F  F10  1  0.55799638  0.06152668  0.21255817  1
  F  F11  1  0.44200362  0.78744183  0.93847332  1
  F  F12  1  0.83208124  0.78744183  0.93847332  1
  F  F13  1  0.16791876  0.06152668  0.21255817  1
  F  F14  1  0.33233451  0.16271306  0.56280965  1
  F  F15  1  0.66766549  0.43719035  0.83728694  1
  F  F16  1  0.05785722  0.43719035  0.83728694  1
  F  F17  1  0.94214278  0.16271306  0.56280965  1
  F  F18  1  0.00000000  0.00500707  0.99499293  1
  F  F19  1  0.15975369  0.43159441  0.24889822  1
  F  F20  1  0.84024631  0.75110178  0.56840559  1
  F  F21  1  0.50000000  0.21929285  0.78070715  1
