# generated using pymatgen
data_MnH4NF3
_symmetry_space_group_name_H-M   'P 1'
_cell_length_a   6.03883469
_cell_length_b   6.01728575
_cell_length_c   8.72059564
_cell_angle_alpha   90.00000000
_cell_angle_beta   90.00000000
_cell_angle_gamma   90.00000000
_symmetry_Int_Tables_number   1
_chemical_formula_structural   MnH4NF3
_chemical_formula_sum   'Mn4 H16 N4 F12'
_cell_volume   316.88371905
_cell_formula_units_Z   4
loop_
 _symmetry_equiv_pos_site_id
 _symmetry_equiv_pos_as_xyz
  1  'x, y, z'
loop_
 _atom_site_type_symbol
 _atom_site_label
 _atom_site_symmetry_multiplicity
 _atom_site_fract_x
 _atom_site_fract_y
 _atom_site_fract_z
 _atom_site_occupancy
  Mn  Mn0  1  -0.00000000  -0.00000000  -0.00000000  1
  Mn  Mn1  1  0.50000000  0.50000000  -0.00000000  1
  Mn  Mn2  1  -0.00000000  -0.00000000  0.50000000  1
  Mn  Mn3  1  0.50000000  0.50000000  0.50000000  1
  H  H4  1  0.42257317  0.07134471  0.15309140  1
  H  H5  1  0.57742683  0.92865529  0.84690860  1
  H  H6  1  0.92257317  0.42865529  0.84690860  1
  H  H7  1  0.57742683  0.92865529  0.65309140  1
  H  H8  1  0.07742683  0.57134471  0.15309140  1
  H  H9  1  0.42257317  0.07134471  0.34690860  1
  H  H10  1  0.07742683  0.57134471  0.34690860  1
  H  H11  1  0.92257317  0.42865529  0.65309140  1
  H  H12  1  0.02094784  0.33185578  0.25000000  1
  H  H13  1  0.97905216  0.66814422  0.75000000  1
  H  H14  1  0.52094784  0.16814422  0.75000000  1
  H  H15  1  0.47905216  0.83185578  0.25000000  1
  H  H16  1  0.66541431  0.03578521  0.25000000  1
  H  H17  1  0.33458569  0.96421479  0.75000000  1
  H  H18  1  0.16541431  0.46421479  0.75000000  1
  H  H19  1  0.83458569  0.53578521  0.25000000  1
  N  N20  1  0.00319796  0.50262617  0.25000000  1
  N  N21  1  0.99680204  0.49737383  0.75000000  1
  N  N22  1  0.50319796  0.99737383  0.75000000  1
  N  N23  1  0.49680204  0.00262617  0.25000000  1
  F  F24  1  0.52522403  0.52411610  0.25000000  1
  F  F25  1  0.47477597  0.47588390  0.75000000  1
  F  F26  1  0.02522403  0.97588390  0.75000000  1
  F  F27  1  0.97477597  0.02411610  0.25000000  1
  F  F28  1  0.27633054  0.22434813  0.01269799  1
  F  F29  1  0.72366946  0.77565187  0.98730201  1
  F  F30  1  0.77633054  0.27565187  0.98730201  1
  F  F31  1  0.72366946  0.77565187  0.51269799  1
  F  F32  1  0.22366946  0.72434813  0.01269799  1
  F  F33  1  0.27633054  0.22434813  0.48730201  1
  F  F34  1  0.22366946  0.72434813  0.48730201  1
  F  F35  1  0.77633054  0.27565187  0.51269799  1
