# generated using pymatgen
data_Nd2Sn3(PbS4)3
_symmetry_space_group_name_H-M   'P 1'
_cell_length_a   3.98980848
_cell_length_b   11.73732019
_cell_length_c   20.60729963
_cell_angle_alpha   90.00000000
_cell_angle_beta   90.00000000
_cell_angle_gamma   90.00000000
_symmetry_Int_Tables_number   1
_chemical_formula_structural   Nd2Sn3(PbS4)3
_chemical_formula_sum   'Nd4 Sn6 Pb6 S24'
_cell_volume   965.03282749
_cell_formula_units_Z   2
loop_
 _symmetry_equiv_pos_site_id
 _symmetry_equiv_pos_as_xyz
  1  'x, y, z'
loop_
 _atom_site_type_symbol
 _atom_site_label
 _atom_site_symmetry_multiplicity
 _atom_site_fract_x
 _atom_site_fract_y
 _atom_site_fract_z
 _atom_site_occupancy
  Nd  Nd0  1  0.50000000  0.65077609  0.41248621  1
  Nd  Nd1  1  0.50000000  0.15077609  0.58751379  1
  Nd  Nd2  1  0.50000000  0.82465294  0.89450265  1
  Nd  Nd3  1  0.50000000  0.32465294  0.10549735  1
  Sn  Sn4  1  0.00000000  0.00147949  0.74988465  1
  Sn  Sn5  1  0.00000000  0.50147949  0.25011535  1
  Sn  Sn6  1  -0.00000000  0.51809797  0.91149061  1
  Sn  Sn7  1  -0.00000000  0.01809797  0.08850939  1
  Sn  Sn8  1  0.00000000  0.99466467  0.42405220  1
  Sn  Sn9  1  -0.00000000  0.49466467  0.57594780  1
  Pb  Pb10  1  0.50000000  0.40335782  0.74299465  1
  Pb  Pb11  1  0.50000000  0.90335782  0.25700535  1
  Pb  Pb12  1  0.50000000  0.19820878  0.91305038  1
  Pb  Pb13  1  0.50000000  0.69820878  0.08694962  1
  Pb  Pb14  1  0.50000000  0.77081252  0.62322453  1
  Pb  Pb15  1  0.50000000  0.27081252  0.37677547  1
  S  S16  1  -0.00000000  0.99659596  0.87433059  1
  S  S17  1  -0.00000000  0.49659596  0.12566941  1
  S  S18  1  0.00000000  0.98070855  0.62723134  1
  S  S19  1  0.00000000  0.48070855  0.37276866  1
  S  S20  1  -0.00000000  0.68316449  0.51321179  1
  S  S21  1  -0.00000000  0.18316449  0.48678821  1
  S  S22  1  0.50000000  0.64484602  0.25735386  1
  S  S23  1  0.50000000  0.14484602  0.74264614  1
  S  S24  1  0.50000000  0.85171376  0.75575692  1
  S  S25  1  0.50000000  0.35171376  0.24424308  1
  S  S26  1  0.50000000  0.59794847  0.84107007  1
  S  S27  1  0.50000000  0.09794847  0.15892993  1
  S  S28  1  0.50000000  0.43959372  0.98128425  1
  S  S29  1  0.50000000  0.93959372  0.01871575  1
  S  S30  1  0.50000000  0.93434782  0.48841317  1
  S  S31  1  0.50000000  0.43434782  0.51158683  1
  S  S32  1  -0.00000000  0.33808761  0.84284257  1
  S  S33  1  -0.00000000  0.83808761  0.15715743  1
  S  S34  1  -0.00000000  0.70922613  0.97129627  1
  S  S35  1  0.00000000  0.20922613  0.02870373  1
  S  S36  1  0.00000000  0.80862726  0.35791955  1
  S  S37  1  0.00000000  0.30862726  0.64208045  1
  S  S38  1  0.00000000  0.60238991  0.67746646  1
  S  S39  1  -0.00000000  0.10238991  0.32253354  1
