# generated using pymatgen
data_Li3Sm2(BO3)3
_symmetry_space_group_name_H-M   'P 1'
_cell_length_a   5.77384141
_cell_length_b   8.83961264
_cell_length_c   14.16941977
_cell_angle_alpha   90.00000000
_cell_angle_beta   90.00000000
_cell_angle_gamma   103.86736003
_symmetry_Int_Tables_number   1
_chemical_formula_structural   Li3Sm2(BO3)3
_chemical_formula_sum   'Li12 Sm8 B12 O36'
_cell_volume   702.10765356
_cell_formula_units_Z   4
loop_
 _symmetry_equiv_pos_site_id
 _symmetry_equiv_pos_as_xyz
  1  'x, y, z'
loop_
 _atom_site_type_symbol
 _atom_site_label
 _atom_site_symmetry_multiplicity
 _atom_site_fract_x
 _atom_site_fract_y
 _atom_site_fract_z
 _atom_site_occupancy
  Li  Li0  1  0.07277338  0.98227388  0.66514724  1
  Li  Li1  1  0.92722662  0.01772612  0.33485276  1
  Li  Li2  1  0.42722662  0.51772612  0.16514724  1
  Li  Li3  1  0.57277338  0.48227388  0.83485276  1
  Li  Li4  1  0.80007928  0.70673025  0.21734207  1
  Li  Li5  1  0.19992072  0.29326975  0.78265793  1
  Li  Li6  1  0.69992072  0.79326975  0.71734207  1
  Li  Li7  1  0.30007928  0.20673025  0.28265793  1
  Li  Li8  1  0.14550429  0.70847235  0.10394691  1
  Li  Li9  1  0.85449571  0.29152765  0.89605309  1
  Li  Li10  1  0.35449571  0.79152765  0.60394691  1
  Li  Li11  1  0.64550429  0.20847235  0.39605309  1
  Sm  Sm12  1  0.36421091  0.80717304  0.33497405  1
  Sm  Sm13  1  0.63578909  0.19282696  0.66502595  1
  Sm  Sm14  1  0.13578909  0.69282696  0.83497405  1
  Sm  Sm15  1  0.86421091  0.30717304  0.16502595  1
  Sm  Sm16  1  0.81107798  0.65931920  0.49563883  1
  Sm  Sm17  1  0.18892202  0.34068080  0.50436117  1
  Sm  Sm18  1  0.68892202  0.84068080  0.99563883  1
  Sm  Sm19  1  0.31107798  0.15931920  0.00436117  1
  B  B20  1  0.75051054  0.51423524  0.01579402  1
  B  B21  1  0.24948946  0.48576476  0.98420598  1
  B  B22  1  0.74948946  0.98576476  0.51579402  1
  B  B23  1  0.25051054  0.01423524  0.48420598  1
  B  B24  1  0.08442553  0.97320361  0.16341522  1
  B  B25  1  0.91557447  0.02679639  0.83658478  1
  B  B26  1  0.41557447  0.52679639  0.66341522  1
  B  B27  1  0.58442553  0.47320361  0.33658478  1
  B  B28  1  0.58951224  0.97904871  0.17525952  1
  B  B29  1  0.41048776  0.02095129  0.82474048  1
  B  B30  1  0.91048776  0.52095129  0.67525952  1
  B  B31  1  0.08951224  0.47904871  0.32474048  1
  O  O32  1  0.77396992  0.58629988  0.10268282  1
  O  O33  1  0.22603008  0.41370012  0.89731718  1
  O  O34  1  0.72603008  0.91370012  0.60268282  1
  O  O35  1  0.27396992  0.08629988  0.39731718  1
  O  O36  1  0.11053249  0.56766544  0.40699226  1
  O  O37  1  0.88946751  0.43233456  0.59300774  1
  O  O38  1  0.38946751  0.93233456  0.90699226  1
  O  O39  1  0.61053249  0.06766544  0.09300774  1
  O  O40  1  0.06431024  0.88313422  0.24387793  1
  O  O41  1  0.93568976  0.11686578  0.75612207  1
  O  O42  1  0.43568976  0.61686578  0.74387793  1
  O  O43  1  0.56431024  0.38313422  0.25612207  1
  O  O44  1  0.71132833  0.89562174  0.43452549  1
  O  O45  1  0.28867167  0.10437826  0.56547451  1
  O  O46  1  0.78867167  0.60437826  0.93452549  1
  O  O47  1  0.21132833  0.39562174  0.06547451  1
  O  O48  1  0.06503737  0.90716177  0.07397921  1
  O  O49  1  0.93496263  0.09283823  0.92602079  1
  O  O50  1  0.43496263  0.59283823  0.57397921  1
  O  O51  1  0.56503737  0.40716177  0.42602079  1
  O  O52  1  0.52946035  0.81776546  0.16778930  1
  O  O53  1  0.47053965  0.18223454  0.83221070  1
  O  O54  1  0.97053965  0.68223454  0.66778930  1
  O  O55  1  0.02946035  0.31776546  0.33221070  1
  O  O56  1  0.19206596  0.85272263  0.48908188  1
  O  O57  1  0.80793404  0.14727737  0.51091812  1
  O  O58  1  0.30793404  0.64727737  0.98908188  1
  O  O59  1  0.69206596  0.35272263  0.01091812  1
  O  O60  1  0.13665109  0.55336378  0.23858474  1
  O  O61  1  0.86334891  0.44663622  0.76141526  1
  O  O62  1  0.36334891  0.94663622  0.73858474  1
  O  O63  1  0.63665109  0.05336378  0.26141526  1
  O  O64  1  0.63202548  0.63465216  0.33326479  1
  O  O65  1  0.36797452  0.36534784  0.66673521  1
  O  O66  1  0.86797452  0.86534784  0.83326479  1
  O  O67  1  0.13202548  0.13465216  0.16673521  1
