# generated using pymatgen
data_Na3SmV2O8
_symmetry_space_group_name_H-M   'P 1'
_cell_length_a   5.63772841
_cell_length_b   14.35106642
_cell_length_c   14.96922246
_cell_angle_alpha   91.32282769
_cell_angle_beta   100.85421110
_cell_angle_gamma   90.00000000
_symmetry_Int_Tables_number   1
_chemical_formula_structural   Na3SmV2O8
_chemical_formula_sum   'Na18 Sm6 V12 O48'
_cell_volume   1189.12489538
_cell_formula_units_Z   6
loop_
 _symmetry_equiv_pos_site_id
 _symmetry_equiv_pos_as_xyz
  1  'x, y, z'
loop_
 _atom_site_type_symbol
 _atom_site_label
 _atom_site_symmetry_multiplicity
 _atom_site_fract_x
 _atom_site_fract_y
 _atom_site_fract_z
 _atom_site_occupancy
  Na  Na0  1  0.70810077  0.41728577  0.42059252  1
  Na  Na1  1  0.71249175  0.91728577  0.42059252  1
  Na  Na2  1  0.82088864  0.32761313  0.67515297  1
  Na  Na3  1  0.85426432  0.82761313  0.67515297  1
  Na  Na4  1  0.66631044  0.07534350  0.22100903  1
  Na  Na5  1  0.55469859  0.57534350  0.22100903  1
  Na  Na6  1  0.45622207  0.23518792  0.00629777  1
  Na  Na7  1  0.55007570  0.73518792  0.00629777  1
  Na  Na8  1  0.94685626  0.00860715  0.87804635  1
  Na  Na9  1  0.93119009  0.50860715  0.87804635  1
  Na  Na10  1  0.39247922  0.39092714  0.80376956  1
  Na  Na11  1  0.41129034  0.89092714  0.80376956  1
  Na  Na12  1  0.06655312  0.15405375  0.11710172  1
  Na  Na13  1  0.05054860  0.65405375  0.11710172  1
  Na  Na14  1  0.28439079  0.47424357  0.55666580  1
  Na  Na15  1  0.27227500  0.97424357  0.55666580  1
  Na  Na16  1  0.19276724  0.29498396  0.35833315  1
  Na  Na17  1  0.16556591  0.79498396  0.35833315  1
  Sm  Sm18  1  0.42119634  0.63522701  0.76050072  1
  Sm  Sm19  1  0.33930438  0.13522701  0.76050072  1
  Sm  Sm20  1  0.95772512  0.40065363  0.11515277  1
  Sm  Sm21  1  0.15742765  0.90065363  0.11515277  1
  Sm  Sm22  1  0.77138213  0.16957991  0.46605387  1
  Sm  Sm23  1  0.69467175  0.66957991  0.46605387  1
  V  V24  1  0.29945195  0.25226604  0.57128928  1
  V  V25  1  0.27183733  0.75226604  0.57128928  1
  V  V26  1  0.91456554  0.25795462  0.89059352  1
  V  V27  1  0.97602798  0.75795462  0.89059352  1
  V  V28  1  0.81920379  0.04913019  0.65356056  1
  V  V29  1  0.83435677  0.54913019  0.65356056  1
  V  V30  1  0.19981467  0.04824904  0.33598400  1
  V  V31  1  0.13616933  0.54824904  0.33598400  1
  V  V32  1  0.57039158  0.30785685  0.22914636  1
  V  V33  1  0.65875478  0.80785685  0.22914636  1
  V  V34  1  0.54866661  0.00220086  0.99944090  1
  V  V35  1  0.45077429  0.50220086  0.99944090  1
  O  O36  1  0.07092447  0.16157469  0.85730149  1
  O  O37  1  0.78637702  0.66157469  0.85730149  1
  O  O38  1  0.57964731  0.01805727  0.70469861  1
  O  O39  1  0.12505130  0.51805727  0.70469861  1
  O  O40  1  0.59075089  0.39372758  0.00677840  1
  O  O41  1  0.41602752  0.89372758  0.00677840  1
  O  O42  1  0.54027184  0.28943248  0.52282777  1
  O  O43  1  0.98255594  0.78943248  0.52282777  1
  O  O44  1  0.68551098  0.41856338  0.21930299  1
  O  O45  1  0.53379201  0.91856338  0.21930299  1
  O  O46  1  0.98315400  0.35382145  0.83315288  1
  O  O47  1  0.84999888  0.85382145  0.83315288  1
  O  O48  1  0.86738870  0.16787718  0.65670809  1
  O  O49  1  0.78931939  0.66787718  0.65670809  1
  O  O50  1  0.41536719  0.07526947  0.06864494  1
  O  O51  1  0.65327775  0.57526947  0.06864494  1
  O  O52  1  0.12714917  0.52636931  0.21964124  1
  O  O53  1  0.09249207  0.02636931  0.21964124  1
  O  O54  1  0.64547608  0.27612871  0.34242357  1
  O  O55  1  0.69694749  0.77612871  0.34242357  1
  O  O56  1  0.33296773  0.64258739  0.36686968  1
  O  O57  1  0.03390195  0.14258739  0.36686968  1
  O  O58  1  0.25237342  0.30371455  0.19778636  1
  O  O59  1  0.94541294  0.80371455  0.19778636  1
  O  O60  1  0.50835539  0.07754999  0.35897325  1
  O  O61  1  0.85061786  0.57754999  0.35897325  1
  O  O62  1  0.27010127  0.13315354  0.56624713  1
  O  O63  1  0.29614585  0.63315354  0.56624713  1
  O  O64  1  0.03701255  0.30140973  0.51105593  1
  O  O65  1  0.47404338  0.80140973  0.51105593  1
  O  O66  1  0.76720549  0.01917958  0.53786026  1
  O  O67  1  0.77065476  0.51917958  0.53786026  1
  O  O68  1  0.47994851  0.03458079  0.88589065  1
  O  O69  1  0.40594213  0.53458079  0.88589065  1
  O  O70  1  0.60278618  0.23523194  0.86269219  1
  O  O71  1  0.25990601  0.73523194  0.86269219  1
  O  O72  1  0.25083392  0.45332150  0.39776415  1
  O  O73  1  0.14693022  0.95332150  0.39776415  1
  O  O74  1  0.62910072  0.49651585  0.71118497  1
  O  O75  1  0.08208425  0.99651585  0.71118497  1
  O  O76  1  0.01712786  0.27542203  0.00790345  1
  O  O77  1  0.99077559  0.77542203  0.00790345  1
  O  O78  1  0.71467302  0.23999651  0.15869558  1
  O  O79  1  0.44402256  0.73999651  0.15869558  1
  O  O80  1  0.16550511  0.49881100  0.03199955  1
  O  O81  1  0.86649444  0.99881100  0.03199955  1
  O  O82  1  0.33962864  0.78314005  0.68676602  1
  O  O83  1  0.34713739  0.28314005  0.68676602  1
