# generated using pymatgen
data_La7V2BO17
_symmetry_space_group_name_H-M   'P 1'
_cell_length_a   7.10451586
_cell_length_b   12.88159023
_cell_length_c   18.41837916
_cell_angle_alpha   90.00000000
_cell_angle_beta   90.00000000
_cell_angle_gamma   97.27430735
_symmetry_Int_Tables_number   1
_chemical_formula_structural   La7V2BO17
_chemical_formula_sum   'La28 V8 B4 O68'
_cell_volume   1672.03643651
_cell_formula_units_Z   4
loop_
 _symmetry_equiv_pos_site_id
 _symmetry_equiv_pos_as_xyz
  1  'x, y, z'
loop_
 _atom_site_type_symbol
 _atom_site_label
 _atom_site_symmetry_multiplicity
 _atom_site_fract_x
 _atom_site_fract_y
 _atom_site_fract_z
 _atom_site_occupancy
  La  La0  1  0.02215904  0.82086086  0.27669486  1
  La  La1  1  0.97784096  0.17913914  0.72330514  1
  La  La2  1  0.47784096  0.67913914  0.77669486  1
  La  La3  1  0.52215904  0.32086086  0.22330514  1
  La  La4  1  0.78305078  0.56340903  0.13110559  1
  La  La5  1  0.21694922  0.43659097  0.86889441  1
  La  La6  1  0.71694922  0.93659097  0.63110559  1
  La  La7  1  0.28305078  0.06340903  0.36889441  1
  La  La8  1  0.49617603  0.80247954  0.39263457  1
  La  La9  1  0.50382397  0.19752046  0.60736543  1
  La  La10  1  0.00382397  0.69752046  0.89263457  1
  La  La11  1  0.99617603  0.30247954  0.10736543  1
  La  La12  1  0.19252558  0.90365717  0.72651283  1
  La  La13  1  0.80747442  0.09634283  0.27348717  1
  La  La14  1  0.30747442  0.59634283  0.22651283  1
  La  La15  1  0.69252558  0.40365717  0.77348717  1
  La  La16  1  0.77630336  0.48527447  0.55319659  1
  La  La17  1  0.22369664  0.51472553  0.44680341  1
  La  La18  1  0.72369664  0.01472553  0.05319659  1
  La  La19  1  0.27630336  0.98527447  0.94680341  1
  La  La20  1  0.99314906  0.79063879  0.48021150  1
  La  La21  1  0.00685094  0.20936121  0.51978850  1
  La  La22  1  0.50685094  0.70936121  0.98021150  1
  La  La23  1  0.49314906  0.29063879  0.01978850  1
  La  La24  1  0.76035803  0.57386638  0.34518781  1
  La  La25  1  0.23964197  0.42613362  0.65481219  1
  La  La26  1  0.73964197  0.92613362  0.84518781  1
  La  La27  1  0.26035803  0.07386638  0.15481219  1
  V  V28  1  0.54701437  0.83663420  0.19754510  1
  V  V29  1  0.45298563  0.16336580  0.80245490  1
  V  V30  1  0.95298563  0.66336580  0.69754510  1
  V  V31  1  0.04701437  0.33663420  0.30245490  1
  V  V32  1  0.03758311  0.81668534  0.06310312  1
  V  V33  1  0.96241689  0.18331466  0.93689688  1
  V  V34  1  0.46241689  0.68331466  0.56310312  1
  V  V35  1  0.53758311  0.31668534  0.43689688  1
  B  B36  1  0.25057034  0.99900195  0.56923265  1
  B  B37  1  0.74942966  0.00099805  0.43076735  1
  B  B38  1  0.24942966  0.50099805  0.06923265  1
  B  B39  1  0.75057034  0.49900195  0.93076735  1
  O  O40  1  0.47172949  0.91070688  0.12758161  1
  O  O41  1  0.52827051  0.08929312  0.87241839  1
  O  O42  1  0.02827051  0.58929312  0.62758161  1
  O  O43  1  0.97172949  0.41070688  0.37241839  1
  O  O44  1  0.40080180  0.99884742  0.62084987  1
  O  O45  1  0.59919820  0.00115258  0.37915013  1
  O  O46  1  0.09919820  0.50115258  0.12084987  1
  O  O47  1  0.90080180  0.49884742  0.87915013  1
  O  O48  1  0.60814236  0.50831256  0.23148754  1
  O  O49  1  0.39185764  0.49168744  0.76851246  1
  O  O50  1  0.89185764  0.99168744  0.73148754  1
  O  O51  1  0.10814236  0.00831256  0.26851246  1
  O  O52  1  0.80699184  0.75817964  0.36806009  1
  O  O53  1  0.19300816  0.24182036  0.63193991  1
  O  O54  1  0.69300816  0.74182036  0.86806009  1
  O  O55  1  0.30699184  0.25817964  0.13193991  1
  O  O56  1  0.08429882  0.95393179  0.06456593  1
  O  O57  1  0.91570118  0.04606821  0.93543407  1
  O  O58  1  0.41570118  0.54606821  0.56456593  1
  O  O59  1  0.58429882  0.45393179  0.43543407  1
  O  O60  1  0.04971140  0.75566062  0.14496514  1
  O  O61  1  0.95028860  0.24433938  0.85503486  1
  O  O62  1  0.45028860  0.74433938  0.64496514  1
  O  O63  1  0.54971140  0.25566062  0.35503486  1
  O  O64  1  0.08433311  0.87961987  0.85518940  1
  O  O65  1  0.91566689  0.12038013  0.14481060  1
  O  O66  1  0.41566689  0.62038013  0.35518940  1
  O  O67  1  0.58433311  0.37961987  0.64481060  1
  O  O68  1  0.36586692  0.80003912  0.26122043  1
  O  O69  1  0.63413308  0.19996088  0.73877957  1
  O  O70  1  0.13413308  0.69996088  0.76122043  1
  O  O71  1  0.86586692  0.30003912  0.23877957  1
  O  O72  1  0.96173357  0.59679905  0.45771999  1
  O  O73  1  0.03826643  0.40320095  0.54228001  1
  O  O74  1  0.53826643  0.90320095  0.95771999  1
  O  O75  1  0.46173357  0.09679905  0.04228001  1
  O  O76  1  0.18864379  0.77432305  0.99673051  1
  O  O77  1  0.81135621  0.22567695  0.00326949  1
  O  O78  1  0.31135621  0.72567695  0.49673051  1
  O  O79  1  0.68864379  0.27432305  0.50326949  1
  O  O80  1  0.89093094  0.78193818  0.66994266  1
  O  O81  1  0.10906906  0.21806182  0.33005734  1
  O  O82  1  0.60906906  0.71806182  0.16994266  1
  O  O83  1  0.39093094  0.28193818  0.83005734  1
  O  O84  1  0.19464917  0.87537782  0.39000718  1
  O  O85  1  0.80535083  0.12462218  0.60999282  1
  O  O86  1  0.30535083  0.62462218  0.89000718  1
  O  O87  1  0.69464917  0.37537782  0.10999282  1
  O  O88  1  0.81062515  0.79420668  0.02973918  1
  O  O89  1  0.18937485  0.20579332  0.97026082  1
  O  O90  1  0.68937485  0.70579332  0.52973918  1
  O  O91  1  0.31062515  0.29420668  0.47026082  1
  O  O92  1  0.09126300  0.92713062  0.57976090  1
  O  O93  1  0.90873700  0.07286938  0.42023910  1
  O  O94  1  0.40873700  0.57286938  0.07976090  1
  O  O95  1  0.59126300  0.42713062  0.92023910  1
  O  O96  1  0.72761318  0.92281609  0.48362380  1
  O  O97  1  0.27238682  0.07718391  0.51637620  1
  O  O98  1  0.77238682  0.57718391  0.98362380  1
  O  O99  1  0.22761318  0.42281609  0.01637620  1
  O  O100  1  0.99814552  0.62574175  0.26033431  1
  O  O101  1  0.00185448  0.37425825  0.73966569  1
  O  O102  1  0.50185448  0.87425825  0.76033431  1
  O  O103  1  0.49814552  0.12574175  0.23966569  1
  O  O104  1  0.75834618  0.59184855  0.73893513  1
  O  O105  1  0.24165382  0.40815145  0.26106487  1
  O  O106  1  0.74165382  0.90815145  0.23893513  1
  O  O107  1  0.25834618  0.09184855  0.76106487  1
