# generated using pymatgen
data_Cu3B7ClO13
_symmetry_space_group_name_H-M   'P 1'
_cell_length_a   8.51118313
_cell_length_b   8.56687286
_cell_length_c   12.06592707
_cell_angle_alpha   90.00000000
_cell_angle_beta   90.00000000
_cell_angle_gamma   90.00000000
_symmetry_Int_Tables_number   1
_chemical_formula_structural   Cu3B7ClO13
_chemical_formula_sum   'Cu12 B28 Cl4 O52'
_cell_volume   879.77770629
_cell_formula_units_Z   4
loop_
 _symmetry_equiv_pos_site_id
 _symmetry_equiv_pos_as_xyz
  1  'x, y, z'
loop_
 _atom_site_type_symbol
 _atom_site_label
 _atom_site_symmetry_multiplicity
 _atom_site_fract_x
 _atom_site_fract_y
 _atom_site_fract_z
 _atom_site_occupancy
  Cu  Cu0  1  0.24977170  0.74184616  0.88130779  1
  Cu  Cu1  1  0.75022830  0.25815384  0.38130779  1
  Cu  Cu2  1  0.75022830  0.24184616  0.88130779  1
  Cu  Cu3  1  0.24977170  0.75815384  0.38130779  1
  Cu  Cu4  1  0.97132227  0.48374280  0.65521587  1
  Cu  Cu5  1  0.02867773  0.51625720  0.15521587  1
  Cu  Cu6  1  0.02867773  0.98374280  0.65521587  1
  Cu  Cu7  1  0.97132227  0.01625720  0.15521587  1
  Cu  Cu8  1  0.47147140  0.98478968  0.65675785  1
  Cu  Cu9  1  0.52852860  0.01521032  0.15675785  1
  Cu  Cu10  1  0.52852860  0.48478968  0.65675785  1
  Cu  Cu11  1  0.47147140  0.51521032  0.15675785  1
  B  B12  1  0.74936042  0.90733831  0.97818972  1
  B  B13  1  0.25063958  0.09266169  0.47818972  1
  B  B14  1  0.25063958  0.40733831  0.97818972  1
  B  B15  1  0.74936042  0.59266169  0.47818972  1
  B  B16  1  0.59435788  0.75252890  0.82443353  1
  B  B17  1  0.40564212  0.24747110  0.32443353  1
  B  B18  1  0.40564212  0.25252890  0.82443353  1
  B  B19  1  0.59435788  0.74747110  0.32443353  1
  B  B20  1  0.74945894  0.95661777  0.50687048  1
  B  B21  1  0.25054106  0.04338223  0.00687048  1
  B  B22  1  0.25054106  0.45661777  0.50687048  1
  B  B23  1  0.74945894  0.54338223  0.00687048  1
  B  B24  1  0.74630573  0.75569777  0.65215384  1
  B  B25  1  0.25369427  0.24430223  0.15215384  1
  B  B26  1  0.25369427  0.25569777  0.65215384  1
  B  B27  1  0.74630573  0.74430223  0.15215384  1
  B  B28  1  0.99665410  0.49899566  0.90451425  1
  B  B29  1  0.00334590  0.50100434  0.40451425  1
  B  B30  1  0.00334590  0.99899566  0.90451425  1
  B  B31  1  0.99665410  0.00100434  0.40451425  1
  B  B32  1  0.90462400  0.75301292  0.82348161  1
  B  B33  1  0.09537600  0.24698708  0.32348161  1
  B  B34  1  0.09537600  0.25301292  0.82348161  1
  B  B35  1  0.90462400  0.74698708  0.32348161  1
  B  B36  1  0.49662070  0.99888915  0.90463579  1
  B  B37  1  0.50337930  0.00111085  0.40463579  1
  B  B38  1  0.50337930  0.49888915  0.90463579  1
  B  B39  1  0.49662070  0.50111085  0.40463579  1
  Cl  Cl40  1  0.75104644  0.27562175  0.66614095  1
  Cl  Cl41  1  0.24895356  0.72437825  0.16614095  1
  Cl  Cl42  1  0.24895356  0.77562175  0.66614095  1
  Cl  Cl43  1  0.75104644  0.22437825  0.16614095  1
  O  O44  1  0.47059383  0.83064697  0.88512064  1
  O  O45  1  0.52940617  0.16935303  0.38512064  1
  O  O46  1  0.52940617  0.33064697  0.88512064  1
  O  O47  1  0.47059383  0.66935303  0.38512064  1
  O  O48  1  0.91091258  0.94883449  0.00112804  1
  O  O49  1  0.08908742  0.05116551  0.50112804  1
  O  O50  1  0.08908742  0.44883449  0.00112804  1
  O  O51  1  0.91091258  0.55116551  0.50112804  1
  O  O52  1  0.67036194  0.64015129  0.57984048  1
  O  O53  1  0.32963806  0.35984871  0.07984048  1
  O  O54  1  0.32963806  0.14015129  0.57984048  1
  O  O55  1  0.67036194  0.85984871  0.07984048  1
  O  O56  1  0.75078109  0.76858443  0.89425974  1
  O  O57  1  0.24921891  0.23141557  0.39425974  1
  O  O58  1  0.24921891  0.26858443  0.89425974  1
  O  O59  1  0.75078109  0.73141557  0.39425974  1
  O  O60  1  0.62475365  0.83129848  0.71984772  1
  O  O61  1  0.37524635  0.16870152  0.21984772  1
  O  O62  1  0.37524635  0.33129848  0.71984772  1
  O  O63  1  0.62475365  0.66870152  0.21984772  1
  O  O64  1  0.97799517  0.16622870  0.88591004  1
  O  O65  1  0.02200483  0.83377130  0.38591004  1
  O  O66  1  0.02200483  0.66622870  0.88591004  1
  O  O67  1  0.97799517  0.33377130  0.38591004  1
  O  O68  1  0.83066464  0.88017351  0.58902499  1
  O  O69  1  0.16933536  0.11982649  0.08902499  1
  O  O70  1  0.16933536  0.38017351  0.58902499  1
  O  O71  1  0.83066464  0.61982649  0.08902499  1
  O  O72  1  0.86274457  0.67590324  0.72124738  1
  O  O73  1  0.13725543  0.32409676  0.22124738  1
  O  O74  1  0.13725543  0.17590324  0.72124738  1
  O  O75  1  0.86274457  0.82409676  0.22124738  1
  O  O76  1  0.58826094  0.96025005  0.50918828  1
  O  O77  1  0.41173906  0.03974995  0.00918828  1
  O  O78  1  0.41173906  0.46025005  0.50918828  1
  O  O79  1  0.58826094  0.53974995  0.00918828  1
  O  O80  1  0.33691908  0.53278555  0.92419305  1
  O  O81  1  0.66308092  0.46721445  0.42419305  1
  O  O82  1  0.66308092  0.03278555  0.92419305  1
  O  O83  1  0.33691908  0.96721445  0.42419305  1
  O  O84  1  0.55973733  0.58820947  0.80936153  1
  O  O85  1  0.44026267  0.41179053  0.30936153  1
  O  O86  1  0.44026267  0.08820947  0.80936153  1
  O  O87  1  0.55973733  0.91179053  0.30936153  1
  O  O88  1  0.95815144  0.91294387  0.80417921  1
  O  O89  1  0.04184856  0.08705613  0.30417921  1
  O  O90  1  0.04184856  0.41294387  0.80417921  1
  O  O91  1  0.95815144  0.58705613  0.30417921  1
  O  O92  1  0.82955312  0.45930747  0.92779723  1
  O  O93  1  0.17044688  0.54069253  0.42779723  1
  O  O94  1  0.17044688  0.95930747  0.92779723  1
  O  O95  1  0.82955312  0.04069253  0.42779723  1
