# generated using pymatgen
data_Gd3VGeO9
_symmetry_space_group_name_H-M   'P 1'
_cell_length_a   6.97825742
_cell_length_b   9.29533102
_cell_length_c   12.36757356
_cell_angle_alpha   90.00000000
_cell_angle_beta   90.00000000
_cell_angle_gamma   107.74704520
_symmetry_Int_Tables_number   1
_chemical_formula_structural   Gd3VGeO9
_chemical_formula_sum   'Gd12 V4 Ge4 O36'
_cell_volume   764.04860696
_cell_formula_units_Z   4
loop_
 _symmetry_equiv_pos_site_id
 _symmetry_equiv_pos_as_xyz
  1  'x, y, z'
loop_
 _atom_site_type_symbol
 _atom_site_label
 _atom_site_symmetry_multiplicity
 _atom_site_fract_x
 _atom_site_fract_y
 _atom_site_fract_z
 _atom_site_occupancy
  Gd  Gd0  1  0.67307671  0.62280944  0.36922620  1
  Gd  Gd1  1  0.32692329  0.37719056  0.63077380  1
  Gd  Gd2  1  0.82692329  0.87719056  0.86922620  1
  Gd  Gd3  1  0.17307671  0.12280944  0.13077380  1
  Gd  Gd4  1  0.23992118  0.84486283  0.36499772  1
  Gd  Gd5  1  0.76007882  0.15513717  0.63500228  1
  Gd  Gd6  1  0.26007882  0.65513717  0.86499772  1
  Gd  Gd7  1  0.73992118  0.34486283  0.13500228  1
  Gd  Gd8  1  0.50375274  0.87565582  0.10610470  1
  Gd  Gd9  1  0.49624726  0.12434418  0.89389530  1
  Gd  Gd10  1  0.99624726  0.62434418  0.60610470  1
  Gd  Gd11  1  0.00375274  0.37565582  0.39389530  1
  V  V12  1  0.19666860  0.97959976  0.66290880  1
  V  V13  1  0.80333140  0.02040024  0.33709120  1
  V  V14  1  0.30333140  0.52040024  0.16290880  1
  V  V15  1  0.69666860  0.47959976  0.83709120  1
  Ge  Ge16  1  0.94996131  0.75889645  0.10138938  1
  Ge  Ge17  1  0.05003869  0.24110355  0.89861062  1
  Ge  Ge18  1  0.55003869  0.74110355  0.60138938  1
  Ge  Ge19  1  0.44996131  0.25889645  0.39861062  1
  O  O20  1  0.89914810  0.86717921  0.34185377  1
  O  O21  1  0.10085190  0.13282079  0.65814623  1
  O  O22  1  0.60085190  0.63282079  0.84185377  1
  O  O23  1  0.39914810  0.36717921  0.15814623  1
  O  O24  1  0.65944976  0.59006452  0.57535032  1
  O  O25  1  0.34055024  0.40993548  0.42464968  1
  O  O26  1  0.84055024  0.90993548  0.07535032  1
  O  O27  1  0.15944976  0.09006452  0.92464968  1
  O  O28  1  0.16832495  0.87776775  0.54316220  1
  O  O29  1  0.83167505  0.12223225  0.45683780  1
  O  O30  1  0.33167505  0.62223225  0.04316220  1
  O  O31  1  0.66832495  0.37776775  0.95683780  1
  O  O32  1  0.78591325  0.61017220  0.17377417  1
  O  O33  1  0.21408675  0.38982780  0.82622583  1
  O  O34  1  0.71408675  0.88982780  0.67377417  1
  O  O35  1  0.28591325  0.11017220  0.32622583  1
  O  O36  1  0.07565020  0.83547601  0.75358043  1
  O  O37  1  0.92434980  0.16452399  0.24641957  1
  O  O38  1  0.42434980  0.66452399  0.25358043  1
  O  O39  1  0.57565020  0.33547601  0.74641957  1
  O  O40  1  0.99823423  0.61602733  0.42056407  1
  O  O41  1  0.00176577  0.38397267  0.57943593  1
  O  O42  1  0.50176577  0.88397267  0.92056407  1
  O  O43  1  0.49823423  0.11602733  0.07943593  1
  O  O44  1  0.17741688  0.86380836  0.17069414  1
  O  O45  1  0.82258312  0.13619164  0.82930586  1
  O  O46  1  0.32258312  0.63619164  0.67069414  1
  O  O47  1  0.67741688  0.36380836  0.32930586  1
  O  O48  1  0.56138314  0.96070510  0.28740188  1
  O  O49  1  0.43861686  0.03929490  0.71259812  1
  O  O50  1  0.93861686  0.53929490  0.78740188  1
  O  O51  1  0.06138314  0.46070510  0.21259812  1
  O  O52  1  0.49520320  0.77582364  0.46598609  1
  O  O53  1  0.50479680  0.22417636  0.53401391  1
  O  O54  1  0.00479680  0.72417636  0.96598609  1
  O  O55  1  0.99520320  0.27582364  0.03401391  1
