# generated using pymatgen
data_EuCoO3
_symmetry_space_group_name_H-M   'P 1'
_cell_length_a   5.36185678
_cell_length_b   5.46731818
_cell_length_c   7.66461176
_cell_angle_alpha   90.00000000
_cell_angle_beta   90.00000000
_cell_angle_gamma   90.00000000
_symmetry_Int_Tables_number   1
_chemical_formula_structural   EuCoO3
_chemical_formula_sum   'Eu4 Co4 O12'
_cell_volume   224.68791786
_cell_formula_units_Z   4
loop_
 _symmetry_equiv_pos_site_id
 _symmetry_equiv_pos_as_xyz
  1  'x, y, z'
loop_
 _atom_site_type_symbol
 _atom_site_label
 _atom_site_symmetry_multiplicity
 _atom_site_fract_x
 _atom_site_fract_y
 _atom_site_fract_z
 _atom_site_occupancy
  Eu  Eu0  1  0.00997156  0.45156825  0.25000000  1
  Eu  Eu1  1  0.99002844  0.54843175  0.75000000  1
  Eu  Eu2  1  0.50997156  0.04843175  0.75000000  1
  Eu  Eu3  1  0.49002844  0.95156825  0.25000000  1
  Co  Co4  1  -0.00000000  -0.00000000  -0.00000000  1
  Co  Co5  1  0.50000000  0.50000000  -0.00000000  1
  Co  Co6  1  -0.00000000  -0.00000000  0.50000000  1
  Co  Co7  1  0.50000000  0.50000000  0.50000000  1
  O  O8  1  0.29336096  0.20402840  0.03870360  1
  O  O9  1  0.70663904  0.79597160  0.96129640  1
  O  O10  1  0.79336096  0.29597160  0.96129640  1
  O  O11  1  0.70663904  0.79597160  0.53870360  1
  O  O12  1  0.20663904  0.70402840  0.03870360  1
  O  O13  1  0.29336096  0.20402840  0.46129640  1
  O  O14  1  0.20663904  0.70402840  0.46129640  1
  O  O15  1  0.79336096  0.29597160  0.53870360  1
  O  O16  1  0.57324290  0.51462906  0.25000000  1
  O  O17  1  0.42675710  0.48537094  0.75000000  1
  O  O18  1  0.07324290  0.98537094  0.75000000  1
  O  O19  1  0.92675710  0.01462906  0.25000000  1
