# generated using pymatgen
data_MgBi
_symmetry_space_group_name_H-M   'P 1'
_cell_length_a   9.66666207
_cell_length_b   6.34636790
_cell_length_c   5.67553002
_cell_angle_alpha   90.00000000
_cell_angle_beta   104.26628360
_cell_angle_gamma   90.00000000
_symmetry_Int_Tables_number   1
_chemical_formula_structural   MgBi
_chemical_formula_sum   'Mg6 Bi6'
_cell_volume   337.44585391
_cell_formula_units_Z   6
loop_
 _symmetry_equiv_pos_site_id
 _symmetry_equiv_pos_as_xyz
  1  'x, y, z'
loop_
 _atom_site_type_symbol
 _atom_site_label
 _atom_site_symmetry_multiplicity
 _atom_site_fract_x
 _atom_site_fract_y
 _atom_site_fract_z
 _atom_site_occupancy
  Mg  Mg0  1  0.67203231  0.69503051  0.02314468  1
  Mg  Mg1  1  0.32796769  0.69503051  0.97685532  1
  Mg  Mg2  1  -0.00000000  0.45900757  0.50000000  1
  Mg  Mg3  1  0.17203231  0.19503051  0.02314468  1
  Mg  Mg4  1  0.82796769  0.19503051  0.97685532  1
  Mg  Mg5  1  0.50000000  0.95900757  0.50000000  1
  Bi  Bi6  1  -0.00000000  0.62852190  0.00000000  1
  Bi  Bi7  1  0.32576386  0.51120575  0.47844602  1
  Bi  Bi8  1  0.67423614  0.51120575  0.52155398  1
  Bi  Bi9  1  0.50000000  0.12852190  0.00000000  1
  Bi  Bi10  1  0.82576386  0.01120575  0.47844602  1
  Bi  Bi11  1  0.17423614  0.01120575  0.52155398  1
