# generated using pymatgen
data_Dy6Co2Sn
_symmetry_space_group_name_H-M   'P 1'
_cell_length_a   8.37829292
_cell_length_b   8.37829292
_cell_length_c   8.37829292
_cell_angle_alpha   106.88024346
_cell_angle_beta   109.41903246
_cell_angle_gamma   112.15746362
_symmetry_Int_Tables_number   1
_chemical_formula_structural   Dy6Co2Sn
_chemical_formula_sum   'Dy12 Co4 Sn2'
_cell_volume   451.77421763
_cell_formula_units_Z   2
loop_
 _symmetry_equiv_pos_site_id
 _symmetry_equiv_pos_as_xyz
  1  'x, y, z'
loop_
 _atom_site_type_symbol
 _atom_site_label
 _atom_site_symmetry_multiplicity
 _atom_site_fract_x
 _atom_site_fract_y
 _atom_site_fract_z
 _atom_site_occupancy
  Dy  Dy0  1  0.79025783  0.76614942  0.55640725  1
  Dy  Dy1  1  0.20974217  0.23385058  0.44359275  1
  Dy  Dy2  1  0.20974217  0.76614942  0.97589159  1
  Dy  Dy3  1  0.79025783  0.23385058  0.02410841  1
  Dy  Dy4  1  0.52890957  0.71430600  0.81460357  1
  Dy  Dy5  1  0.47109043  0.28569400  0.18539643  1
  Dy  Dy6  1  0.10029757  0.28569400  0.81460357  1
  Dy  Dy7  1  0.89970243  0.71430600  0.18539643  1
  Dy  Dy8  1  0.68935003  0.36723874  0.67788871  1
  Dy  Dy9  1  0.31064997  0.63276126  0.32211129  1
  Dy  Dy10  1  0.31064997  0.98853867  0.67788871  1
  Dy  Dy11  1  0.68935003  0.01146133  0.32211129  1
  Co  Co12  1  0.64716007  -0.00000000  0.64716007  1
  Co  Co13  1  0.35283993  0.00000000  0.35283993  1
  Co  Co14  1  0.50000000  0.38784843  0.88784843  1
  Co  Co15  1  0.50000000  0.61215157  0.11215157  1
  Sn  Sn16  1  -0.00000000  0.50000000  0.50000000  1
  Sn  Sn17  1  0.00000000  -0.00000000  -0.00000000  1
