# generated using pymatgen
data_KSr2I5
_symmetry_space_group_name_H-M   'P 1'
_cell_length_a   9.15857536
_cell_length_b   10.07541640
_cell_length_c   14.42996000
_cell_angle_alpha   89.93321564
_cell_angle_beta   90.00000000
_cell_angle_gamma   90.00000000
_symmetry_Int_Tables_number   1
_chemical_formula_structural   KSr2I5
_chemical_formula_sum   'K4 Sr8 I20'
_cell_volume   1331.54472724
_cell_formula_units_Z   4
loop_
 _symmetry_equiv_pos_site_id
 _symmetry_equiv_pos_as_xyz
  1  'x, y, z'
loop_
 _atom_site_type_symbol
 _atom_site_label
 _atom_site_symmetry_multiplicity
 _atom_site_fract_x
 _atom_site_fract_y
 _atom_site_fract_z
 _atom_site_occupancy
  K  K0  1  0.98231113  0.50920919  0.67966814  1
  K  K1  1  0.01768887  0.49079081  0.32033186  1
  K  K2  1  0.48231113  0.49079081  0.82033186  1
  K  K3  1  0.51768887  0.50920919  0.17966814  1
  Sr  Sr4  1  0.97758525  0.99799581  0.68110259  1
  Sr  Sr5  1  0.02241475  0.00200419  0.31889741  1
  Sr  Sr6  1  0.47758525  0.00200419  0.81889741  1
  Sr  Sr7  1  0.52241475  0.99799581  0.18110259  1
  Sr  Sr8  1  0.92179577  0.75094461  0.99267895  1
  Sr  Sr9  1  0.07820423  0.24905539  0.00732105  1
  Sr  Sr10  1  0.42179577  0.24905539  0.50732105  1
  Sr  Sr11  1  0.57820423  0.75094461  0.49267895  1
  I  I12  1  0.83567073  0.46049978  0.91064164  1
  I  I13  1  0.16432927  0.53950022  0.08935836  1
  I  I14  1  0.33567073  0.53950022  0.58935836  1
  I  I15  1  0.66432927  0.46049978  0.41064164  1
  I  I16  1  0.16433122  0.77912944  0.81634594  1
  I  I17  1  0.83566878  0.22087056  0.18365406  1
  I  I18  1  0.66433122  0.22087056  0.68365406  1
  I  I19  1  0.33566878  0.77912944  0.31634594  1
  I  I20  1  0.69498481  0.76992585  0.71736615  1
  I  I21  1  0.30501519  0.23007415  0.28263385  1
  I  I22  1  0.19498481  0.23007415  0.78263385  1
  I  I23  1  0.80501519  0.76992585  0.21736615  1
  I  I24  1  0.54181779  0.78005774  0.99723591  1
  I  I25  1  0.45818221  0.21994226  0.00276409  1
  I  I26  1  0.04181779  0.21994226  0.50276409  1
  I  I27  1  0.95818221  0.78005774  0.49723591  1
  I  I28  1  0.33766355  0.95559787  0.59600435  1
  I  I29  1  0.66233645  0.04440213  0.40399565  1
  I  I30  1  0.83766355  0.04440213  0.90399565  1
  I  I31  1  0.16233645  0.95559787  0.09600435  1
