# generated using pymatgen
data_Dy3Co2Si3
_symmetry_space_group_name_H-M   'P 1'
_cell_length_a   4.09180557
_cell_length_b   5.61680712
_cell_length_c   13.60279139
_cell_angle_alpha   90.00000000
_cell_angle_beta   90.00000000
_cell_angle_gamma   111.36122337
_symmetry_Int_Tables_number   1
_chemical_formula_structural   Dy3Co2Si3
_chemical_formula_sum   'Dy6 Co4 Si6'
_cell_volume   291.15437937
_cell_formula_units_Z   2
loop_
 _symmetry_equiv_pos_site_id
 _symmetry_equiv_pos_as_xyz
  1  'x, y, z'
loop_
 _atom_site_type_symbol
 _atom_site_label
 _atom_site_symmetry_multiplicity
 _atom_site_fract_x
 _atom_site_fract_y
 _atom_site_fract_z
 _atom_site_occupancy
  Dy  Dy0  1  0.36145041  0.72290083  0.25000000  1
  Dy  Dy1  1  0.63854959  0.27709917  0.75000000  1
  Dy  Dy2  1  0.08110795  0.16221590  0.11141235  1
  Dy  Dy3  1  0.91889205  0.83778410  0.88858765  1
  Dy  Dy4  1  0.91889205  0.83778410  0.61141235  1
  Dy  Dy5  1  0.08110795  0.16221590  0.38858765  1
  Co  Co6  1  0.21387852  0.42775703  0.58062479  1
  Co  Co7  1  0.78612148  0.57224297  0.41937521  1
  Co  Co8  1  0.78612148  0.57224297  0.08062479  1
  Co  Co9  1  0.21387852  0.42775703  0.91937521  1
  Si  Si10  1  0.67025654  0.34051307  0.25000000  1
  Si  Si11  1  0.32974346  0.65948693  0.75000000  1
  Si  Si12  1  0.37771894  0.75543789  0.03950935  1
  Si  Si13  1  0.62228106  0.24456211  0.96049065  1
  Si  Si14  1  0.62228106  0.24456211  0.53950935  1
  Si  Si15  1  0.37771894  0.75543789  0.46049065  1
