# generated using pymatgen
data_BiPb3Au
_symmetry_space_group_name_H-M   'P 1'
_cell_length_a   4.50053020
_cell_length_b   11.51087422
_cell_length_c   11.51087422
_cell_angle_alpha   90.00000000
_cell_angle_beta   90.00000000
_cell_angle_gamma   90.00000000
_symmetry_Int_Tables_number   1
_chemical_formula_structural   BiPb3Au
_chemical_formula_sum   'Bi4 Pb12 Au4'
_cell_volume   596.32126551
_cell_formula_units_Z   4
loop_
 _symmetry_equiv_pos_site_id
 _symmetry_equiv_pos_as_xyz
  1  'x, y, z'
loop_
 _atom_site_type_symbol
 _atom_site_label
 _atom_site_symmetry_multiplicity
 _atom_site_fract_x
 _atom_site_fract_y
 _atom_site_fract_z
 _atom_site_occupancy
  Bi  Bi0  1  0.00000000  0.29410216  0.70589784  1
  Bi  Bi1  1  0.00000000  0.70589784  0.29410216  1
  Bi  Bi2  1  0.50000000  0.79410216  0.79410216  1
  Bi  Bi3  1  0.50000000  0.20589784  0.20589784  1
  Pb  Pb4  1  -0.00000000  0.39204834  0.39204834  1
  Pb  Pb5  1  -0.00000000  0.60795166  0.60795166  1
  Pb  Pb6  1  0.50000000  0.10795166  0.89204834  1
  Pb  Pb7  1  0.50000000  0.89204834  0.10795166  1
  Pb  Pb8  1  0.00000000  0.00138813  0.33773631  1
  Pb  Pb9  1  -0.00000000  0.99861187  0.66226369  1
  Pb  Pb10  1  0.50000000  0.16226369  0.50138813  1
  Pb  Pb11  1  0.50000000  0.49861187  0.83773631  1
  Pb  Pb12  1  0.50000000  0.83773631  0.49861187  1
  Pb  Pb13  1  0.50000000  0.50138813  0.16226369  1
  Pb  Pb14  1  0.00000000  0.33773631  0.00138813  1
  Pb  Pb15  1  -0.00000000  0.66226369  0.99861187  1
  Au  Au16  1  -0.00000000  0.08715052  0.08715052  1
  Au  Au17  1  0.00000000  0.91284948  0.91284948  1
  Au  Au18  1  0.50000000  0.41284948  0.58715052  1
  Au  Au19  1  0.50000000  0.58715052  0.41284948  1
