# generated using pymatgen
data_CsSO4
_symmetry_space_group_name_H-M   'P 1'
_cell_length_a   4.96335386
_cell_length_b   15.29572060
_cell_length_c   15.29250393
_cell_angle_alpha   117.80597628
_cell_angle_beta   90.00000000
_cell_angle_gamma   90.00000000
_symmetry_Int_Tables_number   1
_chemical_formula_structural   CsSO4
_chemical_formula_sum   'Cs8 S8 O32'
_cell_volume   1026.92207534
_cell_formula_units_Z   8
loop_
 _symmetry_equiv_pos_site_id
 _symmetry_equiv_pos_as_xyz
  1  'x, y, z'
loop_
 _atom_site_type_symbol
 _atom_site_label
 _atom_site_symmetry_multiplicity
 _atom_site_fract_x
 _atom_site_fract_y
 _atom_site_fract_z
 _atom_site_occupancy
  Cs  Cs0  1  0.14145986  0.70558974  0.58157166  1
  Cs  Cs1  1  0.85854014  0.29441026  0.41842834  1
  Cs  Cs2  1  0.64145986  0.79441026  0.91842834  1
  Cs  Cs3  1  0.35854014  0.20558974  0.08157166  1
  Cs  Cs4  1  0.20355934  0.45718505  0.83269925  1
  Cs  Cs5  1  0.79644066  0.54281495  0.16730075  1
  Cs  Cs6  1  0.70355934  0.04281495  0.66730075  1
  Cs  Cs7  1  0.29644066  0.95718505  0.33269925  1
  S  S8  1  0.27116141  0.20818921  0.58279884  1
  S  S9  1  0.72883859  0.79181079  0.41720116  1
  S  S10  1  0.77116141  0.29181079  0.91720116  1
  S  S11  1  0.22883859  0.70818921  0.08279884  1
  S  S12  1  0.20200565  0.95180789  0.82642644  1
  S  S13  1  0.79799435  0.04819211  0.17357356  1
  S  S14  1  0.70200565  0.54819211  0.67357356  1
  S  S15  1  0.29799435  0.45180789  0.32642644  1
  O  O16  1  0.53238426  0.22451054  0.88473613  1
  O  O17  1  0.46761574  0.77548946  0.11526387  1
  O  O18  1  0.03238426  0.27548946  0.61526387  1
  O  O19  1  0.96761574  0.72451054  0.38473613  1
  O  O20  1  0.19468119  0.11007962  0.57247022  1
  O  O21  1  0.80531881  0.88992038  0.42752978  1
  O  O22  1  0.69468119  0.38992038  0.92752978  1
  O  O23  1  0.30531881  0.61007962  0.07247022  1
  O  O24  1  0.47169416  0.98371619  0.87681340  1
  O  O25  1  0.52830584  0.01628381  0.12318660  1
  O  O26  1  0.97169416  0.51628381  0.62318660  1
  O  O27  1  0.02830584  0.48371619  0.37681340  1
  O  O28  1  0.03181875  0.03636261  0.89807992  1
  O  O29  1  0.96818125  0.96363739  0.10192008  1
  O  O30  1  0.53181875  0.46363739  0.60192008  1
  O  O31  1  0.46818125  0.53636261  0.39807992  1
  O  O32  1  0.12517564  0.69839830  0.98759157  1
  O  O33  1  0.87482436  0.30160170  0.01240843  1
  O  O34  1  0.62517564  0.80160170  0.51240843  1
  O  O35  1  0.37482436  0.19839830  0.48759157  1
  O  O36  1  0.11928763  0.85697450  0.82159461  1
  O  O37  1  0.88071237  0.14302550  0.17840539  1
  O  O38  1  0.61928763  0.64302550  0.67840539  1
  O  O39  1  0.38071237  0.35697450  0.32159461  1
  O  O40  1  0.48460183  0.25459772  0.65992073  1
  O  O41  1  0.51539817  0.74540228  0.34007927  1
  O  O42  1  0.98460183  0.24540228  0.84007927  1
  O  O43  1  0.01539817  0.75459772  0.15992073  1
  O  O44  1  0.20292981  0.94689217  0.72819153  1
  O  O45  1  0.79707019  0.05310783  0.27180847  1
  O  O46  1  0.70292981  0.55310783  0.77180847  1
  O  O47  1  0.29707019  0.44689217  0.22819153  1
