# generated using pymatgen
data_FeBP(HO3)2
_symmetry_space_group_name_H-M   'P 1'
_cell_length_a   7.65211452
_cell_length_b   7.65211452
_cell_length_c   12.88931657
_cell_angle_alpha   90.00000000
_cell_angle_beta   90.00000000
_cell_angle_gamma   120.00000049
_symmetry_Int_Tables_number   1
_chemical_formula_structural   FeBP(HO3)2
_chemical_formula_sum   'Fe6 B6 P6 H12 O36'
_cell_volume   653.61715376
_cell_formula_units_Z   6
loop_
 _symmetry_equiv_pos_site_id
 _symmetry_equiv_pos_as_xyz
  1  'x, y, z'
loop_
 _atom_site_type_symbol
 _atom_site_label
 _atom_site_symmetry_multiplicity
 _atom_site_fract_x
 _atom_site_fract_y
 _atom_site_fract_z
 _atom_site_occupancy
  Fe  Fe0  1  0.86984170  0.86984170  0.16666700  1
  Fe  Fe1  1  0.00000000  0.13015830  0.83333300  1
  Fe  Fe2  1  0.13015830  0.00000000  0.50000000  1
  Fe  Fe3  1  0.75184508  0.75184508  0.66666700  1
  Fe  Fe4  1  0.00000000  0.24815492  0.33333300  1
  Fe  Fe5  1  0.24815492  0.00000000  0.00000000  1
  B  B6  1  0.75225831  0.31406465  0.95905082  1
  B  B7  1  0.56180634  0.24774169  0.62571782  1
  B  B8  1  0.43819366  0.68593535  0.04094918  1
  B  B9  1  0.68593535  0.43819366  0.29238382  1
  B  B10  1  0.31406465  0.75225831  0.37428218  1
  B  B11  1  0.24774169  0.56180634  0.70761618  1
  P  P12  1  0.92575820  0.24680455  0.59679792  1
  P  P13  1  0.32104635  0.07424180  0.26346492  1
  P  P14  1  0.67895365  0.75319545  0.40320208  1
  P  P15  1  0.75319545  0.67895365  0.93013092  1
  P  P16  1  0.24680455  0.92575820  0.73653508  1
  P  P17  1  0.07424180  0.32104635  0.06986908  1
  H  H18  1  0.42404057  0.69822836  0.57783253  1
  H  H19  1  0.27418779  0.57595943  0.24449953  1
  H  H20  1  0.72581221  0.30177164  0.42216747  1
  H  H21  1  0.30177164  0.72581221  0.91116553  1
  H  H22  1  0.69822836  0.42404057  0.75550047  1
  H  H23  1  0.57595943  0.27418779  0.08883447  1
  H  H24  1  0.63788338  0.09003312  0.84718292  1
  H  H25  1  0.45214974  0.36211662  0.51384992  1
  H  H26  1  0.54785026  0.90996688  0.15281708  1
  H  H27  1  0.90996688  0.54785026  0.18051592  1
  H  H28  1  0.09003312  0.63788338  0.48615008  1
  H  H29  1  0.36211662  0.45214974  0.81948408  1
  O  O30  1  0.43417050  0.64861113  0.64643477  1
  O  O31  1  0.21444063  0.56582950  0.31310177  1
  O  O32  1  0.78555937  0.35138887  0.35356523  1
  O  O33  1  0.35138887  0.78555937  0.97976777  1
  O  O34  1  0.64861113  0.43417050  0.68689823  1
  O  O35  1  0.56582950  0.21444063  0.02023223  1
  O  O36  1  0.53467810  0.60008218  0.97381180  1
  O  O37  1  0.06540408  0.46532190  0.64047880  1
  O  O38  1  0.93459592  0.39991782  0.02618820  1
  O  O39  1  0.39991782  0.93459592  0.30714480  1
  O  O40  1  0.60008218  0.53467810  0.35952120  1
  O  O41  1  0.46532190  0.06540408  0.69285520  1
  O  O42  1  0.76325543  0.17823144  0.88343302  1
  O  O43  1  0.41497601  0.23674457  0.55010002  1
  O  O44  1  0.58502399  0.82176856  0.11656698  1
  O  O45  1  0.82176856  0.58502399  0.21676602  1
  O  O46  1  0.17823144  0.76325543  0.44989998  1
  O  O47  1  0.23674457  0.41497601  0.78323398  1
  O  O48  1  0.78235357  0.80310587  0.83153581  1
  O  O49  1  0.02075230  0.21764643  0.49820281  1
  O  O50  1  0.97924770  0.19689413  0.16846419  1
  O  O51  1  0.19689413  0.97924770  0.16486881  1
  O  O52  1  0.80310587  0.78235357  0.50179719  1
  O  O53  1  0.21764643  0.02075230  0.83513119  1
  O  O54  1  0.88225580  0.08641739  0.67927436  1
  O  O55  1  0.20416159  0.11774420  0.34594136  1
  O  O56  1  0.79583841  0.91358261  0.32072564  1
  O  O57  1  0.91358261  0.79583841  0.01260736  1
  O  O58  1  0.08641739  0.88225580  0.65405864  1
  O  O59  1  0.11774420  0.20416159  0.98739264  1
  O  O60  1  0.72532791  0.23909535  0.56266315  1
  O  O61  1  0.51376744  0.27467209  0.22933015  1
  O  O62  1  0.48623256  0.76090465  0.43733685  1
  O  O63  1  0.76090465  0.48623256  0.89599615  1
  O  O64  1  0.23909535  0.72532791  0.77066985  1
  O  O65  1  0.27467209  0.51376744  0.10400385  1
