# generated using pymatgen
data_Co3As2(HO)16
_symmetry_space_group_name_H-M   'P 1'
_cell_length_a   4.79960511
_cell_length_b   8.56713524
_cell_length_c   8.56713524
_cell_angle_alpha   105.33870065
_cell_angle_beta   99.53737264
_cell_angle_gamma   99.53737264
_symmetry_Int_Tables_number   1
_chemical_formula_structural   Co3As2(HO)16
_chemical_formula_sum   'Co3 As2 H16 O16'
_cell_volume   326.79568543
_cell_formula_units_Z   1
loop_
 _symmetry_equiv_pos_site_id
 _symmetry_equiv_pos_as_xyz
  1  'x, y, z'
loop_
 _atom_site_type_symbol
 _atom_site_label
 _atom_site_symmetry_multiplicity
 _atom_site_fract_x
 _atom_site_fract_y
 _atom_site_fract_z
 _atom_site_occupancy
  Co  Co0  1  0.00000000  0.00000000  0.00000000  1
  Co  Co1  1  0.00000000  0.61468453  0.38531547  1
  Co  Co2  1  0.00000000  0.38531547  0.61468453  1
  As  As3  1  0.62679670  0.68588349  0.68588349  1
  As  As4  1  0.37320330  0.31411651  0.31411651  1
  H  H5  1  0.36111929  0.80256610  0.96181760  1
  H  H6  1  0.63888071  0.19743390  0.03818240  1
  H  H7  1  0.63888071  0.03818240  0.19743390  1
  H  H8  1  0.36111929  0.96181760  0.80256610  1
  H  H9  1  0.71656452  0.73911391  0.17800367  1
  H  H10  1  0.28343548  0.26088609  0.82199633  1
  H  H11  1  0.28343548  0.82199633  0.26088609  1
  H  H12  1  0.71656452  0.17800367  0.73911391  1
  H  H13  1  0.94920203  0.31150652  0.06055392  1
  H  H14  1  0.05079797  0.68849348  0.93944608  1
  H  H15  1  0.05079797  0.93944608  0.68849348  1
  H  H16  1  0.94920203  0.06055392  0.31150652  1
  H  H17  1  0.51161870  0.56966131  0.17665076  1
  H  H18  1  0.48838130  0.43033869  0.82334924  1
  H  H19  1  0.48838130  0.82334924  0.43033869  1
  H  H20  1  0.51161870  0.17665076  0.56966131  1
  O  O21  1  0.72692817  0.41172407  0.41172407  1
  O  O22  1  0.27307183  0.58827593  0.58827593  1
  O  O23  1  0.61610620  0.85256147  0.85256147  1
  O  O24  1  0.38389380  0.14743853  0.14743853  1
  O  O25  1  0.71202318  0.62332950  0.17709252  1
  O  O26  1  0.28797682  0.37667050  0.82290748  1
  O  O27  1  0.28797682  0.82290748  0.37667050  1
  O  O28  1  0.71202318  0.17709252  0.62332950  1
  O  O29  1  0.79500343  0.55489064  0.77121479  1
  O  O30  1  0.20499657  0.44510936  0.22878521  1
  O  O31  1  0.20499657  0.22878521  0.44510936  1
  O  O32  1  0.79500343  0.77121479  0.55489064  1
  O  O33  1  0.80563036  0.20986413  0.98245925  1
  O  O34  1  0.19436964  0.79013587  0.01754075  1
  O  O35  1  0.19436964  0.01754075  0.79013587  1
  O  O36  1  0.80563036  0.98245925  0.20986413  1
