# generated using pymatgen
data_Er6Mn4Al43
_symmetry_space_group_name_H-M   'P 1'
_cell_length_a   10.91421946
_cell_length_b   10.91421946
_cell_length_c   17.64576696
_cell_angle_alpha   90.00000000
_cell_angle_beta   90.00000000
_cell_angle_gamma   119.99999720
_symmetry_Int_Tables_number   1
_chemical_formula_structural   Er6Mn4Al43
_chemical_formula_sum   'Er12 Mn8 Al86'
_cell_volume   1820.35691381
_cell_formula_units_Z   2
loop_
 _symmetry_equiv_pos_site_id
 _symmetry_equiv_pos_as_xyz
  1  'x, y, z'
loop_
 _atom_site_type_symbol
 _atom_site_label
 _atom_site_symmetry_multiplicity
 _atom_site_fract_x
 _atom_site_fract_y
 _atom_site_fract_z
 _atom_site_occupancy
  Er  Er0  1  0.46831854  0.46831854  0.90492595  1
  Er  Er1  1  0.53168146  0.53168146  0.09507405  1
  Er  Er2  1  0.00000000  0.53168146  0.90492595  1
  Er  Er3  1  0.53168146  0.53168146  0.40492595  1
  Er  Er4  1  0.00000000  0.53168146  0.59507405  1
  Er  Er5  1  1.00000000  0.46831854  0.09507405  1
  Er  Er6  1  0.46831854  0.46831854  0.59507405  1
  Er  Er7  1  1.00000000  0.46831854  0.40492595  1
  Er  Er8  1  0.53168146  0.00000000  0.90492595  1
  Er  Er9  1  0.46831854  1.00000000  0.09507405  1
  Er  Er10  1  0.46831854  1.00000000  0.40492595  1
  Er  Er11  1  0.53168146  0.00000000  0.59507405  1
  Mn  Mn12  1  -0.00000000  0.00000000  0.00000000  1
  Mn  Mn13  1  -0.00000000  0.00000000  0.50000000  1
  Mn  Mn14  1  0.26774391  0.26774391  0.75000000  1
  Mn  Mn15  1  0.73225609  0.73225609  0.25000000  1
  Mn  Mn16  1  0.00000000  0.73225609  0.75000000  1
  Mn  Mn17  1  1.00000000  0.26774391  0.25000000  1
  Mn  Mn18  1  0.73225609  0.00000000  0.75000000  1
  Mn  Mn19  1  0.26774391  1.00000000  0.25000000  1
  Al  Al20  1  0.85480919  0.45234291  0.75000000  1
  Al  Al21  1  0.14519081  0.54765709  0.25000000  1
  Al  Al22  1  0.59753372  0.14519081  0.75000000  1
  Al  Al23  1  0.40246628  0.54765709  0.75000000  1
  Al  Al24  1  0.40246628  0.85480919  0.25000000  1
  Al  Al25  1  0.59753372  0.45234291  0.25000000  1
  Al  Al26  1  0.54765709  0.40246628  0.75000000  1
  Al  Al27  1  0.45234291  0.85480919  0.75000000  1
  Al  Al28  1  0.45234291  0.59753372  0.25000000  1
  Al  Al29  1  0.54765709  0.14519081  0.25000000  1
  Al  Al30  1  0.14519081  0.59753372  0.75000000  1
  Al  Al31  1  0.85480919  0.40246628  0.25000000  1
  Al  Al32  1  0.84519829  0.84519829  0.38398496  1
  Al  Al33  1  0.15480171  0.15480171  0.61601504  1
  Al  Al34  1  1.00000000  0.15480171  0.38398496  1
  Al  Al35  1  0.15480171  0.15480171  0.88398496  1
  Al  Al36  1  1.00000000  0.15480171  0.11601504  1
  Al  Al37  1  0.00000000  0.84519829  0.61601504  1
  Al  Al38  1  0.84519829  0.84519829  0.11601504  1
  Al  Al39  1  0.00000000  0.84519829  0.88398496  1
  Al  Al40  1  0.15480171  1.00000000  0.38398496  1
  Al  Al41  1  0.84519829  0.00000000  0.61601504  1
  Al  Al42  1  0.84519829  0.00000000  0.88398496  1
  Al  Al43  1  0.15480171  1.00000000  0.11601504  1
  Al  Al44  1  0.75384067  0.24615933  0.00000000  1
  Al  Al45  1  0.24615933  0.75384067  0.00000000  1
  Al  Al46  1  0.49231866  0.24615933  0.00000000  1
  Al  Al47  1  0.24615933  0.75384067  0.50000000  1
  Al  Al48  1  0.50768134  0.75384067  0.50000000  1
  Al  Al49  1  0.50768134  0.75384067  0.00000000  1
  Al  Al50  1  0.75384067  0.24615933  0.50000000  1
  Al  Al51  1  0.49231866  0.24615933  0.50000000  1
  Al  Al52  1  0.75384067  0.50768134  0.00000000  1
  Al  Al53  1  0.24615933  0.49231866  0.00000000  1
  Al  Al54  1  0.24615933  0.49231866  0.50000000  1
  Al  Al55  1  0.75384067  0.50768134  0.50000000  1
  Al  Al56  1  0.85543224  0.85543224  0.75000000  1
  Al  Al57  1  0.14456776  0.14456776  0.25000000  1
  Al  Al58  1  1.00000000  0.14456776  0.75000000  1
  Al  Al59  1  0.00000000  0.85543224  0.25000000  1
  Al  Al60  1  0.14456776  1.00000000  0.75000000  1
  Al  Al61  1  0.85543224  0.00000000  0.25000000  1
  Al  Al62  1  0.66666700  0.33333300  0.87256658  1
  Al  Al63  1  0.33333300  0.66666700  0.12743342  1
  Al  Al64  1  0.33333300  0.66666700  0.37256658  1
  Al  Al65  1  0.33333300  0.66666700  0.62743342  1
  Al  Al66  1  0.66666700  0.33333300  0.62743342  1
  Al  Al67  1  0.66666700  0.33333300  0.37256658  1
  Al  Al68  1  0.66666700  0.33333300  0.12743342  1
  Al  Al69  1  0.33333300  0.66666700  0.87256658  1
  Al  Al70  1  0.74897512  0.74897512  0.96928935  1
  Al  Al71  1  0.25102488  0.25102488  0.03071065  1
  Al  Al72  1  1.00000000  0.25102488  0.96928935  1
  Al  Al73  1  0.25102488  0.25102488  0.46928935  1
  Al  Al74  1  1.00000000  0.25102488  0.53071065  1
  Al  Al75  1  0.00000000  0.74897512  0.03071065  1
  Al  Al76  1  0.74897512  0.74897512  0.53071065  1
  Al  Al77  1  0.00000000  0.74897512  0.46928935  1
  Al  Al78  1  0.25102488  1.00000000  0.96928935  1
  Al  Al79  1  0.74897512  0.00000000  0.03071065  1
  Al  Al80  1  0.74897512  0.00000000  0.46928935  1
  Al  Al81  1  0.25102488  1.00000000  0.53071065  1
  Al  Al82  1  0.84224628  0.23325166  0.83437699  1
  Al  Al83  1  0.15775372  0.76674834  0.16562301  1
  Al  Al84  1  0.39100538  0.15775372  0.83437699  1
  Al  Al85  1  0.15775372  0.76674834  0.33437699  1
  Al  Al86  1  0.60899462  0.76674834  0.66562301  1
  Al  Al87  1  0.60899462  0.84224628  0.16562301  1
  Al  Al88  1  0.84224628  0.23325166  0.66562301  1
  Al  Al89  1  0.39100538  0.23325166  0.33437699  1
  Al  Al90  1  0.76674834  0.60899462  0.83437699  1
  Al  Al91  1  0.60899462  0.84224628  0.33437699  1
  Al  Al92  1  0.23325166  0.84224628  0.66562301  1
  Al  Al93  1  0.23325166  0.39100538  0.16562301  1
  Al  Al94  1  0.39100538  0.15775372  0.66562301  1
  Al  Al95  1  0.76674834  0.15775372  0.33437699  1
  Al  Al96  1  0.39100538  0.23325166  0.16562301  1
  Al  Al97  1  0.60899462  0.76674834  0.83437699  1
  Al  Al98  1  0.23325166  0.39100538  0.33437699  1
  Al  Al99  1  0.76674834  0.15775372  0.16562301  1
  Al  Al100  1  0.76674834  0.60899462  0.66562301  1
  Al  Al101  1  0.23325166  0.84224628  0.83437699  1
  Al  Al102  1  0.15775372  0.39100538  0.66562301  1
  Al  Al103  1  0.84224628  0.60899462  0.33437699  1
  Al  Al104  1  0.84224628  0.60899462  0.16562301  1
  Al  Al105  1  0.15775372  0.39100538  0.83437699  1
