# generated using pymatgen
data_Cu2Si3H24C8(N10F9)2
_symmetry_space_group_name_H-M   'P 1'
_cell_length_a   7.93084468
_cell_length_b   8.85386867
_cell_length_c   12.38946047
_cell_angle_alpha   84.48882523
_cell_angle_beta   85.34503460
_cell_angle_gamma   64.20261329
_symmetry_Int_Tables_number   1
_chemical_formula_structural   Cu2Si3H24C8(N10F9)2
_chemical_formula_sum   'Cu2 Si3 H24 C8 N20 F18'
_cell_volume   778.89577200
_cell_formula_units_Z   1
loop_
 _symmetry_equiv_pos_site_id
 _symmetry_equiv_pos_as_xyz
  1  'x, y, z'
loop_
 _atom_site_type_symbol
 _atom_site_label
 _atom_site_symmetry_multiplicity
 _atom_site_fract_x
 _atom_site_fract_y
 _atom_site_fract_z
 _atom_site_occupancy
  Cu  Cu0  1  0.27244742  0.33356911  0.64336232  1
  Cu  Cu1  1  0.72755258  0.66643089  0.35663768  1
  Si  Si2  1  0.19064264  0.04962830  0.31651131  1
  Si  Si3  1  0.80935736  0.95037170  0.68348869  1
  Si  Si4  1  0.50000000  0.50000000  0.00000000  1
  H  H5  1  0.03259942  0.67081171  0.51947188  1
  H  H6  1  0.96740058  0.32918829  0.48052812  1
  H  H7  1  0.59263991  0.16206831  0.49477415  1
  H  H8  1  0.40736009  0.83793169  0.50522585  1
  H  H9  1  0.06118726  0.40597576  0.23052965  1
  H  H10  1  0.93881274  0.59402424  0.76947035  1
  H  H11  1  0.43627067  0.03745498  0.80035946  1
  H  H12  1  0.56372933  0.96254502  0.19964054  1
  H  H13  1  0.03682588  0.71714140  0.99932393  1
  H  H14  1  0.96317412  0.28285860  0.00067607  1
  H  H15  1  0.07634904  0.75343384  0.39549022  1
  H  H16  1  0.92365096  0.24656616  0.60450978  1
  H  H17  1  0.20810687  0.99284466  0.07852693  1
  H  H18  1  0.79189313  0.00715534  0.92147307  1
  H  H19  1  0.61774748  0.13776299  0.01416492  1
  H  H20  1  0.38225252  0.86223701  0.98583508  1
  H  H21  1  0.18296672  0.44108768  0.11321401  1
  H  H22  1  0.81703328  0.55891232  0.88678599  1
  H  H23  1  0.67020391  0.33296280  0.20657671  1
  H  H24  1  0.32979609  0.66703720  0.79342329  1
  H  H25  1  0.36021533  0.57284322  0.27242058  1
  H  H26  1  0.63978467  0.42715678  0.72757942  1
  H  H27  1  0.79166880  0.17297973  0.30568558  1
  H  H28  1  0.20833120  0.82702027  0.69431442  1
  C  C29  1  0.22174473  0.10484697  0.92988624  1
  C  C30  1  0.77825527  0.89515303  0.07011376  1
  C  C31  1  0.53102922  0.34086307  0.35427214  1
  C  C32  1  0.46897078  0.65913693  0.64572786  1
  C  C33  1  0.26261216  0.51514447  0.43217247  1
  C  C34  1  0.73738784  0.48485553  0.56782753  1
  C  C35  1  0.06348772  0.35986762  0.85025843  1
  C  C36  1  0.93651228  0.64013238  0.14974157  1
  N  N37  1  0.27031442  0.97391192  0.00166985  1
  N  N38  1  0.72968558  0.02608808  0.99833015  1
  N  N39  1  0.06550061  0.48266166  0.16340064  1
  N  N40  1  0.93449939  0.51733834  0.83659936  1
  N  N41  1  0.09390775  0.64694445  0.44268640  1
  N  N42  1  0.90609225  0.35305555  0.55731360  1
  N  N43  1  0.30674732  0.11900858  0.83441399  1
  N  N44  1  0.69325268  0.88099142  0.16558601  1
  N  N45  1  0.37713727  0.49092557  0.33986336  1
  N  N46  1  0.62286273  0.50907443  0.66013664  1
  N  N47  1  0.06832280  0.25509999  0.94086859  1
  N  N48  1  0.93167720  0.74490001  0.05913141  1
  N  N49  1  0.34195857  0.38555002  0.50412593  1
  N  N50  1  0.65804143  0.61444998  0.49587407  1
  N  N51  1  0.20843728  0.27782820  0.78275172  1
  N  N52  1  0.79156272  0.72217180  0.21724828  1
  N  N53  1  0.51014731  0.27769050  0.45425217  1
  N  N54  1  0.48985269  0.72230950  0.54574783  1
  N  N55  1  0.67169641  0.27523018  0.28245997  1
  N  N56  1  0.32830359  0.72476982  0.71754003  1
  F  F57  1  0.08881736  0.09588748  0.19287240  1
  F  F58  1  0.91118264  0.90411252  0.80712760  1
  F  F59  1  0.71571418  0.38415050  0.05728257  1
  F  F60  1  0.28428582  0.61584950  0.94271743  1
  F  F61  1  0.30833036  0.84159422  0.29395027  1
  F  F62  1  0.69166964  0.15840578  0.70604973  1
  F  F63  1  0.43404538  0.34120652  0.04135539  1
  F  F64  1  0.56595462  0.65879348  0.95864461  1
  F  F65  1  0.07498067  0.26267283  0.34228351  1
  F  F66  1  0.92501933  0.73732717  0.65771649  1
  F  F67  1  0.37364056  0.08720599  0.25538320  1
  F  F68  1  0.62635944  0.91279401  0.74461680  1
  F  F69  1  0.00242323  0.02037169  0.37351616  1
  F  F70  1  0.99757677  0.97962831  0.62648384  1
  F  F71  1  0.40994008  0.58934024  0.12035322  1
  F  F72  1  0.59005992  0.41065976  0.87964678  1
  F  F73  1  0.28999422  0.01282884  0.44041347  1
  F  F74  1  0.71000578  0.98717116  0.55958653  1
