# generated using pymatgen
data_BaTm2(MoO4)4
_symmetry_space_group_name_H-M   'P 1'
_cell_length_a   5.23727238
_cell_length_b   6.83736176
_cell_length_c   19.75609306
_cell_angle_alpha   89.10880057
_cell_angle_beta   87.67248775
_cell_angle_gamma   67.48103187
_symmetry_Int_Tables_number   1
_chemical_formula_structural   BaTm2(MoO4)4
_chemical_formula_sum   'Ba2 Tm4 Mo8 O32'
_cell_volume   652.96831999
_cell_formula_units_Z   2
loop_
 _symmetry_equiv_pos_site_id
 _symmetry_equiv_pos_as_xyz
  1  'x, y, z'
loop_
 _atom_site_type_symbol
 _atom_site_label
 _atom_site_symmetry_multiplicity
 _atom_site_fract_x
 _atom_site_fract_y
 _atom_site_fract_z
 _atom_site_occupancy
  Ba  Ba0  1  0.46996063  0.06007874  0.75000000  1
  Ba  Ba1  1  0.53003937  0.93992126  0.25000000  1
  Tm  Tm2  1  0.35540915  0.29657399  0.53066648  1
  Tm  Tm3  1  0.64459085  0.70342601  0.46933352  1
  Tm  Tm4  1  0.34801686  0.29657399  0.96933352  1
  Tm  Tm5  1  0.65198314  0.70342601  0.03066648  1
  Mo  Mo6  1  0.07471029  0.88031845  0.91020565  1
  Mo  Mo7  1  0.92528971  0.11968155  0.08979435  1
  Mo  Mo8  1  0.04497126  0.88031845  0.58979435  1
  Mo  Mo9  1  0.95502874  0.11968155  0.41020565  1
  Mo  Mo10  1  0.75735616  0.48233242  0.85516883  1
  Mo  Mo11  1  0.24264384  0.51766758  0.14483117  1
  Mo  Mo12  1  0.76031142  0.48233242  0.64483117  1
  Mo  Mo13  1  0.23968858  0.51766758  0.35516883  1
  O  O14  1  0.33709623  0.65797419  0.95792044  1
  O  O15  1  0.66290377  0.34202581  0.04207956  1
  O  O16  1  0.00492958  0.65797419  0.54207956  1
  O  O17  1  0.99507042  0.34202581  0.45792044  1
  O  O18  1  0.55980961  0.52229786  0.56537710  1
  O  O19  1  0.44019039  0.47770214  0.43462290  1
  O  O20  1  0.91789253  0.52229786  0.93462290  1
  O  O21  1  0.08210747  0.47770214  0.06537710  1
  O  O22  1  0.20181273  0.83649846  0.66794584  1
  O  O23  1  0.79818727  0.16350154  0.33205416  1
  O  O24  1  0.96168881  0.83649846  0.83205416  1
  O  O25  1  0.03831119  0.16350154  0.16794584  1
  O  O26  1  0.28089415  0.89975382  0.39948870  1
  O  O27  1  0.71910585  0.10024618  0.60051130  1
  O  O28  1  0.81935203  0.89975382  0.10051130  1
  O  O29  1  0.18064797  0.10024618  0.89948870  1
  O  O30  1  0.58077465  0.30076684  0.87070892  1
  O  O31  1  0.41922535  0.69923316  0.12929108  1
  O  O32  1  0.11845851  0.30076684  0.62929108  1
  O  O33  1  0.88154149  0.69923316  0.37070892  1
  O  O34  1  0.28023003  0.96338611  0.53439851  1
  O  O35  1  0.71976997  0.03661389  0.46560149  1
  O  O36  1  0.75638386  0.96338611  0.96560149  1
  O  O37  1  0.24361614  0.03661389  0.03439851  1
  O  O38  1  0.50561869  0.72649288  0.82891401  1
  O  O39  1  0.49438131  0.27350712  0.17108599  1
  O  O40  1  0.76788843  0.72649288  0.67108599  1
  O  O41  1  0.23211157  0.27350712  0.32891401  1
  O  O42  1  0.60136683  0.38750303  0.70972445  1
  O  O43  1  0.39863317  0.61249697  0.29027555  1
  O  O44  1  0.01113014  0.38750303  0.79027555  1
  O  O45  1  0.98886986  0.61249697  0.20972445  1
