# generated using pymatgen
data_Al2Zn2S5
_symmetry_space_group_name_H-M   'P 1'
_cell_length_a   3.72350284
_cell_length_b   3.72350284
_cell_length_c   30.03586983
_cell_angle_alpha   90.00000000
_cell_angle_beta   90.00000000
_cell_angle_gamma   119.99412401
_symmetry_Int_Tables_number   1
_chemical_formula_structural   Al2Zn2S5
_chemical_formula_sum   'Al4 Zn4 S10'
_cell_volume   360.66162552
_cell_formula_units_Z   2
loop_
 _symmetry_equiv_pos_site_id
 _symmetry_equiv_pos_as_xyz
  1  'x, y, z'
loop_
 _atom_site_type_symbol
 _atom_site_label
 _atom_site_symmetry_multiplicity
 _atom_site_fract_x
 _atom_site_fract_y
 _atom_site_fract_z
 _atom_site_occupancy
  Al  Al0  1  0.00000064  0.99999936  0.31005486  1
  Al  Al1  1  0.99999936  0.00000064  0.81005486  1
  Al  Al2  1  0.66666747  0.33333253  0.08244144  1
  Al  Al3  1  0.33333253  0.66666747  0.58244144  1
  Zn  Zn4  1  0.66670578  0.33329422  0.43310892  1
  Zn  Zn5  1  0.33329422  0.66670578  0.93310892  1
  Zn  Zn6  1  0.33331289  0.66668711  0.19089366  1
  Zn  Zn7  1  0.66668711  0.33331289  0.69089366  1
  S  S8  1  0.33333758  0.66666242  0.45853525  1
  S  S9  1  0.66666242  0.33333758  0.95853525  1
  S  S10  1  0.66666760  0.33333240  0.34857405  1
  S  S11  1  0.33333240  0.66666760  0.84857405  1
  S  S12  1  0.33331105  0.66668895  0.26534916  1
  S  S13  1  0.66668895  0.33331105  0.76534916  1
  S  S14  1  0.66668042  0.33331958  0.15797010  1
  S  S15  1  0.33331958  0.66668042  0.65797010  1
  S  S16  1  0.33331306  0.66668694  0.05507256  1
  S  S17  1  0.66668694  0.33331306  0.55507256  1
