# generated using pymatgen
data_Ca2ZnP2(H2O5)2
_symmetry_space_group_name_H-M   'P 1'
_cell_length_a   5.56503607
_cell_length_b   5.76996091
_cell_length_c   6.86945931
_cell_angle_alpha   107.38560713
_cell_angle_beta   97.28640952
_cell_angle_gamma   108.96156259
_symmetry_Int_Tables_number   1
_chemical_formula_structural   Ca2ZnP2(H2O5)2
_chemical_formula_sum   'Ca2 Zn1 P2 H4 O10'
_cell_volume   192.85465193
_cell_formula_units_Z   1
loop_
 _symmetry_equiv_pos_site_id
 _symmetry_equiv_pos_as_xyz
  1  'x, y, z'
loop_
 _atom_site_type_symbol
 _atom_site_label
 _atom_site_symmetry_multiplicity
 _atom_site_fract_x
 _atom_site_fract_y
 _atom_site_fract_z
 _atom_site_occupancy
  Ca  Ca0  1  0.14944636  0.29843399  0.76123359  1
  Ca  Ca1  1  0.85055364  0.70156601  0.23876641  1
  Zn  Zn2  1  0.50000000  -0.00000000  -0.00000000  1
  P  P3  1  0.16642324  0.33926797  0.24399961  1
  P  P4  1  0.83357676  0.66073203  0.75600039  1
  H  H5  1  0.41804538  0.82787690  0.31237439  1
  H  H6  1  0.58195462  0.17212310  0.68762561  1
  H  H7  1  0.64194516  0.12695967  0.39641632  1
  H  H8  1  0.35805484  0.87304033  0.60358368  1
  O  O9  1  0.39309345  0.33994261  0.12900862  1
  O  O10  1  0.60690655  0.66005739  0.87099138  1
  O  O11  1  0.91128446  0.26281592  0.07103431  1
  O  O12  1  0.08871554  0.73718408  0.92896569  1
  O  O13  1  0.13306516  0.16205372  0.37421090  1
  O  O14  1  0.86693484  0.83794628  0.62578910  1
  O  O15  1  0.22620999  0.63090351  0.38497979  1
  O  O16  1  0.77379001  0.36909649  0.61502021  1
  O  O17  1  0.42933924  0.04910044  0.72249757  1
  O  O18  1  0.57066076  0.95089956  0.27750243  1
