# generated using pymatgen
data_Ba7Sn3Te3Se10
_symmetry_space_group_name_H-M   'P 1'
_cell_length_a   9.51334119
_cell_length_b   13.16897402
_cell_length_c   25.64583027
_cell_angle_alpha   90.00000000
_cell_angle_beta   90.00000000
_cell_angle_gamma   90.00000000
_symmetry_Int_Tables_number   1
_chemical_formula_structural   Ba7Sn3Te3Se10
_chemical_formula_sum   'Ba28 Sn12 Te12 Se40'
_cell_volume   3212.93379959
_cell_formula_units_Z   4
loop_
 _symmetry_equiv_pos_site_id
 _symmetry_equiv_pos_as_xyz
  1  'x, y, z'
loop_
 _atom_site_type_symbol
 _atom_site_label
 _atom_site_symmetry_multiplicity
 _atom_site_fract_x
 _atom_site_fract_y
 _atom_site_fract_z
 _atom_site_occupancy
  Ba  Ba0  1  0.38385354  0.30739360  0.53243356  1
  Ba  Ba1  1  0.61614646  0.69260640  0.46756644  1
  Ba  Ba2  1  0.88385354  0.19260640  0.46756644  1
  Ba  Ba3  1  0.61614646  0.69260640  0.03243356  1
  Ba  Ba4  1  0.11614646  0.80739360  0.53243356  1
  Ba  Ba5  1  0.38385354  0.30739360  0.96756644  1
  Ba  Ba6  1  0.11614646  0.80739360  0.96756644  1
  Ba  Ba7  1  0.88385354  0.19260640  0.03243356  1
  Ba  Ba8  1  0.41386885  0.02063050  0.65892866  1
  Ba  Ba9  1  0.58613115  0.97936950  0.34107134  1
  Ba  Ba10  1  0.91386885  0.47936950  0.34107134  1
  Ba  Ba11  1  0.58613115  0.97936950  0.15892866  1
  Ba  Ba12  1  0.08613115  0.52063050  0.65892866  1
  Ba  Ba13  1  0.41386885  0.02063050  0.84107134  1
  Ba  Ba14  1  0.08613115  0.52063050  0.84107134  1
  Ba  Ba15  1  0.91386885  0.47936950  0.15892866  1
  Ba  Ba16  1  0.10209615  0.13845119  0.25000000  1
  Ba  Ba17  1  0.89790385  0.86154881  0.75000000  1
  Ba  Ba18  1  0.60209615  0.36154881  0.75000000  1
  Ba  Ba19  1  0.39790385  0.63845119  0.25000000  1
  Ba  Ba20  1  0.40982420  0.34141885  0.15261111  1
  Ba  Ba21  1  0.59017580  0.65858115  0.84738889  1
  Ba  Ba22  1  0.90982420  0.15858115  0.84738889  1
  Ba  Ba23  1  0.59017580  0.65858115  0.65261111  1
  Ba  Ba24  1  0.09017580  0.84141885  0.15261111  1
  Ba  Ba25  1  0.40982420  0.34141885  0.34738889  1
  Ba  Ba26  1  0.09017580  0.84141885  0.34738889  1
  Ba  Ba27  1  0.90982420  0.15858115  0.65261111  1
  Sn  Sn28  1  0.69608226  0.26028194  0.25000000  1
  Sn  Sn29  1  0.30391774  0.73971806  0.75000000  1
  Sn  Sn30  1  0.19608226  0.23971806  0.75000000  1
  Sn  Sn31  1  0.80391774  0.76028194  0.25000000  1
  Sn  Sn32  1  0.30067518  0.04598102  0.05423623  1
  Sn  Sn33  1  0.69932482  0.95401898  0.94576377  1
  Sn  Sn34  1  0.80067518  0.45401898  0.94576377  1
  Sn  Sn35  1  0.69932482  0.95401898  0.55423623  1
  Sn  Sn36  1  0.19932482  0.54598102  0.05423623  1
  Sn  Sn37  1  0.30067518  0.04598102  0.44576377  1
  Sn  Sn38  1  0.19932482  0.54598102  0.44576377  1
  Sn  Sn39  1  0.80067518  0.45401898  0.55423623  1
  Te  Te40  1  0.18014859  0.07775805  0.54354786  1
  Te  Te41  1  0.81985141  0.92224195  0.45645214  1
  Te  Te42  1  0.68014859  0.42224195  0.45645214  1
  Te  Te43  1  0.81985141  0.92224195  0.04354786  1
  Te  Te44  1  0.31985141  0.57775805  0.54354786  1
  Te  Te45  1  0.18014859  0.07775805  0.95645214  1
  Te  Te46  1  0.31985141  0.57775805  0.95645214  1
  Te  Te47  1  0.68014859  0.42224195  0.04354786  1
  Te  Te48  1  0.17359304  0.39959263  0.25000000  1
  Te  Te49  1  0.82640696  0.60040737  0.75000000  1
  Te  Te50  1  0.67359304  0.10040737  0.75000000  1
  Te  Te51  1  0.32640696  0.89959263  0.25000000  1
  Se  Se52  1  0.33126687  0.28005530  0.66803950  1
  Se  Se53  1  0.66873313  0.71994470  0.33196050  1
  Se  Se54  1  0.83126687  0.21994470  0.33196050  1
  Se  Se55  1  0.66873313  0.71994470  0.16803950  1
  Se  Se56  1  0.16873313  0.78005530  0.66803950  1
  Se  Se57  1  0.33126687  0.28005530  0.83196050  1
  Se  Se58  1  0.16873313  0.78005530  0.83196050  1
  Se  Se59  1  0.83126687  0.21994470  0.16803950  1
  Se  Se60  1  0.11249807  0.09217153  0.12155270  1
  Se  Se61  1  0.88750193  0.90782847  0.87844730  1
  Se  Se62  1  0.61249807  0.40782847  0.87844730  1
  Se  Se63  1  0.88750193  0.90782847  0.62155270  1
  Se  Se64  1  0.38750193  0.59217153  0.12155270  1
  Se  Se65  1  0.11249807  0.09217153  0.37844730  1
  Se  Se66  1  0.38750193  0.59217153  0.37844730  1
  Se  Se67  1  0.61249807  0.40782847  0.62155270  1
  Se  Se68  1  0.64715347  0.45310829  0.25000000  1
  Se  Se69  1  0.35284653  0.54689171  0.75000000  1
  Se  Se70  1  0.14715347  0.04689171  0.75000000  1
  Se  Se71  1  0.85284653  0.95310829  0.25000000  1
  Se  Se72  1  0.46846783  0.15517507  0.25000000  1
  Se  Se73  1  0.53153217  0.84482493  0.75000000  1
  Se  Se74  1  0.96846783  0.34482493  0.75000000  1
  Se  Se75  1  0.03153217  0.65517507  0.25000000  1
  Se  Se76  1  0.51191324  0.16170266  0.07098002  1
  Se  Se77  1  0.48808676  0.83829734  0.92901998  1
  Se  Se78  1  0.01191324  0.33829734  0.92901998  1
  Se  Se79  1  0.48808676  0.83829734  0.57098002  1
  Se  Se80  1  0.98808676  0.66170266  0.07098002  1
  Se  Se81  1  0.51191324  0.16170266  0.42901998  1
  Se  Se82  1  0.98808676  0.66170266  0.42901998  1
  Se  Se83  1  0.01191324  0.33829734  0.57098002  1
  Se  Se84  1  0.14567603  0.35820270  0.07283584  1
  Se  Se85  1  0.85432397  0.64179730  0.92716416  1
  Se  Se86  1  0.64567603  0.14179730  0.92716416  1
  Se  Se87  1  0.85432397  0.64179730  0.57283584  1
  Se  Se88  1  0.35432397  0.85820270  0.07283584  1
  Se  Se89  1  0.14567603  0.35820270  0.42716416  1
  Se  Se90  1  0.35432397  0.85820270  0.42716416  1
  Se  Se91  1  0.64567603  0.14179730  0.57283584  1
