# generated using pymatgen
data_Ba2Ti4Fe2O13
_symmetry_space_group_name_H-M   'P 1'
_cell_length_a   3.93110019
_cell_length_b   7.90445572
_cell_length_c   9.25823565
_cell_angle_alpha   98.58016349
_cell_angle_beta   90.00000000
_cell_angle_gamma   104.39844257
_symmetry_Int_Tables_number   1
_chemical_formula_structural   Ba2Ti4Fe2O13
_chemical_formula_sum   'Ba2 Ti4 Fe2 O13'
_cell_volume   275.32155363
_cell_formula_units_Z   1
loop_
 _symmetry_equiv_pos_site_id
 _symmetry_equiv_pos_as_xyz
  1  'x, y, z'
loop_
 _atom_site_type_symbol
 _atom_site_label
 _atom_site_symmetry_multiplicity
 _atom_site_fract_x
 _atom_site_fract_y
 _atom_site_fract_z
 _atom_site_occupancy
  Ba  Ba0  1  0.55029039  0.10058078  0.76862379  1
  Ba  Ba1  1  0.44970961  0.89941922  0.23137621  1
  Ti  Ti2  1  0.83368368  0.66736737  0.56374728  1
  Ti  Ti3  1  0.16631632  0.33263263  0.43625272  1
  Ti  Ti4  1  0.87765893  0.75531786  0.91383937  1
  Ti  Ti5  1  0.12234107  0.24468214  0.08616063  1
  Fe  Fe6  1  0.24157830  0.48315660  0.76296215  1
  Fe  Fe7  1  0.75842170  0.51684340  0.23703785  1
  O  O8  1  0.87218901  0.74437802  0.38591539  1
  O  O9  1  0.12781099  0.25562198  0.61408461  1
  O  O10  1  0.36852485  0.73704970  0.88841190  1
  O  O11  1  0.63147515  0.26295030  0.11158810  1
  O  O12  1  0.93100796  0.86201593  0.70039032  1
  O  O13  1  0.06899204  0.13798407  0.29960968  1
  O  O14  1  0.76527663  0.53055326  0.75856027  1
  O  O15  1  0.23472337  0.46944674  0.24143973  1
  O  O16  1  -0.00000000  -0.00000000  -0.00000000  1
  O  O17  1  0.69955245  0.39910490  0.43083708  1
  O  O18  1  0.30044755  0.60089510  0.56916292  1
  O  O19  1  0.16542544  0.33085088  0.91391478  1
  O  O20  1  0.83457456  0.66914912  0.08608522  1
