# generated using pymatgen
data_Zr4CuNi
_symmetry_space_group_name_H-M   'P 1'
_cell_length_a   5.20768647
_cell_length_b   5.33812595
_cell_length_c   5.33812595
_cell_angle_alpha   103.76449094
_cell_angle_beta   119.19492112
_cell_angle_gamma   60.80507888
_symmetry_Int_Tables_number   1
_chemical_formula_structural   Zr4CuNi
_chemical_formula_sum   'Zr4 Cu1 Ni1'
_cell_volume   113.08797931
_cell_formula_units_Z   1
loop_
 _symmetry_equiv_pos_site_id
 _symmetry_equiv_pos_as_xyz
  1  'x, y, z'
loop_
 _atom_site_type_symbol
 _atom_site_label
 _atom_site_symmetry_multiplicity
 _atom_site_fract_x
 _atom_site_fract_y
 _atom_site_fract_z
 _atom_site_occupancy
  Zr  Zr0  1  0.16118916  0.50000000  0.82237832  1
  Zr  Zr1  1  0.83881084  0.50000000  0.17762168  1
  Zr  Zr2  1  0.33881084  0.82237832  0.50000000  1
  Zr  Zr3  1  0.66118916  0.17762168  0.50000000  1
  Cu  Cu4  1  0.75000000  0.00000000  -0.00000000  1
  Ni  Ni5  1  0.25000000  -0.00000000  0.00000000  1
