# generated using pymatgen
data_ZrVCr
_symmetry_space_group_name_H-M   'P 1'
_cell_length_a   5.13519747
_cell_length_b   5.13519747
_cell_length_c   5.13519747
_cell_angle_alpha   90.02558442
_cell_angle_beta   58.15240990
_cell_angle_gamma   118.21522895
_symmetry_Int_Tables_number   1
_chemical_formula_structural   ZrVCr
_chemical_formula_sum   'Zr2 V2 Cr2'
_cell_volume   95.58812033
_cell_formula_units_Z   2
loop_
 _symmetry_equiv_pos_site_id
 _symmetry_equiv_pos_as_xyz
  1  'x, y, z'
loop_
 _atom_site_type_symbol
 _atom_site_label
 _atom_site_symmetry_multiplicity
 _atom_site_fract_x
 _atom_site_fract_y
 _atom_site_fract_z
 _atom_site_occupancy
  Zr  Zr0  1  0.50000000  0.74826339  0.75173661  1
  Zr  Zr1  1  -0.00000000  0.00173661  0.99826339  1
  V  V2  1  0.25000000  0.87500000  0.37500000  1
  V  V3  1  0.75000000  0.37500000  0.37500000  1
  Cr  Cr4  1  0.75000000  0.37500000  0.87500000  1
  Cr  Cr5  1  0.25000000  0.37500000  0.37500000  1
