# generated using pymatgen
data_ZnInSnAs3
_symmetry_space_group_name_H-M   'P 1'
_cell_length_a   4.26396870
_cell_length_b   6.01884312
_cell_length_c   7.39532678
_cell_angle_alpha   114.00847468
_cell_angle_beta   73.24450811
_cell_angle_gamma   90.00000000
_symmetry_Int_Tables_number   1
_chemical_formula_structural   ZnInSnAs3
_chemical_formula_sum   'Zn1 In1 Sn1 As3'
_cell_volume   164.51450976
_cell_formula_units_Z   1
loop_
 _symmetry_equiv_pos_site_id
 _symmetry_equiv_pos_as_xyz
  1  'x, y, z'
loop_
 _atom_site_type_symbol
 _atom_site_label
 _atom_site_symmetry_multiplicity
 _atom_site_fract_x
 _atom_site_fract_y
 _atom_site_fract_z
 _atom_site_occupancy
  Zn  Zn0  1  0.99913083  0.99011753  0.00173834  1
  In  In1  1  0.33667386  0.66496305  0.32665129  1
  Sn  Sn2  1  0.66438531  0.34575051  0.67123037  1
  As  As3  1  0.50034947  0.77567752  0.99930107  1
  As  As4  1  0.84181831  0.39331156  0.31636238  1
  As  As5  1  0.15764222  0.08017983  0.68471655  1
