# generated using pymatgen
data_Ba5(Sn3Bi2)3
_symmetry_space_group_name_H-M   'P 1'
_cell_length_a   7.44877744
_cell_length_b   7.44877744
_cell_length_c   28.01080680
_cell_angle_alpha   90.00000000
_cell_angle_beta   90.00000000
_cell_angle_gamma   120.00000517
_symmetry_Int_Tables_number   1
_chemical_formula_structural   Ba5(Sn3Bi2)3
_chemical_formula_sum   'Ba10 Sn18 Bi12'
_cell_volume   1345.94162351
_cell_formula_units_Z   2
loop_
 _symmetry_equiv_pos_site_id
 _symmetry_equiv_pos_as_xyz
  1  'x, y, z'
loop_
 _atom_site_type_symbol
 _atom_site_label
 _atom_site_symmetry_multiplicity
 _atom_site_fract_x
 _atom_site_fract_y
 _atom_site_fract_z
 _atom_site_occupancy
  Ba  Ba0  1  0.66666700  0.33333300  0.44310414  1
  Ba  Ba1  1  0.33333300  0.66666700  0.55689586  1
  Ba  Ba2  1  0.33333300  0.66666700  0.94310414  1
  Ba  Ba3  1  0.66666700  0.33333300  0.05689586  1
  Ba  Ba4  1  0.00000000  0.00000000  0.84181788  1
  Ba  Ba5  1  0.00000000  0.00000000  0.15818212  1
  Ba  Ba6  1  0.00000000  0.00000000  0.34181788  1
  Ba  Ba7  1  0.00000000  0.00000000  0.65818212  1
  Ba  Ba8  1  0.66666700  0.33333300  0.25000000  1
  Ba  Ba9  1  0.33333300  0.66666700  0.75000000  1
  Sn  Sn10  1  0.80435719  0.19564281  0.75000000  1
  Sn  Sn11  1  0.19564281  0.80435719  0.25000000  1
  Sn  Sn12  1  0.39128562  0.19564281  0.75000000  1
  Sn  Sn13  1  0.60871438  0.80435719  0.25000000  1
  Sn  Sn14  1  0.80435719  0.60871438  0.75000000  1
  Sn  Sn15  1  0.19564281  0.39128562  0.25000000  1
  Sn  Sn16  1  0.47183840  0.52816160  0.34999772  1
  Sn  Sn17  1  0.52816160  0.47183840  0.65000228  1
  Sn  Sn18  1  0.05632320  0.52816160  0.34999772  1
  Sn  Sn19  1  0.52816160  0.47183840  0.84999772  1
  Sn  Sn20  1  0.94367680  0.47183840  0.65000228  1
  Sn  Sn21  1  0.47183840  0.52816160  0.15000228  1
  Sn  Sn22  1  0.47183840  0.94367680  0.34999772  1
  Sn  Sn23  1  0.94367680  0.47183840  0.84999772  1
  Sn  Sn24  1  0.52816160  0.05632320  0.65000228  1
  Sn  Sn25  1  0.05632320  0.52816160  0.15000228  1
  Sn  Sn26  1  0.52816160  0.05632320  0.84999772  1
  Sn  Sn27  1  0.47183840  0.94367680  0.15000228  1
  Bi  Bi28  1  0.83422872  0.16577128  0.94901106  1
  Bi  Bi29  1  0.16577128  0.83422872  0.05098894  1
  Bi  Bi30  1  0.33154256  0.16577128  0.94901106  1
  Bi  Bi31  1  0.16577128  0.83422872  0.44901106  1
  Bi  Bi32  1  0.66845744  0.83422872  0.05098894  1
  Bi  Bi33  1  0.83422872  0.16577128  0.55098894  1
  Bi  Bi34  1  0.83422872  0.66845744  0.94901106  1
  Bi  Bi35  1  0.66845744  0.83422872  0.44901106  1
  Bi  Bi36  1  0.16577128  0.33154256  0.05098894  1
  Bi  Bi37  1  0.33154256  0.16577128  0.55098894  1
  Bi  Bi38  1  0.16577128  0.33154256  0.44901106  1
  Bi  Bi39  1  0.83422872  0.66845744  0.55098894  1
