# generated using pymatgen
data_Al2ZnS4
_symmetry_space_group_name_H-M   'P 1'
_cell_length_a   3.68489533
_cell_length_b   3.68485247
_cell_length_c   11.95318037
_cell_angle_alpha   89.99999999
_cell_angle_beta   89.99975514
_cell_angle_gamma   119.99961488
_symmetry_Int_Tables_number   1
_chemical_formula_structural   Al2ZnS4
_chemical_formula_sum   'Al2 Zn1 S4'
_cell_volume   140.55977422
_cell_formula_units_Z   1
loop_
 _symmetry_equiv_pos_site_id
 _symmetry_equiv_pos_as_xyz
  1  'x, y, z'
loop_
 _atom_site_type_symbol
 _atom_site_label
 _atom_site_symmetry_multiplicity
 _atom_site_fract_x
 _atom_site_fract_y
 _atom_site_fract_z
 _atom_site_occupancy
  Al  Al0  1  0.66663173  0.33331587  0.92116498  1
  Al  Al1  1  0.33335512  0.66667756  0.61562164  1
  Zn  Zn2  1  0.99996397  0.99998198  0.30347229  1
  S  S3  1  0.99996812  0.99998406  0.99556443  1
  S  S4  1  0.00000639  0.00000320  0.52036038  1
  S  S5  1  0.66664862  0.33332431  0.73295165  1
  S  S6  1  0.66662604  0.33331302  0.24286462  1
