# generated using pymatgen
data_Yb(CuS)3
_symmetry_space_group_name_H-M   'P 1'
_cell_length_a   6.54848669
_cell_length_b   7.48590499
_cell_length_c   6.54920981
_cell_angle_alpha   64.05423232
_cell_angle_beta   119.97986308
_cell_angle_gamma   115.89537990
_symmetry_Int_Tables_number   1
_chemical_formula_structural   Yb(CuS)3
_chemical_formula_sum   'Yb2 Cu6 S6'
_cell_volume   240.06154194
_cell_formula_units_Z   2
loop_
 _symmetry_equiv_pos_site_id
 _symmetry_equiv_pos_as_xyz
  1  'x, y, z'
loop_
 _atom_site_type_symbol
 _atom_site_label
 _atom_site_symmetry_multiplicity
 _atom_site_fract_x
 _atom_site_fract_y
 _atom_site_fract_z
 _atom_site_occupancy
  Yb  Yb0  1  0.00014175  0.00037515  -0.00002116  1
  Yb  Yb1  1  0.33319125  0.99962485  0.66668816  1
  Cu  Cu2  1  0.78876015  0.36566225  0.87430535  1
  Cu  Cu3  1  0.12577701  0.36588712  0.54880835  1
  Cu  Cu4  1  0.45092332  0.36562049  0.21121197  1
  Cu  Cu5  1  0.88241068  0.63437951  0.45545403  1
  Cu  Cu6  1  0.20755599  0.63411288  0.11785865  1
  Cu  Cu7  1  0.54457285  0.63433775  0.79236165  1
  S  S8  1  0.58005508  0.73881575  0.08907298  1
  S  S9  1  0.24808157  0.73880057  0.41997337  1
  S  S10  1  0.91080291  0.73875672  0.75210485  1
  S  S11  1  0.42253109  0.26124328  0.91456115  1
  S  S12  1  0.08525143  0.26119943  0.24669363  1
  S  S13  1  0.75327792  0.26118425  0.57759402  1
