# generated using pymatgen
data_Zn3InGaO6
_symmetry_space_group_name_H-M   'P 1'
_cell_length_a   3.33697760
_cell_length_b   3.33697760
_cell_length_c   14.17307473
_cell_angle_alpha   90.00000091
_cell_angle_beta   96.76067525
_cell_angle_gamma   59.99999329
_symmetry_Int_Tables_number   1
_chemical_formula_structural   Zn3InGaO6
_chemical_formula_sum   'Zn3 In1 Ga1 O6'
_cell_volume   135.41016292
_cell_formula_units_Z   1
loop_
 _symmetry_equiv_pos_site_id
 _symmetry_equiv_pos_as_xyz
  1  'x, y, z'
loop_
 _atom_site_type_symbol
 _atom_site_label
 _atom_site_symmetry_multiplicity
 _atom_site_fract_x
 _atom_site_fract_y
 _atom_site_fract_z
 _atom_site_occupancy
  Zn  Zn0  1  0.52193952  0.73903024  0.78290928  1
  Zn  Zn1  1  0.48222985  0.25888508  0.22334477  1
  Zn  Zn2  1  0.73145379  0.13427311  0.59718068  1
  In  In3  1  0.00179144  0.99910428  0.00268716  1
  Ga  Ga4  1  0.27434511  0.86282744  0.41151767  1
  O  O5  1  0.82640972  0.08679514  0.73961458  1
  O  O6  1  0.17950331  0.91024835  0.26925496  1
  O  O7  1  0.36944121  0.81527939  0.55416182  1
  O  O8  1  0.60853681  0.19573160  0.41280521  1
  O  O9  1  0.38779148  0.30610426  0.08168722  1
  O  O10  1  0.61655777  0.69172112  0.92483665  1
