# generated using pymatgen
data_Yb(HoSe2)2
_symmetry_space_group_name_H-M   'P 1'
_cell_length_a   4.11892845
_cell_length_b   7.19557014
_cell_length_c   7.02391805
_cell_angle_alpha   71.91763609
_cell_angle_beta   90.00000664
_cell_angle_gamma   89.99999980
_symmetry_Int_Tables_number   1
_chemical_formula_structural   Yb(HoSe2)2
_chemical_formula_sum   'Yb1 Ho2 Se4'
_cell_volume   197.89365690
_cell_formula_units_Z   1
loop_
 _symmetry_equiv_pos_site_id
 _symmetry_equiv_pos_as_xyz
  1  'x, y, z'
loop_
 _atom_site_type_symbol
 _atom_site_label
 _atom_site_symmetry_multiplicity
 _atom_site_fract_x
 _atom_site_fract_y
 _atom_site_fract_z
 _atom_site_occupancy
  Yb  Yb0  1  -0.00000000  0.50000000  0.50000000  1
  Ho  Ho1  1  -0.00000000  -0.00000000  -0.00000000  1
  Ho  Ho2  1  0.50000000  -0.00000000  0.50000000  1
  Se  Se3  1  0.50000000  0.24319022  0.75627208  1
  Se  Se4  1  1.00000000  0.23340888  0.25792220  1
  Se  Se5  1  0.50000000  0.75680978  0.24372792  1
  Se  Se6  1  0.00000000  0.76659112  0.74207780  1
