# generated using pymatgen
data_Zn4CdSe5
_symmetry_space_group_name_H-M   'P 1'
_cell_length_a   4.11792862
_cell_length_b   14.94453990
_cell_length_c   4.11792862
_cell_angle_alpha   82.08096069
_cell_angle_beta   90.00000000
_cell_angle_gamma   82.08096069
_symmetry_Int_Tables_number   1
_chemical_formula_structural   Zn4CdSe5
_chemical_formula_sum   'Zn4 Cd1 Se5'
_cell_volume   248.56273849
_cell_formula_units_Z   1
loop_
 _symmetry_equiv_pos_site_id
 _symmetry_equiv_pos_as_xyz
  1  'x, y, z'
loop_
 _atom_site_type_symbol
 _atom_site_label
 _atom_site_symmetry_multiplicity
 _atom_site_fract_x
 _atom_site_fract_y
 _atom_site_fract_z
 _atom_site_occupancy
  Zn  Zn0  1  0.99545059  0.00909882  0.99545059  1
  Zn  Zn1  1  0.39919324  0.20161353  0.39919324  1
  Zn  Zn2  1  0.80080676  0.39838647  0.80080676  1
  Zn  Zn3  1  0.20454941  0.59090118  0.20454941  1
  Cd  Cd4  1  0.60000000  0.80000000  0.60000000  1
  Se  Se5  1  0.35000000  0.30000000  0.85000000  1
  Se  Se6  1  0.75242395  0.49515211  0.25242395  1
  Se  Se7  1  0.15692815  0.68614371  0.65692815  1
  Se  Se8  1  0.54307185  0.91385629  0.04307185  1
  Se  Se9  1  0.94757605  0.10484789  0.44757605  1
