# generated using pymatgen
data_Al2ZnS4
_symmetry_space_group_name_H-M   'P 1'
_cell_length_a   3.68629786
_cell_length_b   3.68629847
_cell_length_c   24.06835364
_cell_angle_alpha   85.60222773
_cell_angle_beta   85.60222825
_cell_angle_gamma   60.00181827
_symmetry_Int_Tables_number   1
_chemical_formula_structural   Al2ZnS4
_chemical_formula_sum   'Al4 Zn2 S8'
_cell_volume   282.13486541
_cell_formula_units_Z   2
loop_
 _symmetry_equiv_pos_site_id
 _symmetry_equiv_pos_as_xyz
  1  'x, y, z'
loop_
 _atom_site_type_symbol
 _atom_site_label
 _atom_site_symmetry_multiplicity
 _atom_site_fract_x
 _atom_site_fract_y
 _atom_site_fract_z
 _atom_site_occupancy
  Al  Al0  1  0.39464880  0.39464880  0.81620907  1
  Al  Al1  1  0.11214354  0.11214354  0.66389497  1
  Al  Al2  1  0.22805588  0.22805588  0.31589050  1
  Al  Al3  1  0.94548598  0.94548598  0.16337424  1
  Zn  Zn4  1  0.67592326  0.67592326  0.97206176  1
  Zn  Zn5  1  0.50846573  0.50846573  0.47448338  1
  S  S6  1  0.99915476  0.99915476  0.00238406  1
  S  S7  1  0.71218211  0.71218211  0.86358672  1
  S  S8  1  0.08068433  0.08068433  0.75776101  1
  S  S9  1  0.45777879  0.45777879  0.62705220  1
  S  S10  1  0.16503835  0.16503835  0.50464227  1
  S  S11  1  0.54551417  0.54551417  0.36350654  1
  S  S12  1  0.91421503  0.91421503  0.25729399  1
  S  S13  1  0.62450926  0.62450926  0.12635929  1
