# generated using pymatgen
data_Zn3CdGa2(AgS4)2
_symmetry_space_group_name_H-M   'P 1'
_cell_length_a   6.47597756
_cell_length_b   6.77137895
_cell_length_c   8.00445540
_cell_angle_alpha   90.20406134
_cell_angle_beta   89.97672824
_cell_angle_gamma   89.92567416
_symmetry_Int_Tables_number   1
_chemical_formula_structural   Zn3CdGa2(AgS4)2
_chemical_formula_sum   'Zn3 Cd1 Ga2 Ag2 S8'
_cell_volume   351.00320940
_cell_formula_units_Z   1
loop_
 _symmetry_equiv_pos_site_id
 _symmetry_equiv_pos_as_xyz
  1  'x, y, z'
loop_
 _atom_site_type_symbol
 _atom_site_label
 _atom_site_symmetry_multiplicity
 _atom_site_fract_x
 _atom_site_fract_y
 _atom_site_fract_z
 _atom_site_occupancy
  Zn  Zn0  1  0.00283399  0.16602764  0.75098938  1
  Zn  Zn1  1  0.50124593  0.82763643  0.25094152  1
  Zn  Zn2  1  0.50235200  0.83273964  0.74953130  1
  Cd  Cd3  1  0.00055877  0.16847292  0.24844860  1
  Ga  Ga4  1  0.50146005  0.32483605  0.50493016  1
  Ga  Ga5  1  0.00224251  0.67769441  0.99504288  1
  Ag  Ag6  1  0.00710424  0.66463013  0.50240322  1
  Ag  Ag7  1  0.50244402  0.33874779  0.99725098  1
  S  S8  1  0.85680111  0.31590348  0.51561487  1
  S  S9  1  0.36043997  0.69532052  0.99946111  1
  S  S10  1  0.40171778  0.65519391  0.50076223  1
  S  S11  1  0.89743989  0.35383877  0.98468467  1
  S  S12  1  0.39559570  0.16160379  0.26641094  1
  S  S13  1  0.36897484  0.16007159  0.73374736  1
  S  S14  1  0.86561046  0.81530218  0.23343936  1
  S  S15  1  0.87077874  0.84198075  0.76634144  1
