# generated using pymatgen
data_ZnFe4NiO8
_symmetry_space_group_name_H-M   'P 1'
_cell_length_a   6.01190197
_cell_length_b   6.01190197
_cell_length_c   6.00726026
_cell_angle_alpha   90.00000000
_cell_angle_beta   59.97443654
_cell_angle_gamma   120.00000000
_symmetry_Int_Tables_number   1
_chemical_formula_structural   ZnFe4NiO8
_chemical_formula_sum   'Zn1 Fe4 Ni1 O8'
_cell_volume   153.46781664
_cell_formula_units_Z   1
loop_
 _symmetry_equiv_pos_site_id
 _symmetry_equiv_pos_as_xyz
  1  'x, y, z'
loop_
 _atom_site_type_symbol
 _atom_site_label
 _atom_site_symmetry_multiplicity
 _atom_site_fract_x
 _atom_site_fract_y
 _atom_site_fract_z
 _atom_site_occupancy
  Zn  Zn0  1  0.99516683  0.99758342  0.00724975  1
  Fe  Fe1  1  0.25282385  0.37349992  0.37367623  1
  Fe  Fe2  1  0.25282385  0.87932392  0.37367623  1
  Fe  Fe3  1  0.74699984  0.37349992  0.37367623  1
  Fe  Fe4  1  0.50315606  0.75157803  0.74526590  1
  Ni  Ni5  1  0.74732481  0.37366240  0.87901279  1
  O  O6  1  0.26700423  0.13350212  0.59949365  1
  O  O7  1  0.72545231  0.13142060  0.14312708  1
  O  O8  1  0.72545231  0.59403171  0.14312708  1
  O  O9  1  0.26284120  0.13142060  0.14312708  1
  O  O10  1  0.23895537  0.61947768  0.14156695  1
  O  O11  1  0.76799982  0.62299984  0.60900034  1
  O  O12  1  0.76799982  0.14499997  0.60900034  1
  O  O13  1  0.24599969  0.62299984  0.60900034  1
