# generated using pymatgen
data_YMgAl4
_symmetry_space_group_name_H-M   'P 1'
_cell_length_a   5.52067683
_cell_length_b   5.52067683
_cell_length_c   8.91302350
_cell_angle_alpha   89.99294525
_cell_angle_beta   90.00705475
_cell_angle_gamma   119.99827971
_symmetry_Int_Tables_number   1
_chemical_formula_structural   YMgAl4
_chemical_formula_sum   'Y2 Mg2 Al8'
_cell_volume   235.25987261
_cell_formula_units_Z   2
loop_
 _symmetry_equiv_pos_site_id
 _symmetry_equiv_pos_as_xyz
  1  'x, y, z'
loop_
 _atom_site_type_symbol
 _atom_site_label
 _atom_site_symmetry_multiplicity
 _atom_site_fract_x
 _atom_site_fract_y
 _atom_site_fract_z
 _atom_site_occupancy
  Y  Y0  1  0.33330200  0.66669800  0.06994391  1
  Y  Y1  1  0.66669800  0.33330200  0.93005609  1
  Mg  Mg2  1  0.66668210  0.33331790  0.55896847  1
  Mg  Mg3  1  0.33331790  0.66668210  0.44103153  1
  Al  Al4  1  -0.00000000  -0.00000000  0.50000000  1
  Al  Al5  1  -0.00000000  -0.00000000  -0.00000000  1
  Al  Al6  1  0.17015638  0.34037992  0.74804195  1
  Al  Al7  1  0.17019091  0.82980909  0.74802386  1
  Al  Al8  1  0.65962008  0.82984362  0.74804195  1
  Al  Al9  1  0.82984362  0.65962008  0.25195805  1
  Al  Al10  1  0.82980909  0.17019091  0.25197614  1
  Al  Al11  1  0.34037992  0.17015638  0.25195805  1
