# generated using pymatgen
data_Zn7(SbO6)2
_symmetry_space_group_name_H-M   'P 1'
_cell_length_a   6.24726540
_cell_length_b   8.72022643
_cell_length_c   10.61118188
_cell_angle_alpha   66.16471233
_cell_angle_beta   73.59252895
_cell_angle_gamma   92.01471100
_symmetry_Int_Tables_number   1
_chemical_formula_structural   Zn7(SbO6)2
_chemical_formula_sum   'Zn14 Sb4 O24'
_cell_volume   499.83854521
_cell_formula_units_Z   2
loop_
 _symmetry_equiv_pos_site_id
 _symmetry_equiv_pos_as_xyz
  1  'x, y, z'
loop_
 _atom_site_type_symbol
 _atom_site_label
 _atom_site_symmetry_multiplicity
 _atom_site_fract_x
 _atom_site_fract_y
 _atom_site_fract_z
 _atom_site_occupancy
  Zn  Zn0  1  0.22689721  0.14712835  0.98652946  1
  Zn  Zn1  1  0.55334283  0.45916127  0.33177214  1
  Zn  Zn2  1  0.89089778  0.81074502  0.66332080  1
  Zn  Zn3  1  0.77999017  0.87417173  0.00156086  1
  Zn  Zn4  1  0.10643579  0.18620465  0.34680354  1
  Zn  Zn5  1  0.44243622  0.52258898  0.67001320  1
  Zn  Zn6  1  0.50243441  0.00753294  0.49779424  1
  Zn  Zn7  1  0.83089859  0.32580006  0.83553876  1
  Zn  Zn8  1  0.33956086  0.83650864  0.81803199  1
  Zn  Zn9  1  0.66666700  0.16666700  0.16666700  1
  Zn  Zn10  1  0.99377214  0.49682436  0.51530101  1
  Zn  Zn11  1  0.00157645  0.49607503  0.98868473  1
  Zn  Zn12  1  0.33175655  0.83725797  0.34464827  1
  Zn  Zn13  1  0.66666700  0.16666700  0.66666700  1
  Sb  Sb14  1  0.16666700  0.66666700  0.16666700  1
  Sb  Sb15  1  0.50622923  0.49883209  0.99552197  1
  Sb  Sb16  1  0.82710377  0.83450091  0.33781103  1
  Sb  Sb17  1  0.16666700  0.16666700  0.66666700  1
  O  O18  1  0.65861962  0.42794526  0.14879704  1
  O  O19  1  0.99192143  0.75334828  0.48464528  1
  O  O20  1  0.32112744  0.08276783  0.82102022  1
  O  O21  1  0.81144474  0.58568544  0.84517711  1
  O  O22  1  0.14712095  0.89731048  0.17408585  1
  O  O23  1  0.47719099  0.24654393  0.51152841  1
  O  O24  1  0.96355497  0.26120834  0.00069801  1
  O  O25  1  0.30025110  0.60123863  0.32729767  1
  O  O26  1  0.63948218  0.93600325  0.66001912  1
  O  O27  1  0.49149935  0.26678273  0.00335484  1
  O  O28  1  0.85122240  0.59964177  0.32215712  1
  O  O29  1  0.16810403  0.93399968  0.66561867  1
  O  O30  1  0.34141257  0.57998572  0.84868872  1
  O  O31  1  0.67471338  0.90538774  0.18453596  1
  O  O32  1  0.01220556  0.25056517  0.51231278  1
  O  O33  1  0.18621205  0.43602252  0.15924715  1
  O  O34  1  0.52188926  0.74764856  0.48815689  1
  O  O35  1  0.85614201  0.08678907  0.82180459  1
  O  O36  1  0.03308190  0.73209437  0.00603533  1
  O  O37  1  0.36977803  0.07212466  0.33263499  1
  O  O38  1  0.69385182  0.39733075  0.67331488  1
  O  O39  1  0.48211060  0.73369123  0.01117588  1
  O  O40  1  0.84183365  0.06655027  0.32997816  1
  O  O41  1  0.16522997  0.39933432  0.66771533  1
