# generated using pymatgen
data_Zr10Sn7
_symmetry_space_group_name_H-M   'P 1'
_cell_length_a   5.92055232
_cell_length_b   8.72017556
_cell_length_c   8.72113262
_cell_angle_alpha   119.99637556
_cell_angle_beta   90.00622943
_cell_angle_gamma   89.98753991
_symmetry_Int_Tables_number   1
_chemical_formula_structural   Zr10Sn7
_chemical_formula_sum   'Zr10 Sn7'
_cell_volume   389.94811420
_cell_formula_units_Z   1
loop_
 _symmetry_equiv_pos_site_id
 _symmetry_equiv_pos_as_xyz
  1  'x, y, z'
loop_
 _atom_site_type_symbol
 _atom_site_label
 _atom_site_symmetry_multiplicity
 _atom_site_fract_x
 _atom_site_fract_y
 _atom_site_fract_z
 _atom_site_occupancy
  Zr  Zr0  1  0.50000128  0.33333339  0.66664845  1
  Zr  Zr1  1  0.50000128  0.66668494  0.33335155  1
  Zr  Zr2  1  0.00000504  0.66665968  0.33334053  1
  Zr  Zr3  1  0.00000504  0.33331915  0.66665947  1
  Zr  Zr4  1  0.76485990  0.27185866  0.00000000  1
  Zr  Zr5  1  0.76486017  0.72812653  0.72809639  1
  Zr  Zr6  1  0.76486017  0.00003015  0.27190361  1
  Zr  Zr7  1  0.23514141  0.72814263  1.00000000  1
  Zr  Zr8  1  0.23513892  0.27187562  0.27190910  1
  Zr  Zr9  1  0.23513892  0.99996652  0.72809090  1
  Sn  Sn10  1  0.74467538  0.61535156  0.00000000  1
  Sn  Sn11  1  0.74467813  0.38465254  0.38467165  1
  Sn  Sn12  1  0.74467813  0.99998089  0.61532835  1
  Sn  Sn13  1  0.25532517  0.38465106  1.00000000  1
  Sn  Sn14  1  0.25531964  0.61534819  0.61532893  1
  Sn  Sn15  1  0.25531964  0.00001926  0.38467107  1
  Sn  Sn16  1  0.49999180  -0.00000078  1.00000000  1
