# generated using pymatgen
data_TlCNO
_symmetry_space_group_name_H-M   'P 1'
_cell_length_a   5.81263498
_cell_length_b   5.81263498
_cell_length_c   5.81263498
_cell_angle_alpha   66.01977325
_cell_angle_beta   66.13738689
_cell_angle_gamma   100.89639891
_symmetry_Int_Tables_number   1
_chemical_formula_structural   TlCNO
_chemical_formula_sum   'Tl2 C2 N2 O2'
_cell_volume   148.69596518
_cell_formula_units_Z   2
loop_
 _symmetry_equiv_pos_site_id
 _symmetry_equiv_pos_as_xyz
  1  'x, y, z'
loop_
 _atom_site_type_symbol
 _atom_site_label
 _atom_site_symmetry_multiplicity
 _atom_site_fract_x
 _atom_site_fract_y
 _atom_site_fract_z
 _atom_site_occupancy
  Tl  Tl0  1  0.75613311  0.75000000  0.99386689  1
  Tl  Tl1  1  0.25613311  0.25000000  0.99386689  1
  C  C2  1  0.99769496  0.50245955  0.49984549  1
  C  C3  1  0.49769496  0.99754045  0.50476459  1
  N  N4  1  0.86221032  0.63529461  0.50249507  1
  N  N5  1  0.36221032  0.86470539  0.77308429  1
  O  O6  1  0.13396161  0.36479842  0.50123997  1
  O  O7  1  0.63396161  0.13520158  0.23083681  1
