# generated using pymatgen
data_Y4Fe34C3
_symmetry_space_group_name_H-M   'P 1'
_cell_length_a   6.47820362
_cell_length_b   6.44617024
_cell_length_c   12.91371698
_cell_angle_alpha   83.26842642
_cell_angle_beta   83.67295693
_cell_angle_gamma   83.77522463
_symmetry_Int_Tables_number   1
_chemical_formula_structural   Y4Fe34C3
_chemical_formula_sum   'Y4 Fe34 C3'
_cell_volume   529.79419081
_cell_formula_units_Z   1
loop_
 _symmetry_equiv_pos_site_id
 _symmetry_equiv_pos_as_xyz
  1  'x, y, z'
loop_
 _atom_site_type_symbol
 _atom_site_label
 _atom_site_symmetry_multiplicity
 _atom_site_fract_x
 _atom_site_fract_y
 _atom_site_fract_z
 _atom_site_occupancy
  Y  Y0  1  0.66318575  0.65296543  0.32702293  1
  Y  Y1  1  0.66058766  0.66025171  0.82524084  1
  Y  Y2  1  0.33681425  0.34703457  0.17297707  1
  Y  Y3  1  0.33941234  0.33974829  0.67475916  1
  Fe  Fe4  1  0.28487870  0.71534363  0.99963343  1
  Fe  Fe5  1  0.28522765  0.71604442  0.49981236  1
  Fe  Fe6  1  0.71455968  0.00101342  0.14216684  1
  Fe  Fe7  1  0.71318751  0.00117615  0.64402530  1
  Fe  Fe8  1  0.00124007  0.28613448  0.35706134  1
  Fe  Fe9  1  0.99831159  0.28793256  0.85604904  1
  Fe  Fe10  1  0.28544032  0.99898658  0.35783316  1
  Fe  Fe11  1  0.28681249  0.99882385  0.85597470  1
  Fe  Fe12  1  0.99875993  0.71386552  0.14293866  1
  Fe  Fe13  1  0.00168841  0.71206744  0.64395096  1
  Fe  Fe14  1  0.71477235  0.28395558  0.00018764  1
  Fe  Fe15  1  0.71512130  0.28465637  0.50036657  1
  Fe  Fe16  1  0.90286836  0.90374473  0.45193921  1
  Fe  Fe17  1  0.90407386  0.90417948  0.95100996  1
  Fe  Fe18  1  0.09713164  0.09625527  0.04806079  1
  Fe  Fe19  1  0.09592614  0.09582052  0.54899004  1
  Fe  Fe20  1  -0.00000000  0.00000000  0.25000000  1
  Fe  Fe21  1  -0.00000000  0.00000000  0.75000000  1
  Fe  Fe22  1  0.99919842  0.49995246  0.50041831  1
  Fe  Fe23  1  0.00080158  0.50004754  0.99958169  1
  Fe  Fe24  1  0.50047507  0.99813526  0.99904401  1
  Fe  Fe25  1  0.49952493  0.00186474  0.50095599  1
  Fe  Fe26  1  0.85429758  0.34500636  0.17264585  1
  Fe  Fe27  1  0.85136034  0.34439353  0.67293579  1
  Fe  Fe28  1  0.34105594  0.34400593  0.42716208  1
  Fe  Fe29  1  0.34266816  0.34208163  0.92506908  1
  Fe  Fe30  1  0.34160776  0.85258934  0.17143035  1
  Fe  Fe31  1  0.34400344  0.85205565  0.67287748  1
  Fe  Fe32  1  0.14570242  0.65499364  0.32735415  1
  Fe  Fe33  1  0.14863966  0.65560647  0.82706421  1
  Fe  Fe34  1  0.65894406  0.65599407  0.07283792  1
  Fe  Fe35  1  0.65733184  0.65791837  0.57493092  1
  Fe  Fe36  1  0.65839224  0.14741066  0.32856965  1
  Fe  Fe37  1  0.65599656  0.14794435  0.82712252  1
  C  C38  1  0.49921936  0.49949459  0.99946311  1
  C  C39  1  0.50078064  0.50050541  0.50053689  1
  C  C40  1  0.50000000  0.00000000  0.25000000  1
