# generated using pymatgen
data_Ti20(Ge3Sb)3
_symmetry_space_group_name_H-M   'P 1'
_cell_length_a   5.25063183
_cell_length_b   7.67401045
_cell_length_c   13.40996970
_cell_angle_alpha   90.00641200
_cell_angle_beta   90.00050102
_cell_angle_gamma   89.99685277
_symmetry_Int_Tables_number   1
_chemical_formula_structural   Ti20(Ge3Sb)3
_chemical_formula_sum   'Ti20 Ge9 Sb3'
_cell_volume   540.33331658
_cell_formula_units_Z   1
loop_
 _symmetry_equiv_pos_site_id
 _symmetry_equiv_pos_as_xyz
  1  'x, y, z'
loop_
 _atom_site_type_symbol
 _atom_site_label
 _atom_site_symmetry_multiplicity
 _atom_site_fract_x
 _atom_site_fract_y
 _atom_site_fract_z
 _atom_site_occupancy
  Ti  Ti0  1  0.49384383  0.99322812  0.33338714  1
  Ti  Ti1  1  0.49682225  0.49751140  0.82883257  1
  Ti  Ti2  1  0.49364439  0.50555429  0.16929755  1
  Ti  Ti3  1  0.49660641  0.99727414  0.67067236  1
  Ti  Ti4  1  0.00635157  0.50554793  0.16929792  1
  Ti  Ti5  1  0.00339676  0.99724824  0.67064773  1
  Ti  Ti6  1  0.00615617  0.99320413  0.33338986  1
  Ti  Ti7  1  0.00319143  0.49748926  0.82886824  1
  Ti  Ti8  1  0.74999276  0.73751418  0.50010783  1
  Ti  Ti9  1  0.75001655  0.23955028  0.99356474  1
  Ti  Ti10  1  0.74998185  0.38701032  0.37528819  1
  Ti  Ti11  1  0.74996105  0.88106916  0.86799278  1
  Ti  Ti12  1  0.74998726  0.86997281  0.12996922  1
  Ti  Ti13  1  0.74994287  0.38132319  0.63132618  1
  Ti  Ti14  1  0.24998986  0.25546904  0.50039905  1
  Ti  Ti15  1  0.24999250  0.75612192  0.00016488  1
  Ti  Ti16  1  0.25000574  0.12487648  0.12489107  1
  Ti  Ti17  1  0.25003570  0.62618782  0.62821638  1
  Ti  Ti18  1  0.25002007  0.62770896  0.37222311  1
  Ti  Ti19  1  0.25005369  0.12690844  0.87155031  1
  Ge  Ge20  1  0.75001647  0.69668059  0.69466892  1
  Ge  Ge21  1  0.75002911  0.69690845  0.30573455  1
  Ge  Ge22  1  0.75000514  0.19655826  0.80307529  1
  Ge  Ge23  1  0.24998900  0.38683653  0.99922795  1
  Ge  Ge24  1  0.25000989  0.88521583  0.50165592  1
  Ge  Ge25  1  0.24999577  0.30542312  0.30746475  1
  Ge  Ge26  1  0.24998787  0.80420840  0.80663952  1
  Ge  Ge27  1  0.24997589  0.80664135  0.19367412  1
  Ge  Ge28  1  0.24999125  0.30394056  0.69348619  1
  Sb  Sb29  1  0.74999754  0.11061848  0.50128043  1
  Sb  Sb30  1  0.74998901  0.60878932  0.99781062  1
  Sb  Sb31  1  0.75002038  0.19740898  0.19519465  1
