# generated using pymatgen
data_Zn3Fe9(PO4)8
_symmetry_space_group_name_H-M   'P 1'
_cell_length_a   6.12797802
_cell_length_b   10.57072959
_cell_length_c   9.65992165
_cell_angle_alpha   89.74679908
_cell_angle_beta   89.81259975
_cell_angle_gamma   89.81586108
_symmetry_Int_Tables_number   1
_chemical_formula_structural   Zn3Fe9(PO4)8
_chemical_formula_sum   'Zn3 Fe9 P8 O32'
_cell_volume   625.73000283
_cell_formula_units_Z   1
loop_
 _symmetry_equiv_pos_site_id
 _symmetry_equiv_pos_as_xyz
  1  'x, y, z'
loop_
 _atom_site_type_symbol
 _atom_site_label
 _atom_site_symmetry_multiplicity
 _atom_site_fract_x
 _atom_site_fract_y
 _atom_site_fract_z
 _atom_site_occupancy
  Zn  Zn0  1  0.99974401  0.50002063  0.25001006  1
  Zn  Zn1  1  0.00025599  0.49997937  0.74998994  1
  Zn  Zn2  1  -0.00000000  0.00000000  -0.00000000  1
  Fe  Fe3  1  -0.00000000  0.00000000  0.50000000  1
  Fe  Fe4  1  0.26353981  0.78265302  0.25799275  1
  Fe  Fe5  1  0.26465670  0.78256197  0.75928346  1
  Fe  Fe6  1  0.73612053  0.71708668  0.00982292  1
  Fe  Fe7  1  0.73556879  0.71730390  0.50890117  1
  Fe  Fe8  1  0.73534330  0.21743803  0.24071654  1
  Fe  Fe9  1  0.73646019  0.21734698  0.74200725  1
  Fe  Fe10  1  0.26443121  0.28269610  0.49109883  1
  Fe  Fe11  1  0.26387947  0.28291332  0.99017708  1
  P  P12  1  0.23777225  0.59917501  0.03494887  1
  P  P13  1  0.23758216  0.59970059  0.53505843  1
  P  P14  1  0.76165183  0.90005075  0.28432638  1
  P  P15  1  0.76192542  0.90033244  0.78590729  1
  P  P16  1  0.76241784  0.40029941  0.46494157  1
  P  P17  1  0.76222775  0.40082499  0.96505113  1
  P  P18  1  0.23807458  0.09966756  0.21409271  1
  P  P19  1  0.23834817  0.09994925  0.71567362  1
  O  O20  1  0.24587075  0.96228726  0.15768449  1
  O  O21  1  0.24637923  0.96275358  0.65963977  1
  O  O22  1  0.75488832  0.53770504  0.40729823  1
  O  O23  1  0.75466037  0.53809338  0.90733490  1
  O  O24  1  0.75362077  0.03724642  0.34036023  1
  O  O25  1  0.75412925  0.03771274  0.84231551  1
  O  O26  1  0.24533963  0.46190662  0.09266510  1
  O  O27  1  0.24511168  0.46229496  0.59270177  1
  O  O28  1  0.22301677  0.60492177  0.37544648  1
  O  O29  1  0.22254458  0.60461968  0.87545878  1
  O  O30  1  0.77766014  0.89530870  0.12440477  1
  O  O31  1  0.77835776  0.89584988  0.62652094  1
  O  O32  1  0.77745542  0.39538032  0.12454122  1
  O  O33  1  0.77698323  0.39507823  0.62455352  1
  O  O34  1  0.22164224  0.10415012  0.37347906  1
  O  O35  1  0.22233986  0.10469130  0.87559523  1
  O  O36  1  0.42764679  0.68117360  0.09010205  1
  O  O37  1  0.42713815  0.68191822  0.59023637  1
  O  O38  1  0.57175600  0.81796454  0.34037161  1
  O  O39  1  0.57197919  0.81790722  0.84097212  1
  O  O40  1  0.57286185  0.31808178  0.40976363  1
  O  O41  1  0.57235321  0.31882640  0.90989795  1
  O  O42  1  0.42802081  0.18209278  0.15902788  1
  O  O43  1  0.42824400  0.18203546  0.65962839  1
  O  O44  1  0.02857040  0.65907878  0.10969324  1
  O  O45  1  0.02788438  0.65952694  0.60946760  1
  O  O46  1  0.97041165  0.83978341  0.35788033  1
  O  O47  1  0.97111555  0.84024239  0.85998916  1
  O  O48  1  0.97211562  0.34047306  0.39053240  1
  O  O49  1  0.97142960  0.34092122  0.89030676  1
  O  O50  1  0.02888445  0.15975761  0.14001084  1
  O  O51  1  0.02958835  0.16021659  0.64211967  1
