# generated using pymatgen
data_Zn4FeCu10(GeS4)5
_symmetry_space_group_name_H-M   'P 1'
_cell_length_a   5.32703912
_cell_length_b   6.52624449
_cell_length_c   23.86451903
_cell_angle_alpha   89.95022247
_cell_angle_beta   89.99999998
_cell_angle_gamma   65.91292895
_symmetry_Int_Tables_number   1
_chemical_formula_structural   Zn4FeCu10(GeS4)5
_chemical_formula_sum   'Zn4 Fe1 Cu10 Ge5 S20'
_cell_volume   757.42115512
_cell_formula_units_Z   1
loop_
 _symmetry_equiv_pos_site_id
 _symmetry_equiv_pos_as_xyz
  1  'x, y, z'
loop_
 _atom_site_type_symbol
 _atom_site_label
 _atom_site_symmetry_multiplicity
 _atom_site_fract_x
 _atom_site_fract_y
 _atom_site_fract_z
 _atom_site_occupancy
  Zn  Zn0  1  0.20005044  0.59990933  0.20007233  1
  Zn  Zn1  1  0.39999674  0.19998575  0.40000362  1
  Zn  Zn2  1  0.59998249  0.80001425  0.59999638  1
  Zn  Zn3  1  0.79995977  0.40009067  0.79992767  1
  Fe  Fe4  1  0.99911225  1.00000000  0.00000000  1
  Cu  Cu5  1  0.30146457  0.39922754  0.04965776  1
  Cu  Cu6  1  0.70000699  0.60001675  0.44993605  1
  Cu  Cu7  1  0.49983800  0.00005230  0.24992455  1
  Cu  Cu8  1  0.09916826  0.80052583  0.85022776  1
  Cu  Cu9  1  0.90001024  0.20001358  0.64996265  1
  Cu  Cu10  1  0.70069211  0.60077246  0.95034224  1
  Cu  Cu11  1  0.10002381  0.79998642  0.35003735  1
  Cu  Cu12  1  0.89969410  0.19947417  0.14977224  1
  Cu  Cu13  1  0.49989030  0.99994770  0.75007545  1
  Cu  Cu14  1  0.30002374  0.39998325  0.55006395  1
  Ge  Ge15  1  0.39952869  0.19960131  0.90018477  1
  Ge  Ge16  1  0.79982486  0.39993243  0.30001101  1
  Ge  Ge17  1  0.59913001  0.80039869  0.09981523  1
  Ge  Ge18  1  0.19975729  0.60006757  0.69998899  1
  Ge  Ge19  1  0.99955412  1.00000000  0.50000000  1
  S  S20  1  0.49353972  0.50177245  0.87693161  1
  S  S21  1  0.69917189  0.09993434  0.07528801  1
  S  S22  1  0.89207955  0.70126677  0.27704508  1
  S  S23  1  0.09218528  0.30126210  0.47703998  1
  S  S24  1  0.29232564  0.90124833  0.67699529  1
  S  S25  1  0.10018838  0.30098112  0.97485222  1
  S  S26  1  0.30307345  0.90689737  0.17441325  1
  S  S27  1  0.50359978  0.50734271  0.37420760  1
  S  S28  1  0.70367662  0.10737461  0.57423366  1
  S  S29  1  0.90341640  0.70769802  0.77433328  1
  S  S30  1  0.40116950  0.69901888  0.02514778  1
  S  S31  1  0.61111442  0.29230198  0.22566672  1
  S  S32  1  0.81105123  0.89262539  0.42576634  1
  S  S33  1  0.01094249  0.49265729  0.62579240  1
  S  S34  1  0.20997082  0.09310263  0.82558675  1
  S  S35  1  0.99531217  0.49822755  0.12306839  1
  S  S36  1  0.19357397  0.09875167  0.32300471  1
  S  S37  1  0.39344738  0.69873790  0.52296002  1
  S  S38  1  0.59334632  0.29873323  0.72295492  1
  S  S39  1  0.79910622  0.90006566  0.92471199  1
