# generated using pymatgen
data_VSi4Mo
_symmetry_space_group_name_H-M   'P 1'
_cell_length_a   4.62219539
_cell_length_b   4.61957868
_cell_length_c   12.89355325
_cell_angle_alpha   90.00000000
_cell_angle_beta   90.00000000
_cell_angle_gamma   59.90178330
_symmetry_Int_Tables_number   1
_chemical_formula_structural   VSi4Mo
_chemical_formula_sum   'V3 Si12 Mo3'
_cell_volume   238.18984764
_cell_formula_units_Z   3
loop_
 _symmetry_equiv_pos_site_id
 _symmetry_equiv_pos_as_xyz
  1  'x, y, z'
loop_
 _atom_site_type_symbol
 _atom_site_label
 _atom_site_symmetry_multiplicity
 _atom_site_fract_x
 _atom_site_fract_y
 _atom_site_fract_z
 _atom_site_occupancy
  V  V0  1  0.00000000  0.50000000  0.74976189  1
  V  V1  1  0.50000000  0.50000000  0.41789101  1
  V  V2  1  0.50000000  0.50000000  0.91558722  1
  Si  Si3  1  0.16466169  0.67318339  0.08022486  1
  Si  Si4  1  0.16574288  0.67083845  0.58405871  1
  Si  Si5  1  0.67213200  0.16631417  0.25229107  1
  Si  Si6  1  0.67747901  0.16489855  0.75217528  1
  Si  Si7  1  0.15871546  0.16167760  0.41754642  1
  Si  Si8  1  0.15964850  0.16398675  0.91368394  1
  Si  Si9  1  0.83533831  0.32681661  0.08022486  1
  Si  Si10  1  0.83425712  0.32916155  0.58405871  1
  Si  Si11  1  0.32786800  0.83368583  0.25229107  1
  Si  Si12  1  0.32252099  0.83510145  0.75217528  1
  Si  Si13  1  0.84128454  0.83832240  0.41754642  1
  Si  Si14  1  0.84035150  0.83601325  0.91368394  1
  Mo  Mo15  1  0.50000000  0.00000000  0.08224243  1
  Mo  Mo16  1  0.50000000  -0.00000000  0.58440897  1
  Mo  Mo17  1  0.00000000  0.50000000  0.25014791  1
