# generated using pymatgen
data_Y3Bi(Ru2O7)2
_symmetry_space_group_name_H-M   'P 1'
_cell_length_a   7.28878851
_cell_length_b   7.28878851
_cell_length_c   7.26999343
_cell_angle_alpha   90.00000000
_cell_angle_beta   59.91444220
_cell_angle_gamma   120.00000000
_symmetry_Int_Tables_number   1
_chemical_formula_structural   Y3Bi(Ru2O7)2
_chemical_formula_sum   'Y3 Bi1 Ru4 O14'
_cell_volume   272.75132796
_cell_formula_units_Z   1
loop_
 _symmetry_equiv_pos_site_id
 _symmetry_equiv_pos_as_xyz
  1  'x, y, z'
loop_
 _atom_site_type_symbol
 _atom_site_label
 _atom_site_symmetry_multiplicity
 _atom_site_fract_x
 _atom_site_fract_y
 _atom_site_fract_z
 _atom_site_occupancy
  Y  Y0  1  0.25000000  0.37500000  0.37500000  1
  Y  Y1  1  0.25000000  0.87500000  0.37500000  1
  Y  Y2  1  0.75000000  0.37500000  0.37500000  1
  Bi  Bi3  1  0.75000000  0.37500000  0.87500000  1
  Ru  Ru4  1  0.75000000  0.87500000  0.37500000  1
  Ru  Ru5  1  0.25000000  0.87500000  0.87500000  1
  Ru  Ru6  1  0.25000000  0.37500000  0.87500000  1
  Ru  Ru7  1  0.75000000  0.87500000  0.87500000  1
  O  O8  1  0.91896339  0.95948169  0.54068041  1
  O  O9  1  0.49983790  0.54035620  0.54068041  1
  O  O10  1  0.49983790  0.95948169  0.54068041  1
  O  O11  1  0.08465992  0.54232996  0.95861989  1
  O  O12  1  0.49905015  0.95672019  0.95861989  1
  O  O13  1  0.49905015  0.54232996  0.95861989  1
  O  O14  1  0.58103661  0.79051831  0.20931959  1
  O  O15  1  0.00016210  0.20964380  0.20931959  1
  O  O16  1  0.00016210  0.79051831  0.20931959  1
  O  O17  1  0.41534008  0.20767004  0.79138011  1
  O  O18  1  0.00094985  0.79327981  0.79138011  1
  O  O19  1  0.00094985  0.20767004  0.79138011  1
  O  O20  1  0.49172819  0.24586410  0.26240771  1
  O  O21  1  0.00827181  0.50413590  0.48759229  1
