# generated using pymatgen
data_VH6SO10
_symmetry_space_group_name_H-M   'P 1'
_cell_length_a   7.68390919
_cell_length_b   7.46901894
_cell_length_c   7.90515465
_cell_angle_alpha   75.41254386
_cell_angle_beta   79.39358126
_cell_angle_gamma   71.66374739
_symmetry_Int_Tables_number   1
_chemical_formula_structural   VH6SO10
_chemical_formula_sum   'V2 H12 S2 O20'
_cell_volume   414.04674903
_cell_formula_units_Z   2
loop_
 _symmetry_equiv_pos_site_id
 _symmetry_equiv_pos_as_xyz
  1  'x, y, z'
loop_
 _atom_site_type_symbol
 _atom_site_label
 _atom_site_symmetry_multiplicity
 _atom_site_fract_x
 _atom_site_fract_y
 _atom_site_fract_z
 _atom_site_occupancy
  V  V0  1  0.86426963  0.28198923  0.18676982  1
  V  V1  1  0.13573037  0.71801077  0.81323018  1
  H  H2  1  0.45348545  0.44881491  0.27619287  1
  H  H3  1  0.54651455  0.55118509  0.72380713  1
  H  H4  1  0.60533548  0.08510488  0.05075232  1
  H  H5  1  0.39466452  0.91489512  0.94924768  1
  H  H6  1  0.74080573  0.11557373  0.51107910  1
  H  H7  1  0.25919427  0.88442627  0.48892090  1
  H  H8  1  0.85322115  0.96361593  0.19927531  1
  H  H9  1  0.14677885  0.03638407  0.80072469  1
  H  H10  1  0.88292306  0.21514117  0.55307850  1
  H  H11  1  0.11707694  0.78485883  0.44692150  1
  H  H12  1  0.55273055  0.61249146  0.18349829  1
  H  H13  1  0.44726945  0.38750854  0.81650171  1
  S  S14  1  0.08141838  0.56781253  0.23727345  1
  S  S15  1  0.91858162  0.43218747  0.76272655  1
  O  O16  1  0.21325908  0.42711446  0.34906513  1
  O  O17  1  0.78674092  0.57288554  0.65093487  1
  O  O18  1  0.17518695  0.57442596  0.04695503  1
  O  O19  1  0.82481305  0.42557404  0.95304497  1
  O  O20  1  0.03005160  0.76327756  0.27418008  1
  O  O21  1  0.96994840  0.23672244  0.72581992  1
  O  O22  1  0.76165796  0.09423822  0.18126749  1
  O  O23  1  0.23834204  0.90576178  0.81873251  1
  O  O24  1  0.45580067  0.01127575  0.43831071  1
  O  O25  1  0.54419933  0.98872425  0.56168929  1
  O  O26  1  0.90597010  0.51359321  0.24856371  1
  O  O27  1  0.09402990  0.48640679  0.75143629  1
  O  O28  1  0.47838854  0.90799361  0.03471990  1
  O  O29  1  0.52161146  0.09200639  0.96528010  1
  O  O30  1  0.07944545  0.17100252  0.15590223  1
  O  O31  1  0.92055455  0.82899748  0.84409777  1
  O  O32  1  0.83064861  0.18754169  0.45851966  1
  O  O33  1  0.16935139  0.81245831  0.54148034  1
  O  O34  1  0.57422932  0.47600591  0.23997813  1
  O  O35  1  0.42577068  0.52399409  0.76002187  1
