# generated using pymatgen
data_Y2Er4Fe23
_symmetry_space_group_name_H-M   'P 1'
_cell_length_a   8.48943455
_cell_length_b   8.48943455
_cell_length_c   8.48943455
_cell_angle_alpha   90.08675453
_cell_angle_beta   59.94858676
_cell_angle_gamma   120.04878755
_symmetry_Int_Tables_number   1
_chemical_formula_structural   Y2Er4Fe23
_chemical_formula_sum   'Y2 Er4 Fe23'
_cell_volume   432.30648937
_cell_formula_units_Z   1
loop_
 _symmetry_equiv_pos_site_id
 _symmetry_equiv_pos_as_xyz
  1  'x, y, z'
loop_
 _atom_site_type_symbol
 _atom_site_label
 _atom_site_symmetry_multiplicity
 _atom_site_fract_x
 _atom_site_fract_y
 _atom_site_fract_z
 _atom_site_occupancy
  Y  Y0  1  0.58473641  0.29218003  0.70744361  1
  Y  Y1  1  0.00037636  0.70781997  0.70744361  1
  Er  Er2  1  0.00041708  0.29090849  0.70867443  1
  Er  Er3  1  0.41756751  0.70855691  0.29098940  1
  Er  Er4  1  0.00045369  0.29144309  0.29098940  1
  Er  Er5  1  0.00041708  0.70909151  0.29049140  1
  Fe  Fe6  1  0.64880841  0.32410131  0.02709029  1
  Fe  Fe7  1  0.35050436  0.32474650  0.32474915  1
  Fe  Fe8  1  0.35118163  0.02646398  0.32409276  1
  Fe  Fe9  1  0.64944326  0.32472561  0.32409276  1
  Fe  Fe10  1  0.35050436  0.67525350  0.97424214  1
  Fe  Fe11  1  0.64880841  0.67589869  0.67529290  1
  Fe  Fe12  1  0.64944326  0.97353602  0.67528235  1
  Fe  Fe13  1  0.35118163  0.67527439  0.67528235  1
  Fe  Fe14  1  0.99958426  -0.00000000  0.00041574  1
  Fe  Fe15  1  0.24296222  0.12233147  0.63470631  1
  Fe  Fe16  1  0.75699612  0.12155971  0.12144417  1
  Fe  Fe17  1  0.75621942  0.63505518  0.12271718  1
  Fe  Fe18  1  0.24222764  0.12106340  0.12271718  1
  Fe  Fe19  1  0.75699612  0.87844029  0.36456360  1
  Fe  Fe20  1  0.24296222  0.87766853  0.87936925  1
  Fe  Fe21  1  0.24222764  0.36494482  0.87883576  1
  Fe  Fe22  1  0.75621942  0.87893660  0.87883576  1
  Fe  Fe23  1  0.00003084  0.00060885  0.49946923  1
  Fe  Fe24  1  0.49992192  0.50049993  0.49946923  1
  Fe  Fe25  1  0.50105418  -0.00000000  0.49894582  1
  Fe  Fe26  1  0.00003084  0.49950007  0.00057801  1
  Fe  Fe27  1  0.49992192  0.99939115  0.00057801  1
  Fe  Fe28  1  0.49880182  0.50000000  0.00119818  1
