# generated using pymatgen
data_V3CrGaSe8
_symmetry_space_group_name_H-M   'P 1'
_cell_length_a   7.31920947
_cell_length_b   7.31920947
_cell_length_c   7.38618756
_cell_angle_alpha   90.00000000
_cell_angle_beta   60.29951705
_cell_angle_gamma   120.00000000
_symmetry_Int_Tables_number   1
_chemical_formula_structural   V3CrGaSe8
_chemical_formula_sum   'V3 Cr1 Ga1 Se8'
_cell_volume   281.05095186
_cell_formula_units_Z   1
loop_
 _symmetry_equiv_pos_site_id
 _symmetry_equiv_pos_as_xyz
  1  'x, y, z'
loop_
 _atom_site_type_symbol
 _atom_site_label
 _atom_site_symmetry_multiplicity
 _atom_site_fract_x
 _atom_site_fract_y
 _atom_site_fract_z
 _atom_site_occupancy
  V  V0  1  0.21962399  0.39437797  0.38599804  1
  V  V1  1  0.21962399  0.82524602  0.38599804  1
  V  V2  1  0.78875594  0.39437797  0.38599804  1
  Cr  Cr3  1  0.76581332  0.38290666  0.85128002  1
  Ga  Ga4  1  0.00327417  0.00163708  0.99508875  1
  Se  Se5  1  0.25780655  0.62890327  0.11329018  1
  Se  Se6  1  0.74972249  0.62333328  0.62694423  1
  Se  Se7  1  0.74972249  0.12638921  0.62694423  1
  Se  Se8  1  0.24666656  0.62333328  0.62694423  1
  Se  Se9  1  0.27617490  0.13808745  0.58573766  1
  Se  Se10  1  0.72621730  0.13519051  0.13859220  1
  Se  Se11  1  0.72621730  0.59102679  0.13859220  1
  Se  Se12  1  0.27038101  0.13519051  0.13859220  1
