# generated using pymatgen
data_H6CNF
_symmetry_space_group_name_H-M   'P 1'
_cell_length_a   5.38388720
_cell_length_b   5.90787962
_cell_length_c   9.15913733
_cell_angle_alpha   90.00000000
_cell_angle_beta   90.00000000
_cell_angle_gamma   90.00000000
_symmetry_Int_Tables_number   1
_chemical_formula_structural   H6CNF
_chemical_formula_sum   'H24 C4 N4 F4'
_cell_volume   291.32795513
_cell_formula_units_Z   4
loop_
 _symmetry_equiv_pos_site_id
 _symmetry_equiv_pos_as_xyz
  1  'x, y, z'
loop_
 _atom_site_type_symbol
 _atom_site_label
 _atom_site_symmetry_multiplicity
 _atom_site_fract_x
 _atom_site_fract_y
 _atom_site_fract_z
 _atom_site_occupancy
  H  H0  1  0.25000000  0.24298776  0.16568418  1
  H  H1  1  0.75000000  0.75701224  0.83431582  1
  H  H2  1  0.25000000  0.74298776  0.83431582  1
  H  H3  1  0.75000000  0.25701224  0.16568418  1
  H  H4  1  0.41171686  0.99888993  0.13457315  1
  H  H5  1  0.58828314  0.00111007  0.86542685  1
  H  H6  1  0.91171686  0.00111007  0.86542685  1
  H  H7  1  0.08828314  0.99888993  0.13457315  1
  H  H8  1  0.08828314  0.49888993  0.86542685  1
  H  H9  1  0.91171686  0.50111007  0.13457315  1
  H  H10  1  0.58828314  0.50111007  0.13457315  1
  H  H11  1  0.41171686  0.49888993  0.86542685  1
  H  H12  1  0.25000000  0.81734046  0.34957492  1
  H  H13  1  0.75000000  0.18265954  0.65042508  1
  H  H14  1  0.25000000  0.31734046  0.65042508  1
  H  H15  1  0.75000000  0.68265954  0.34957492  1
  H  H16  1  0.08382357  0.07145418  0.39101736  1
  H  H17  1  0.91617643  0.92854582  0.60898264  1
  H  H18  1  0.58382357  0.92854582  0.60898264  1
  H  H19  1  0.41617643  0.07145418  0.39101736  1
  H  H20  1  0.41617643  0.57145418  0.60898264  1
  H  H21  1  0.58382357  0.42854582  0.39101736  1
  H  H22  1  0.91617643  0.42854582  0.39101736  1
  H  H23  1  0.08382357  0.57145418  0.60898264  1
  C  C24  1  0.25000000  0.00205462  0.33883750  1
  C  C25  1  0.75000000  0.99794538  0.66116250  1
  C  C26  1  0.25000000  0.50205462  0.66116250  1
  C  C27  1  0.75000000  0.49794538  0.33883750  1
  N  N28  1  0.25000000  0.06135536  0.18183151  1
  N  N29  1  0.75000000  0.93864464  0.81816849  1
  N  N30  1  0.25000000  0.56135536  0.81816849  1
  N  N31  1  0.75000000  0.43864464  0.18183151  1
  F  F32  1  0.25000000  0.00056053  0.85434932  1
  F  F33  1  0.75000000  0.99943947  0.14565068  1
  F  F34  1  0.25000000  0.50056053  0.14565068  1
  F  F35  1  0.75000000  0.49943947  0.85434932  1
