# generated using pymatgen
data_Th2FeSi3
_symmetry_space_group_name_H-M   'P 1'
_cell_length_a   4.06440409
_cell_length_b   4.13623893
_cell_length_c   7.63727430
_cell_angle_alpha   74.28854699
_cell_angle_beta   74.56827134
_cell_angle_gamma   90.00000000
_symmetry_Int_Tables_number   1
_chemical_formula_structural   Th2FeSi3
_chemical_formula_sum   'Th2 Fe1 Si3'
_cell_volume   118.78021748
_cell_formula_units_Z   1
loop_
 _symmetry_equiv_pos_site_id
 _symmetry_equiv_pos_as_xyz
  1  'x, y, z'
loop_
 _atom_site_type_symbol
 _atom_site_label
 _atom_site_symmetry_multiplicity
 _atom_site_fract_x
 _atom_site_fract_y
 _atom_site_fract_z
 _atom_site_occupancy
  Th  Th0  1  0.75224316  0.25224316  0.49551368  1
  Th  Th1  1  0.99566877  0.99566877  0.00866247  1
  Fe  Fe2  1  0.33455665  0.83455665  0.33088669  1
  Si  Si3  1  0.41180184  0.41180184  0.17639631  1
  Si  Si4  1  0.17364137  0.67364137  0.65271725  1
  Si  Si5  1  0.58208820  0.58208820  0.83582360  1
