# generated using pymatgen
data_ThCo2Ni3
_symmetry_space_group_name_H-M   'P 1'
_cell_length_a   4.02136328
_cell_length_b   4.98862764
_cell_length_c   4.82964273
_cell_angle_alpha   61.06608011
_cell_angle_beta   90.00000000
_cell_angle_gamma   90.00000000
_symmetry_Int_Tables_number   1
_chemical_formula_structural   ThCo2Ni3
_chemical_formula_sum   'Th1 Co2 Ni3'
_cell_volume   84.79415649
_cell_formula_units_Z   1
loop_
 _symmetry_equiv_pos_site_id
 _symmetry_equiv_pos_as_xyz
  1  'x, y, z'
loop_
 _atom_site_type_symbol
 _atom_site_label
 _atom_site_symmetry_multiplicity
 _atom_site_fract_x
 _atom_site_fract_y
 _atom_site_fract_z
 _atom_site_occupancy
  Th  Th0  1  -0.00000000  0.99996664  0.00003082  1
  Co  Co1  1  0.50000000  0.49999411  0.50000146  1
  Co  Co2  1  0.50000000  0.49998579  0.00002159  1
  Ni  Ni3  1  0.50000000  0.99998691  0.50000787  1
  Ni  Ni4  1  -0.00000000  0.33632611  0.33188101  1
  Ni  Ni5  1  0.00000000  0.66364044  0.66815725  1
