# generated using pymatgen
data_TaMoS4
_symmetry_space_group_name_H-M   'P 1'
_cell_length_a   3.27977433
_cell_length_b   6.57839947
_cell_length_c   5.68554973
_cell_angle_alpha   73.17806890
_cell_angle_beta   90.00001081
_cell_angle_gamma   90.00000196
_symmetry_Int_Tables_number   1
_chemical_formula_structural   TaMoS4
_chemical_formula_sum   'Ta1 Mo1 S4'
_cell_volume   117.42034390
_cell_formula_units_Z   1
loop_
 _symmetry_equiv_pos_site_id
 _symmetry_equiv_pos_as_xyz
  1  'x, y, z'
loop_
 _atom_site_type_symbol
 _atom_site_label
 _atom_site_symmetry_multiplicity
 _atom_site_fract_x
 _atom_site_fract_y
 _atom_site_fract_z
 _atom_site_occupancy
  Ta  Ta0  1  0.50000000  0.49975651  0.33652253  1
  Mo  Mo1  1  0.00000000  0.50006812  0.83174327  1
  S  S2  1  1.00000000  0.25192159  0.58661488  1
  S  S3  1  0.50000000  0.25601914  0.07726473  1
  S  S4  1  1.00000000  0.74832537  0.42029978  1
  S  S5  1  0.50000000  0.74410927  0.91415481  1
