# generated using pymatgen
data_TeRuSe
_symmetry_space_group_name_H-M   'P 1'
_cell_length_a   6.24606362
_cell_length_b   6.24606362
_cell_length_c   6.24606362
_cell_angle_alpha   90.00000000
_cell_angle_beta   90.00000000
_cell_angle_gamma   90.00000000
_symmetry_Int_Tables_number   1
_chemical_formula_structural   TeRuSe
_chemical_formula_sum   'Te4 Ru4 Se4'
_cell_volume   243.67962094
_cell_formula_units_Z   4
loop_
 _symmetry_equiv_pos_site_id
 _symmetry_equiv_pos_as_xyz
  1  'x, y, z'
loop_
 _atom_site_type_symbol
 _atom_site_label
 _atom_site_symmetry_multiplicity
 _atom_site_fract_x
 _atom_site_fract_y
 _atom_site_fract_z
 _atom_site_occupancy
  Te  Te0  1  0.12483678  0.62483678  0.87516322  1
  Te  Te1  1  0.62483678  0.87516322  0.12483678  1
  Te  Te2  1  0.87516322  0.12483678  0.62483678  1
  Te  Te3  1  0.37516322  0.37516322  0.37516322  1
  Ru  Ru4  1  0.49308428  0.99308428  0.50691572  1
  Ru  Ru5  1  0.99308428  0.50691572  0.49308428  1
  Ru  Ru6  1  0.50691572  0.49308428  0.99308428  1
  Ru  Ru7  1  0.00691572  0.00691572  0.00691572  1
  Se  Se8  1  0.87708659  0.37708659  0.12291341  1
  Se  Se9  1  0.37708659  0.12291341  0.87708659  1
  Se  Se10  1  0.12291341  0.87708659  0.37708659  1
  Se  Se11  1  0.62291341  0.62291341  0.62291341  1
