# generated using pymatgen
data_TeMo5O16
_symmetry_space_group_name_H-M   'P 1'
_cell_length_a   4.13768565
_cell_length_b   7.38798150
_cell_length_c   20.55010770
_cell_angle_alpha   90.00000000
_cell_angle_beta   89.84391884
_cell_angle_gamma   90.00000000
_symmetry_Int_Tables_number   1
_chemical_formula_structural   TeMo5O16
_chemical_formula_sum   'Te2 Mo10 O32'
_cell_volume   628.19689259
_cell_formula_units_Z   2
loop_
 _symmetry_equiv_pos_site_id
 _symmetry_equiv_pos_as_xyz
  1  'x, y, z'
loop_
 _atom_site_type_symbol
 _atom_site_label
 _atom_site_symmetry_multiplicity
 _atom_site_fract_x
 _atom_site_fract_y
 _atom_site_fract_z
 _atom_site_occupancy
  Te  Te0  1  0.02432455  0.58147341  0.74645707  1
  Te  Te1  1  0.02432455  0.41852659  0.24645707  1
  Mo  Mo2  1  0.91245716  0.75082611  0.58575706  1
  Mo  Mo3  1  0.91477955  0.25122487  0.41361488  1
  Mo  Mo4  1  0.91477955  0.74877513  0.91361488  1
  Mo  Mo5  1  0.91245716  0.24917389  0.08575706  1
  Mo  Mo6  1  0.08151695  0.25582957  0.59276426  1
  Mo  Mo7  1  0.08297670  0.74498905  0.40722627  1
  Mo  Mo8  1  0.08297670  0.25501095  0.90722627  1
  Mo  Mo9  1  0.08151695  0.74417043  0.09276426  1
  Mo  Mo10  1  0.90120402  0.02086716  0.75019827  1
  Mo  Mo11  1  0.90120402  0.97913284  0.25019827  1
  O  O12  1  0.98532264  0.68601907  0.50083166  1
  O  O13  1  0.98412766  0.31339844  0.49909964  1
  O  O14  1  0.98412766  0.68660156  0.99909964  1
  O  O15  1  0.98532264  0.31398093  0.00083166  1
  O  O16  1  0.50081762  0.25790526  0.59099295  1
  O  O17  1  0.50227348  0.74290718  0.40883080  1
  O  O18  1  0.50227348  0.25709282  0.90883080  1
  O  O19  1  0.50081762  0.74209474  0.09099295  1
  O  O20  1  0.98597512  0.18338550  0.68387411  1
  O  O21  1  0.98568933  0.81719945  0.31616808  1
  O  O22  1  0.98568933  0.18280055  0.81616808  1
  O  O23  1  0.98597512  0.81661450  0.18387411  1
  O  O24  1  0.99393728  0.99603702  0.57416645  1
  O  O25  1  0.99546598  0.00513623  0.42493808  1
  O  O26  1  0.99546598  0.99486377  0.92493808  1
  O  O27  1  0.99393728  0.00396298  0.07416645  1
  O  O28  1  0.48196469  0.01403289  0.75025853  1
  O  O29  1  0.48196469  0.98596711  0.25025853  1
  O  O30  1  0.99921074  0.51143265  0.62298953  1
  O  O31  1  0.00188862  0.48987996  0.37878301  1
  O  O32  1  0.00188862  0.51012004  0.87878301  1
  O  O33  1  0.99921074  0.48856735  0.12298953  1
  O  O34  1  0.49220545  0.75198450  0.58992612  1
  O  O35  1  0.49433663  0.24886738  0.40916567  1
  O  O36  1  0.49433663  0.75113262  0.90916567  1
  O  O37  1  0.49220545  0.24801550  0.08992612  1
  O  O38  1  0.98260934  0.80591659  0.68840488  1
  O  O39  1  0.98502703  0.19768939  0.30915935  1
  O  O40  1  0.98502703  0.80231061  0.80915935  1
  O  O41  1  0.98260934  0.19408341  0.18840488  1
  O  O42  1  0.47448945  0.57636536  0.74239333  1
  O  O43  1  0.47448945  0.42363464  0.24239333  1
