# generated using pymatgen
data_TaMoS4
_symmetry_space_group_name_H-M   'P 1'
_cell_length_a   3.28294120
_cell_length_b   5.69075442
_cell_length_c   6.61076242
_cell_angle_alpha   81.73429651
_cell_angle_beta   75.62289861
_cell_angle_gamma   90.00000000
_symmetry_Int_Tables_number   1
_chemical_formula_structural   TaMoS4
_chemical_formula_sum   'Ta1 Mo1 S4'
_cell_volume   118.31221478
_cell_formula_units_Z   1
loop_
 _symmetry_equiv_pos_site_id
 _symmetry_equiv_pos_as_xyz
  1  'x, y, z'
loop_
 _atom_site_type_symbol
 _atom_site_label
 _atom_site_symmetry_multiplicity
 _atom_site_fract_x
 _atom_site_fract_y
 _atom_site_fract_z
 _atom_site_occupancy
  Ta  Ta0  1  0.75005473  0.91367227  0.49989055  1
  Mo  Mo1  1  0.25000198  0.41816730  0.49999603  1
  S  S2  1  0.37353081  0.78791706  0.25293838  1
  S  S3  1  0.87154005  0.29462910  0.25691991  1
  S  S4  1  0.62837688  0.21346170  0.74324625  1
  S  S5  1  0.12639556  0.70545256  0.74720889  1
