# generated using pymatgen
data_InAgO2
_symmetry_space_group_name_H-M   'P 1'
_cell_length_a   3.29142630
_cell_length_b   3.29142641
_cell_length_c   6.56703827
_cell_angle_alpha   75.48686385
_cell_angle_beta   75.48686519
_cell_angle_gamma   60.00000961
_symmetry_Int_Tables_number   1
_chemical_formula_structural   InAgO2
_chemical_formula_sum   'In1 Ag1 O2'
_cell_volume   58.97650390
_cell_formula_units_Z   1
loop_
 _symmetry_equiv_pos_site_id
 _symmetry_equiv_pos_as_xyz
  1  'x, y, z'
loop_
 _atom_site_type_symbol
 _atom_site_label
 _atom_site_symmetry_multiplicity
 _atom_site_fract_x
 _atom_site_fract_y
 _atom_site_fract_z
 _atom_site_occupancy
  In  In0  1  0.00206120  0.00206120  0.99381641  1
  Ag  Ag1  1  0.84220949  0.84220949  0.47337153  1
  O  O2  1  0.72582060  0.72582060  0.82253819  1
  O  O3  1  0.27090871  0.27090871  0.18727386  1
