# generated using pymatgen
data_Tb(Fe3Mo)3
_symmetry_space_group_name_H-M   'P 1'
_cell_length_a   4.78752471
_cell_length_b   6.52639944
_cell_length_c   6.52639944
_cell_angle_alpha   98.30120417
_cell_angle_beta   111.51726186
_cell_angle_gamma   68.48273814
_symmetry_Int_Tables_number   1
_chemical_formula_structural   Tb(Fe3Mo)3
_chemical_formula_sum   'Tb1 Fe9 Mo3'
_cell_volume   176.47487743
_cell_formula_units_Z   1
loop_
 _symmetry_equiv_pos_site_id
 _symmetry_equiv_pos_as_xyz
  1  'x, y, z'
loop_
 _atom_site_type_symbol
 _atom_site_label
 _atom_site_symmetry_multiplicity
 _atom_site_fract_x
 _atom_site_fract_y
 _atom_site_fract_z
 _atom_site_occupancy
  Tb  Tb0  1  0.99155815  0.00844185  0.99155815  1
  Fe  Fe1  1  0.50174750  -0.00032303  0.50080822  1
  Fe  Fe2  1  0.99938376  -0.00032303  0.50080822  1
  Fe  Fe3  1  0.50174750  0.49919178  0.00032303  1
  Fe  Fe4  1  0.99938376  0.49919178  0.00032303  1
  Fe  Fe5  1  0.71752424  0.78247576  0.21752424  1
  Fe  Fe6  1  0.27988907  0.22011093  0.77988907  1
  Fe  Fe7  1  0.50174350  0.77783004  0.78131704  1
  Fe  Fe8  1  0.50174350  0.21868296  0.22216996  1
  Fe  Fe9  1  0.64046854  0.35953146  0.64046854  1
  Mo  Mo10  1  0.35848103  0.64151897  0.35848103  1
  Mo  Mo11  1  0.00316472  0.35335198  0.35968142  1
  Mo  Mo12  1  0.00316472  0.64031858  0.64664802  1
