# generated using pymatgen
data_Th2(Mo3S4)5
_symmetry_space_group_name_H-M   'P 1'
_cell_length_a   9.30056978
_cell_length_b   11.20737429
_cell_length_c   14.46104563
_cell_angle_alpha   105.13612398
_cell_angle_beta   72.64262555
_cell_angle_gamma   89.14751562
_symmetry_Int_Tables_number   1
_chemical_formula_structural   Th2(Mo3S4)5
_chemical_formula_sum   'Th4 Mo30 S40'
_cell_volume   1381.73567275
_cell_formula_units_Z   2
loop_
 _symmetry_equiv_pos_site_id
 _symmetry_equiv_pos_as_xyz
  1  'x, y, z'
loop_
 _atom_site_type_symbol
 _atom_site_label
 _atom_site_symmetry_multiplicity
 _atom_site_fract_x
 _atom_site_fract_y
 _atom_site_fract_z
 _atom_site_occupancy
  Th  Th0  1  0.99951699  0.99951744  0.99819326  1
  Th  Th1  1  0.40015701  0.40050258  0.20041562  1
  Th  Th2  1  0.79984299  0.79949742  0.39958438  1
  Th  Th3  1  0.20048301  0.20048256  0.60180674  1
  Mo  Mo4  1  0.65053099  0.21338393  0.71808839  1
  Mo  Mo5  1  0.05062784  0.61148156  0.91830975  1
  Mo  Mo6  1  0.44854655  0.01199199  0.11790434  1
  Mo  Mo7  1  0.84925454  0.41230246  0.31866521  1
  Mo  Mo8  1  0.24928935  0.81146470  0.51826139  1
  Mo  Mo9  1  0.74534291  0.16643568  0.86522930  1
  Mo  Mo10  1  0.14676242  0.56640781  0.06252560  1
  Mo  Mo11  1  0.54533037  0.96543760  0.26375704  1
  Mo  Mo12  1  0.94468620  0.36499834  0.46461407  1
  Mo  Mo13  1  0.34851218  0.76537471  0.66396226  1
  Mo  Mo14  1  0.75438846  0.98113940  0.70073294  1
  Mo  Mo15  1  0.15813212  0.38253402  0.90042851  1
  Mo  Mo16  1  0.55793479  0.78028824  0.09883860  1
  Mo  Mo17  1  0.95581289  0.18066756  0.30078848  1
  Mo  Mo18  1  0.35624573  0.57961046  0.50027234  1
  Mo  Mo19  1  0.54946901  0.98661607  0.88191161  1
  Mo  Mo20  1  0.95071065  0.38853530  0.08173861  1
  Mo  Mo21  1  0.35074546  0.78769754  0.28133479  1
  Mo  Mo22  1  0.75145345  0.18800801  0.48209566  1
  Mo  Mo23  1  0.14937216  0.58851844  0.68169025  1
  Mo  Mo24  1  0.45465709  0.03356432  0.73477070  1
  Mo  Mo25  1  0.85148782  0.43462529  0.93603774  1
  Mo  Mo26  1  0.25531380  0.83500166  0.13538593  1
  Mo  Mo27  1  0.65466963  0.23456240  0.33624296  1
  Mo  Mo28  1  0.05323758  0.63359219  0.53747440  1
  Mo  Mo29  1  0.44561154  0.21886060  0.89926706  1
  Mo  Mo30  1  0.84375427  0.62038954  0.09972766  1
  Mo  Mo31  1  0.24418711  0.01933244  0.29921152  1
  Mo  Mo32  1  0.64206521  0.41971176  0.50116140  1
  Mo  Mo33  1  0.04186788  0.81746598  0.69957149  1
  S  S34  1  0.82101008  0.57644758  0.47498763  1
  S  S35  1  0.22154562  0.97664950  0.67305926  1
  S  S36  1  0.62819775  0.37090188  0.87230493  1
  S  S37  1  0.02233137  0.77686077  0.07348508  1
  S  S38  1  0.42242204  0.17724806  0.27389443  1
  S  S39  1  0.02517553  0.15173337  0.45325130  1
  S  S40  1  0.42459058  0.55288204  0.64729672  1
  S  S41  1  0.82319756  0.94932021  0.85257273  1
  S  S42  1  0.22466242  0.35168804  0.05265617  1
  S  S43  1  0.62406264  0.75222383  0.25411225  1
  S  S44  1  0.85055718  0.22100212  0.17423160  1
  S  S45  1  0.25034053  0.62117794  0.37390302  1
  S  S46  1  0.65072266  0.01959332  0.57321353  1
  S  S47  1  0.04699935  0.42141243  0.77481500  1
  S  S48  1  0.45219327  0.82656159  0.97757924  1
  S  S49  1  0.77757796  0.02275194  0.32610557  1
  S  S50  1  0.17766863  0.42313923  0.52651492  1
  S  S51  1  0.57180225  0.82909812  0.72769507  1
  S  S52  1  0.97845438  0.22335050  0.92694074  1
  S  S53  1  0.37898992  0.62355242  0.12501237  1
  S  S54  1  0.57593736  0.44777617  0.34588775  1
  S  S55  1  0.97533758  0.84831196  0.54734383  1
  S  S56  1  0.37680244  0.25067979  0.74742727  1
  S  S57  1  0.77540942  0.64711796  0.95270328  1
  S  S58  1  0.17482447  0.04826663  0.14674870  1
  S  S59  1  0.74780673  0.37343841  0.62242076  1
  S  S60  1  0.15300065  0.77858757  0.82518500  1
  S  S61  1  0.54927734  0.18040668  0.02678647  1
  S  S62  1  0.94965947  0.57882206  0.22609698  1
  S  S63  1  0.34944282  0.97899788  0.42576840  1
  S  S64  1  0.10932476  0.35206575  0.29684793  1
  S  S65  1  0.51015669  0.75124227  0.49632180  1
  S  S66  1  0.90970807  0.15250493  0.69770643  1
  S  S67  1  0.31307026  0.55147296  0.89570303  1
  S  S68  1  0.70950265  0.95204627  0.09644315  1
  S  S69  1  0.49049735  0.24795373  0.50355685  1
  S  S70  1  0.88692974  0.64852704  0.70429697  1
  S  S71  1  0.29029193  0.04749507  0.90229357  1
  S  S72  1  0.68984331  0.44875773  0.10367820  1
  S  S73  1  0.09067524  0.84793425  0.30315207  1
