# generated using pymatgen
data_Ta4AgS8
_symmetry_space_group_name_H-M   'P 1'
_cell_length_a   3.35831748
_cell_length_b   13.76451673
_cell_length_c   5.82935073
_cell_angle_alpha   81.43399449
_cell_angle_beta   90.00000237
_cell_angle_gamma   89.99999987
_symmetry_Int_Tables_number   1
_chemical_formula_structural   Ta4AgS8
_chemical_formula_sum   'Ta4 Ag1 S8'
_cell_volume   266.45943015
_cell_formula_units_Z   1
loop_
 _symmetry_equiv_pos_site_id
 _symmetry_equiv_pos_as_xyz
  1  'x, y, z'
loop_
 _atom_site_type_symbol
 _atom_site_label
 _atom_site_symmetry_multiplicity
 _atom_site_fract_x
 _atom_site_fract_y
 _atom_site_fract_z
 _atom_site_occupancy
  Ta  Ta0  1  0.50000000  0.77296904  0.56730919  1
  Ta  Ta1  1  0.00000000  0.77272084  0.08564835  1
  Ta  Ta2  1  0.50000000  0.22664801  0.41160870  1
  Ta  Ta3  1  0.00000000  0.22685739  0.93819958  1
  Ag  Ag4  1  0.50000000  0.52080613  0.65330563  1
  S  S5  1  0.50000000  0.34052203  0.71651926  1
  S  S6  1  0.00000000  0.34433773  0.21942381  1
  S  S7  1  0.50000000  0.65504222  0.27871516  1
  S  S8  1  1.00000000  0.65813920  0.78783131  1
  S  S9  1  0.50000000  0.11826495  0.79314511  1
  S  S10  1  1.00000000  0.11033347  0.30149419  1
  S  S11  1  0.50000000  0.88796030  0.20125052  1
  S  S12  1  0.00000000  0.88329871  0.70624920  1
