# generated using pymatgen
data_Sr3LaNb3O12
_symmetry_space_group_name_H-M   'P 1'
_cell_length_a   5.73196377
_cell_length_b   5.73196376
_cell_length_c   9.80512977
_cell_angle_alpha   73.00464927
_cell_angle_beta   73.00464928
_cell_angle_gamma   59.99998897
_symmetry_Int_Tables_number   1
_chemical_formula_structural   Sr3LaNb3O12
_chemical_formula_sum   'Sr3 La1 Nb3 O12'
_cell_volume   262.62050397
_cell_formula_units_Z   1
loop_
 _symmetry_equiv_pos_site_id
 _symmetry_equiv_pos_as_xyz
  1  'x, y, z'
loop_
 _atom_site_type_symbol
 _atom_site_label
 _atom_site_symmetry_multiplicity
 _atom_site_fract_x
 _atom_site_fract_y
 _atom_site_fract_z
 _atom_site_occupancy
  Sr  Sr0  1  0.14100406  0.14100406  0.57698783  1
  Sr  Sr1  1  0.85929771  0.85929771  0.42210688  1
  Sr  Sr2  1  0.28539765  0.28539765  0.14380705  1
  La  La3  1  0.71471500  0.71471500  0.85585499  1
  Nb  Nb4  1  0.42347407  0.42347407  0.72957780  1
  Nb  Nb5  1  0.57552494  0.57552494  0.27342518  1
  Nb  Nb6  1  0.99868116  0.99868116  0.00395652  1
  O  O7  1  0.11294288  0.68688041  0.64245065  1
  O  O8  1  0.68688041  0.55772607  0.64245065  1
  O  O9  1  0.55772607  0.11294288  0.64245065  1
  O  O10  1  0.87742096  0.31327990  0.36373159  1
  O  O11  1  0.31327990  0.44556755  0.36373159  1
  O  O12  1  0.44556755  0.87742096  0.36373159  1
  O  O13  1  0.29829580  0.84610157  0.11453467  1
  O  O14  1  0.84610157  0.74106797  0.11453467  1
  O  O15  1  0.74106797  0.29829580  0.11453467  1
  O  O16  1  0.70747197  0.13802948  0.87737768  1
  O  O17  1  0.13802948  0.27712088  0.87737768  1
  O  O18  1  0.27712088  0.70747197  0.87737768  1
