# generated using pymatgen
data_SrCa3(BrN)2
_symmetry_space_group_name_H-M   'P 1'
_cell_length_a   3.77816507
_cell_length_b   7.40478152
_cell_length_c   6.54607491
_cell_angle_alpha   72.84972371
_cell_angle_beta   89.99999993
_cell_angle_gamma   90.00000314
_symmetry_Int_Tables_number   1
_chemical_formula_structural   SrCa3(BrN)2
_chemical_formula_sum   'Sr1 Ca3 Br2 N2'
_cell_volume   174.99296117
_cell_formula_units_Z   1
loop_
 _symmetry_equiv_pos_site_id
 _symmetry_equiv_pos_as_xyz
  1  'x, y, z'
loop_
 _atom_site_type_symbol
 _atom_site_label
 _atom_site_symmetry_multiplicity
 _atom_site_fract_x
 _atom_site_fract_y
 _atom_site_fract_z
 _atom_site_occupancy
  Sr  Sr0  1  0.50000000  0.31309758  0.72764782  1
  Ca  Ca1  1  1.00000000  0.33458987  0.22378515  1
  Ca  Ca2  1  0.50000000  0.67813922  0.27385422  1
  Ca  Ca3  1  0.00000000  0.67708646  0.77461134  1
  Br  Br4  1  0.00000000  0.98939790  0.00918476  1
  Br  Br5  1  0.50000000  0.99545368  0.49579280  1
  N  N6  1  1.00000000  0.50752214  0.49130535  1
  N  N7  1  0.50000000  0.50471315  0.00381856  1
