# generated using pymatgen
data_SrMg3GeN4
_symmetry_space_group_name_H-M   'P 1'
_cell_length_a   3.37990750
_cell_length_b   6.24345039
_cell_length_c   6.21395649
_cell_angle_alpha   94.03667323
_cell_angle_beta   105.78099049
_cell_angle_gamma   74.29548827
_symmetry_Int_Tables_number   1
_chemical_formula_structural   SrMg3GeN4
_chemical_formula_sum   'Sr1 Mg3 Ge1 N4'
_cell_volume   121.47500407
_cell_formula_units_Z   1
loop_
 _symmetry_equiv_pos_site_id
 _symmetry_equiv_pos_as_xyz
  1  'x, y, z'
loop_
 _atom_site_type_symbol
 _atom_site_label
 _atom_site_symmetry_multiplicity
 _atom_site_fract_x
 _atom_site_fract_y
 _atom_site_fract_z
 _atom_site_occupancy
  Sr  Sr0  1  0.98938225  0.00270773  0.98147223  1
  Mg  Mg1  1  0.17658868  0.45130940  0.80448675  1
  Mg  Mg2  1  0.64173218  0.17968353  0.46314788  1
  Mg  Mg3  1  0.36795596  0.81267455  0.54858646  1
  Ge  Ge4  1  0.79961578  0.56461299  0.16384455  1
  N  N5  1  0.60406498  0.64991984  0.85804981  1
  N  N6  1  0.39716554  0.38182167  0.17615274  1
  N  N7  1  0.76678491  0.81078344  0.34435327  1
  N  N8  1  0.25670974  0.14648684  0.65990631  1
