# generated using pymatgen
data_Sr3Ca(ClF)4
_symmetry_space_group_name_H-M   'P 1'
_cell_length_a   4.11642153
_cell_length_b   4.11642153
_cell_length_c   14.05130799
_cell_angle_alpha   90.00000000
_cell_angle_beta   90.00000000
_cell_angle_gamma   90.00000000
_symmetry_Int_Tables_number   1
_chemical_formula_structural   Sr3Ca(ClF)4
_chemical_formula_sum   'Sr3 Ca1 Cl4 F4'
_cell_volume   238.09837708
_cell_formula_units_Z   1
loop_
 _symmetry_equiv_pos_site_id
 _symmetry_equiv_pos_as_xyz
  1  'x, y, z'
loop_
 _atom_site_type_symbol
 _atom_site_label
 _atom_site_symmetry_multiplicity
 _atom_site_fract_x
 _atom_site_fract_y
 _atom_site_fract_z
 _atom_site_occupancy
  Sr  Sr0  1  0.75000000  0.75000000  0.89989977  1
  Sr  Sr1  1  0.25000000  0.25000000  0.10648890  1
  Sr  Sr2  1  0.25000000  0.25000000  0.59554528  1
  Ca  Ca3  1  0.75000000  0.75000000  0.40345698  1
  Cl  Cl4  1  0.75000000  0.75000000  0.18653921  1
  Cl  Cl5  1  0.75000000  0.75000000  0.67315508  1
  Cl  Cl6  1  0.25000000  0.25000000  0.32671580  1
  Cl  Cl7  1  0.25000000  0.25000000  0.81816962  1
  F  F8  1  0.75000000  0.25000000  0.00189506  1
  F  F9  1  0.75000000  0.25000000  0.49311962  1
  F  F10  1  0.25000000  0.75000000  0.00189506  1
  F  F11  1  0.25000000  0.75000000  0.49311962  1
