# generated using pymatgen
data_Sr3CaAg4
_symmetry_space_group_name_H-M   'P 1'
_cell_length_a   4.91693138
_cell_length_b   6.29612156
_cell_length_c   24.12201194
_cell_angle_alpha   90.00535012
_cell_angle_beta   90.00000000
_cell_angle_gamma   90.00000000
_symmetry_Int_Tables_number   1
_chemical_formula_structural   Sr3CaAg4
_chemical_formula_sum   'Sr9 Ca3 Ag12'
_cell_volume   746.75953691
_cell_formula_units_Z   3
loop_
 _symmetry_equiv_pos_site_id
 _symmetry_equiv_pos_as_xyz
  1  'x, y, z'
loop_
 _atom_site_type_symbol
 _atom_site_label
 _atom_site_symmetry_multiplicity
 _atom_site_fract_x
 _atom_site_fract_y
 _atom_site_fract_z
 _atom_site_occupancy
  Sr  Sr0  1  0.75000000  0.36579136  0.94237077  1
  Sr  Sr1  1  0.25000000  0.10406487  0.72491460  1
  Sr  Sr2  1  0.25000000  0.39534511  0.22604391  1
  Sr  Sr3  1  0.75000000  0.89538883  0.27427114  1
  Sr  Sr4  1  0.75000000  0.60508743  0.77282468  1
  Sr  Sr5  1  0.25000000  0.87158163  0.89462563  1
  Sr  Sr6  1  0.25000000  0.63300415  0.39565518  1
  Sr  Sr7  1  0.75000000  0.13201645  0.10585635  1
  Sr  Sr8  1  0.75000000  0.36710428  0.60421023  1
  Ca  Ca9  1  0.25000000  0.85948831  0.55825670  1
  Ca  Ca10  1  0.25000000  0.64170631  0.06041017  1
  Ca  Ca11  1  0.75000000  0.14072466  0.44160242  1
  Ag  Ag12  1  0.25000000  0.61755891  0.67595686  1
  Ag  Ag13  1  0.25000000  0.88252441  0.17643601  1
  Ag  Ag14  1  0.75000000  0.38278478  0.32406502  1
  Ag  Ag15  1  0.75000000  0.11314187  0.82153877  1
  Ag  Ag16  1  0.25000000  0.36140441  0.84492145  1
  Ag  Ag17  1  0.25000000  0.13991935  0.34866981  1
  Ag  Ag18  1  0.75000000  0.63928854  0.15153687  1
  Ag  Ag19  1  0.75000000  0.86048418  0.65111168  1
  Ag  Ag20  1  0.25000000  0.36607988  0.51065702  1
  Ag  Ag21  1  0.25000000  0.12479190  0.01379175  1
  Ag  Ag22  1  0.75000000  0.63425252  0.48927916  1
  Ag  Ag23  1  0.75000000  0.86646588  0.99099384  1
