# generated using pymatgen
data_Sr2CaTi3O9
_symmetry_space_group_name_H-M   'P 1'
_cell_length_a   5.55465560
_cell_length_b   9.59504239
_cell_length_c   13.59887248
_cell_angle_alpha   90.35276950
_cell_angle_beta   90.17468924
_cell_angle_gamma   89.87789260
_symmetry_Int_Tables_number   1
_chemical_formula_structural   Sr2CaTi3O9
_chemical_formula_sum   'Sr8 Ca4 Ti12 O36'
_cell_volume   724.76250389
_cell_formula_units_Z   4
loop_
 _symmetry_equiv_pos_site_id
 _symmetry_equiv_pos_as_xyz
  1  'x, y, z'
loop_
 _atom_site_type_symbol
 _atom_site_label
 _atom_site_symmetry_multiplicity
 _atom_site_fract_x
 _atom_site_fract_y
 _atom_site_fract_z
 _atom_site_occupancy
  Sr  Sr0  1  0.00370183  0.16568578  0.58392236  1
  Sr  Sr1  1  0.00382763  0.83413120  0.91604495  1
  Sr  Sr2  1  0.48939102  0.33277329  0.91529558  1
  Sr  Sr3  1  0.48809627  0.00194882  0.24986794  1
  Sr  Sr4  1  0.49007642  0.66699042  0.58307077  1
  Sr  Sr5  1  0.98925057  0.49748482  0.75197642  1
  Sr  Sr6  1  0.98707326  0.16472640  0.08613280  1
  Sr  Sr7  1  0.98750615  0.83101956  0.41869706  1
  Ca  Ca8  1  0.50323845  0.66674320  0.08379351  1
  Ca  Ca9  1  0.50148475  0.33351230  0.41658915  1
  Ca  Ca10  1  0.50329285  0.99913881  0.75030346  1
  Ca  Ca11  1  0.00101360  0.49984906  0.25050510  1
  Ti  Ti12  1  0.99186248  0.49751637  0.49898932  1
  Ti  Ti13  1  0.99320584  0.16367419  0.83448054  1
  Ti  Ti14  1  0.99323683  0.82859448  0.16778719  1
  Ti  Ti15  1  0.49212963  0.99965090  0.50130702  1
  Ti  Ti16  1  0.49208450  0.66572846  0.83596715  1
  Ti  Ti17  1  0.49124572  0.33424415  0.16954312  1
  Ti  Ti18  1  0.99341771  0.83252976  0.66866803  1
  Ti  Ti19  1  0.99325294  0.50073139  0.00389928  1
  Ti  Ti20  1  0.99151570  0.16855633  0.33469960  1
  Ti  Ti21  1  0.49228080  0.33054704  0.66695063  1
  Ti  Ti22  1  0.49194522  0.99823542  0.00186045  1
  Ti  Ti23  1  0.49136565  0.66243841  0.33373292  1
  O  O24  1  0.26910682  0.07043406  0.90181124  1
  O  O25  1  0.27206648  0.73260844  0.23352422  1
  O  O26  1  0.26783051  0.40196731  0.56679223  1
  O  O27  1  0.76147184  0.76305482  0.75903234  1
  O  O28  1  0.76887522  0.43497803  0.09897630  1
  O  O29  1  0.76116202  0.10095070  0.42696074  1
  O  O30  1  0.74393909  0.90063003  0.57873364  1
  O  O31  1  0.74225499  0.56601386  0.91385516  1
  O  O32  1  0.74131963  0.23038904  0.24518291  1
  O  O33  1  0.23846014  0.60333234  0.41730876  1
  O  O34  1  0.24114024  0.26851632  0.75167020  1
  O  O35  1  0.24167643  0.93589617  0.08547182  1
  O  O36  1  0.74078974  0.59637119  0.42788968  1
  O  O37  1  0.74431289  0.26158446  0.75931640  1
  O  O38  1  0.74228386  0.92608276  0.09398007  1
  O  O39  1  0.24142721  0.90866054  0.57125515  1
  O  O40  1  0.24162239  0.57424374  0.90469542  1
  O  O41  1  0.23876392  0.24158583  0.23702223  1
  O  O42  1  0.26927050  0.77411615  0.75361500  1
  O  O43  1  0.27172388  0.44443712  0.08964617  1
  O  O44  1  0.26818215  0.11032652  0.42084712  1
  O  O45  1  0.76104962  0.06605715  0.91045978  1
  O  O46  1  0.76895233  0.72332859  0.24319067  1
  O  O47  1  0.76140708  0.39758791  0.57523772  1
  O  O48  1  0.99927314  0.01354030  0.73628999  1
  O  O49  1  0.00439373  0.68300118  0.06714035  1
  O  O50  1  0.99823315  0.35455778  0.39545392  1
  O  O51  1  0.50223836  0.14703522  0.60302378  1
  O  O52  1  0.50288025  0.81481095  0.93496828  1
  O  O53  1  0.50376817  0.47776057  0.27236857  1
  O  O54  1  0.00909148  0.65309421  0.59631099  1
  O  O55  1  0.00736083  0.32015879  0.93185713  1
  O  O56  1  0.00752505  0.98443292  0.26407827  1
  O  O57  1  0.50262883  0.51252208  0.73619991  1
  O  O58  1  0.50439094  0.18147108  0.06964173  1
  O  O59  1  0.50363124  0.84801128  0.40210782  1
