# generated using pymatgen
data_SrCa3(NCl)2
_symmetry_space_group_name_H-M   'P 1'
_cell_length_a   3.72668606
_cell_length_b   3.72668606
_cell_length_c   13.71473208
_cell_angle_alpha   82.19139688
_cell_angle_beta   89.99999934
_cell_angle_gamma   59.99999573
_symmetry_Int_Tables_number   1
_chemical_formula_structural   SrCa3(NCl)2
_chemical_formula_sum   'Sr1 Ca3 N2 Cl2'
_cell_volume   162.91168223
_cell_formula_units_Z   1
loop_
 _symmetry_equiv_pos_site_id
 _symmetry_equiv_pos_as_xyz
  1  'x, y, z'
loop_
 _atom_site_type_symbol
 _atom_site_label
 _atom_site_symmetry_multiplicity
 _atom_site_fract_x
 _atom_site_fract_y
 _atom_site_fract_z
 _atom_site_occupancy
  Sr  Sr0  1  0.11481970  0.77036061  0.34445909  1
  Ca  Ca1  1  0.61396797  0.77206406  0.84190391  1
  Ca  Ca2  1  0.38361462  0.23277077  0.15084385  1
  Ca  Ca3  1  0.88731768  0.22536464  0.66195304  1
  N  N4  1  0.74708659  0.50582681  0.24125978  1
  N  N5  1  0.25078891  0.49842218  0.75236672  1
  Cl  Cl6  1  0.99898149  0.00203703  0.99694446  1
  Cl  Cl7  1  0.50342305  0.99315390  0.51026915  1
