# generated using pymatgen
data_Ca2Cr2O5
_symmetry_space_group_name_H-M   'P 1'
_cell_length_a   5.44002752
_cell_length_b   5.63051377
_cell_length_c   8.49430722
_cell_angle_alpha   109.35551443
_cell_angle_beta   108.67599497
_cell_angle_gamma   90.00000000
_symmetry_Int_Tables_number   1
_chemical_formula_structural   Ca2Cr2O5
_chemical_formula_sum   'Ca4 Cr4 O10'
_cell_volume   230.90563604
_cell_formula_units_Z   2
loop_
 _symmetry_equiv_pos_site_id
 _symmetry_equiv_pos_as_xyz
  1  'x, y, z'
loop_
 _atom_site_type_symbol
 _atom_site_label
 _atom_site_symmetry_multiplicity
 _atom_site_fract_x
 _atom_site_fract_y
 _atom_site_fract_z
 _atom_site_occupancy
  Ca  Ca0  1  0.88833607  0.41790717  0.79148069  1
  Ca  Ca1  1  0.09685538  0.58209283  0.20851931  1
  Ca  Ca2  1  0.59685538  0.12642648  0.20851931  1
  Ca  Ca3  1  0.38833607  0.87357352  0.79148069  1
  Cr  Cr4  1  0.48383063  0.50000000  0.00000000  1
  Cr  Cr5  1  0.98383063  0.00000000  0.00000000  1
  Cr  Cr6  1  0.28236676  0.18344099  0.50000000  1
  Cr  Cr7  1  0.78236676  0.81655901  0.50000000  1
  O  O8  1  0.25454084  0.77075947  0.03136554  1
  O  O9  1  0.22317530  0.22924053  0.96863446  1
  O  O10  1  0.72317530  0.23939394  0.96863446  1
  O  O11  1  0.75454084  0.76060606  0.03136554  1
  O  O12  1  0.32875146  0.42663762  0.72833886  1
  O  O13  1  0.60041259  0.57336238  0.27166114  1
  O  O14  1  0.10041259  0.19829875  0.27166114  1
  O  O15  1  0.82875146  0.80170125  0.72833886  1
  O  O16  1  0.63973098  0.13355519  0.50000000  1
  O  O17  1  0.13973098  0.86644481  0.50000000  1
