# generated using pymatgen
data_Nd(InCu)6
_symmetry_space_group_name_H-M   'P 1'
_cell_length_a   5.56447867
_cell_length_b   7.10544715
_cell_length_c   7.10544715
_cell_angle_alpha   98.50816627
_cell_angle_beta   113.05186890
_cell_angle_gamma   66.94813110
_symmetry_Int_Tables_number   1
_chemical_formula_structural   Nd(InCu)6
_chemical_formula_sum   'Nd1 In6 Cu6'
_cell_volume   237.85733007
_cell_formula_units_Z   1
loop_
 _symmetry_equiv_pos_site_id
 _symmetry_equiv_pos_as_xyz
  1  'x, y, z'
loop_
 _atom_site_type_symbol
 _atom_site_label
 _atom_site_symmetry_multiplicity
 _atom_site_fract_x
 _atom_site_fract_y
 _atom_site_fract_z
 _atom_site_occupancy
  Nd  Nd0  1  -0.00000000  0.00000000  -0.00000000  1
  In  In1  1  0.66209825  0.33790175  0.66209825  1
  In  In2  1  0.33790175  0.66209825  0.33790175  1
  In  In3  1  0.00000000  0.34463921  0.34463921  1
  In  In4  1  -0.00000000  0.65536079  0.65536079  1
  In  In5  1  0.50000000  0.80984755  0.80984755  1
  In  In6  1  0.50000000  0.19015245  0.19015245  1
  Cu  Cu7  1  0.50000000  0.00000000  0.50000000  1
  Cu  Cu8  1  -0.00000000  0.00000000  0.50000000  1
  Cu  Cu9  1  0.50000000  0.50000000  -0.00000000  1
  Cu  Cu10  1  -0.00000000  0.50000000  -0.00000000  1
  Cu  Cu11  1  0.73074451  0.76925549  0.23074451  1
  Cu  Cu12  1  0.26925549  0.23074451  0.76925549  1
