# generated using pymatgen
data_Nd2EuBeO5
_symmetry_space_group_name_H-M   'P 1'
_cell_length_a   6.60913405
_cell_length_b   7.28786819
_cell_length_c   9.60813933
_cell_angle_alpha   90.00000000
_cell_angle_beta   90.00000000
_cell_angle_gamma   90.00000000
_symmetry_Int_Tables_number   1
_chemical_formula_structural   Nd2EuBeO5
_chemical_formula_sum   'Nd8 Eu4 Be4 O20'
_cell_volume   462.79042196
_cell_formula_units_Z   4
loop_
 _symmetry_equiv_pos_site_id
 _symmetry_equiv_pos_as_xyz
  1  'x, y, z'
loop_
 _atom_site_type_symbol
 _atom_site_label
 _atom_site_symmetry_multiplicity
 _atom_site_fract_x
 _atom_site_fract_y
 _atom_site_fract_z
 _atom_site_occupancy
  Nd  Nd0  1  0.09613655  0.74559756  0.52357102  1
  Nd  Nd1  1  0.40386345  0.74559756  0.02357102  1
  Nd  Nd2  1  0.90386345  0.24559756  0.47642898  1
  Nd  Nd3  1  0.59613655  0.24559756  0.97642898  1
  Nd  Nd4  1  0.92275567  0.52630587  0.17289103  1
  Nd  Nd5  1  0.07724433  0.02630587  0.82710897  1
  Nd  Nd6  1  0.42275567  0.02630587  0.32710897  1
  Nd  Nd7  1  0.57724433  0.52630587  0.67289103  1
  Eu  Eu8  1  0.58332807  0.98032848  0.67507394  1
  Eu  Eu9  1  0.41667193  0.48032848  0.32492606  1
  Eu  Eu10  1  0.08332807  0.48032848  0.82492606  1
  Eu  Eu11  1  0.91667193  0.98032848  0.17507394  1
  Be  Be12  1  0.69105579  0.74941593  0.40081513  1
  Be  Be13  1  0.80894421  0.74941593  0.90081513  1
  Be  Be14  1  0.30894421  0.24941593  0.59918487  1
  Be  Be15  1  0.19105579  0.24941593  0.09918487  1
  O  O16  1  0.16451323  0.74911430  0.27707142  1
  O  O17  1  0.33548677  0.74911430  0.77707142  1
  O  O18  1  0.83548677  0.24911430  0.72292858  1
  O  O19  1  0.66451323  0.24911430  0.22292858  1
  O  O20  1  0.63474822  0.75042653  0.22839823  1
  O  O21  1  0.86525178  0.75042653  0.72839823  1
  O  O22  1  0.36525178  0.25042653  0.77160177  1
  O  O23  1  0.13474822  0.25042653  0.27160177  1
  O  O24  1  0.02039441  0.75020835  0.99036373  1
  O  O25  1  0.47960559  0.75020835  0.49036373  1
  O  O26  1  0.97960559  0.25020835  0.00963627  1
  O  O27  1  0.52039441  0.25020835  0.50963627  1
  O  O28  1  0.31103074  0.05879812  0.06704139  1
  O  O29  1  0.19466082  0.43980487  0.56650520  1
  O  O30  1  0.68896926  0.55879812  0.93295861  1
  O  O31  1  0.80533918  0.93980487  0.43349480  1
  O  O32  1  0.69466082  0.93980487  0.93349480  1
  O  O33  1  0.81103074  0.55879812  0.43295861  1
  O  O34  1  0.30533918  0.43980487  0.06650520  1
  O  O35  1  0.18896926  0.05879812  0.56704139  1
