# generated using pymatgen
data_SmFe2Co2B
_symmetry_space_group_name_H-M   'P 1'
_cell_length_a   5.10556645
_cell_length_b   5.13788826
_cell_length_c   6.89040477
_cell_angle_alpha   89.99573207
_cell_angle_beta   89.99141011
_cell_angle_gamma   60.20788977
_symmetry_Int_Tables_number   1
_chemical_formula_structural   SmFe2Co2B
_chemical_formula_sum   'Sm2 Fe4 Co4 B2'
_cell_volume   156.85917212
_cell_formula_units_Z   2
loop_
 _symmetry_equiv_pos_site_id
 _symmetry_equiv_pos_as_xyz
  1  'x, y, z'
loop_
 _atom_site_type_symbol
 _atom_site_label
 _atom_site_symmetry_multiplicity
 _atom_site_fract_x
 _atom_site_fract_y
 _atom_site_fract_z
 _atom_site_occupancy
  Sm  Sm0  1  0.99998981  0.00000000  0.00243788  1
  Sm  Sm1  1  -0.00001467  -0.00000000  0.49267005  1
  Fe  Fe2  1  0.99999303  0.49999545  0.71244448  1
  Fe  Fe3  1  0.49998848  0.50000455  0.71244448  1
  Fe  Fe4  1  0.66763796  0.66460281  0.00302652  1
  Fe  Fe5  1  0.33224077  0.33539719  0.00302652  1
  Co  Co6  1  0.50001291  0.00000000  0.28873289  1
  Co  Co7  1  -0.00001341  0.50003173  0.28992163  1
  Co  Co8  1  0.50001832  0.49996827  0.28992163  1
  Co  Co9  1  0.50001186  0.00000000  0.71228171  1
  B  B10  1  0.66497106  0.66999282  0.49654611  1
  B  B11  1  0.33496388  0.33000718  0.49654611  1
