# generated using pymatgen
data_CeMg14Ni
_symmetry_space_group_name_H-M   'P 1'
_cell_length_a   6.56405763
_cell_length_b   6.00368212
_cell_length_c   10.19497822
_cell_angle_alpha   90.00000000
_cell_angle_beta   90.00000000
_cell_angle_gamma   117.21397540
_symmetry_Int_Tables_number   1
_chemical_formula_structural   CeMg14Ni
_chemical_formula_sum   'Ce1 Mg14 Ni1'
_cell_volume   357.29508312
_cell_formula_units_Z   1
loop_
 _symmetry_equiv_pos_site_id
 _symmetry_equiv_pos_as_xyz
  1  'x, y, z'
loop_
 _atom_site_type_symbol
 _atom_site_label
 _atom_site_symmetry_multiplicity
 _atom_site_fract_x
 _atom_site_fract_y
 _atom_site_fract_z
 _atom_site_occupancy
  Ce  Ce0  1  0.12526181  0.81263040  0.12500000  1
  Mg  Mg1  1  0.15733883  0.32866891  0.62500000  1
  Mg  Mg2  1  0.16605530  0.83302715  0.62500000  1
  Mg  Mg3  1  0.62116712  0.32544064  0.12500000  1
  Mg  Mg4  1  0.65971213  0.32603389  0.62500000  1
  Mg  Mg5  1  0.62116712  0.79572549  0.12500000  1
  Mg  Mg6  1  0.65971213  0.83367724  0.62500000  1
  Mg  Mg7  1  0.34593778  0.17524633  0.37570031  1
  Mg  Mg8  1  0.34593778  0.17524633  0.87429969  1
  Mg  Mg9  1  0.34593778  0.67069245  0.37570031  1
  Mg  Mg10  1  0.34593778  0.67069245  0.87429969  1
  Mg  Mg11  1  0.87171923  0.18586012  0.33788410  1
  Mg  Mg12  1  0.87171923  0.18586012  0.91211590  1
  Mg  Mg13  1  0.83484371  0.66742236  0.38953438  1
  Mg  Mg14  1  0.83484371  0.66742236  0.86046562  1
  Ni  Ni15  1  0.19270855  0.34635377  0.12500000  1
