# generated using pymatgen
data_Re(Te2Mo)2
_symmetry_space_group_name_H-M   'P 1'
_cell_length_a   7.16903315
_cell_length_b   7.10699225
_cell_length_c   7.15081158
_cell_angle_alpha   92.81209505
_cell_angle_beta   92.94105032
_cell_angle_gamma   92.79294117
_symmetry_Int_Tables_number   1
_chemical_formula_structural   Re(Te2Mo)2
_chemical_formula_sum   'Re2 Te8 Mo4'
_cell_volume   362.93780549
_cell_formula_units_Z   2
loop_
 _symmetry_equiv_pos_site_id
 _symmetry_equiv_pos_as_xyz
  1  'x, y, z'
loop_
 _atom_site_type_symbol
 _atom_site_label
 _atom_site_symmetry_multiplicity
 _atom_site_fract_x
 _atom_site_fract_y
 _atom_site_fract_z
 _atom_site_occupancy
  Re  Re0  1  0.58223562  0.45135933  0.75062607  1
  Re  Re1  1  0.45532058  0.75058878  0.58200339  1
  Te  Te2  1  0.87956165  0.25805999  0.62409009  1
  Te  Te3  1  0.26360939  0.62155842  0.87992356  1
  Te  Te4  1  0.62068084  0.88193189  0.26178966  1
  Te  Te5  1  0.12327426  0.74520932  0.37700790  1
  Te  Te6  1  0.74201444  0.37951616  0.11603248  1
  Te  Te7  1  0.37643297  0.11806908  0.74363913  1
  Te  Te8  1  0.78550363  0.78841329  0.79089199  1
  Te  Te9  1  0.20586713  0.20962221  0.21151464  1
  Mo  Mo10  1  0.75622001  0.58407682  0.45515585  1
  Mo  Mo11  1  0.41681352  0.54746408  0.24527184  1
  Mo  Mo12  1  0.54622851  0.24851267  0.41534597  1
  Mo  Mo13  1  0.24623745  0.41561796  0.54670744  1
