# generated using pymatgen
data_NaYTi2O6
_symmetry_space_group_name_H-M   'P 1'
_cell_length_a   5.33532679
_cell_length_b   5.54697847
_cell_length_c   7.64367624
_cell_angle_alpha   90.00000000
_cell_angle_beta   90.00000000
_cell_angle_gamma   90.00000000
_symmetry_Int_Tables_number   1
_chemical_formula_structural   NaYTi2O6
_chemical_formula_sum   'Na2 Y2 Ti4 O12'
_cell_volume   226.21416137
_cell_formula_units_Z   2
loop_
 _symmetry_equiv_pos_site_id
 _symmetry_equiv_pos_as_xyz
  1  'x, y, z'
loop_
 _atom_site_type_symbol
 _atom_site_label
 _atom_site_symmetry_multiplicity
 _atom_site_fract_x
 _atom_site_fract_y
 _atom_site_fract_z
 _atom_site_occupancy
  Na  Na0  1  0.49456088  0.96547745  0.25000000  1
  Na  Na1  1  0.99456088  0.53452255  0.75000000  1
  Y  Y2  1  0.01659593  0.43049500  0.25000000  1
  Y  Y3  1  0.51659593  0.06950500  0.75000000  1
  Ti  Ti4  1  0.51221763  0.51459659  0.99732830  1
  Ti  Ti5  1  0.01221763  0.98540341  0.49732830  1
  Ti  Ti6  1  0.51221763  0.51459659  0.50267170  1
  Ti  Ti7  1  0.01221763  0.98540341  0.00267170  1
  O  O8  1  0.92302455  0.02209720  0.25000000  1
  O  O9  1  0.59887218  0.52564176  0.25000000  1
  O  O10  1  0.09887218  0.97435824  0.75000000  1
  O  O11  1  0.42302455  0.47790280  0.75000000  1
  O  O12  1  0.19223416  0.69588180  0.05131611  1
  O  O13  1  0.27902144  0.21347999  0.45999777  1
  O  O14  1  0.77902144  0.28652001  0.54000223  1
  O  O15  1  0.69223416  0.80411820  0.94868389  1
  O  O16  1  0.77902144  0.28652001  0.95999777  1
  O  O17  1  0.69223416  0.80411820  0.55131611  1
  O  O18  1  0.19223416  0.69588180  0.44868389  1
  O  O19  1  0.27902144  0.21347999  0.04000223  1
