# generated using pymatgen
data_NdCuAg
_symmetry_space_group_name_H-M   'P 1'
_cell_length_a   4.50233033
_cell_length_b   5.99765313
_cell_length_c   5.64589747
_cell_angle_alpha   93.44214043
_cell_angle_beta   113.49854827
_cell_angle_gamma   67.95460925
_symmetry_Int_Tables_number   1
_chemical_formula_structural   NdCuAg
_chemical_formula_sum   'Nd2 Cu2 Ag2'
_cell_volume   128.87056792
_cell_formula_units_Z   2
loop_
 _symmetry_equiv_pos_site_id
 _symmetry_equiv_pos_as_xyz
  1  'x, y, z'
loop_
 _atom_site_type_symbol
 _atom_site_label
 _atom_site_symmetry_multiplicity
 _atom_site_fract_x
 _atom_site_fract_y
 _atom_site_fract_z
 _atom_site_occupancy
  Nd  Nd0  1  0.74964788  0.70297966  0.20227542  1
  Nd  Nd1  1  0.25035212  0.29702034  0.79772458  1
  Cu  Cu2  1  0.53750103  0.31308139  0.38808345  1
  Cu  Cu3  1  0.46249897  0.68691861  0.61191655  1
  Ag  Ag4  1  0.06230811  0.11297606  0.23759228  1
  Ag  Ag5  1  0.93769189  0.88702394  0.76240772  1
