# generated using pymatgen
data_Sr2CaTi3O9
_symmetry_space_group_name_H-M   'P 1'
_cell_length_a   5.54060800
_cell_length_b   5.54585320
_cell_length_c   23.53594722
_cell_angle_alpha   90.00000000
_cell_angle_beta   90.00000000
_cell_angle_gamma   90.07460073
_symmetry_Int_Tables_number   1
_chemical_formula_structural   Sr2CaTi3O9
_chemical_formula_sum   'Sr8 Ca4 Ti12 O36'
_cell_volume   723.19781872
_cell_formula_units_Z   4
loop_
 _symmetry_equiv_pos_site_id
 _symmetry_equiv_pos_as_xyz
  1  'x, y, z'
loop_
 _atom_site_type_symbol
 _atom_site_label
 _atom_site_symmetry_multiplicity
 _atom_site_fract_x
 _atom_site_fract_y
 _atom_site_fract_z
 _atom_site_occupancy
  Sr  Sr0  1  0.00809947  0.00128641  0.58313422  1
  Sr  Sr1  1  0.00809947  0.00128641  0.91686578  1
  Sr  Sr2  1  0.49149128  0.50156636  0.08319597  1
  Sr  Sr3  1  0.49149128  0.50156636  0.41680403  1
  Sr  Sr4  1  0.49334622  0.50023737  0.75000000  1
  Sr  Sr5  1  0.99014345  0.99671571  0.08417341  1
  Sr  Sr6  1  0.99014345  0.99671571  0.41582659  1
  Sr  Sr7  1  0.99078318  0.99636521  0.75000000  1
  Ca  Ca8  1  0.51546816  0.50122500  0.25000000  1
  Ca  Ca9  1  0.51275360  0.50149217  0.58329076  1
  Ca  Ca10  1  0.51275360  0.50149217  0.91670924  1
  Ca  Ca11  1  0.01546438  0.99865181  0.25000000  1
  Ti  Ti12  1  0.00078909  0.49934454  0.99970197  1
  Ti  Ti13  1  0.00190513  0.50142989  0.33164860  1
  Ti  Ti14  1  0.00133608  0.49958884  0.66590779  1
  Ti  Ti15  1  0.50138966  0.99824375  0.16833349  1
  Ti  Ti16  1  0.50033986  0.99880124  0.50028768  1
  Ti  Ti17  1  0.50023546  0.99828344  0.83404065  1
  Ti  Ti18  1  0.00190513  0.50142989  0.16835140  1
  Ti  Ti19  1  0.00078909  0.49934454  0.50029803  1
  Ti  Ti20  1  0.00133608  0.49958884  0.83409221  1
  Ti  Ti21  1  0.50138966  0.99824375  0.33166651  1
  Ti  Ti22  1  0.50023546  0.99828344  0.66595935  1
  Ti  Ti23  1  0.50033986  0.99880124  0.99971232  1
  O  O24  1  0.99088009  0.55645088  0.25000000  1
  O  O25  1  0.98906540  0.53469441  0.58312193  1
  O  O26  1  0.98906540  0.53469441  0.91687807  1
  O  O27  1  0.49159979  0.94262557  0.25000000  1
  O  O28  1  0.49998139  0.95038818  0.58311380  1
  O  O29  1  0.49998139  0.95038818  0.91688620  1
  O  O30  1  0.00324896  0.46305400  0.08399308  1
  O  O31  1  0.00324896  0.46305400  0.41600692  1
  O  O32  1  0.00538956  0.46511733  0.75000000  1
  O  O33  1  0.49914007  0.03545507  0.08406874  1
  O  O34  1  0.49914007  0.03545507  0.41593126  1
  O  O35  1  0.49667248  0.03207619  0.75000000  1
  O  O36  1  0.27530029  0.27537060  0.32279231  1
  O  O37  1  0.27331064  0.27400115  0.65768166  1
  O  O38  1  0.27314394  0.27423998  0.99123118  1
  O  O39  1  0.77529707  0.22394179  0.17705689  1
  O  O40  1  0.76565131  0.23465249  0.50601758  1
  O  O41  1  0.76586783  0.23428465  0.83942212  1
  O  O42  1  0.72484678  0.72531152  0.16095410  1
  O  O43  1  0.73151654  0.73328914  0.49425625  1
  O  O44  1  0.73164098  0.73294762  0.82783098  1
  O  O45  1  0.22970587  0.77060427  0.00592969  1
  O  O46  1  0.22439679  0.77422478  0.33861445  1
  O  O47  1  0.22960111  0.77041330  0.67184429  1
  O  O48  1  0.73151654  0.73328914  0.00574375  1
  O  O49  1  0.72484678  0.72531152  0.33904590  1
  O  O50  1  0.73164098  0.73294762  0.67216902  1
  O  O51  1  0.22439679  0.77422478  0.16138555  1
  O  O52  1  0.22970587  0.77060427  0.49407031  1
  O  O53  1  0.22960111  0.77041330  0.82815571  1
  O  O54  1  0.27530029  0.27537060  0.17720769  1
  O  O55  1  0.27314394  0.27423998  0.50876882  1
  O  O56  1  0.27331064  0.27400115  0.84231834  1
  O  O57  1  0.77529707  0.22394179  0.32294311  1
  O  O58  1  0.76586783  0.23428465  0.66057788  1
  O  O59  1  0.76565131  0.23465249  0.99398242  1
