# generated using pymatgen
data_Sm4Fe34C3
_symmetry_space_group_name_H-M   'P 1'
_cell_length_a   6.49543306
_cell_length_b   6.48024840
_cell_length_c   12.99644824
_cell_angle_alpha   83.61428086
_cell_angle_beta   83.82557944
_cell_angle_gamma   83.81974524
_symmetry_Int_Tables_number   1
_chemical_formula_structural   Sm4Fe34C3
_chemical_formula_sum   'Sm4 Fe34 C3'
_cell_volume   537.95793397
_cell_formula_units_Z   1
loop_
 _symmetry_equiv_pos_site_id
 _symmetry_equiv_pos_as_xyz
  1  'x, y, z'
loop_
 _atom_site_type_symbol
 _atom_site_label
 _atom_site_symmetry_multiplicity
 _atom_site_fract_x
 _atom_site_fract_y
 _atom_site_fract_z
 _atom_site_occupancy
  Sm  Sm0  1  0.66584122  0.65049477  0.32635380  1
  Sm  Sm1  1  0.66225891  0.66191922  0.82388427  1
  Sm  Sm2  1  0.33415878  0.34950523  0.17364620  1
  Sm  Sm3  1  0.33774109  0.33808078  0.67611573  1
  Fe  Fe4  1  0.34081231  0.34424613  0.42861248  1
  Fe  Fe5  1  0.34263788  0.34204191  0.92580334  1
  Fe  Fe6  1  0.34147759  0.85475247  0.17135982  1
  Fe  Fe7  1  0.34175964  0.84991598  0.67182197  1
  Fe  Fe8  1  0.85313510  0.34229567  0.17099952  1
  Fe  Fe9  1  0.84910760  0.34214152  0.67203604  1
  Fe  Fe10  1  0.65918769  0.65575387  0.07138752  1
  Fe  Fe11  1  0.65736212  0.65795809  0.57419666  1
  Fe  Fe12  1  0.65852241  0.14524753  0.32864018  1
  Fe  Fe13  1  0.65824036  0.15008402  0.82817803  1
  Fe  Fe14  1  0.14686490  0.65770433  0.32900048  1
  Fe  Fe15  1  0.15089240  0.65785848  0.82796396  1
  Fe  Fe16  1  0.90311338  0.90409641  0.45245886  1
  Fe  Fe17  1  0.90585397  0.90534085  0.95063092  1
  Fe  Fe18  1  0.09688662  0.09590359  0.04754114  1
  Fe  Fe19  1  0.09414603  0.09465915  0.54936908  1
  Fe  Fe20  1  0.00000000  0.00000000  0.25000000  1
  Fe  Fe21  1  0.00000000  0.00000000  0.75000000  1
  Fe  Fe22  1  0.00098765  0.50054443  0.99929967  1
  Fe  Fe23  1  0.99901235  0.49945557  0.50070033  1
  Fe  Fe24  1  0.50116773  0.99826337  0.99877236  1
  Fe  Fe25  1  0.49883227  0.00173663  0.50122764  1
  Fe  Fe26  1  0.28523262  0.71643546  0.99934062  1
  Fe  Fe27  1  0.28525146  0.71575624  0.50029278  1
  Fe  Fe28  1  0.71379031  0.00064428  0.14195967  1
  Fe  Fe29  1  0.71258730  0.00051559  0.64420431  1
  Fe  Fe30  1  0.00171595  0.28504245  0.35779013  1
  Fe  Fe31  1  0.99854658  0.28760299  0.85623775  1
  Fe  Fe32  1  0.28620969  0.99935572  0.35804033  1
  Fe  Fe33  1  0.28741270  0.99948441  0.85579569  1
  Fe  Fe34  1  0.99828405  0.71495755  0.14220987  1
  Fe  Fe35  1  0.00145342  0.71239701  0.64376225  1
  Fe  Fe36  1  0.71476738  0.28356454  0.50065938  1
  Fe  Fe37  1  0.71474854  0.28424376  0.99970722  1
  C  C38  1  0.49918525  0.49973982  0.99856982  1
  C  C39  1  0.50081475  0.50026018  0.50143018  1
  C  C40  1  0.50000000  0.00000000  0.25000000  1
