# generated using pymatgen
data_NaTmTi2O6
_symmetry_space_group_name_H-M   'P 1'
_cell_length_a   5.30758969
_cell_length_b   5.52152599
_cell_length_c   7.60387008
_cell_angle_alpha   90.00000000
_cell_angle_beta   90.00000000
_cell_angle_gamma   90.00000000
_symmetry_Int_Tables_number   1
_chemical_formula_structural   NaTmTi2O6
_chemical_formula_sum   'Na2 Tm2 Ti4 O12'
_cell_volume   222.83897412
_cell_formula_units_Z   2
loop_
 _symmetry_equiv_pos_site_id
 _symmetry_equiv_pos_as_xyz
  1  'x, y, z'
loop_
 _atom_site_type_symbol
 _atom_site_label
 _atom_site_symmetry_multiplicity
 _atom_site_fract_x
 _atom_site_fract_y
 _atom_site_fract_z
 _atom_site_occupancy
  Na  Na0  1  0.49355746  0.96307351  0.25000000  1
  Na  Na1  1  0.99355746  0.53692649  0.75000000  1
  Tm  Tm2  1  0.01928925  0.42571673  0.25000000  1
  Tm  Tm3  1  0.51928925  0.07428327  0.75000000  1
  Ti  Ti4  1  0.51247040  0.51534074  0.99713020  1
  Ti  Ti5  1  0.01247040  0.98465926  0.49713020  1
  Ti  Ti6  1  0.51247040  0.51534074  0.50286980  1
  Ti  Ti7  1  0.01247040  0.98465926  0.00286980  1
  O  O8  1  0.18627067  0.69161737  0.05628663  1
  O  O9  1  0.27872995  0.21373374  0.45684262  1
  O  O10  1  0.77872995  0.28626626  0.54315738  1
  O  O11  1  0.68627067  0.80838263  0.94371337  1
  O  O12  1  0.77872995  0.28626626  0.95684262  1
  O  O13  1  0.68627067  0.80838263  0.55628663  1
  O  O14  1  0.18627067  0.69161737  0.44371337  1
  O  O15  1  0.27872995  0.21373374  0.04315738  1
  O  O16  1  0.92093196  0.02907618  0.25000000  1
  O  O17  1  0.61127930  0.52637701  0.25000000  1
  O  O18  1  0.11127930  0.97362299  0.75000000  1
  O  O19  1  0.42093196  0.47092382  0.75000000  1
