# generated using pymatgen
data_Mg14CoNi
_symmetry_space_group_name_H-M   'P 1'
_cell_length_a   6.19547695
_cell_length_b   6.35313091
_cell_length_c   9.59758528
_cell_angle_alpha   90.00000000
_cell_angle_beta   90.00000000
_cell_angle_gamma   120.84539735
_symmetry_Int_Tables_number   1
_chemical_formula_structural   Mg14CoNi
_chemical_formula_sum   'Mg14 Co1 Ni1'
_cell_volume   324.33372133
_cell_formula_units_Z   1
loop_
 _symmetry_equiv_pos_site_id
 _symmetry_equiv_pos_as_xyz
  1  'x, y, z'
loop_
 _atom_site_type_symbol
 _atom_site_label
 _atom_site_symmetry_multiplicity
 _atom_site_fract_x
 _atom_site_fract_y
 _atom_site_fract_z
 _atom_site_occupancy
  Mg  Mg0  1  0.17568205  0.33784053  0.62500000  1
  Mg  Mg1  1  0.17604053  0.83801976  0.62500000  1
  Mg  Mg2  1  0.72629748  0.36188012  0.12500000  1
  Mg  Mg3  1  0.66404800  0.33125889  0.62500000  1
  Mg  Mg4  1  0.72629748  0.86441636  0.12500000  1
  Mg  Mg5  1  0.66404800  0.83278811  0.62500000  1
  Mg  Mg6  1  0.31044476  0.15610367  0.33580674  1
  Mg  Mg7  1  0.31044476  0.15610367  0.91419326  1
  Mg  Mg8  1  0.31044476  0.65434208  0.33580674  1
  Mg  Mg9  1  0.31044476  0.65434208  0.91419326  1
  Mg  Mg10  1  0.83645973  0.16823036  0.37206808  1
  Mg  Mg11  1  0.83645973  0.16823036  0.87793192  1
  Mg  Mg12  1  0.83458094  0.66729097  0.37284862  1
  Mg  Mg13  1  0.83458094  0.66729097  0.87715138  1
  Co  Co14  1  0.14242206  0.32121053  0.12500000  1
  Ni  Ni15  1  0.14130406  0.82065153  0.12500000  1
