# generated using pymatgen
data_NaTi3AlO8
_symmetry_space_group_name_H-M   'P 1'
_cell_length_a   3.80016204
_cell_length_b   6.40278322
_cell_length_c   6.50988320
_cell_angle_alpha   107.37252505
_cell_angle_beta   90.00000000
_cell_angle_gamma   72.73698330
_symmetry_Int_Tables_number   1
_chemical_formula_structural   NaTi3AlO8
_chemical_formula_sum   'Na1 Ti3 Al1 O8'
_cell_volume   143.67679215
_cell_formula_units_Z   1
loop_
 _symmetry_equiv_pos_site_id
 _symmetry_equiv_pos_as_xyz
  1  'x, y, z'
loop_
 _atom_site_type_symbol
 _atom_site_label
 _atom_site_symmetry_multiplicity
 _atom_site_fract_x
 _atom_site_fract_y
 _atom_site_fract_z
 _atom_site_occupancy
  Na  Na0  1  0.00710651  0.98578699  0.98205464  1
  Ti  Ti1  1  0.60427849  0.79144301  0.28065979  1
  Ti  Ti2  1  0.39821405  0.20357191  0.70390634  1
  Ti  Ti3  1  0.29707815  0.40584369  0.30224411  1
  Al  Al4  1  0.70271554  0.59456891  0.69558889  1
  O  O5  1  0.55613588  0.88772823  0.64479740  1
  O  O6  1  0.44288789  0.11422422  0.36715305  1
  O  O7  1  0.63084932  0.73830136  0.99283456  1
  O  O8  1  0.37070104  0.25859791  0.01403617  1
  O  O9  1  0.76380246  0.47239509  0.35879820  1
  O  O10  1  0.23093059  0.53813883  0.65474623  1
  O  O11  1  0.85828738  0.28342524  0.71080431  1
  O  O12  1  0.13701270  0.72597460  0.29237631  1
