# generated using pymatgen
data_Nb4Cr7Si8
_symmetry_space_group_name_H-M   'P 1'
_cell_length_a   4.85469603
_cell_length_b   13.23100896
_cell_length_c   15.80994132
_cell_angle_alpha   90.00000000
_cell_angle_beta   90.00000000
_cell_angle_gamma   90.00000000
_symmetry_Int_Tables_number   1
_chemical_formula_structural   Nb4Cr7Si8
_chemical_formula_sum   'Nb16 Cr28 Si32'
_cell_volume   1015.51247750
_cell_formula_units_Z   4
loop_
 _symmetry_equiv_pos_site_id
 _symmetry_equiv_pos_as_xyz
  1  'x, y, z'
loop_
 _atom_site_type_symbol
 _atom_site_label
 _atom_site_symmetry_multiplicity
 _atom_site_fract_x
 _atom_site_fract_y
 _atom_site_fract_z
 _atom_site_occupancy
  Nb  Nb0  1  0.25000000  0.56452390  0.30464949  1
  Nb  Nb1  1  0.25000000  0.06452390  0.19535051  1
  Nb  Nb2  1  0.75000000  0.43547610  0.69535051  1
  Nb  Nb3  1  0.75000000  0.93547610  0.80464949  1
  Nb  Nb4  1  0.25000000  0.74720587  0.02672365  1
  Nb  Nb5  1  0.25000000  0.24720587  0.47327635  1
  Nb  Nb6  1  0.75000000  0.25279413  0.97327635  1
  Nb  Nb7  1  0.75000000  0.75279413  0.52672365  1
  Nb  Nb8  1  0.25000000  0.86603644  0.45788119  1
  Nb  Nb9  1  0.25000000  0.36603644  0.04211881  1
  Nb  Nb10  1  0.75000000  0.13396356  0.54211881  1
  Nb  Nb11  1  0.75000000  0.63396356  0.95788119  1
  Nb  Nb12  1  0.25000000  0.62109745  0.50546744  1
  Nb  Nb13  1  0.25000000  0.12109745  0.99453256  1
  Nb  Nb14  1  0.75000000  0.37890255  0.49453256  1
  Nb  Nb15  1  0.75000000  0.87890255  0.00546744  1
  Cr  Cr16  1  0.25000000  0.81242357  0.74961816  1
  Cr  Cr17  1  0.25000000  0.31242357  0.75038184  1
  Cr  Cr18  1  0.75000000  0.18757643  0.25038184  1
  Cr  Cr19  1  0.75000000  0.68757643  0.24961816  1
  Cr  Cr20  1  0.01134736  0.55910808  0.12289931  1
  Cr  Cr21  1  0.48865264  0.05910808  0.37710069  1
  Cr  Cr22  1  0.51134736  0.44089192  0.87710069  1
  Cr  Cr23  1  0.98865264  0.94089192  0.62289931  1
  Cr  Cr24  1  0.98865264  0.44089192  0.87710069  1
  Cr  Cr25  1  0.51134736  0.94089192  0.62289931  1
  Cr  Cr26  1  0.48865264  0.55910808  0.12289931  1
  Cr  Cr27  1  0.01134736  0.05910808  0.37710069  1
  Cr  Cr28  1  0.99008606  0.86374508  0.17601852  1
  Cr  Cr29  1  0.50991394  0.36374508  0.32398148  1
  Cr  Cr30  1  0.49008606  0.13625492  0.82398148  1
  Cr  Cr31  1  0.00991394  0.63625492  0.67601852  1
  Cr  Cr32  1  0.00991394  0.13625492  0.82398148  1
  Cr  Cr33  1  0.49008606  0.63625492  0.67601852  1
  Cr  Cr34  1  0.50991394  0.86374508  0.17601852  1
  Cr  Cr35  1  0.99008606  0.36374508  0.32398148  1
  Cr  Cr36  1  0.25000000  0.63460172  0.84450314  1
  Cr  Cr37  1  0.25000000  0.13460172  0.65549686  1
  Cr  Cr38  1  0.75000000  0.36539828  0.15549686  1
  Cr  Cr39  1  0.75000000  0.86539828  0.34450314  1
  Cr  Cr40  1  0.25000000  0.95245470  0.90467107  1
  Cr  Cr41  1  0.25000000  0.45245470  0.59532893  1
  Cr  Cr42  1  0.75000000  0.04754530  0.09532893  1
  Cr  Cr43  1  0.75000000  0.54754530  0.40467107  1
  Si  Si44  1  0.25000000  0.94468808  0.06194535  1
  Si  Si45  1  0.25000000  0.44468808  0.43805465  1
  Si  Si46  1  0.75000000  0.05531192  0.93805465  1
  Si  Si47  1  0.75000000  0.55531192  0.56194535  1
  Si  Si48  1  0.99716851  0.71491802  0.37821621  1
  Si  Si49  1  0.50283149  0.21491802  0.12178379  1
  Si  Si50  1  0.49716851  0.28508198  0.62178379  1
  Si  Si51  1  0.00283149  0.78508198  0.87821621  1
  Si  Si52  1  0.00283149  0.28508198  0.62178379  1
  Si  Si53  1  0.49716851  0.78508198  0.87821621  1
  Si  Si54  1  0.50283149  0.71491802  0.37821621  1
  Si  Si55  1  0.99716851  0.21491802  0.12178379  1
  Si  Si56  1  0.25000000  0.54942376  0.98163036  1
  Si  Si57  1  0.25000000  0.04942376  0.51836964  1
  Si  Si58  1  0.75000000  0.45057624  0.01836964  1
  Si  Si59  1  0.75000000  0.95057624  0.48163036  1
  Si  Si60  1  0.25000000  0.77882628  0.60494059  1
  Si  Si61  1  0.25000000  0.27882628  0.89505941  1
  Si  Si62  1  0.75000000  0.22117372  0.39505941  1
  Si  Si63  1  0.75000000  0.72117372  0.10494059  1
  Si  Si64  1  0.25000000  0.91039664  0.30180343  1
  Si  Si65  1  0.25000000  0.41039664  0.19819657  1
  Si  Si66  1  0.75000000  0.08960336  0.69819657  1
  Si  Si67  1  0.75000000  0.58960336  0.80180343  1
  Si  Si68  1  0.25000000  0.99610372  0.75207000  1
  Si  Si69  1  0.25000000  0.49610372  0.74793000  1
  Si  Si70  1  0.75000000  0.00389628  0.24793000  1
  Si  Si71  1  0.75000000  0.50389628  0.25207000  1
  Si  Si72  1  0.25000000  0.70856949  0.19467017  1
  Si  Si73  1  0.25000000  0.20856949  0.30532983  1
  Si  Si74  1  0.75000000  0.29143051  0.80532983  1
  Si  Si75  1  0.75000000  0.79143051  0.69467017  1
