# generated using pymatgen
data_MoCl2O
_symmetry_space_group_name_H-M   'P 1'
_cell_length_a   3.68611783
_cell_length_b   3.86443430
_cell_length_c   7.04709350
_cell_angle_alpha   74.08646561
_cell_angle_beta   74.83885529
_cell_angle_gamma   90.00000000
_symmetry_Int_Tables_number   1
_chemical_formula_structural   MoCl2O
_chemical_formula_sum   'Mo1 Cl2 O1'
_cell_volume   92.89855054
_cell_formula_units_Z   1
loop_
 _symmetry_equiv_pos_site_id
 _symmetry_equiv_pos_as_xyz
  1  'x, y, z'
loop_
 _atom_site_type_symbol
 _atom_site_label
 _atom_site_symmetry_multiplicity
 _atom_site_fract_x
 _atom_site_fract_y
 _atom_site_fract_z
 _atom_site_occupancy
  Mo  Mo0  1  0.03869642  0.00000000  1.00000000  1
  Cl  Cl1  1  0.66980707  0.13102668  0.73794663  1
  Cl  Cl2  1  0.40775370  0.86897332  0.26205337  1
  O  O3  1  0.03924281  0.50000000  1.00000000  1
