# generated using pymatgen
data_Na3SmTi2Nb2O12
_symmetry_space_group_name_H-M   'P 1'
_cell_length_a   5.49253179
_cell_length_b   5.58735992
_cell_length_c   7.83152187
_cell_angle_alpha   90.11564311
_cell_angle_beta   89.96626756
_cell_angle_gamma   90.26140004
_symmetry_Int_Tables_number   1
_chemical_formula_structural   Na3SmTi2Nb2O12
_chemical_formula_sum   'Na3 Sm1 Ti2 Nb2 O12'
_cell_volume   240.33660104
_cell_formula_units_Z   1
loop_
 _symmetry_equiv_pos_site_id
 _symmetry_equiv_pos_as_xyz
  1  'x, y, z'
loop_
 _atom_site_type_symbol
 _atom_site_label
 _atom_site_symmetry_multiplicity
 _atom_site_fract_x
 _atom_site_fract_y
 _atom_site_fract_z
 _atom_site_occupancy
  Na  Na0  1  0.50665076  0.52090226  0.25070641  1
  Na  Na1  1  0.99612406  0.01823330  0.25021629  1
  Na  Na2  1  0.49392830  0.47270746  0.74982537  1
  Sm  Sm3  1  0.00658054  0.94758783  0.75000754  1
  Ti  Ti4  1  0.50322002  0.98524024  0.99443789  1
  Ti  Ti5  1  0.99689064  0.48302407  0.50494346  1
  Nb  Nb6  1  0.50328717  0.99443704  0.48813882  1
  Nb  Nb7  1  0.99566632  0.48316167  0.01256501  1
  O  O8  1  0.79037235  0.79898866  0.02401042  1
  O  O9  1  0.71513556  0.29485035  0.46610754  1
  O  O10  1  0.20451217  0.21598196  0.54639212  1
  O  O11  1  0.27863826  0.73406910  0.95177055  1
  O  O12  1  0.20903465  0.21352804  0.95317023  1
  O  O13  1  0.27459103  0.73105611  0.54775106  1
  O  O14  1  0.79271674  0.79528602  0.47506475  1
  O  O15  1  0.70998965  0.29117132  0.03507313  1
  O  O16  1  0.43391924  0.98538149  0.24678901  1
  O  O17  1  0.07634836  0.49108877  0.25292538  1
  O  O18  1  0.58258857  0.02014664  0.75325519  1
  O  O19  1  0.92980562  0.52315771  0.74684985  1
