# generated using pymatgen
data_Na3TbTi2Nb2O12
_symmetry_space_group_name_H-M   'P 1'
_cell_length_a   5.44402286
_cell_length_b   5.59471151
_cell_length_c   7.78116493
_cell_angle_alpha   90.13617125
_cell_angle_beta   89.93146191
_cell_angle_gamma   90.73342823
_symmetry_Int_Tables_number   1
_chemical_formula_structural   Na3TbTi2Nb2O12
_chemical_formula_sum   'Na3 Tb1 Ti2 Nb2 O12'
_cell_volume   236.97643080
_cell_formula_units_Z   1
loop_
 _symmetry_equiv_pos_site_id
 _symmetry_equiv_pos_as_xyz
  1  'x, y, z'
loop_
 _atom_site_type_symbol
 _atom_site_label
 _atom_site_symmetry_multiplicity
 _atom_site_fract_x
 _atom_site_fract_y
 _atom_site_fract_z
 _atom_site_occupancy
  Na  Na0  1  0.50860752  0.52858414  0.25146736  1
  Na  Na1  1  0.99599510  0.01948220  0.25034064  1
  Na  Na2  1  0.49233706  0.46458645  0.74986471  1
  Tb  Tb3  1  0.00863968  0.93519138  0.74981154  1
  Ti  Ti4  1  0.51000237  0.98156819  0.99101802  1
  Ti  Ti5  1  0.99567509  0.47544710  0.50774559  1
  Nb  Nb6  1  0.50557737  0.99251191  0.48761348  1
  Nb  Nb7  1  0.99648838  0.47680925  0.01238012  1
  O  O8  1  0.79512698  0.80364934  0.02267502  1
  O  O9  1  0.70748775  0.30298853  0.46360509  1
  O  O10  1  0.19615644  0.21174432  0.55296655  1
  O  O11  1  0.28072588  0.73454867  0.94716298  1
  O  O12  1  0.19896329  0.20964691  0.94635014  1
  O  O13  1  0.27696647  0.73248226  0.55202254  1
  O  O14  1  0.79692709  0.80229964  0.47603114  1
  O  O15  1  0.70070998  0.29952859  0.03869495  1
  O  O16  1  0.43363090  0.98299180  0.24666958  1
  O  O17  1  0.08098801  0.48784736  0.25304539  1
  O  O18  1  0.59536515  0.02945585  0.75377868  1
  O  O19  1  0.92362947  0.52863609  0.74675650  1
