# generated using pymatgen
data_Na2Ti7O15
_symmetry_space_group_name_H-M   'P 1'
_cell_length_a   3.76700420
_cell_length_b   7.90164424
_cell_length_c   21.41499297
_cell_angle_alpha   95.89796127
_cell_angle_beta   90.00000000
_cell_angle_gamma   76.20974259
_symmetry_Int_Tables_number   1
_chemical_formula_structural   Na2Ti7O15
_chemical_formula_sum   'Na4 Ti14 O30'
_cell_volume   615.57961183
_cell_formula_units_Z   2
loop_
 _symmetry_equiv_pos_site_id
 _symmetry_equiv_pos_as_xyz
  1  'x, y, z'
loop_
 _atom_site_type_symbol
 _atom_site_label
 _atom_site_symmetry_multiplicity
 _atom_site_fract_x
 _atom_site_fract_y
 _atom_site_fract_z
 _atom_site_occupancy
  Na  Na0  1  0.99809924  0.00380151  0.00525727  1
  Na  Na1  1  0.06417113  0.87165773  0.81595153  1
  Na  Na2  1  0.03454593  0.93090813  0.39576805  1
  Na  Na3  1  0.96541255  0.06917491  0.60109169  1
  Ti  Ti4  1  0.64219723  0.71560555  0.09964943  1
  Ti  Ti5  1  0.35952489  0.28095021  0.90143751  1
  Ti  Ti6  1  0.37683389  0.24633222  0.32544135  1
  Ti  Ti7  1  0.62288271  0.75423458  0.67050793  1
  Ti  Ti8  1  0.25503447  0.48993106  0.18796803  1
  Ti  Ti9  1  0.74749195  0.50501610  0.81244881  1
  Ti  Ti10  1  0.72331375  0.55337250  0.38178125  1
  Ti  Ti11  1  0.27760350  0.44479300  0.61595426  1
  Ti  Ti12  1  0.30385915  0.39228171  0.04492773  1
  Ti  Ti13  1  0.69502134  0.60995731  0.95589681  1
  Ti  Ti14  1  0.33335693  0.33328613  0.47215315  1
  Ti  Ti15  1  0.66758689  0.66482621  0.52536948  1
  Ti  Ti16  1  0.59646496  0.80707008  0.24137995  1
  Ti  Ti17  1  0.40031885  0.19936230  0.75530888  1
  O  O18  1  0.17904245  0.64191509  0.09687208  1
  O  O19  1  0.82175783  0.35648433  0.90074454  1
  O  O20  1  0.62502919  0.74994163  0.44880790  1
  O  O21  1  0.37376303  0.25247393  0.55240696  1
  O  O22  1  0.42617927  0.14764147  0.41407351  1
  O  O23  1  0.57461106  0.85077788  0.58846873  1
  O  O24  1  0.65702106  0.68595788  0.31988894  1
  O  O25  1  0.34460476  0.31079049  0.67991185  1
  O  O26  1  0.79549597  0.40900806  0.47194783  1
  O  O27  1  0.20241162  0.59517676  0.53148485  1
  O  O28  1  0.34695062  0.30609876  0.11869020  1
  O  O29  1  0.65107974  0.69784052  0.87920142  1
  O  O30  1  0.31503573  0.36992853  0.25332059  1
  O  O31  1  0.68003683  0.63992635  0.75105196  1
  O  O32  1  0.25540495  0.48919010  0.39200292  1
  O  O33  1  0.74458025  0.51083951  0.61067419  1
  O  O34  1  0.55267026  0.89465947  0.15765894  1
  O  O35  1  0.45178446  0.09643108  0.84289987  1
  O  O36  1  0.72085568  0.55828865  0.17662352  1
  O  O37  1  0.28063216  0.43873568  0.82111864  1
  O  O38  1  0.77266457  0.45467086  0.03602111  1
  O  O39  1  0.22739607  0.54520786  0.95985916  1
  O  O40  1  0.48943234  0.02113531  0.28802712  1
  O  O41  1  0.51273049  0.97453902  0.71622188  1
  O  O42  1  0.12913811  0.74172378  0.23292509  1
  O  O43  1  0.87408494  0.25183011  0.76702858  1
  O  O44  1  0.84971555  0.30056890  0.33793453  1
  O  O45  1  0.15024996  0.69950008  0.66459202  1
  O  O46  1  0.59845148  0.80309705  0.01736331  1
  O  O47  1  0.40247020  0.19505960  0.98088468  1
