# generated using pymatgen
data_Mn5V4O12
_symmetry_space_group_name_H-M   'P 1'
_cell_length_a   6.12742249
_cell_length_b   13.85863593
_cell_length_c   6.12742249
_cell_angle_alpha   102.13003018
_cell_angle_beta   91.81741527
_cell_angle_gamma   102.59066741
_symmetry_Int_Tables_number   1
_chemical_formula_structural   Mn5V4O12
_chemical_formula_sum   'Mn10 V8 O24'
_cell_volume   494.83499188
_cell_formula_units_Z   2
loop_
 _symmetry_equiv_pos_site_id
 _symmetry_equiv_pos_as_xyz
  1  'x, y, z'
loop_
 _atom_site_type_symbol
 _atom_site_label
 _atom_site_symmetry_multiplicity
 _atom_site_fract_x
 _atom_site_fract_y
 _atom_site_fract_z
 _atom_site_occupancy
  Mn  Mn0  1  0.62386746  0.75028045  0.37024781  1
  Mn  Mn1  1  0.29056414  0.08333300  0.04056414  1
  Mn  Mn2  1  0.95330036  0.41638655  0.70692002  1
  Mn  Mn3  1  0.38003264  0.25028045  0.62641298  1
  Mn  Mn4  1  0.04276986  0.58333300  0.29276986  1
  Mn  Mn5  1  0.70946554  0.91638655  0.96308519  1
  Mn  Mn6  1  0.83216607  0.16666117  0.83301643  1
  Mn  Mn7  1  0.50116693  0.50000583  0.50031657  1
  Mn  Mn8  1  0.33364374  0.66666117  0.83449411  1
  Mn  Mn9  1  -0.00031074  0.00000583  0.49883889  1
  V  V10  1  0.16666700  0.83333300  0.16666700  1
  V  V11  1  0.83433218  0.16815872  0.33466190  1
  V  V12  1  0.49900082  0.49850828  -0.00132890  1
  V  V13  1  0.16666700  0.83333300  0.66666700  1
  V  V14  1  0.66666700  0.33333300  0.16666700  1
  V  V15  1  0.16666700  0.33333300  0.16666700  1
  V  V16  1  0.83349582  0.66815872  0.83382555  1
  V  V17  1  0.49983718  -0.00149172  0.49950745  1
  O  O18  1  0.23737234  0.98893950  0.71512219  1
  O  O19  1  0.91725197  0.32404273  0.38762974  1
  O  O20  1  0.57408440  0.65711274  0.04669740  1
  O  O21  1  0.25458899  0.99028906  0.26477458  1
  O  O22  1  0.89958335  0.32878435  0.94470342  1
  O  O23  1  0.58992242  0.66081020  0.59963710  1
  O  O24  1  0.39692001  0.84262327  0.42654224  1
  O  O25  1  0.05951569  0.17772750  0.08176584  1
  O  O26  1  0.72291866  0.50955426  0.75030565  1
  O  O27  1  0.94925207  0.83788165  0.40413200  1
  O  O28  1  0.60781852  0.17637794  0.09763293  1
  O  O29  1  0.27216090  0.50585680  0.76244622  1
  O  O30  1  0.75924860  0.00955426  0.28663560  1
  O  O31  1  0.41608203  0.34262327  0.94570426  1
  O  O32  1  0.09596066  0.67772750  0.61821081  1
  O  O33  1  0.74341058  0.00585680  0.73369590  1
  O  O34  1  0.43375065  0.33788165  0.38863058  1
  O  O35  1  0.07874401  0.67637794  0.06855842  1
  O  O36  1  0.61041434  0.15711274  0.58302735  1
  O  O37  1  0.27381731  0.48893950  0.25156716  1
  O  O38  1  0.93641399  0.82404273  0.90679176  1
  O  O39  1  0.06117210  0.16081020  0.57088678  1
  O  O40  1  0.72551448  0.49028906  0.23570007  1
  O  O41  1  0.38408193  0.82878435  0.92920200  1
