# generated using pymatgen
data_Mg7GaAg12
_symmetry_space_group_name_H-M   'P 1'
_cell_length_a   4.68336241
_cell_length_b   4.68336241
_cell_length_c   19.32466795
_cell_angle_alpha   96.95996350
_cell_angle_beta   83.04003650
_cell_angle_gamma   120.00000000
_symmetry_Int_Tables_number   1
_chemical_formula_structural   Mg7GaAg12
_chemical_formula_sum   'Mg7 Ga1 Ag12'
_cell_volume   363.46676806
_cell_formula_units_Z   1
loop_
 _symmetry_equiv_pos_site_id
 _symmetry_equiv_pos_as_xyz
  1  'x, y, z'
loop_
 _atom_site_type_symbol
 _atom_site_label
 _atom_site_symmetry_multiplicity
 _atom_site_fract_x
 _atom_site_fract_y
 _atom_site_fract_z
 _atom_site_occupancy
  Mg  Mg0  1  0.39999036  0.60000964  0.80002891  1
  Mg  Mg1  1  0.20003520  0.79996480  0.39989439  1
  Mg  Mg2  1  0.80017231  0.19982769  0.59948308  1
  Mg  Mg3  1  0.00001115  0.99998885  0.99996655  1
  Mg  Mg4  1  0.59976208  0.40023792  0.20071375  1
  Mg  Mg5  1  0.10000786  0.89999214  0.69997643  1
  Mg  Mg6  1  0.70006635  0.29993365  0.89980095  1
  Ga  Ga7  1  0.29995698  0.70004302  0.10012907  1
  Ag  Ag8  1  0.04995021  0.95004979  0.85014937  1
  Ag  Ag9  1  0.85005505  0.14994495  0.44983485  1
  Ag  Ag10  1  0.44994986  0.55005014  0.65015041  1
  Ag  Ag11  1  0.64995532  0.35004468  0.05013403  1
  Ag  Ag12  1  0.25014331  0.74985669  0.24957006  1
  Ag  Ag13  1  0.34990836  0.65009164  0.95027492  1
  Ag  Ag14  1  0.14989607  0.85010393  0.55031180  1
  Ag  Ag15  1  0.75003245  0.24996755  0.74990266  1
  Ag  Ag16  1  0.95010086  0.04989914  0.14969741  1
  Ag  Ag17  1  0.54998433  0.45001567  0.35004702  1
  Ag  Ag18  1  0.90001464  0.09998536  0.29995609  1
  Ag  Ag19  1  0.50000725  0.49999275  0.49997825  1
