# generated using pymatgen
data_Mn5BPd15
_symmetry_space_group_name_H-M   'P 1'
_cell_length_a   4.04474580
_cell_length_b   4.04474580
_cell_length_c   19.32144371
_cell_angle_alpha   90.00000000
_cell_angle_beta   90.00000000
_cell_angle_gamma   90.00000000
_symmetry_Int_Tables_number   1
_chemical_formula_structural   Mn5BPd15
_chemical_formula_sum   'Mn5 B1 Pd15'
_cell_volume   316.09821214
_cell_formula_units_Z   1
loop_
 _symmetry_equiv_pos_site_id
 _symmetry_equiv_pos_as_xyz
  1  'x, y, z'
loop_
 _atom_site_type_symbol
 _atom_site_label
 _atom_site_symmetry_multiplicity
 _atom_site_fract_x
 _atom_site_fract_y
 _atom_site_fract_z
 _atom_site_occupancy
  Mn  Mn0  1  0.00000000  -0.00000000  0.99030687  1
  Mn  Mn1  1  0.00000000  0.00000000  0.20969313  1
  Mn  Mn2  1  -0.00000000  -0.00000000  0.40449488  1
  Mn  Mn3  1  -0.00000000  0.00000000  0.60000000  1
  Mn  Mn4  1  0.00000000  0.00000000  0.79550512  1
  B  B5  1  0.50000000  0.50000000  0.10000000  1
  Pd  Pd6  1  -0.00000000  0.50000000  0.10000000  1
  Pd  Pd7  1  -0.00000000  0.50000000  0.30606008  1
  Pd  Pd8  1  -0.00000000  0.50000000  0.50237525  1
  Pd  Pd9  1  0.00000000  0.50000000  0.69762475  1
  Pd  Pd10  1  0.00000000  0.50000000  0.89393992  1
  Pd  Pd11  1  0.50000000  0.50000000  0.99280040  1
  Pd  Pd12  1  0.50000000  0.50000000  0.20719960  1
  Pd  Pd13  1  0.50000000  0.50000000  0.40464933  1
  Pd  Pd14  1  0.50000000  0.50000000  0.60000000  1
  Pd  Pd15  1  0.50000000  0.50000000  0.79535067  1
  Pd  Pd16  1  0.50000000  -0.00000000  0.10000000  1
  Pd  Pd17  1  0.50000000  -0.00000000  0.30606008  1
  Pd  Pd18  1  0.50000000  0.00000000  0.50237525  1
  Pd  Pd19  1  0.50000000  -0.00000000  0.69762475  1
  Pd  Pd20  1  0.50000000  0.00000000  0.89393992  1
