# generated using pymatgen
data_MnCdTe2
_symmetry_space_group_name_H-M   'P 1'
_cell_length_a   4.60202150
_cell_length_b   4.60202150
_cell_length_c   7.89923667
_cell_angle_alpha   73.06447856
_cell_angle_beta   90.00000000
_cell_angle_gamma   120.00000000
_symmetry_Int_Tables_number   1
_chemical_formula_structural   MnCdTe2
_chemical_formula_sum   'Mn1 Cd1 Te2'
_cell_volume   136.43985247
_cell_formula_units_Z   1
loop_
 _symmetry_equiv_pos_site_id
 _symmetry_equiv_pos_as_xyz
  1  'x, y, z'
loop_
 _atom_site_type_symbol
 _atom_site_label
 _atom_site_symmetry_multiplicity
 _atom_site_fract_x
 _atom_site_fract_y
 _atom_site_fract_z
 _atom_site_occupancy
  Mn  Mn0  1  0.50104903  0.00209806  0.49685290  1
  Cd  Cd1  1  0.99919690  0.99839379  0.00240931  1
  Te  Te2  1  0.87076822  0.74153644  0.38769534  1
  Te  Te3  1  0.37898585  0.75797170  0.86304245  1
