# generated using pymatgen
data_MgZn4O5
_symmetry_space_group_name_H-M   'P 1'
_cell_length_a   3.28942535
_cell_length_b   3.28963133
_cell_length_c   26.33962481
_cell_angle_alpha   90.00000000
_cell_angle_beta   89.99989028
_cell_angle_gamma   59.99791807
_symmetry_Int_Tables_number   1
_chemical_formula_structural   MgZn4O5
_chemical_formula_sum   'Mg2 Zn8 O10'
_cell_volume   246.83024220
_cell_formula_units_Z   2
loop_
 _symmetry_equiv_pos_site_id
 _symmetry_equiv_pos_as_xyz
  1  'x, y, z'
loop_
 _atom_site_type_symbol
 _atom_site_label
 _atom_site_symmetry_multiplicity
 _atom_site_fract_x
 _atom_site_fract_y
 _atom_site_fract_z
 _atom_site_occupancy
  Mg  Mg0  1  0.33334637  0.33332682  0.72327133  1
  Mg  Mg1  1  0.33334937  0.33332531  0.92323859  1
  Zn  Zn2  1  0.66664879  0.66667560  0.02414579  1
  Zn  Zn3  1  0.66664935  0.66667533  0.22400099  1
  Zn  Zn4  1  0.66664840  0.66667580  0.42399688  1
  Zn  Zn5  1  0.66664826  0.66667587  0.62453473  1
  Zn  Zn6  1  0.66665054  0.66667473  0.82468206  1
  Zn  Zn7  1  0.33335303  0.33332349  0.12399067  1
  Zn  Zn8  1  0.33334946  0.33332527  0.32399700  1
  Zn  Zn9  1  0.33335107  0.33332447  0.52399289  1
  O  O10  1  0.66664997  0.66667502  0.10024102  1
  O  O11  1  0.66664968  0.66667516  0.30021661  1
  O  O12  1  0.66665041  0.66667480  0.50022306  1
  O  O13  1  0.66665278  0.66667361  0.70094785  1
  O  O14  1  0.66665611  0.66667195  0.90096295  1
  O  O15  1  0.33335007  0.33332497  0.20020401  1
  O  O16  1  0.33334880  0.33332560  0.40020999  1
  O  O17  1  0.33335011  0.33332495  0.60029250  1
  O  O18  1  0.33334865  0.33332568  0.79953796  1
  O  O19  1  0.33334880  0.33332560  0.99945313  1
