# generated using pymatgen
data_Mn5CrO8
_symmetry_space_group_name_H-M   'P 1'
_cell_length_a   5.98507310
_cell_length_b   5.95791986
_cell_length_c   6.23151348
_cell_angle_alpha   61.44202958
_cell_angle_beta   61.56119524
_cell_angle_gamma   90.00000000
_symmetry_Int_Tables_number   1
_chemical_formula_structural   Mn5CrO8
_chemical_formula_sum   'Mn5 Cr1 O8'
_cell_volume   163.99491669
_cell_formula_units_Z   1
loop_
 _symmetry_equiv_pos_site_id
 _symmetry_equiv_pos_as_xyz
  1  'x, y, z'
loop_
 _atom_site_type_symbol
 _atom_site_label
 _atom_site_symmetry_multiplicity
 _atom_site_fract_x
 _atom_site_fract_y
 _atom_site_fract_z
 _atom_site_occupancy
  Mn  Mn0  1  0.24335197  0.74686709  0.50626581  1
  Mn  Mn1  1  0.00664803  0.00313291  0.99373419  1
  Mn  Mn2  1  0.12500000  0.37500000  0.25000000  1
  Mn  Mn3  1  0.62500000  0.87500000  0.75000000  1
  Mn  Mn4  1  0.62500000  0.37500000  0.75000000  1
  Cr  Cr5  1  0.62500000  0.37500000  0.25000000  1
  O  O6  1  0.42273622  0.15186455  0.69627090  1
  O  O7  1  0.83930488  0.12547828  0.74904343  1
  O  O8  1  0.41069512  0.62452172  0.75095657  1
  O  O9  1  0.82726378  0.59813545  0.80372910  1
  O  O10  1  0.87598851  0.14542265  0.26249573  1
  O  O11  1  0.87598851  0.59208162  0.26249573  1
  O  O12  1  0.37401149  0.15791838  0.23750427  1
  O  O13  1  0.37401149  0.60457735  0.23750427  1
