# generated using pymatgen
data_Mg3Ti(BO4)2
_symmetry_space_group_name_H-M   'P 1'
_cell_length_a   3.12860242
_cell_length_b   9.38849565
_cell_length_c   9.50221879
_cell_angle_alpha   90.00000000
_cell_angle_beta   90.00000000
_cell_angle_gamma   90.00000000
_symmetry_Int_Tables_number   1
_chemical_formula_structural   Mg3Ti(BO4)2
_chemical_formula_sum   'Mg6 Ti2 B4 O16'
_cell_volume   279.10743923
_cell_formula_units_Z   2
loop_
 _symmetry_equiv_pos_site_id
 _symmetry_equiv_pos_as_xyz
  1  'x, y, z'
loop_
 _atom_site_type_symbol
 _atom_site_label
 _atom_site_symmetry_multiplicity
 _atom_site_fract_x
 _atom_site_fract_y
 _atom_site_fract_z
 _atom_site_occupancy
  Mg  Mg0  1  0.25000000  0.89772602  0.31774455  1
  Mg  Mg1  1  0.25000000  0.39772602  0.18225545  1
  Mg  Mg2  1  0.75000000  0.10324898  0.68605533  1
  Mg  Mg3  1  0.75000000  0.60324898  0.81394467  1
  Mg  Mg4  1  0.25000000  0.37103377  0.56894051  1
  Mg  Mg5  1  0.25000000  0.87103377  0.93105949  1
  Ti  Ti6  1  0.75000000  0.60852486  0.43537175  1
  Ti  Ti7  1  0.75000000  0.10852486  0.06462825  1
  B  B8  1  0.75000000  0.66989818  0.12963957  1
  B  B9  1  0.75000000  0.16989818  0.37036043  1
  B  B10  1  0.25000000  0.32928596  0.86818275  1
  B  B11  1  0.25000000  0.82928596  0.63181725  1
  O  O12  1  0.75000000  0.75069956  0.25604020  1
  O  O13  1  0.75000000  0.25069956  0.24395980  1
  O  O14  1  0.25000000  0.24844743  0.74652790  1
  O  O15  1  0.25000000  0.74844743  0.75347210  1
  O  O16  1  0.75000000  0.52578565  0.13987405  1
  O  O17  1  0.75000000  0.02578565  0.36012595  1
  O  O18  1  0.25000000  0.47281961  0.86495838  1
  O  O19  1  0.25000000  0.97281961  0.63504162  1
  O  O20  1  0.25000000  0.50330691  0.38069602  1
  O  O21  1  0.25000000  0.00330691  0.11930398  1
  O  O22  1  0.75000000  0.52204622  0.60537021  1
  O  O23  1  0.75000000  0.02204622  0.89462979  1
  O  O24  1  0.25000000  0.75796415  0.49750991  1
  O  O25  1  0.25000000  0.25796415  0.00249009  1
  O  O26  1  0.75000000  0.23921269  0.49966538  1
  O  O27  1  0.75000000  0.73921269  0.00033462  1
