# generated using pymatgen
data_Na2AsP(H4O5)2
_symmetry_space_group_name_H-M   'P 1'
_cell_length_a   5.32365394
_cell_length_b   8.38178065
_cell_length_c   10.35384073
_cell_angle_alpha   90.00000000
_cell_angle_beta   90.00000000
_cell_angle_gamma   89.57942607
_symmetry_Int_Tables_number   1
_chemical_formula_structural   Na2AsP(H4O5)2
_chemical_formula_sum   'Na4 As2 P2 H16 O20'
_cell_volume   461.99352374
_cell_formula_units_Z   2
loop_
 _symmetry_equiv_pos_site_id
 _symmetry_equiv_pos_as_xyz
  1  'x, y, z'
loop_
 _atom_site_type_symbol
 _atom_site_label
 _atom_site_symmetry_multiplicity
 _atom_site_fract_x
 _atom_site_fract_y
 _atom_site_fract_z
 _atom_site_occupancy
  Na  Na0  1  0.58060606  0.58227980  0.40142744  1
  Na  Na1  1  0.91939394  0.41772020  0.90142744  1
  Na  Na2  1  0.07037120  0.91539346  0.59378455  1
  Na  Na3  1  0.42962880  0.08460654  0.09378455  1
  As  As4  1  0.41486802  0.30787772  0.65729839  1
  As  As5  1  0.08513198  0.69212228  0.15729839  1
  P  P6  1  0.91175743  0.19410566  0.34187377  1
  P  P7  1  0.58824257  0.80589434  0.84187377  1
  H  H8  1  0.80793900  0.24369113  0.59758224  1
  H  H9  1  0.69206100  0.75630887  0.09758224  1
  H  H10  1  0.28531377  0.26012150  0.39750601  1
  H  H11  1  0.21468623  0.73987850  0.89750601  1
  H  H12  1  0.44844858  0.51881298  0.79846951  1
  H  H13  1  0.05155142  0.48118702  0.29846951  1
  H  H14  1  0.95472218  0.99268587  0.20968723  1
  H  H15  1  0.54527782  0.00731413  0.70968723  1
  H  H16  1  0.54605332  0.94031398  0.45059598  1
  H  H17  1  0.95394668  0.05968602  0.95059598  1
  H  H18  1  0.04452227  0.56144021  0.54668647  1
  H  H19  1  0.45547773  0.43855979  0.04668647  1
  H  H20  1  0.34089933  0.87615892  0.35659131  1
  H  H21  1  0.15910067  0.12384108  0.85659131  1
  H  H22  1  0.84112056  0.62697211  0.64304052  1
  H  H23  1  0.65887944  0.37302789  0.14304052  1
  O  O24  1  0.31469832  0.12154915  0.69342003  1
  O  O25  1  0.18530168  0.87845085  0.19342003  1
  O  O26  1  0.81579916  0.36240718  0.31280962  1
  O  O27  1  0.68420084  0.63759282  0.81280962  1
  O  O28  1  0.74585816  0.31040640  0.67382799  1
  O  O29  1  0.75414184  0.68959360  0.17382799  1
  O  O30  1  0.21164697  0.18951476  0.32699483  1
  O  O31  1  0.28835303  0.81048524  0.82699483  1
  O  O32  1  0.41872201  0.85695322  0.44227695  1
  O  O33  1  0.08127799  0.14304678  0.94227695  1
  O  O34  1  0.91553843  0.64513889  0.55679258  1
  O  O35  1  0.58446157  0.35486111  0.05679258  1
  O  O36  1  0.32122189  0.38735351  0.51502861  1
  O  O37  1  0.17877811  0.61264649  0.01502861  1
  O  O38  1  0.83414297  0.12465102  0.47249288  1
  O  O39  1  0.66585703  0.87534898  0.97249288  1
  O  O40  1  0.31635408  0.43251487  0.78419493  1
  O  O41  1  0.18364592  0.56748513  0.28419493  1
  O  O42  1  0.82282516  0.08062497  0.22761816  1
  O  O43  1  0.67717484  0.91937503  0.72761816  1
