# generated using pymatgen
data_La7SmCrFe7O24
_symmetry_space_group_name_H-M   'P 1'
_cell_length_a   7.88575167
_cell_length_b   7.88575167
_cell_length_c   7.88567752
_cell_angle_alpha   90.00427685
_cell_angle_beta   89.99572315
_cell_angle_gamma   90.00372101
_symmetry_Int_Tables_number   1
_chemical_formula_structural   La7SmCrFe7O24
_chemical_formula_sum   'La7 Sm1 Cr1 Fe7 O24'
_cell_volume   490.37147896
_cell_formula_units_Z   1
loop_
 _symmetry_equiv_pos_site_id
 _symmetry_equiv_pos_as_xyz
  1  'x, y, z'
loop_
 _atom_site_type_symbol
 _atom_site_label
 _atom_site_symmetry_multiplicity
 _atom_site_fract_x
 _atom_site_fract_y
 _atom_site_fract_z
 _atom_site_occupancy
  La  La0  1  0.25032822  0.25031243  0.24968625  1
  La  La1  1  0.25033398  0.25031455  0.75031585  1
  La  La2  1  0.25030102  0.74969898  0.24968817  1
  La  La3  1  0.25030991  0.74969009  0.75029561  1
  La  La4  1  0.74968208  0.25031792  0.75031627  1
  La  La5  1  0.74968757  0.74967178  0.24968625  1
  La  La6  1  0.74968545  0.74966602  0.75031585  1
  Sm  Sm7  1  0.74969485  0.25030515  0.24969691  1
  Cr  Cr8  1  0.50015858  0.49984142  0.00017118  1
  Fe  Fe9  1  0.99972512  0.00027488  0.00027135  1
  Fe  Fe10  1  0.99973091  0.00026909  0.49972922  1
  Fe  Fe11  1  0.99971955  0.49972229  0.00027745  1
  Fe  Fe12  1  0.99972611  0.49972974  0.49972363  1
  Fe  Fe13  1  0.50027771  0.00028045  0.00027745  1
  Fe  Fe14  1  0.50027026  0.00027389  0.49972363  1
  Fe  Fe15  1  0.50027572  0.49972428  0.49971756  1
  O  O16  1  0.25027984  0.00001924  0.00001790  1
  O  O17  1  0.25012455  0.00002142  0.49998196  1
  O  O18  1  0.25065724  0.49997815  0.00002306  1
  O  O19  1  0.25027752  0.49998056  0.49997540  1
  O  O20  1  0.74972724  0.00105422  0.00105859  1
  O  O21  1  0.74987842  0.00105730  0.49894393  1
  O  O22  1  0.74928377  0.49887725  0.00112560  1
  O  O23  1  0.74972734  0.49893868  0.49894737  1
  O  O24  1  0.99894578  0.25027276  0.00105859  1
  O  O25  1  0.99894270  0.25012158  0.49894393  1
  O  O26  1  -0.00001924  0.74972016  0.00001790  1
  O  O27  1  -0.00002142  0.74987545  0.49998196  1
  O  O28  1  0.50112275  0.25071623  0.00112560  1
  O  O29  1  0.50106132  0.25027266  0.49894737  1
  O  O30  1  0.50002185  0.74934276  0.00002306  1
  O  O31  1  0.50001944  0.74972248  0.49997540  1
  O  O32  1  0.99893935  0.00106065  0.24987586  1
  O  O33  1  -0.00001880  0.00001880  0.75012541  1
  O  O34  1  0.99893939  0.49893633  0.24972882  1
  O  O35  1  -0.00001599  0.49998137  0.75027900  1
  O  O36  1  0.50106367  0.00106061  0.24972882  1
  O  O37  1  0.50001863  0.00001599  0.75027900  1
  O  O38  1  0.50111498  0.49888502  0.24928261  1
  O  O39  1  0.50002263  0.49997737  0.75066023  1
