# generated using pymatgen
data_LaY(Co4B)2
_symmetry_space_group_name_H-M   'P 1'
_cell_length_a   5.04340034
_cell_length_b   5.04324349
_cell_length_c   6.86372032
_cell_angle_alpha   90.00000000
_cell_angle_beta   90.00000000
_cell_angle_gamma   120.00103271
_symmetry_Int_Tables_number   1
_chemical_formula_structural   LaY(Co4B)2
_chemical_formula_sum   'La1 Y1 Co8 B2'
_cell_volume   151.18860869
_cell_formula_units_Z   1
loop_
 _symmetry_equiv_pos_site_id
 _symmetry_equiv_pos_as_xyz
  1  'x, y, z'
loop_
 _atom_site_type_symbol
 _atom_site_label
 _atom_site_symmetry_multiplicity
 _atom_site_fract_x
 _atom_site_fract_y
 _atom_site_fract_z
 _atom_site_occupancy
  La  La0  1  0.99998886  0.00000000  -0.00000000  1
  Y  Y1  1  0.99999726  -0.00000000  0.50000000  1
  Co  Co2  1  0.49999851  0.00000000  0.29091584  1
  Co  Co3  1  0.49999250  0.50000789  0.29089263  1
  Co  Co4  1  0.99998461  0.49999211  0.29089263  1
  Co  Co5  1  0.49999851  0.00000000  0.70908416  1
  Co  Co6  1  0.49999250  0.50000789  0.70910737  1
  Co  Co7  1  0.99998461  0.49999211  0.70910737  1
  Co  Co8  1  0.33332709  0.66673273  -0.00000000  1
  Co  Co9  1  0.66659436  0.33326727  -0.00000000  1
  B  B10  1  0.33330507  0.66666896  0.50000000  1
  B  B11  1  0.66663610  0.33333104  0.50000000  1
