# generated using pymatgen
data_Mn5Cr4O12
_symmetry_space_group_name_H-M   'P 1'
_cell_length_a   6.07349939
_cell_length_b   6.08871343
_cell_length_c   13.68787458
_cell_angle_alpha   77.48843441
_cell_angle_beta   77.39742199
_cell_angle_gamma   90.61269291
_symmetry_Int_Tables_number   1
_chemical_formula_structural   Mn5Cr4O12
_chemical_formula_sum   'Mn10 Cr8 O24'
_cell_volume   481.35540993
_cell_formula_units_Z   2
loop_
 _symmetry_equiv_pos_site_id
 _symmetry_equiv_pos_as_xyz
  1  'x, y, z'
loop_
 _atom_site_type_symbol
 _atom_site_label
 _atom_site_symmetry_multiplicity
 _atom_site_fract_x
 _atom_site_fract_y
 _atom_site_fract_z
 _atom_site_occupancy
  Mn  Mn0  1  0.75178672  0.24716217  0.50045795  1
  Mn  Mn1  1  0.07992242  0.58286569  0.83353276  1
  Mn  Mn2  1  0.41934517  0.91665672  0.16562961  1
  Mn  Mn3  1  0.00341058  0.00046731  0.99980024  1
  Mn  Mn4  1  0.33154628  0.33617083  0.33287505  1
  Mn  Mn5  1  0.66398883  0.66667728  0.66770439  1
  Mn  Mn6  1  0.87617028  0.12419735  0.24778062  1
  Mn  Mn7  1  0.20716272  0.45913565  0.58555238  1
  Mn  Mn8  1  0.54166700  0.79166700  0.91666700  1
  Mn  Mn9  1  0.54166700  0.79166700  0.41666700  1
  Cr  Cr10  1  0.87670265  0.12725069  0.75121778  1
  Cr  Cr11  1  0.20663035  0.45608231  0.08211522  1
  Cr  Cr12  1  0.04166700  0.79166700  0.41666700  1
  Cr  Cr13  1  0.37744579  0.12265800  0.74997332  1
  Cr  Cr14  1  0.70588721  0.46067500  0.08335968  1
  Cr  Cr15  1  0.87703084  0.62525720  0.24869961  1
  Cr  Cr16  1  0.20630216  0.95807580  0.58463339  1
  Cr  Cr17  1  0.54166700  0.29166700  0.91666700  1
  O  O18  1  0.95643128  0.67642777  0.09237104  1
  O  O19  1  0.28431650  0.01539280  0.42792944  1
  O  O20  1  0.62152124  0.34339489  0.75998573  1
  O  O21  1  0.64706205  0.39304848  0.23787973  1
  O  O22  1  0.97926224  0.72509853  0.57163682  1
  O  O23  1  0.32990317  0.03757886  0.90799046  1
  O  O24  1  0.09593651  0.37165946  0.24137213  1
  O  O25  1  0.41998142  0.70380413  0.58260629  1
  O  O26  1  0.78255732  0.06416054  0.90510274  1
  O  O27  1  0.95003493  0.23461606  0.08976924  1
  O  O28  1  0.29434133  0.57351869  0.42296780  1
  O  O29  1  0.62353417  0.89924371  0.75868303  1
  O  O30  1  0.79901650  0.56794020  0.40540356  1
  O  O31  1  0.12690272  0.90690623  0.74096296  1
  O  O32  1  0.46181176  0.23993811  0.07334727  1
  O  O33  1  0.10407076  0.85823447  0.26169618  1
  O  O34  1  0.43627195  0.19028552  0.59545427  1
  O  O35  1  0.75342983  0.54575414  0.92534254  1
  O  O36  1  0.66335158  0.87952887  0.25072671  1
  O  O37  1  0.98739749  0.21167454  0.59196187  1
  O  O38  1  0.30077568  0.51917246  0.92823026  1
  O  O39  1  0.78899167  0.00981431  0.41036520  1
  O  O40  1  0.13329907  0.34871794  0.74356476  1
  O  O41  1  0.45979883  0.68408929  0.07464997  1
