# generated using pymatgen
data_LuTiFe11
_symmetry_space_group_name_H-M   'P 1'
_cell_length_a   4.69476075
_cell_length_b   6.40728285
_cell_length_c   6.40728285
_cell_angle_alpha   97.93443144
_cell_angle_beta   111.49137876
_cell_angle_gamma   68.50862124
_symmetry_Int_Tables_number   1
_chemical_formula_structural   LuTiFe11
_chemical_formula_sum   'Lu1 Ti1 Fe11'
_cell_volume   166.86463691
_cell_formula_units_Z   1
loop_
 _symmetry_equiv_pos_site_id
 _symmetry_equiv_pos_as_xyz
  1  'x, y, z'
loop_
 _atom_site_type_symbol
 _atom_site_label
 _atom_site_symmetry_multiplicity
 _atom_site_fract_x
 _atom_site_fract_y
 _atom_site_fract_z
 _atom_site_occupancy
  Lu  Lu0  1  0.00665886  0.99334114  0.00665886  1
  Ti  Ti1  1  0.63213393  0.36786607  0.63213393  1
  Fe  Fe2  1  0.50044977  0.99800134  0.50005518  1
  Fe  Fe3  1  0.00160408  0.99800134  0.50005518  1
  Fe  Fe4  1  0.50044977  0.49994482  0.00199866  1
  Fe  Fe5  1  0.00160408  0.49994482  0.00199866  1
  Fe  Fe6  1  0.72857455  0.77142545  0.22857455  1
  Fe  Fe7  1  0.27610590  0.22389410  0.77610590  1
  Fe  Fe8  1  0.49938941  0.78504391  0.78382274  1
  Fe  Fe9  1  0.49938941  0.21617726  0.21495609  1
  Fe  Fe10  1  0.35329901  0.64670099  0.35329901  1
  Fe  Fe11  1  0.00017062  0.35573874  0.35607997  1
  Fe  Fe12  1  0.00017062  0.64392003  0.64426126  1
