# generated using pymatgen
data_La2FeCoO6
_symmetry_space_group_name_H-M   'P 1'
_cell_length_a   5.50067558
_cell_length_b   5.56594878
_cell_length_c   7.98063684
_cell_angle_alpha   89.20181869
_cell_angle_beta   90.00000000
_cell_angle_gamma   90.00000000
_symmetry_Int_Tables_number   1
_chemical_formula_structural   La2FeCoO6
_chemical_formula_sum   'La4 Fe2 Co2 O12'
_cell_volume   244.31528737
_cell_formula_units_Z   2
loop_
 _symmetry_equiv_pos_site_id
 _symmetry_equiv_pos_as_xyz
  1  'x, y, z'
loop_
 _atom_site_type_symbol
 _atom_site_label
 _atom_site_symmetry_multiplicity
 _atom_site_fract_x
 _atom_site_fract_y
 _atom_site_fract_z
 _atom_site_occupancy
  La  La0  1  0.47739504  0.49482410  0.74864856  1
  La  La1  1  0.97739504  0.00517590  0.75135144  1
  La  La2  1  0.52260496  0.50517590  0.25135144  1
  La  La3  1  0.02260496  0.99482410  0.24864856  1
  Fe  Fe4  1  0.50000000  -0.00000000  0.50000000  1
  Fe  Fe5  1  -0.00000000  0.50000000  -0.00000000  1
  Co  Co6  1  0.50000000  -0.00000000  -0.00000000  1
  Co  Co7  1  -0.00000000  0.50000000  0.50000000  1
  O  O8  1  0.01224844  0.57679956  0.75554074  1
  O  O9  1  0.51224844  0.92320044  0.74445926  1
  O  O10  1  0.98775156  0.42320044  0.24445926  1
  O  O11  1  0.48775156  0.07679956  0.25554074  1
  O  O12  1  0.22808046  0.22034911  0.95903133  1
  O  O13  1  0.72808046  0.27965089  0.54096867  1
  O  O14  1  0.77781998  0.77337204  0.45848804  1
  O  O15  1  0.27781998  0.72662796  0.04151196  1
  O  O16  1  0.77191954  0.77965089  0.04096867  1
  O  O17  1  0.27191954  0.72034911  0.45903133  1
  O  O18  1  0.22218002  0.22662796  0.54151196  1
  O  O19  1  0.72218002  0.27337204  0.95848804  1
