# generated using pymatgen
data_KLaF4
_symmetry_space_group_name_H-M   'P 1'
_cell_length_a   6.63708814
_cell_length_b   7.62344069
_cell_length_c   7.62344069
_cell_angle_alpha   60.15770119
_cell_angle_beta   115.74006539
_cell_angle_gamma   115.74006539
_symmetry_Int_Tables_number   1
_chemical_formula_structural   KLaF4
_chemical_formula_sum   'K3 La3 F12'
_cell_volume   289.39088032
_cell_formula_units_Z   3
loop_
 _symmetry_equiv_pos_site_id
 _symmetry_equiv_pos_as_xyz
  1  'x, y, z'
loop_
 _atom_site_type_symbol
 _atom_site_label
 _atom_site_symmetry_multiplicity
 _atom_site_fract_x
 _atom_site_fract_y
 _atom_site_fract_z
 _atom_site_occupancy
  K  K0  1  0.33950992  0.07571050  0.57571050  1
  K  K1  1  0.33524483  0.59256595  0.09256595  1
  K  K2  1  0.66847807  0.91738997  0.41738997  1
  La  La3  1  0.00053439  0.00081476  -0.00033169  1
  La  La4  1  0.00053439  0.49966831  0.50081476  1
  La  La5  1  0.66522461  0.41564544  0.91564544  1
  F  F6  1  0.23042496  0.75203265  0.25203265  1
  F  F7  1  0.24503322  0.24339997  0.74339997  1
  F  F8  1  0.77286424  0.13507769  0.63507769  1
  F  F9  1  0.74549099  0.62747291  0.12747291  1
  F  F10  1  0.99980669  0.86653833  0.36653833  1
  F  F11  1  0.00630273  0.37667549  0.87667549  1
  F  F12  1  0.64160558  0.49215701  0.55012666  1
  F  F13  1  0.64160558  0.05012666  0.99215701  1
  F  F14  1  0.40000141  0.20691010  0.14956656  1
  F  F15  1  0.40000141  0.64956656  0.70691010  1
  F  F16  1  0.95356850  0.77007558  0.82817211  1
  F  F17  1  0.95356850  0.32817211  0.27007558  1
