# generated using pymatgen
data_Mg3V6Cd2Cu3PbO24
_symmetry_space_group_name_H-M   'P 1'
_cell_length_a   7.09541320
_cell_length_b   9.00277586
_cell_length_c   9.01567676
_cell_angle_alpha   92.07997237
_cell_angle_beta   105.43786833
_cell_angle_gamma   105.91756825
_symmetry_Int_Tables_number   1
_chemical_formula_structural   Mg3V6Cd2Cu3PbO24
_chemical_formula_sum   'Mg3 V6 Cd2 Cu3 Pb1 O24'
_cell_volume   530.11907705
_cell_formula_units_Z   1
loop_
 _symmetry_equiv_pos_site_id
 _symmetry_equiv_pos_as_xyz
  1  'x, y, z'
loop_
 _atom_site_type_symbol
 _atom_site_label
 _atom_site_symmetry_multiplicity
 _atom_site_fract_x
 _atom_site_fract_y
 _atom_site_fract_z
 _atom_site_occupancy
  Mg  Mg0  1  0.13096959  0.05697709  0.38009345  1
  Mg  Mg1  1  0.62225699  0.37440466  0.05470167  1
  Mg  Mg2  1  0.87950829  0.94485172  0.62829957  1
  V  V3  1  0.87414620  0.65449867  0.87565323  1
  V  V4  1  0.62857532  0.12396668  0.34582356  1
  V  V5  1  0.12932366  0.34812557  0.12352379  1
  V  V6  1  0.36790010  0.87038123  0.65602953  1
  V  V7  1  0.74833276  0.71745690  0.28082390  1
  V  V8  1  0.25226905  0.28343188  0.72271042  1
  Cd  Cd9  1  0.25029536  0.74622164  0.25357504  1
  Cd  Cd10  1  0.74931259  0.26430359  0.73496647  1
  Cu  Cu11  1  0.25059698  0.48662319  0.51222958  1
  Cu  Cu12  1  0.75031576  0.51461471  0.48583614  1
  Cu  Cu13  1  0.35870250  0.61314431  0.93650399  1
  Pb  Pb14  1  0.74739262  0.98211469  0.00662764  1
  O  O15  1  0.10798081  0.65599273  0.00144334  1
  O  O16  1  0.38900139  0.00269256  0.34696886  1
  O  O17  1  0.88487888  0.33078528  0.00213501  1
  O  O18  1  0.61283785  0.99632927  0.67149925  1
  O  O19  1  0.68786460  0.59384712  0.96921830  1
  O  O20  1  0.82403476  0.03545253  0.40498720  1
  O  O21  1  0.32451180  0.40905935  0.02884391  1
  O  O22  1  0.17550897  0.96195270  0.59806949  1
  O  O23  1  0.75547990  0.73428181  0.47828741  1
  O  O24  1  0.74074827  0.51969621  0.26616464  1
  O  O25  1  0.24121684  0.27071246  0.52376716  1
  O  O26  1  0.26654389  0.48680098  0.73178351  1
  O  O27  1  0.88109465  0.84142870  0.82929890  1
  O  O28  1  0.61725986  0.17371690  0.16239985  1
  O  O29  1  0.10863785  0.16563638  0.17936270  1
  O  O30  1  0.39197439  0.81247686  0.84032304  1
  O  O31  1  0.96679385  0.83821366  0.24580753  1
  O  O32  1  0.53288069  0.75415006  0.16060603  1
  O  O33  1  0.02635390  0.16975792  0.74892752  1
  O  O34  1  0.47432207  0.25157563  0.83277458  1
  O  O35  1  0.81193483  0.52243049  0.70628853  1
  O  O36  1  0.68982373  0.29282449  0.47573368  1
  O  O37  1  0.19354514  0.48058843  0.29076334  1
  O  O38  1  0.30487329  0.70720098  0.51842824  1
