# generated using pymatgen
data_Li3Fe2CoO6
_symmetry_space_group_name_H-M   'P 1'
_cell_length_a   5.08096166
_cell_length_b   5.14759812
_cell_length_c   5.07894122
_cell_angle_alpha   99.46971566
_cell_angle_beta   120.01315366
_cell_angle_gamma   70.79666920
_symmetry_Int_Tables_number   1
_chemical_formula_structural   Li3Fe2CoO6
_chemical_formula_sum   'Li3 Fe2 Co1 O6'
_cell_volume   108.62583058
_cell_formula_units_Z   1
loop_
 _symmetry_equiv_pos_site_id
 _symmetry_equiv_pos_as_xyz
  1  'x, y, z'
loop_
 _atom_site_type_symbol
 _atom_site_label
 _atom_site_symmetry_multiplicity
 _atom_site_fract_x
 _atom_site_fract_y
 _atom_site_fract_z
 _atom_site_occupancy
  Li  Li0  1  0.32805714  0.00000000  0.65611528  1
  Li  Li1  1  0.66666700  -0.00000000  0.33333300  1
  Li  Li2  1  0.00527586  1.00000000  0.01055172  1
  Fe  Fe3  1  0.49979013  0.50000000  0.99958026  1
  Fe  Fe4  1  0.83354287  0.50000000  0.66708674  1
  Co  Co5  1  0.16666700  0.50000000  0.33333300  1
  O  O6  1  0.91987899  0.27528733  0.33333300  1
  O  O7  1  0.24229278  0.27257415  0.01153441  1
  O  O8  1  0.56409137  0.27257415  0.65513259  1
  O  O9  1  0.09104022  0.72742585  0.65513259  1
  O  O10  1  0.41345501  0.72471267  0.33333300  1
  O  O11  1  0.76924163  0.72742585  0.01153441  1
