# generated using pymatgen
data_CaSnS3
_symmetry_space_group_name_H-M   'P 1'
_cell_length_a   9.31343088
_cell_length_b   9.60514715
_cell_length_c   10.34168891
_cell_angle_alpha   103.55543644
_cell_angle_beta   96.07033427
_cell_angle_gamma   90.11763610
_symmetry_Int_Tables_number   1
_chemical_formula_structural   CaSnS3
_chemical_formula_sum   'Ca6 Sn6 S18'
_cell_volume   893.97657926
_cell_formula_units_Z   6
loop_
 _symmetry_equiv_pos_site_id
 _symmetry_equiv_pos_as_xyz
  1  'x, y, z'
loop_
 _atom_site_type_symbol
 _atom_site_label
 _atom_site_symmetry_multiplicity
 _atom_site_fract_x
 _atom_site_fract_y
 _atom_site_fract_z
 _atom_site_occupancy
  Ca  Ca0  1  0.97038493  0.24127280  0.96956551  1
  Ca  Ca1  1  0.02961507  0.75872720  0.03043449  1
  Ca  Ca2  1  0.25901290  0.92212373  0.71421194  1
  Ca  Ca3  1  0.74098710  0.07787627  0.28578806  1
  Ca  Ca4  1  0.25736265  0.43380094  0.71863973  1
  Ca  Ca5  1  0.74263735  0.56619906  0.28136027  1
  Sn  Sn6  1  0.21132598  0.05880739  0.33158375  1
  Sn  Sn7  1  0.78867402  0.94119261  0.66841625  1
  Sn  Sn8  1  0.21457601  0.60572206  0.32470683  1
  Sn  Sn9  1  0.78542399  0.39427794  0.67529317  1
  Sn  Sn10  1  0.44633486  0.27236284  0.09089319  1
  Sn  Sn11  1  0.55366514  0.72763716  0.90910681  1
  S  S12  1  0.70585756  0.27326786  0.10787476  1
  S  S13  1  0.29414244  0.72673214  0.89212524  1
  S  S14  1  0.27050326  0.22052123  0.89972195  1
  S  S15  1  0.72949674  0.77947877  0.10027805  1
  S  S16  1  0.00698582  0.51752576  0.17068600  1
  S  S17  1  0.99301418  0.48247424  0.82931400  1
  S  S18  1  0.43719140  0.51620916  0.22355476  1
  S  S19  1  0.56280860  0.48379084  0.77644524  1
  S  S20  1  0.00657051  0.07143757  0.17609250  1
  S  S21  1  0.99342949  0.92856243  0.82390750  1
  S  S22  1  0.43660678  0.11795797  0.24607856  1
  S  S23  1  0.56339322  0.88204203  0.75392144  1
  S  S24  1  0.21926164  0.14092289  0.56688343  1
  S  S25  1  0.78073836  0.85907711  0.43311657  1
  S  S26  1  0.22129085  0.63558962  0.55681230  1
  S  S27  1  0.77870915  0.36441038  0.44318770  1
  S  S28  1  0.28064548  0.81381711  0.24431603  1
  S  S29  1  0.71935452  0.18618289  0.75568397  1
