# generated using pymatgen
data_Ca4Sn3S10
_symmetry_space_group_name_H-M   'P 1'
_cell_length_a   7.16484731
_cell_length_b   6.79338365
_cell_length_c   16.96897221
_cell_angle_alpha   90.00000000
_cell_angle_beta   100.99432151
_cell_angle_gamma   90.00000000
_symmetry_Int_Tables_number   1
_chemical_formula_structural   Ca4Sn3S10
_chemical_formula_sum   'Ca8 Sn6 S20'
_cell_volume   810.78099586
_cell_formula_units_Z   2
loop_
 _symmetry_equiv_pos_site_id
 _symmetry_equiv_pos_as_xyz
  1  'x, y, z'
loop_
 _atom_site_type_symbol
 _atom_site_label
 _atom_site_symmetry_multiplicity
 _atom_site_fract_x
 _atom_site_fract_y
 _atom_site_fract_z
 _atom_site_occupancy
  Ca  Ca0  1  0.02277955  0.96519784  0.86138213  1
  Ca  Ca1  1  0.47722045  0.46519784  0.13861787  1
  Ca  Ca2  1  0.97890023  0.02504946  0.14277975  1
  Ca  Ca3  1  0.52109977  0.52504946  0.85722025  1
  Ca  Ca4  1  0.21948662  0.51440052  0.59220540  1
  Ca  Ca5  1  0.28051338  0.01440052  0.40779460  1
  Ca  Ca6  1  0.77840611  0.49046606  0.40545779  1
  Ca  Ca7  1  0.72159389  0.99046606  0.59454221  1
  Sn  Sn8  1  0.00007065  0.49598491  0.00012904  1
  Sn  Sn9  1  0.49992935  0.99598491  0.99987096  1
  Sn  Sn10  1  0.35922162  0.99685693  0.71165890  1
  Sn  Sn11  1  0.14077838  0.49685693  0.28834110  1
  Sn  Sn12  1  0.63932926  0.00015401  0.28921579  1
  Sn  Sn13  1  0.86067074  0.50015401  0.71078421  1
  S  S14  1  0.37871734  0.13170978  0.85589529  1
  S  S15  1  0.12128266  0.63170978  0.14410471  1
  S  S16  1  0.61739360  0.86372622  0.14414084  1
  S  S17  1  0.88260640  0.36372622  0.85585916  1
  S  S18  1  0.33679192  0.89128338  0.56879745  1
  S  S19  1  0.16320808  0.39128338  0.43120255  1
  S  S20  1  0.66980443  0.11056923  0.43216978  1
  S  S21  1  0.83019557  0.61056923  0.56783022  1
  S  S22  1  0.19133320  0.68527493  0.75260912  1
  S  S23  1  0.30866680  0.18527493  0.24739088  1
  S  S24  1  0.80632705  0.31338236  0.24517872  1
  S  S25  1  0.69367295  0.81338236  0.75482128  1
  S  S26  1  0.54152712  0.31145168  0.67691029  1
  S  S27  1  0.95847288  0.81145168  0.32308971  1
  S  S28  1  0.45252334  0.69756194  0.33187036  1
  S  S29  1  0.04747666  0.19756194  0.66812964  1
  S  S30  1  0.20952441  0.18601551  0.03716034  1
  S  S31  1  0.29047559  0.68601551  0.96283966  1
  S  S32  1  0.80377060  0.82091524  0.97106145  1
  S  S33  1  0.69622940  0.32091524  0.02893855  1
