# generated using pymatgen
data_K2Ag3Sb3S7
_symmetry_space_group_name_H-M   'P 1'
_cell_length_a   6.92045426
_cell_length_b   9.17194426
_cell_length_c   13.48732678
_cell_angle_alpha   70.12185869
_cell_angle_beta   90.00000000
_cell_angle_gamma   90.00000000
_symmetry_Int_Tables_number   1
_chemical_formula_structural   K2Ag3Sb3S7
_chemical_formula_sum   'K4 Ag6 Sb6 S14'
_cell_volume   805.08694356
_cell_formula_units_Z   2
loop_
 _symmetry_equiv_pos_site_id
 _symmetry_equiv_pos_as_xyz
  1  'x, y, z'
loop_
 _atom_site_type_symbol
 _atom_site_label
 _atom_site_symmetry_multiplicity
 _atom_site_fract_x
 _atom_site_fract_y
 _atom_site_fract_z
 _atom_site_occupancy
  K  K0  1  0.68534979  0.89728393  0.58645109  1
  K  K1  1  0.68534979  0.48373502  0.41354891  1
  K  K2  1  0.18534979  0.10271607  0.41354891  1
  K  K3  1  0.18534979  0.51626498  0.58645109  1
  Ag  Ag4  1  0.37388133  0.67979485  0.00000000  1
  Ag  Ag5  1  0.87388133  0.32020515  1.00000000  1
  Ag  Ag6  1  0.62764594  0.58289962  0.81956763  1
  Ag  Ag7  1  0.62764594  0.40246725  0.18043237  1
  Ag  Ag8  1  0.12764594  0.41710038  0.18043237  1
  Ag  Ag9  1  0.12764594  0.59753275  0.81956763  1
  Sb  Sb10  1  0.68548327  0.23785656  0.74397164  1
  Sb  Sb11  1  0.68548327  0.98182820  0.25602836  1
  Sb  Sb12  1  0.18548327  0.76214344  0.25602836  1
  Sb  Sb13  1  0.18548327  0.01817180  0.74397164  1
  Sb  Sb14  1  0.82893888  0.84182136  1.00000000  1
  Sb  Sb15  1  0.32893888  0.15817864  0.00000000  1
  S  S16  1  0.02766931  0.61887226  0.00000000  1
  S  S17  1  0.52766931  0.38112774  -0.00000000  1
  S  S18  1  0.42732274  0.19424983  0.62357883  1
  S  S19  1  0.42732274  0.81782866  0.37642117  1
  S  S20  1  0.92732274  0.80575017  0.37642117  1
  S  S21  1  0.92732274  0.18217134  0.62357883  1
  S  S22  1  0.69085567  0.51792731  0.65837903  1
  S  S23  1  0.69085567  0.17630634  0.34162097  1
  S  S24  1  0.19085567  0.48207269  0.34162097  1
  S  S25  1  0.19085567  0.82369366  0.65837903  1
  S  S26  1  0.61885283  0.69327119  0.14860793  1
  S  S27  1  0.61885283  0.84187912  0.85139207  1
  S  S28  1  0.11885283  0.30672881  0.85139207  1
  S  S29  1  0.11885283  0.15812088  0.14860793  1
