# generated using pymatgen
data_LaCe(GePt)4
_symmetry_space_group_name_H-M   'P 1'
_cell_length_a   4.39872959
_cell_length_b   4.40018252
_cell_length_c   10.03538262
_cell_angle_alpha   90.14979015
_cell_angle_beta   89.96581530
_cell_angle_gamma   89.69146589
_symmetry_Int_Tables_number   1
_chemical_formula_structural   LaCe(GePt)4
_chemical_formula_sum   'La1 Ce1 Ge4 Pt4'
_cell_volume   194.23345231
_cell_formula_units_Z   1
loop_
 _symmetry_equiv_pos_site_id
 _symmetry_equiv_pos_as_xyz
  1  'x, y, z'
loop_
 _atom_site_type_symbol
 _atom_site_label
 _atom_site_symmetry_multiplicity
 _atom_site_fract_x
 _atom_site_fract_y
 _atom_site_fract_z
 _atom_site_occupancy
  La  La0  1  0.25015897  0.25338984  0.74916706  1
  Ce  Ce1  1  0.75008724  0.75254262  0.25315052  1
  Ge  Ge2  1  0.25112420  0.73814615  0.49716406  1
  Ge  Ge3  1  0.74808635  0.23955919  0.49773822  1
  Ge  Ge4  1  0.75486441  0.76517123  0.86931573  1
  Ge  Ge5  1  0.24536004  0.26877978  0.13088892  1
  Pt  Pt6  1  0.74920745  0.74053927  0.62145232  1
  Pt  Pt7  1  0.25003683  0.23713974  0.37477596  1
  Pt  Pt8  1  0.25785651  0.76911527  0.00436916  1
  Pt  Pt9  1  0.74321799  0.26761692  0.00197804  1
