# generated using pymatgen
data_In4AsP3
_symmetry_space_group_name_H-M   'P 1'
_cell_length_a   4.25528772
_cell_length_b   7.36191573
_cell_length_c   7.36191573
_cell_angle_alpha   70.60967377
_cell_angle_beta   90.00000000
_cell_angle_gamma   90.00000000
_symmetry_Int_Tables_number   1
_chemical_formula_structural   In4AsP3
_chemical_formula_sum   'In4 As1 P3'
_cell_volume   217.54577524
_cell_formula_units_Z   1
loop_
 _symmetry_equiv_pos_site_id
 _symmetry_equiv_pos_as_xyz
  1  'x, y, z'
loop_
 _atom_site_type_symbol
 _atom_site_label
 _atom_site_symmetry_multiplicity
 _atom_site_fract_x
 _atom_site_fract_y
 _atom_site_fract_z
 _atom_site_occupancy
  In  In0  1  0.00000000  0.99989098  0.99989098  1
  In  In1  1  0.50000000  0.99323536  0.50244202  1
  In  In2  1  0.50000000  0.50244202  0.99323536  1
  In  In3  1  0.00000000  0.50462490  0.50462490  1
  As  As4  1  0.50000000  0.37481010  0.37481010  1
  P  P5  1  0.00000000  0.37482217  0.87513438  1
  P  P6  1  0.00000000  0.87513438  0.37482217  1
  P  P7  1  0.50000000  0.87504009  0.87504009  1
