# generated using pymatgen
data_Li4B8H5O18
_symmetry_space_group_name_H-M   'P 1'
_cell_length_a   8.51939543
_cell_length_b   8.76134539
_cell_length_c   10.87877682
_cell_angle_alpha   87.10132685
_cell_angle_beta   71.86629633
_cell_angle_gamma   62.14313624
_symmetry_Int_Tables_number   1
_chemical_formula_structural   Li4B8H5O18
_chemical_formula_sum   'Li8 B16 H10 O36'
_cell_volume   677.89088144
_cell_formula_units_Z   2
loop_
 _symmetry_equiv_pos_site_id
 _symmetry_equiv_pos_as_xyz
  1  'x, y, z'
loop_
 _atom_site_type_symbol
 _atom_site_label
 _atom_site_symmetry_multiplicity
 _atom_site_fract_x
 _atom_site_fract_y
 _atom_site_fract_z
 _atom_site_occupancy
  Li  Li0  1  0.94234269  0.65115092  0.11643994  1
  Li  Li1  1  0.06863218  0.35478493  0.91071756  1
  Li  Li2  1  0.52647515  0.68352425  0.82417007  1
  Li  Li3  1  0.46956887  0.32156909  0.18368629  1
  Li  Li4  1  0.27256374  0.97233863  0.99401048  1
  Li  Li5  1  0.72764380  0.02977431  0.01479432  1
  Li  Li6  1  0.96087725  0.38798008  0.67875056  1
  Li  Li7  1  0.51387845  0.97971147  0.49692393  1
  B  B8  1  0.73930470  0.44518157  0.07205222  1
  B  B9  1  0.26305832  0.55408785  0.92473018  1
  B  B10  1  0.55540373  0.86436632  0.21308105  1
  B  B11  1  0.44920915  0.12957571  0.78606944  1
  B  B12  1  0.72018970  0.00085474  0.28218179  1
  B  B13  1  0.28106595  0.99644167  0.71503282  1
  B  B14  1  0.86857587  0.16707290  0.17243444  1
  B  B15  1  0.13152235  0.83251747  0.82802088  1
  B  B16  1  0.73000835  0.21670232  0.41328654  1
  B  B17  1  0.25878383  0.78480003  0.58505436  1
  B  B18  1  0.06716024  0.85685743  0.19355546  1
  B  B19  1  0.93324104  0.14207118  0.80814870  1
  B  B20  1  0.41934708  0.69473805  0.14763320  1
  B  B21  1  0.58253864  0.30663641  0.84910858  1
  B  B22  1  0.66373047  0.73106968  0.98527082  1
  B  B23  1  0.34460669  0.26831973  0.01328968  1
  H  H24  1  0.82477523  0.77303170  0.81333544  1
  H  H25  1  0.16859467  0.28884256  0.19517885  1
  H  H26  1  0.85043224  0.43360259  0.28260914  1
  H  H27  1  0.14854477  0.56838603  0.70734412  1
  H  H28  1  0.63727331  0.25530930  0.61427859  1
  H  H29  1  0.34596102  0.73931880  0.38983018  1
  H  H30  1  0.70895319  0.44015709  0.56452237  1
  H  H31  1  0.23761513  0.52602870  0.44138958  1
  H  H32  1  0.84542981  0.59091665  0.34962143  1
  H  H33  1  0.25927089  0.36688588  0.66054290  1
  O  O34  1  0.80240023  0.54607416  0.98999843  1
  O  O35  1  0.20278229  0.44854964  0.00169994  1
  O  O36  1  0.23320924  0.71297803  0.18536319  1
  O  O37  1  0.77198584  0.28721073  0.80614949  1
  O  O38  1  0.72528556  0.53792061  0.61465676  1
  O  O39  1  0.26964662  0.41358621  0.39217489  1
  O  O40  1  0.82181635  0.26037691  0.30245497  1
  O  O41  1  0.16833528  0.74250931  0.69991341  1
  O  O42  1  0.47509719  0.75174792  0.01932330  1
  O  O43  1  0.53354729  0.24736827  0.97516175  1
  O  O44  1  0.71972068  0.12016776  0.18204297  1
  O  O45  1  0.27901261  0.88142224  0.81689518  1
  O  O46  1  0.55466445  0.50488716  0.14573814  1
  O  O47  1  0.44845719  0.49498388  0.85073880  1
  O  O48  1  0.90515414  0.84283919  0.24842757  1
  O  O49  1  0.09379258  0.15905163  0.74997455  1
  O  O50  1  0.67726254  0.09118666  0.41284708  1
  O  O51  1  0.31670756  0.90794425  0.58718786  1
  O  O52  1  0.05549024  0.00995331  0.14428386  1
  O  O53  1  0.94261817  0.99233859  0.85866089  1
  O  O54  1  0.67394238  0.83848168  0.08388163  1
  O  O55  1  0.33596774  0.15414977  0.91517986  1
  O  O56  1  0.43375467  0.79644173  0.24760251  1
  O  O57  1  0.56707767  0.20258894  0.74895794  1
  O  O58  1  0.57159472  0.95143495  0.30612281  1
  O  O59  1  0.42846458  0.04818705  0.69112589  1
  O  O60  1  0.88162642  0.28051555  0.07080426  1
  O  O61  1  0.12078438  0.71838648  0.92777927  1
  O  O62  1  0.88819161  0.52669801  0.26406366  1
  O  O63  1  0.13803263  0.45699816  0.71610517  1
  O  O64  1  0.68647052  0.30578940  0.53279796  1
  O  O65  1  0.28858476  0.69765960  0.47130859  1
  O  O66  1  0.70275981  0.77987186  0.85322821  1
  O  O67  1  0.30178366  0.22551065  0.14473908  1
  O  O68  1  0.15567935  0.34970864  0.45749117  1
  O  O69  1  0.75572057  0.65027501  0.53302303  1
