# generated using pymatgen
data_KCa2Nb3O10
_symmetry_space_group_name_H-M   'P 1'
_cell_length_a   3.95162126
_cell_length_b   7.87209792
_cell_length_c   15.09998839
_cell_angle_alpha   90.00000000
_cell_angle_beta   82.42588250
_cell_angle_gamma   90.00000000
_symmetry_Int_Tables_number   1
_chemical_formula_structural   KCa2Nb3O10
_chemical_formula_sum   'K2 Ca4 Nb6 O20'
_cell_volume   465.62538405
_cell_formula_units_Z   2
loop_
 _symmetry_equiv_pos_site_id
 _symmetry_equiv_pos_as_xyz
  1  'x, y, z'
loop_
 _atom_site_type_symbol
 _atom_site_label
 _atom_site_symmetry_multiplicity
 _atom_site_fract_x
 _atom_site_fract_y
 _atom_site_fract_z
 _atom_site_occupancy
  K  K0  1  0.25688159  0.74988069  0.48401607  1
  K  K1  1  0.74311841  0.24988069  0.51598393  1
  Ca  Ca2  1  0.56987059  0.23946864  0.85417881  1
  Ca  Ca3  1  0.43012941  0.73946864  0.14582119  1
  Ca  Ca4  1  0.57796568  0.74583776  0.84519579  1
  Ca  Ca5  1  0.42203432  0.24583776  0.15480421  1
  Nb  Nb6  1  0.99766343  0.00277460  0.00160511  1
  Nb  Nb7  1  0.00233657  0.50277460  0.99839489  1
  Nb  Nb8  1  0.14600200  0.00221753  0.71430064  1
  Nb  Nb9  1  0.85929637  0.99456619  0.28488463  1
  Nb  Nb10  1  0.14070363  0.49456619  0.71511537  1
  Nb  Nb11  1  0.85399800  0.50221753  0.28569936  1
  O  O12  1  0.20737220  0.04047783  0.59578465  1
  O  O13  1  0.79808682  0.95955502  0.40383444  1
  O  O14  1  0.20191318  0.45955502  0.59616556  1
  O  O15  1  0.79262780  0.54047783  0.40421535  1
  O  O16  1  0.07298811  0.94597248  0.87306231  1
  O  O17  1  0.94018899  0.06990611  0.12868194  1
  O  O18  1  0.05981101  0.56990611  0.87131806  1
  O  O19  1  0.92701189  0.44597248  0.12693769  1
  O  O20  1  0.11791185  0.24972887  0.76128495  1
  O  O21  1  0.88208815  0.74972887  0.23871505  1
  O  O22  1  0.62956200  0.00481077  0.74606686  1
  O  O23  1  0.37519523  0.99382997  0.25361141  1
  O  O24  1  0.62480477  0.49382997  0.74638859  1
  O  O25  1  0.37043800  0.50481077  0.25393314  1
  O  O26  1  0.14128570  0.75015866  0.71529062  1
  O  O27  1  0.85871430  0.25015866  0.28470938  1
  O  O28  1  0.01611443  0.26708200  0.96088272  1
  O  O29  1  0.98388557  0.76708200  0.03911728  1
  O  O30  1  0.50269998  0.03873288  0.99704896  1
  O  O31  1  0.49730002  0.53873288  0.00295104  1
