# generated using pymatgen
data_Ho2ZnCuSi2
_symmetry_space_group_name_H-M   'P 1'
_cell_length_a   3.98707694
_cell_length_b   4.06116924
_cell_length_c   7.03454829
_cell_angle_alpha   90.03562040
_cell_angle_beta   90.00000000
_cell_angle_gamma   90.00000000
_symmetry_Int_Tables_number   1
_chemical_formula_structural   Ho2ZnCuSi2
_chemical_formula_sum   'Ho2 Zn1 Cu1 Si2'
_cell_volume   113.90475026
_cell_formula_units_Z   1
loop_
 _symmetry_equiv_pos_site_id
 _symmetry_equiv_pos_as_xyz
  1  'x, y, z'
loop_
 _atom_site_type_symbol
 _atom_site_label
 _atom_site_symmetry_multiplicity
 _atom_site_fract_x
 _atom_site_fract_y
 _atom_site_fract_z
 _atom_site_occupancy
  Ho  Ho0  1  0.00000000  0.99994439  0.00335652  1
  Ho  Ho1  1  0.00000000  0.49985242  0.49650364  1
  Zn  Zn2  1  0.50000000  0.50010553  0.83538486  1
  Cu  Cu3  1  0.50000000  0.00011204  0.33224330  1
  Si  Si4  1  0.50000000  0.49990370  0.17282794  1
  Si  Si5  1  0.50000000  0.99988191  0.65968373  1
