# generated using pymatgen
data_HfTi4(PbO3)5
_symmetry_space_group_name_H-M   'P 1'
_cell_length_a   5.55422473
_cell_length_b   11.98278651
_cell_length_c   5.98019378
_cell_angle_alpha   98.50573131
_cell_angle_beta   62.32957153
_cell_angle_gamma   90.00000000
_symmetry_Int_Tables_number   1
_chemical_formula_structural   HfTi4(PbO3)5
_chemical_formula_sum   'Hf1 Ti4 Pb5 O15'
_cell_volume   347.54241598
_cell_formula_units_Z   1
loop_
 _symmetry_equiv_pos_site_id
 _symmetry_equiv_pos_as_xyz
  1  'x, y, z'
loop_
 _atom_site_type_symbol
 _atom_site_label
 _atom_site_symmetry_multiplicity
 _atom_site_fract_x
 _atom_site_fract_y
 _atom_site_fract_z
 _atom_site_occupancy
  Hf  Hf0  1  0.69229728  0.90481393  0.61540544  1
  Ti  Ti1  1  0.30146327  0.10418504  0.39707347  1
  Ti  Ti2  1  0.89603639  0.30392776  0.20792721  1
  Ti  Ti3  1  0.49453956  0.49979146  0.01092089  1
  Ti  Ti4  1  0.08655513  0.70344400  0.82688974  1
  Pb  Pb5  1  0.01360331  0.99311143  0.97279338  1
  Pb  Pb6  1  0.61869635  0.20050447  0.76260731  1
  Pb  Pb7  1  0.21615722  0.39510872  0.56768557  1
  Pb  Pb8  1  0.81399376  0.59319166  0.37201248  1
  Pb  Pb9  1  0.40882396  0.78365609  0.18235208  1
  O  O10  1  0.34545696  0.82020998  0.79822297  1
  O  O11  1  0.75002086  0.61870210  0.99525683  1
  O  O12  1  0.15495332  0.42258086  0.19291958  1
  O  O13  1  0.55826809  0.22329323  0.38400119  1
  O  O14  1  0.96714041  0.02741249  0.58307213  1
  O  O15  1  0.85632007  0.82020998  0.79822297  1
  O  O16  1  0.25472231  0.61870210  0.99525683  1
  O  O17  1  0.65212710  0.42258086  0.19291958  1
  O  O18  1  0.05773072  0.22329323  0.38400119  1
  O  O19  1  0.44978746  0.02741249  0.58307213  1
  O  O20  1  0.24425575  0.62597799  0.51148849  1
  O  O21  1  0.65019689  0.42051988  0.69960622  1
  O  O22  1  0.05220842  0.22943312  0.89558316  1
  O  O23  1  0.45912744  0.02504771  0.08174512  1
  O  O24  1  0.86151799  0.81488940  0.27696402  1
