# generated using pymatgen
data_K3Sm4(CuTe2)5
_symmetry_space_group_name_H-M   'P 1'
_cell_length_a   4.39017028
_cell_length_b   16.71750098
_cell_length_c   18.07974577
_cell_angle_alpha   90.00000000
_cell_angle_beta   90.00000000
_cell_angle_gamma   90.00000000
_symmetry_Int_Tables_number   1
_chemical_formula_structural   K3Sm4(CuTe2)5
_chemical_formula_sum   'K6 Sm8 Cu10 Te20'
_cell_volume   1326.92092271
_cell_formula_units_Z   2
loop_
 _symmetry_equiv_pos_site_id
 _symmetry_equiv_pos_as_xyz
  1  'x, y, z'
loop_
 _atom_site_type_symbol
 _atom_site_label
 _atom_site_symmetry_multiplicity
 _atom_site_fract_x
 _atom_site_fract_y
 _atom_site_fract_z
 _atom_site_occupancy
  K  K0  1  0.50000000  0.32830560  0.33664900  1
  K  K1  1  0.50000000  0.67302786  0.66152356  1
  K  K2  1  0.00000000  0.82697214  0.16152356  1
  K  K3  1  0.00000000  0.17169440  0.83664900  1
  K  K4  1  0.50000000  0.49959968  0.49878608  1
  K  K5  1  -0.00000000  0.00040032  0.99878608  1
  Sm  Sm6  1  0.50000000  0.56408264  0.21549575  1
  Sm  Sm7  1  0.50000000  0.43313488  0.78516935  1
  Sm  Sm8  1  -0.00000000  0.06686512  0.28516935  1
  Sm  Sm9  1  -0.00000000  0.93591736  0.71549575  1
  Sm  Sm10  1  0.50000000  0.78545145  0.44894426  1
  Sm  Sm11  1  0.50000000  0.20969442  0.55368327  1
  Sm  Sm12  1  -0.00000000  0.29030558  0.05368327  1
  Sm  Sm13  1  0.00000000  0.71454855  0.94894426  1
  Cu  Cu14  1  0.50000000  0.56346520  0.04098630  1
  Cu  Cu15  1  0.50000000  0.43493828  0.96005237  1
  Cu  Cu16  1  -0.00000000  0.06506172  0.46005237  1
  Cu  Cu17  1  0.00000000  0.93653480  0.54098630  1
  Cu  Cu18  1  0.50000000  0.84159344  0.84550415  1
  Cu  Cu19  1  0.50000000  0.16045726  0.15472285  1
  Cu  Cu20  1  -0.00000000  0.33954274  0.65472285  1
  Cu  Cu21  1  0.00000000  0.65840656  0.34550415  1
  Cu  Cu22  1  0.50000000  0.90732160  0.30909628  1
  Cu  Cu23  1  0.00000000  0.59267840  0.80909628  1
  Te  Te24  1  0.50000000  0.12860765  0.39810192  1
  Te  Te25  1  0.50000000  0.87090108  0.60009085  1
  Te  Te26  1  -0.00000000  0.62909892  0.10009085  1
  Te  Te27  1  0.00000000  0.37139235  0.89810192  1
  Te  Te28  1  0.50000000  0.58331836  0.89426480  1
  Te  Te29  1  0.50000000  0.41563188  0.10315889  1
  Te  Te30  1  -0.00000000  0.08436812  0.60315889  1
  Te  Te31  1  -0.00000000  0.91668164  0.39426480  1
  Te  Te32  1  0.50000000  0.99334627  0.18431752  1
  Te  Te33  1  0.50000000  0.99835236  0.81840151  1
  Te  Te34  1  0.00000000  0.50164764  0.31840151  1
  Te  Te35  1  -0.00000000  0.50665373  0.68431752  1
  Te  Te36  1  0.50000000  0.83199935  0.99336996  1
  Te  Te37  1  0.50000000  0.16729182  0.00806681  1
  Te  Te38  1  -0.00000000  0.33270818  0.50806681  1
  Te  Te39  1  0.00000000  0.66800065  0.49336996  1
  Te  Te40  1  0.50000000  0.73350205  0.28666350  1
  Te  Te41  1  0.50000000  0.27150897  0.71315102  1
  Te  Te42  1  -0.00000000  0.22849103  0.21315102  1
  Te  Te43  1  -0.00000000  0.76649795  0.78666350  1
