# generated using pymatgen
data_HoTiCo11
_symmetry_space_group_name_H-M   'P 1'
_cell_length_a   4.68800274
_cell_length_b   6.34023840
_cell_length_c   6.34023840
_cell_angle_alpha   97.60097521
_cell_angle_beta   111.69726093
_cell_angle_gamma   68.30273907
_symmetry_Int_Tables_number   1
_chemical_formula_structural   HoTiCo11
_chemical_formula_sum   'Ho1 Ti1 Co11'
_cell_volume   162.69165185
_cell_formula_units_Z   1
loop_
 _symmetry_equiv_pos_site_id
 _symmetry_equiv_pos_as_xyz
  1  'x, y, z'
loop_
 _atom_site_type_symbol
 _atom_site_label
 _atom_site_symmetry_multiplicity
 _atom_site_fract_x
 _atom_site_fract_y
 _atom_site_fract_z
 _atom_site_occupancy
  Ho  Ho0  1  0.00772756  0.99227244  0.00772756  1
  Ti  Ti1  1  0.63105431  0.36894569  0.63105431  1
  Co  Co2  1  0.72556101  0.77443899  0.22556101  1
  Co  Co3  1  0.28092893  0.21907107  0.78092893  1
  Co  Co4  1  0.49876193  0.78263133  0.78015519  1
  Co  Co5  1  0.49876193  0.21984481  0.21736867  1
  Co  Co6  1  0.49952120  0.99506413  0.49876570  1
  Co  Co7  1  0.00418037  0.99506413  0.49876570  1
  Co  Co8  1  0.49952120  0.50123430  0.00493587  1
  Co  Co9  1  0.00418037  0.50123430  0.00493587  1
  Co  Co10  1  0.35302461  0.64697539  0.35302461  1
  Co  Co11  1  0.99838829  0.35990197  0.35667855  1
  Co  Co12  1  0.99838829  0.64332145  0.64009803  1
