# generated using pymatgen
data_Gd3Bi(Ru2O7)2
_symmetry_space_group_name_H-M   'P 1'
_cell_length_a   7.29543678
_cell_length_b   7.29543678
_cell_length_c   7.31501330
_cell_angle_alpha   90.00000000
_cell_angle_beta   60.08848893
_cell_angle_gamma   120.00000000
_symmetry_Int_Tables_number   1
_chemical_formula_structural   Gd3Bi(Ru2O7)2
_chemical_formula_sum   'Gd3 Bi1 Ru4 O14'
_cell_volume   275.66542535
_cell_formula_units_Z   1
loop_
 _symmetry_equiv_pos_site_id
 _symmetry_equiv_pos_as_xyz
  1  'x, y, z'
loop_
 _atom_site_type_symbol
 _atom_site_label
 _atom_site_symmetry_multiplicity
 _atom_site_fract_x
 _atom_site_fract_y
 _atom_site_fract_z
 _atom_site_occupancy
  Gd  Gd0  1  0.25000000  0.37500000  0.37500000  1
  Gd  Gd1  1  0.25000000  0.87500000  0.37500000  1
  Gd  Gd2  1  0.75000000  0.37500000  0.37500000  1
  Bi  Bi3  1  0.75000000  0.37500000  0.87500000  1
  Ru  Ru4  1  0.75000000  0.87500000  0.37500000  1
  Ru  Ru5  1  0.25000000  0.87500000  0.87500000  1
  Ru  Ru6  1  0.25000000  0.37500000  0.87500000  1
  Ru  Ru7  1  0.75000000  0.87500000  0.87500000  1
  O  O8  1  0.91246938  0.95623469  0.54371258  1
  O  O9  1  0.50005273  0.54381804  0.54371258  1
  O  O10  1  0.50005273  0.95623469  0.54371258  1
  O  O11  1  0.09000682  0.54500341  0.95477517  1
  O  O12  1  0.50022142  0.95521801  0.95477517  1
  O  O13  1  0.50022142  0.54500341  0.95477517  1
  O  O14  1  0.58753062  0.79376531  0.20628742  1
  O  O15  1  -0.00005273  0.20618196  0.20628742  1
  O  O16  1  -0.00005273  0.79376531  0.20628742  1
  O  O17  1  0.40999318  0.20499659  0.79522483  1
  O  O18  1  -0.00022142  0.79478199  0.79522483  1
  O  O19  1  -0.00022142  0.20499659  0.79522483  1
  O  O20  1  0.49656429  0.24828215  0.25515356  1
  O  O21  1  0.00343571  0.50171785  0.49484644  1
