# generated using pymatgen
data_In4Bi3S10
_symmetry_space_group_name_H-M   'P 1'
_cell_length_a   7.75957395
_cell_length_b   11.71683305
_cell_length_c   18.01981949
_cell_angle_alpha   98.09602905
_cell_angle_beta   89.99855597
_cell_angle_gamma   89.88621287
_symmetry_Int_Tables_number   1
_chemical_formula_structural   In4Bi3S10
_chemical_formula_sum   'In16 Bi12 S40'
_cell_volume   1621.98761171
_cell_formula_units_Z   4
loop_
 _symmetry_equiv_pos_site_id
 _symmetry_equiv_pos_as_xyz
  1  'x, y, z'
loop_
 _atom_site_type_symbol
 _atom_site_label
 _atom_site_symmetry_multiplicity
 _atom_site_fract_x
 _atom_site_fract_y
 _atom_site_fract_z
 _atom_site_occupancy
  In  In0  1  0.49871330  0.77927856  0.96119461  1
  In  In1  1  0.24932770  0.26906738  0.61907419  1
  In  In2  1  0.75062938  0.26521205  0.61756657  1
  In  In3  1  0.24373789  0.05518339  0.32098003  1
  In  In4  1  0.75126414  0.05538954  0.32496153  1
  In  In5  1  0.99925312  0.09765100  0.14318423  1
  In  In6  1  0.50425913  0.30571945  0.44080381  1
  In  In7  1  0.49904990  0.09232881  0.14233452  1
  In  In8  1  0.49960819  0.22210122  0.79582937  1
  In  In9  1  0.99971280  0.78061792  0.96152061  1
  In  In10  1  0.99533464  0.30934055  0.43521697  1
  In  In11  1  0.99992755  0.22270584  0.79635977  1
  In  In12  1  0.25051352  0.13987952  0.96505202  1
  In  In13  1  0.74996648  0.13981277  0.96494114  1
  In  In14  1  0.24979529  0.58285895  0.79983454  1
  In  In15  1  0.75064914  0.58157657  0.79973633  1
  Bi  Bi16  1  0.29523547  0.42951036  0.26382076  1
  Bi  Bi17  1  0.69917801  0.42914872  0.26384413  1
  Bi  Bi18  1  0.24786194  0.62556637  0.56660832  1
  Bi  Bi19  1  0.74419635  0.63487624  0.56720494  1
  Bi  Bi20  1  0.49840173  0.74016052  0.19570980  1
  Bi  Bi21  1  0.24882765  0.49466307  0.01552638  1
  Bi  Bi22  1  0.75135917  0.49494699  0.01530934  1
  Bi  Bi23  1  0.49936038  0.86738584  0.74567482  1
  Bi  Bi24  1  0.99844841  0.72240045  0.19202242  1
  Bi  Bi25  1  0.99427322  0.86674751  0.74543707  1
  Bi  Bi26  1  0.43739268  0.93721454  0.49818543  1
  Bi  Bi27  1  0.03051287  0.93043276  0.49724750  1
  S  S28  1  -0.00017574  0.99887459  0.99997423  1
  S  S29  1  0.99931315  0.91448227  0.35242525  1
  S  S30  1  0.49969606  0.51571707  0.12268753  1
  S  S31  1  0.49826799  0.13455986  0.65193175  1
  S  S32  1  0.24907470  0.36495841  0.76196402  1
  S  S33  1  0.75002285  0.36348253  0.76105399  1
  S  S34  1  0.00181478  0.13531080  0.65155073  1
  S  S35  1  0.50013223  0.28547233  0.94106238  1
  S  S36  1  0.49133791  0.70225409  0.48166811  1
  S  S37  1  0.00042144  0.40114924  0.57390443  1
  S  S38  1  -0.00014302  0.19985648  0.29422952  1
  S  S39  1  0.24773250  0.72666985  0.05198922  1
  S  S40  1  0.75097844  0.72694247  0.05211840  1
  S  S41  1  0.50107340  0.63548409  0.70946088  1
  S  S42  1  0.24818521  0.84885676  0.63868080  1
  S  S43  1  0.74781985  0.85455831  0.63664003  1
  S  S44  1  0.00007686  0.56502571  0.90504388  1
  S  S45  1  0.25785481  0.15918473  0.46768131  1
  S  S46  1  0.75651283  0.16288759  0.46667175  1
  S  S47  1  -0.00006800  0.50366845  0.12423404  1
  S  S48  1  0.49982803  0.40119969  0.57797103  1
  S  S49  1  0.25199550  0.22756600  0.10917871  1
  S  S50  1  0.74663643  0.22651381  0.10948148  1
  S  S51  1  0.99946569  0.28557764  0.94177619  1
  S  S52  1  0.50045967  0.99684250  0.99914591  1
  S  S53  1  0.24961222  0.79728125  0.85601455  1
  S  S54  1  0.75010530  0.79715622  0.85621572  1
  S  S55  1  0.99863828  0.63485149  0.70893687  1
  S  S56  1  0.00080888  0.69919418  0.48132186  1
  S  S57  1  0.49227021  0.91940421  0.35253260  1
  S  S58  1  0.25286930  0.44303670  0.40938409  1
  S  S59  1  0.74285593  0.44833665  0.40883705  1
  S  S60  1  0.24771467  0.96104445  0.18362502  1
  S  S61  1  0.74761197  0.96058550  0.18674161  1
  S  S62  1  0.25297592  0.66159718  0.28006557  1
  S  S63  1  0.74383733  0.66188018  0.27955474  1
  S  S64  1  0.50001446  0.20323559  0.29355159  1
  S  S65  1  0.50081997  0.56452968  0.90520116  1
  S  S66  1  0.24996085  0.07712473  0.81993063  1
  S  S67  1  0.75070109  0.07696982  0.81953022  1
