# generated using pymatgen
data_K2SO4
_symmetry_space_group_name_H-M   'P 1'
_cell_length_a   5.99679538
_cell_length_b   5.85202950
_cell_length_c   7.97808228
_cell_angle_alpha   90.00147985
_cell_angle_beta   90.02628076
_cell_angle_gamma   120.81375214
_symmetry_Int_Tables_number   1
_chemical_formula_structural   K2SO4
_chemical_formula_sum   'K4 S2 O8'
_cell_volume   240.45561047
_cell_formula_units_Z   2
loop_
 _symmetry_equiv_pos_site_id
 _symmetry_equiv_pos_as_xyz
  1  'x, y, z'
loop_
 _atom_site_type_symbol
 _atom_site_label
 _atom_site_symmetry_multiplicity
 _atom_site_fract_x
 _atom_site_fract_y
 _atom_site_fract_z
 _atom_site_occupancy
  K  K0  1  0.31097755  0.62201212  0.75000313  1
  K  K1  1  0.68902245  0.37798788  0.24999687  1
  K  K2  1  0.00000000  0.00000000  0.50000000  1
  K  K3  1  0.00000000  0.00000000  -0.00000000  1
  S  S4  1  0.64946736  0.29877400  0.75017409  1
  S  S5  1  0.35053264  0.70122600  0.24982591  1
  O  O6  1  0.75073039  0.46942592  0.90235091  1
  O  O7  1  0.24926961  0.53057408  0.09764909  1
  O  O8  1  0.28121712  0.53042038  0.40250722  1
  O  O9  1  0.71878288  0.46957962  0.59749278  1
  O  O10  1  0.76508536  0.12432188  0.73865387  1
  O  O11  1  0.23491464  0.87567812  0.26134613  1
  O  O12  1  0.64079743  0.87564355  0.23868966  1
  O  O13  1  0.35920257  0.12435645  0.76131034  1
