# generated using pymatgen
data_Ho4Co3
_symmetry_space_group_name_H-M   'P 1'
_cell_length_a   4.02184231
_cell_length_b   11.22928859
_cell_length_c   11.22437129
_cell_angle_alpha   59.97834693
_cell_angle_beta   90.00479581
_cell_angle_gamma   90.00947779
_symmetry_Int_Tables_number   1
_chemical_formula_structural   Ho4Co3
_chemical_formula_sum   'Ho12 Co9'
_cell_volume   438.90965248
_cell_formula_units_Z   3
loop_
 _symmetry_equiv_pos_site_id
 _symmetry_equiv_pos_as_xyz
  1  'x, y, z'
loop_
 _atom_site_type_symbol
 _atom_site_label
 _atom_site_symmetry_multiplicity
 _atom_site_fract_x
 _atom_site_fract_y
 _atom_site_fract_z
 _atom_site_occupancy
  Ho  Ho0  1  0.74901606  0.62041629  0.86438200  1
  Ho  Ho1  1  0.74899768  0.51522458  0.62044227  1
  Ho  Ho2  1  0.74908504  0.86434058  0.51510989  1
  Ho  Ho3  1  0.25098394  0.37958371  0.13561800  1
  Ho  Ho4  1  0.25100232  0.48477542  0.37955773  1
  Ho  Ho5  1  0.25091496  0.13565942  0.48489011  1
  Ho  Ho6  1  0.74879323  0.77576737  0.24815095  1
  Ho  Ho7  1  0.74877832  0.97611057  0.77576353  1
  Ho  Ho8  1  0.74878407  0.24815238  0.97609963  1
  Ho  Ho9  1  0.25120677  0.22423263  0.75184905  1
  Ho  Ho10  1  0.25122168  0.02388943  0.22423647  1
  Ho  Ho11  1  0.25121593  0.75184762  0.02390037  1
  Co  Co12  1  0.74961843  0.33344360  0.33332445  1
  Co  Co13  1  0.25038157  0.66655640  0.66667555  1
  Co  Co14  1  0.74877993  0.28201799  0.56231240  1
  Co  Co15  1  0.74873454  0.15572108  0.28204761  1
  Co  Co16  1  0.74865633  0.56224581  0.15568542  1
  Co  Co17  1  0.25122007  0.71798201  0.43768760  1
  Co  Co18  1  0.25126546  0.84427892  0.71795239  1
  Co  Co19  1  0.25134367  0.43775419  0.84431458  1
  Co  Co20  1  0.50000000  -0.00000000  -0.00000000  1
