# generated using pymatgen
data_K5CuCO5
_symmetry_space_group_name_H-M   'P 1'
_cell_length_a   7.63521495
_cell_length_b   7.63521495
_cell_length_c   8.86536380
_cell_angle_alpha   90.00000000
_cell_angle_beta   90.00000000
_cell_angle_gamma   88.48298911
_symmetry_Int_Tables_number   1
_chemical_formula_structural   K5CuCO5
_chemical_formula_sum   'K10 Cu2 C2 O10'
_cell_volume   516.63860483
_cell_formula_units_Z   2
loop_
 _symmetry_equiv_pos_site_id
 _symmetry_equiv_pos_as_xyz
  1  'x, y, z'
loop_
 _atom_site_type_symbol
 _atom_site_label
 _atom_site_symmetry_multiplicity
 _atom_site_fract_x
 _atom_site_fract_y
 _atom_site_fract_z
 _atom_site_occupancy
  K  K0  1  0.46462259  0.53537741  0.24110508  1
  K  K1  1  0.96938837  0.46095679  0.25135461  1
  K  K2  1  0.53904321  0.03061163  0.25135461  1
  K  K3  1  0.05083896  0.94916104  0.23442853  1
  K  K4  1  0.55083896  0.44916104  0.76557147  1
  K  K5  1  0.03904321  0.53061163  0.74864539  1
  K  K6  1  0.46938837  0.96095679  0.74864539  1
  K  K7  1  0.96462259  0.03537741  0.75889492  1
  K  K8  1  0.74790086  0.75209914  0.50000000  1
  K  K9  1  0.24790086  0.25209914  0.50000000  1
  Cu  Cu10  1  0.75085396  0.74914604  0.00000000  1
  Cu  Cu11  1  0.25085396  0.24914604  0.00000000  1
  C  C12  1  0.77088353  0.22911647  0.51410688  1
  C  C13  1  0.27088353  0.72911647  0.48589312  1
  O  O14  1  0.73781862  0.73485056  0.20290660  1
  O  O15  1  0.26514944  0.26218138  0.20290660  1
  O  O16  1  0.23781862  0.23485056  0.79709340  1
  O  O17  1  0.76514944  0.76218138  0.79709340  1
  O  O18  1  0.37724623  0.62275377  0.55894355  1
  O  O19  1  0.82201913  0.38486488  0.55191165  1
  O  O20  1  0.61513512  0.17798087  0.55191165  1
  O  O21  1  0.11513512  0.67798087  0.44808835  1
  O  O22  1  0.32201913  0.88486488  0.44808835  1
  O  O23  1  0.87724623  0.12275377  0.44105645  1
