# generated using pymatgen
data_HgBrCl
_symmetry_space_group_name_H-M   'P 1'
_cell_length_a   4.66211688
_cell_length_b   6.91981250
_cell_length_c   13.46800561
_cell_angle_alpha   90.00000000
_cell_angle_beta   90.00000000
_cell_angle_gamma   90.00000000
_symmetry_Int_Tables_number   1
_chemical_formula_structural   HgBrCl
_chemical_formula_sum   'Hg4 Br4 Cl4'
_cell_volume   434.49098774
_cell_formula_units_Z   4
loop_
 _symmetry_equiv_pos_site_id
 _symmetry_equiv_pos_as_xyz
  1  'x, y, z'
loop_
 _atom_site_type_symbol
 _atom_site_label
 _atom_site_symmetry_multiplicity
 _atom_site_fract_x
 _atom_site_fract_y
 _atom_site_fract_z
 _atom_site_occupancy
  Hg  Hg0  1  0.53633329  0.75000000  0.37543735  1
  Hg  Hg1  1  0.96366671  0.75000000  0.87543735  1
  Hg  Hg2  1  0.46366671  0.25000000  0.62456265  1
  Hg  Hg3  1  0.03633329  0.25000000  0.12456265  1
  Br  Br4  1  0.86220008  0.75000000  0.23330777  1
  Br  Br5  1  0.63779992  0.75000000  0.73330777  1
  Br  Br6  1  0.13779992  0.25000000  0.76669223  1
  Br  Br7  1  0.36220008  0.25000000  0.26669223  1
  Cl  Cl8  1  0.22132831  0.75000000  0.50938574  1
  Cl  Cl9  1  0.27867169  0.75000000  0.00938574  1
  Cl  Cl10  1  0.77867169  0.25000000  0.49061426  1
  Cl  Cl11  1  0.72132831  0.25000000  0.99061426  1
