# generated using pymatgen
data_CaSnS3
_symmetry_space_group_name_H-M   'P 1'
_cell_length_a   9.33216048
_cell_length_b   9.60936212
_cell_length_c   20.06121183
_cell_angle_alpha   90.00000000
_cell_angle_beta   95.49088812
_cell_angle_gamma   90.00000000
_symmetry_Int_Tables_number   1
_chemical_formula_structural   CaSnS3
_chemical_formula_sum   'Ca12 Sn12 S36'
_cell_volume   1790.75653492
_cell_formula_units_Z   12
loop_
 _symmetry_equiv_pos_site_id
 _symmetry_equiv_pos_as_xyz
  1  'x, y, z'
loop_
 _atom_site_type_symbol
 _atom_site_label
 _atom_site_symmetry_multiplicity
 _atom_site_fract_x
 _atom_site_fract_y
 _atom_site_fract_z
 _atom_site_occupancy
  Ca  Ca0  1  0.03063604  0.87521704  0.26693854  1
  Ca  Ca1  1  0.96936396  0.37521704  0.23306146  1
  Ca  Ca2  1  0.96936396  0.12478296  0.73306146  1
  Ca  Ca3  1  0.03063604  0.62478296  0.76693854  1
  Ca  Ca4  1  0.25612205  0.11985847  0.10921729  1
  Ca  Ca5  1  0.74387795  0.61985847  0.39078271  1
  Ca  Ca6  1  0.74387795  0.88014153  0.89078271  1
  Ca  Ca7  1  0.25612205  0.38014153  0.60921729  1
  Ca  Ca8  1  0.25791263  0.63091257  0.10938409  1
  Ca  Ca9  1  0.74208737  0.13091257  0.39061591  1
  Ca  Ca10  1  0.74208737  0.36908743  0.89061591  1
  Ca  Ca11  1  0.25791263  0.86908743  0.60938409  1
  Sn  Sn12  1  0.78709645  0.59906487  0.08413140  1
  Sn  Sn13  1  0.21290355  0.09906487  0.41586860  1
  Sn  Sn14  1  0.21290355  0.40093513  0.91586860  1
  Sn  Sn15  1  0.78709645  0.90093513  0.58413140  1
  Sn  Sn16  1  0.78736515  0.14987776  0.08712947  1
  Sn  Sn17  1  0.21263485  0.64987776  0.41287053  1
  Sn  Sn18  1  0.21263485  0.85012224  0.91287053  1
  Sn  Sn19  1  0.78736515  0.35012224  0.58712947  1
  Sn  Sn20  1  0.55342038  0.87442873  0.20477896  1
  Sn  Sn21  1  0.44657962  0.37442873  0.29522104  1
  Sn  Sn22  1  0.44657962  0.12557127  0.79522104  1
  Sn  Sn23  1  0.55342038  0.62557127  0.70477896  1
  S  S24  1  0.29408079  0.87466341  0.19677261  1
  S  S25  1  0.70591921  0.37466341  0.30322739  1
  S  S26  1  0.70591921  0.12533659  0.80322739  1
  S  S27  1  0.29408079  0.62533659  0.69677261  1
  S  S28  1  0.72694924  0.87433781  0.30014532  1
  S  S29  1  0.27305076  0.37433781  0.19985468  1
  S  S30  1  0.27305076  0.12566219  0.69985468  1
  S  S31  1  0.72694924  0.62566219  0.80014532  1
  S  S32  1  0.98930969  0.65090860  0.16207106  1
  S  S33  1  0.01069031  0.15090860  0.33792894  1
  S  S34  1  0.01069031  0.34909140  0.83792894  1
  S  S35  1  0.98930969  0.84909140  0.66207106  1
  S  S36  1  0.99008565  0.10010597  0.16566955  1
  S  S37  1  0.00991435  0.60010597  0.33433045  1
  S  S38  1  0.00991435  0.89989403  0.83433045  1
  S  S39  1  0.99008565  0.39989403  0.66566955  1
  S  S40  1  0.77787613  0.62284479  0.96660173  1
  S  S41  1  0.22212387  0.12284479  0.53339827  1
  S  S42  1  0.22212387  0.37715521  0.03339827  1
  S  S43  1  0.77787613  0.87715521  0.46660173  1
  S  S44  1  0.79044244  0.12423224  0.97126790  1
  S  S45  1  0.20955756  0.62423224  0.52873210  1
  S  S46  1  0.20955756  0.87576776  0.02873210  1
  S  S47  1  0.79044244  0.37576776  0.47126790  1
  S  S48  1  0.56267620  0.67438886  0.13090166  1
  S  S49  1  0.43732380  0.17438886  0.36909834  1
  S  S50  1  0.43732380  0.32561114  0.86909834  1
  S  S51  1  0.56267620  0.82561114  0.63090166  1
  S  S52  1  0.56198095  0.07997181  0.13474515  1
  S  S53  1  0.43801905  0.57997181  0.36525485  1
  S  S54  1  0.43801905  0.92002819  0.86525485  1
  S  S55  1  0.56198095  0.42002819  0.63474515  1
  S  S56  1  0.71857906  0.37595776  0.12845605  1
  S  S57  1  0.28142094  0.87595776  0.37154395  1
  S  S58  1  0.28142094  0.62404224  0.87154395  1
  S  S59  1  0.71857906  0.12404224  0.62845605  1
