# generated using pymatgen
data_Ga3GePt8
_symmetry_space_group_name_H-M   'P 1'
_cell_length_a   4.12565498
_cell_length_b   5.58730998
_cell_length_c   8.00150433
_cell_angle_alpha   90.14016514
_cell_angle_beta   90.00000000
_cell_angle_gamma   90.00000000
_symmetry_Int_Tables_number   1
_chemical_formula_structural   Ga3GePt8
_chemical_formula_sum   'Ga3 Ge1 Pt8'
_cell_volume   184.44463068
_cell_formula_units_Z   1
loop_
 _symmetry_equiv_pos_site_id
 _symmetry_equiv_pos_as_xyz
  1  'x, y, z'
loop_
 _atom_site_type_symbol
 _atom_site_label
 _atom_site_symmetry_multiplicity
 _atom_site_fract_x
 _atom_site_fract_y
 _atom_site_fract_z
 _atom_site_occupancy
  Ga  Ga0  1  0.75000000  0.30402869  0.39823285  1
  Ga  Ga1  1  0.25000000  0.20018174  0.89215748  1
  Ga  Ga2  1  0.25000000  0.69509630  0.60432162  1
  Ge  Ge3  1  0.75000000  0.80284732  0.10389121  1
  Pt  Pt4  1  0.75000000  0.35254546  0.07313748  1
  Pt  Pt5  1  0.75000000  0.84523404  0.42616235  1
  Pt  Pt6  1  0.25000000  0.65525857  0.92894891  1
  Pt  Pt7  1  0.25000000  0.15320773  0.57185336  1
  Pt  Pt8  1  0.75000000  0.45314689  0.70535212  1
  Pt  Pt9  1  0.75000000  0.95189976  0.79720106  1
  Pt  Pt10  1  0.25000000  0.54158560  0.29899211  1
  Pt  Pt11  1  0.25000000  0.04496789  0.19974946  1
