# generated using pymatgen
data_Er2AlSi
_symmetry_space_group_name_H-M   'P 1'
_cell_length_a   3.96508425
_cell_length_b   5.77893865
_cell_length_c   7.92956367
_cell_angle_alpha   90.00000000
_cell_angle_beta   90.00000000
_cell_angle_gamma   90.00000000
_symmetry_Int_Tables_number   1
_chemical_formula_structural   Er2AlSi
_chemical_formula_sum   'Er4 Al2 Si2'
_cell_volume   181.69785242
_cell_formula_units_Z   2
loop_
 _symmetry_equiv_pos_site_id
 _symmetry_equiv_pos_as_xyz
  1  'x, y, z'
loop_
 _atom_site_type_symbol
 _atom_site_label
 _atom_site_symmetry_multiplicity
 _atom_site_fract_x
 _atom_site_fract_y
 _atom_site_fract_z
 _atom_site_occupancy
  Er  Er0  1  0.25000000  0.37977800  0.67906104  1
  Er  Er1  1  0.25000000  0.12022200  0.17906104  1
  Er  Er2  1  0.75000000  0.60836102  0.32231346  1
  Er  Er3  1  0.75000000  0.89163898  0.82231346  1
  Al  Al4  1  0.25000000  0.87260582  0.53670612  1
  Al  Al5  1  0.25000000  0.62739418  0.03670612  1
  Si  Si6  1  0.75000000  0.12671386  0.46191938  1
  Si  Si7  1  0.75000000  0.37328614  0.96191938  1
