# generated using pymatgen
data_Fe3Ni3P2
_symmetry_space_group_name_H-M   'P 1'
_cell_length_a   4.39780537
_cell_length_b   6.70690567
_cell_length_c   6.72102815
_cell_angle_alpha   96.05982753
_cell_angle_beta   109.09694626
_cell_angle_gamma   70.86127839
_symmetry_Int_Tables_number   1
_chemical_formula_structural   Fe3Ni3P2
_chemical_formula_sum   'Fe6 Ni6 P4'
_cell_volume   176.97668664
_cell_formula_units_Z   2
loop_
 _symmetry_equiv_pos_site_id
 _symmetry_equiv_pos_as_xyz
  1  'x, y, z'
loop_
 _atom_site_type_symbol
 _atom_site_label
 _atom_site_symmetry_multiplicity
 _atom_site_fract_x
 _atom_site_fract_y
 _atom_site_fract_z
 _atom_site_occupancy
  Fe  Fe0  1  0.69115687  0.18393066  0.02820721  1
  Fe  Fe1  1  0.84688033  0.81606934  0.97179279  1
  Fe  Fe2  1  0.33690008  0.96777350  0.18339717  1
  Fe  Fe3  1  0.12127640  0.03222650  0.81660283  1
  Fe  Fe4  1  0.65979082  0.39595571  0.67010297  1
  Fe  Fe5  1  0.38564356  0.60404429  0.32989703  1
  Ni  Ni6  1  0.08249136  0.38978547  0.05051381  1
  Ni  Ni7  1  0.42176302  0.61021453  0.94948619  1
  Ni  Ni8  1  0.96768541  0.95042271  0.38985132  1
  Ni  Ni9  1  0.52825681  0.04957729  0.61014868  1
  Ni  Ni10  1  0.01016616  0.33241435  0.39418001  1
  Ni  Ni11  1  0.94840050  0.66758565  0.60581999  1
  P  P12  1  0.22666555  0.33655497  0.75700581  1
  P  P13  1  0.80621471  0.66344503  0.24299419  1
  P  P14  1  0.53161947  0.24302286  0.33955336  1
  P  P15  1  0.43508897  0.75697714  0.66044664  1
