# generated using pymatgen
data_Ga3Te9Pd32
_symmetry_space_group_name_H-M   'P 1'
_cell_length_a   7.70517764
_cell_length_b   7.70517764
_cell_length_c   15.13881741
_cell_angle_alpha   90.00000046
_cell_angle_beta   104.74301954
_cell_angle_gamma   59.99999845
_symmetry_Int_Tables_number   1
_chemical_formula_structural   Ga3Te9Pd32
_chemical_formula_sum   'Ga3 Te9 Pd32'
_cell_volume   744.00853985
_cell_formula_units_Z   1
loop_
 _symmetry_equiv_pos_site_id
 _symmetry_equiv_pos_as_xyz
  1  'x, y, z'
loop_
 _atom_site_type_symbol
 _atom_site_label
 _atom_site_symmetry_multiplicity
 _atom_site_fract_x
 _atom_site_fract_y
 _atom_site_fract_z
 _atom_site_occupancy
  Ga  Ga0  1  0.58178379  0.20910811  0.37267568  1
  Ga  Ga1  1  0.89834585  0.05082707  0.84751878  1
  Ga  Ga2  1  0.89797790  0.55101105  0.34696685  1
  Te  Te3  1  0.21200981  0.39399510  0.81801471  1
  Te  Te4  1  0.21292179  0.89353910  0.31938269  1
  Te  Te5  1  0.39839006  0.12121136  0.59373490  1
  Te  Te6  1  0.71494625  0.48039858  0.59373490  1
  Te  Te7  1  0.07413348  0.80465517  0.59373490  1
  Te  Te8  1  0.39981402  0.98259104  0.09825060  1
  Te  Te9  1  0.08084164  0.61759494  0.09825060  1
  Te  Te10  1  0.71584554  0.30156342  0.09825060  1
  Te  Te11  1  0.58086289  0.70956855  0.87129434  1
  Pd  Pd12  1  0.67060295  0.91430759  0.49658121  1
  Pd  Pd13  1  0.41088881  0.41508945  0.49658121  1
  Pd  Pd14  1  0.91167067  0.17402174  0.49658121  1
  Pd  Pd15  1  0.67269307  0.92135006  0.99974625  1
  Pd  Pd16  1  0.92109631  0.40595687  0.99974625  1
  Pd  Pd17  1  0.40570312  0.67294682  0.99974625  1
  Pd  Pd18  1  0.86097099  0.70380860  0.69011352  1
  Pd  Pd19  1  0.39392212  0.43522042  0.69011352  1
  Pd  Pd20  1  0.12533394  0.17085747  0.69011352  1
  Pd  Pd21  1  0.86116201  0.93396516  0.19015213  1
  Pd  Pd22  1  0.12411730  0.20487282  0.19015213  1
  Pd  Pd23  1  0.39502496  0.67100988  0.19015213  1
  Pd  Pd24  1  0.01870553  0.49064724  0.52805829  1
  Pd  Pd25  1  0.01919204  0.99040398  0.02878805  1
  Pd  Pd26  1  0.77595782  0.11202109  0.66393673  1
  Pd  Pd27  1  0.77561961  0.61219019  0.16342942  1
  Pd  Pd28  1  0.46171564  0.76914218  0.69257345  1
  Pd  Pd29  1  0.46495379  0.26752311  0.19743068  1
  Pd  Pd30  1  0.33467175  0.83266413  0.50200762  1
  Pd  Pd31  1  0.33386092  0.33306954  0.00079137  1
  Pd  Pd32  1  0.56383677  0.03933310  0.79400613  1
  Pd  Pd33  1  0.83333924  0.39683012  0.79400613  1
  Pd  Pd34  1  0.19083626  0.76983064  0.79400613  1
  Pd  Pd35  1  0.56408389  0.90218341  0.29643137  1
  Pd  Pd36  1  0.19861477  0.53373271  0.29643137  1
  Pd  Pd37  1  0.83016407  0.26765252  0.29643137  1
  Pd  Pd38  1  0.96196070  0.70090509  0.89577636  1
  Pd  Pd39  1  0.59668145  0.33713422  0.89577636  1
  Pd  Pd40  1  0.23291058  0.06618433  0.89577636  1
  Pd  Pd41  1  0.95770307  0.84329743  0.39491797  1
  Pd  Pd42  1  0.23821541  0.19899950  0.39491797  1
  Pd  Pd43  1  0.59391747  0.56278509  0.39491797  1
