# generated using pymatgen
data_La4TaCo33
_symmetry_space_group_name_H-M   'P 1'
_cell_length_a   6.35387087
_cell_length_b   6.35387087
_cell_length_c   12.76252972
_cell_angle_alpha   83.08922436
_cell_angle_beta   83.08922436
_cell_angle_gamma   82.93608741
_symmetry_Int_Tables_number   1
_chemical_formula_structural   La4TaCo33
_chemical_formula_sum   'La4 Ta1 Co33'
_cell_volume   504.69846119
_cell_formula_units_Z   1
loop_
 _symmetry_equiv_pos_site_id
 _symmetry_equiv_pos_as_xyz
  1  'x, y, z'
loop_
 _atom_site_type_symbol
 _atom_site_label
 _atom_site_symmetry_multiplicity
 _atom_site_fract_x
 _atom_site_fract_y
 _atom_site_fract_z
 _atom_site_occupancy
  La  La0  1  0.64618957  0.64618957  0.32228034  1
  La  La1  1  0.65631502  0.65631502  0.82799153  1
  La  La2  1  0.34339310  0.34339310  0.17215923  1
  La  La3  1  0.34423963  0.34423963  0.67288450  1
  Ta  Ta4  1  0.90620456  0.90620456  0.45312959  1
  Co  Co5  1  0.28293175  0.71658698  0.99981046  1
  Co  Co6  1  0.29127017  0.71085449  0.50111162  1
  Co  Co7  1  0.71622580  0.00087106  0.14114860  1
  Co  Co8  1  0.71301065  0.00332650  0.64507922  1
  Co  Co9  1  0.00253174  0.28989582  0.35623689  1
  Co  Co10  1  0.00007407  0.28400097  0.85855328  1
  Co  Co11  1  0.28989582  0.00253174  0.35623689  1
  Co  Co12  1  0.28400097  0.00007407  0.85855328  1
  Co  Co13  1  0.00087106  0.71622580  0.14114860  1
  Co  Co14  1  0.00332650  0.71301065  0.64507922  1
  Co  Co15  1  0.71658698  0.28293175  0.99981046  1
  Co  Co16  1  0.71085449  0.29127017  0.50111162  1
  Co  Co17  1  0.00164404  0.00164404  0.24672661  1
  Co  Co18  1  0.00052606  0.00052606  0.75078358  1
  Co  Co19  1  0.00156884  0.49426579  0.50119046  1
  Co  Co20  1  0.00000889  0.50002573  0.99982187  1
  Co  Co21  1  0.50002573  0.00000889  0.99982187  1
  Co  Co22  1  0.49426579  0.00156884  0.50119046  1
  Co  Co23  1  0.34101854  0.34101854  0.42664970  1
  Co  Co24  1  0.34073138  0.34073138  0.92530423  1
  Co  Co25  1  0.33941699  0.85091521  0.16921852  1
  Co  Co26  1  0.34208375  0.85185459  0.67121005  1
  Co  Co27  1  0.85091521  0.33941699  0.16921852  1
  Co  Co28  1  0.85185459  0.34208375  0.67121005  1
  Co  Co29  1  0.65992861  0.65992861  0.07343441  1
  Co  Co30  1  0.65546050  0.65546050  0.57506135  1
  Co  Co31  1  0.65570233  0.14833322  0.32762167  1
  Co  Co32  1  0.65946521  0.14947113  0.83003181  1
  Co  Co33  1  0.14833322  0.65570233  0.32762167  1
  Co  Co34  1  0.14947113  0.65946521  0.83003181  1
  Co  Co35  1  0.90612604  0.90612604  0.95180891  1
  Co  Co36  1  0.09541692  0.09541692  0.04682127  1
  Co  Co37  1  0.09811434  0.09811434  0.55289585  1
