# generated using pymatgen
data_EuAlAg4
_symmetry_space_group_name_H-M   'P 1'
_cell_length_a   4.41604545
_cell_length_b   5.81585046
_cell_length_c   5.81557468
_cell_angle_alpha   119.97676813
_cell_angle_beta   90.00000000
_cell_angle_gamma   90.00000000
_symmetry_Int_Tables_number   1
_chemical_formula_structural   EuAlAg4
_chemical_formula_sum   'Eu1 Al1 Ag4'
_cell_volume   129.38134313
_cell_formula_units_Z   1
loop_
 _symmetry_equiv_pos_site_id
 _symmetry_equiv_pos_as_xyz
  1  'x, y, z'
loop_
 _atom_site_type_symbol
 _atom_site_label
 _atom_site_symmetry_multiplicity
 _atom_site_fract_x
 _atom_site_fract_y
 _atom_site_fract_z
 _atom_site_occupancy
  Eu  Eu0  1  -0.00000000  0.99998949  0.99999237  1
  Al  Al1  1  -0.00000000  0.33339602  0.66661345  1
  Ag  Ag2  1  -0.00000000  0.66657723  0.33336208  1
  Ag  Ag3  1  0.50000000  0.49666839  0.99341318  1
  Ag  Ag4  1  0.50000000  0.49670292  0.50329687  1
  Ag  Ag5  1  0.50000000  0.00656596  0.50332205  1
