# generated using pymatgen
data_CuGePSe
_symmetry_space_group_name_H-M   'P 1'
_cell_length_a   3.90761579
_cell_length_b   3.90761578
_cell_length_c   6.75599786
_cell_angle_alpha   73.19016325
_cell_angle_beta   90.00000000
_cell_angle_gamma   120.00000006
_symmetry_Int_Tables_number   1
_chemical_formula_structural   CuGePSe
_chemical_formula_sum   'Cu1 Ge1 P1 Se1'
_cell_volume   84.21112964
_cell_formula_units_Z   1
loop_
 _symmetry_equiv_pos_site_id
 _symmetry_equiv_pos_as_xyz
  1  'x, y, z'
loop_
 _atom_site_type_symbol
 _atom_site_label
 _atom_site_symmetry_multiplicity
 _atom_site_fract_x
 _atom_site_fract_y
 _atom_site_fract_z
 _atom_site_occupancy
  Cu  Cu0  1  0.99816043  0.99632086  0.00551871  1
  Ge  Ge1  1  0.49800722  0.99601445  0.50597833  1
  P  P2  1  0.88117092  0.76234184  0.35648725  1
  Se  Se3  1  0.37266143  0.74532285  0.88201572  1
