# generated using pymatgen
data_Cr3Cu2NiSe8
_symmetry_space_group_name_H-M   'P 1'
_cell_length_a   7.28952295
_cell_length_b   7.31514594
_cell_length_c   7.28952295
_cell_angle_alpha   90.00000000
_cell_angle_beta   60.00000000
_cell_angle_gamma   119.88419808
_symmetry_Int_Tables_number   1
_chemical_formula_structural   Cr3Cu2NiSe8
_chemical_formula_sum   'Cr3 Cu2 Ni1 Se8'
_cell_volume   275.33673878
_cell_formula_units_Z   1
loop_
 _symmetry_equiv_pos_site_id
 _symmetry_equiv_pos_as_xyz
  1  'x, y, z'
loop_
 _atom_site_type_symbol
 _atom_site_label
 _atom_site_symmetry_multiplicity
 _atom_site_fract_x
 _atom_site_fract_y
 _atom_site_fract_z
 _atom_site_occupancy
  Cr  Cr0  1  0.50000000  0.50000000  0.50000000  1
  Cr  Cr1  1  -0.00000000  0.50000000  0.00000000  1
  Cr  Cr2  1  -0.00000000  0.50000000  0.50000000  1
  Cu  Cu3  1  0.24998776  0.12498164  0.12500612  1
  Cu  Cu4  1  0.75001224  0.87501836  0.87499388  1
  Ni  Ni5  1  0.50000000  -0.00000000  0.50000000  1
  Se  Se6  1  0.98412154  0.72618230  0.25793923  1
  Se  Se7  1  0.98156816  0.25672343  0.25921592  1
  Se  Se8  1  0.51593935  0.25672343  0.72484474  1
  Se  Se9  1  0.51593935  0.25672343  0.25921592  1
  Se  Se10  1  0.01587846  0.27381770  0.74206077  1
  Se  Se11  1  0.01843184  0.74327657  0.74078408  1
  Se  Se12  1  0.48406065  0.74327657  0.27515526  1
  Se  Se13  1  0.48406065  0.74327657  0.74078408  1
