# generated using pymatgen
data_DyTiCo11
_symmetry_space_group_name_H-M   'P 1'
_cell_length_a   4.68893878
_cell_length_b   6.34481991
_cell_length_c   6.34481991
_cell_angle_alpha   97.60287350
_cell_angle_beta   111.68534908
_cell_angle_gamma   68.31465092
_symmetry_Int_Tables_number   1
_chemical_formula_structural   DyTiCo11
_chemical_formula_sum   'Dy1 Ti1 Co11'
_cell_volume   162.98651415
_cell_formula_units_Z   1
loop_
 _symmetry_equiv_pos_site_id
 _symmetry_equiv_pos_as_xyz
  1  'x, y, z'
loop_
 _atom_site_type_symbol
 _atom_site_label
 _atom_site_symmetry_multiplicity
 _atom_site_fract_x
 _atom_site_fract_y
 _atom_site_fract_z
 _atom_site_occupancy
  Dy  Dy0  1  0.00693438  0.99306562  0.00693438  1
  Ti  Ti1  1  0.62994657  0.37005343  0.62994657  1
  Co  Co2  1  0.72630532  0.77369468  0.22630532  1
  Co  Co3  1  0.28052457  0.21947543  0.78052457  1
  Co  Co4  1  0.49864908  0.78333121  0.78062936  1
  Co  Co5  1  0.49864908  0.21937064  0.21666879  1
  Co  Co6  1  0.49979035  0.99553954  0.49925791  1
  Co  Co7  1  0.00392801  0.99553954  0.49925791  1
  Co  Co8  1  0.49979035  0.50074209  0.00446046  1
  Co  Co9  1  0.00392801  0.50074209  0.00446046  1
  Co  Co10  1  0.35371270  0.64628730  0.35371270  1
  Co  Co11  1  0.99892079  0.35973788  0.35757947  1
  Co  Co12  1  0.99892079  0.64242053  0.64026212  1
