# generated using pymatgen
data_MgSi
_symmetry_space_group_name_H-M   'P 1'
_cell_length_a   6.45010853
_cell_length_b   4.38520592
_cell_length_c   8.95700513
_cell_angle_alpha   88.28335290
_cell_angle_beta   102.52531743
_cell_angle_gamma   68.21990931
_symmetry_Int_Tables_number   1
_chemical_formula_structural   MgSi
_chemical_formula_sum   'Mg6 Si6'
_cell_volume   227.95445362
_cell_formula_units_Z   6
loop_
 _symmetry_equiv_pos_site_id
 _symmetry_equiv_pos_as_xyz
  1  'x, y, z'
loop_
 _atom_site_type_symbol
 _atom_site_label
 _atom_site_symmetry_multiplicity
 _atom_site_fract_x
 _atom_site_fract_y
 _atom_site_fract_z
 _atom_site_occupancy
  Mg  Mg0  1  0.20123535  0.13518317  0.17380086  1
  Mg  Mg1  1  0.40524755  0.01506950  0.83436409  1
  Mg  Mg2  1  0.98958980  0.22719166  0.49784963  1
  Mg  Mg3  1  0.42812965  0.48501861  0.49898859  1
  Mg  Mg4  1  0.84388551  0.27276544  0.83549408  1
  Mg  Mg5  1  0.63208948  0.36474012  0.15956325  1
  Si  Si6  1  0.99639679  0.74450026  0.29977253  1
  Si  Si7  1  0.12635472  0.65123467  0.69425234  1
  Si  Si8  1  0.83695278  0.75538193  0.03356373  1
  Si  Si9  1  0.20154544  0.64718988  0.96888025  1
  Si  Si10  1  0.63181663  0.85288604  0.36450611  1
  Si  Si11  1  0.70690630  0.84889871  0.63909455  1
