# generated using pymatgen
data_Dy3(Al2Fe)2
_symmetry_space_group_name_H-M   'P 1'
_cell_length_a   5.38261437
_cell_length_b   5.39176981
_cell_length_c   13.37416596
_cell_angle_alpha   90.41701112
_cell_angle_beta   89.16770312
_cell_angle_gamma   119.07296342
_symmetry_Int_Tables_number   1
_chemical_formula_structural   Dy3(Al2Fe)2
_chemical_formula_sum   'Dy6 Al8 Fe4'
_cell_volume   339.20146291
_cell_formula_units_Z   2
loop_
 _symmetry_equiv_pos_site_id
 _symmetry_equiv_pos_as_xyz
  1  'x, y, z'
loop_
 _atom_site_type_symbol
 _atom_site_label
 _atom_site_symmetry_multiplicity
 _atom_site_fract_x
 _atom_site_fract_y
 _atom_site_fract_z
 _atom_site_occupancy
  Dy  Dy0  1  0.33887756  0.66931228  0.91901468  1
  Dy  Dy1  1  0.00926161  0.00052534  0.24612722  1
  Dy  Dy2  1  0.66823302  0.33059846  0.58307186  1
  Dy  Dy3  1  0.33176698  0.66940154  0.66692814  1
  Dy  Dy4  1  0.99073839  -0.00052534  0.00387278  1
  Dy  Dy5  1  0.66112244  0.33068772  0.33098532  1
  Al  Al6  1  0.16807260  0.33497768  0.45693786  1
  Al  Al7  1  0.83192740  0.66502232  0.79306214  1
  Al  Al8  1  0.34171986  0.67862043  0.28666616  1
  Al  Al9  1  -0.00000000  -0.00000000  0.62500000  1
  Al  Al10  1  0.65828014  0.32137957  0.96333384  1
  Al  Al11  1  -0.00000000  0.50000000  0.12500000  1
  Al  Al12  1  0.66628061  0.83243773  0.45746270  1
  Al  Al13  1  0.33371939  0.16756227  0.79253730  1
  Fe  Fe14  1  0.50000000  0.50000000  0.12500000  1
  Fe  Fe15  1  0.16579388  0.83296494  0.45832353  1
  Fe  Fe16  1  0.83420612  0.16703506  0.79167647  1
  Fe  Fe17  1  0.50000000  -0.00000000  0.12500000  1
