# generated using pymatgen
data_Cs3TlNi3F10
_symmetry_space_group_name_H-M   'P 1'
_cell_length_a   6.15872945
_cell_length_b   7.89004831
_cell_length_c   13.85949781
_cell_angle_alpha   90.24558757
_cell_angle_beta   90.00000000
_cell_angle_gamma   67.02778788
_symmetry_Int_Tables_number   1
_chemical_formula_structural   Cs3TlNi3F10
_chemical_formula_sum   'Cs6 Tl2 Ni6 F20'
_cell_volume   620.05327459
_cell_formula_units_Z   2
loop_
 _symmetry_equiv_pos_site_id
 _symmetry_equiv_pos_as_xyz
  1  'x, y, z'
loop_
 _atom_site_type_symbol
 _atom_site_label
 _atom_site_symmetry_multiplicity
 _atom_site_fract_x
 _atom_site_fract_y
 _atom_site_fract_z
 _atom_site_occupancy
  Cs  Cs0  1  0.95232672  0.09534656  0.63944399  1
  Cs  Cs1  1  0.04767328  0.90465344  0.36055601  1
  Cs  Cs2  1  0.54720663  0.90558674  0.13997123  1
  Cs  Cs3  1  0.45279337  0.09441326  0.86002877  1
  Cs  Cs4  1  0.75545698  0.48908603  0.88866038  1
  Cs  Cs5  1  0.24454302  0.51091397  0.11133962  1
  Tl  Tl6  1  0.74909257  0.50181486  0.38910054  1
  Tl  Tl7  1  0.25090743  0.49818514  0.61089946  1
  Ni  Ni8  1  0.61936972  0.76126056  0.65288773  1
  Ni  Ni9  1  0.38063028  0.23873944  0.34711227  1
  Ni  Ni10  1  0.88112468  0.23775064  0.15398948  1
  Ni  Ni11  1  0.11887532  0.76224936  0.84601052  1
  Ni  Ni12  1  0.50000000  -0.00000000  0.50000000  1
  Ni  Ni13  1  0.00000000  -0.00000000  0.00000000  1
  F  F14  1  0.38493759  0.79844527  0.53832703  1
  F  F15  1  0.18338287  0.20155473  0.46167297  1
  F  F16  1  0.68596999  0.19813739  0.03852127  1
  F  F17  1  0.88410738  0.80186261  0.96147873  1
  F  F18  1  0.61506241  0.20155473  0.46167297  1
  F  F19  1  0.81661713  0.79844527  0.53832703  1
  F  F20  1  0.31403001  0.80186261  0.96147873  1
  F  F21  1  0.11589262  0.19813739  0.03852127  1
  F  F22  1  0.75368897  0.49262207  0.64715373  1
  F  F23  1  0.24631103  0.50737793  0.35284627  1
  F  F24  1  0.74670902  0.50658197  0.14912615  1
  F  F25  1  0.25329098  0.49341803  0.85087385  1
  F  F26  1  0.36363344  0.77033713  0.74894135  1
  F  F27  1  0.13397058  0.22966287  0.25105865  1
  F  F28  1  0.63636656  0.22966287  0.25105865  1
  F  F29  1  0.86602942  0.77033713  0.74894135  1
  F  F30  1  0.97401641  0.05196717  0.85593787  1
  F  F31  1  0.02598359  0.94803283  0.14406213  1
  F  F32  1  0.52638681  0.94722637  0.35666853  1
  F  F33  1  0.47361319  0.05277363  0.64333147  1
