# generated using pymatgen
data_EuZnIn3
_symmetry_space_group_name_H-M   'P 1'
_cell_length_a   4.71444959
_cell_length_b   4.71444959
_cell_length_c   6.78349513
_cell_angle_alpha   69.66587815
_cell_angle_beta   69.66587815
_cell_angle_gamma   90.00000000
_symmetry_Int_Tables_number   1
_chemical_formula_structural   EuZnIn3
_chemical_formula_sum   'Eu1 Zn1 In3'
_cell_volume   131.30826298
_cell_formula_units_Z   1
loop_
 _symmetry_equiv_pos_site_id
 _symmetry_equiv_pos_as_xyz
  1  'x, y, z'
loop_
 _atom_site_type_symbol
 _atom_site_label
 _atom_site_symmetry_multiplicity
 _atom_site_fract_x
 _atom_site_fract_y
 _atom_site_fract_z
 _atom_site_occupancy
  Eu  Eu0  1  0.00350064  0.00350064  0.99299871  1
  Zn  Zn1  1  0.61681038  0.61681038  0.76637923  1
  In  In2  1  0.24104003  0.74104003  0.51791995  1
  In  In3  1  0.74104003  0.24104003  0.51791995  1
  In  In4  1  0.39760892  0.39760892  0.20478216  1
