# generated using pymatgen
data_CsMn2(PO3)6
_symmetry_space_group_name_H-M   'P 1'
_cell_length_a   6.39317679
_cell_length_b   8.67009467
_cell_length_c   8.67009467
_cell_angle_alpha   104.04042764
_cell_angle_beta   104.23634940
_cell_angle_gamma   104.23634940
_symmetry_Int_Tables_number   1
_chemical_formula_structural   CsMn2(PO3)6
_chemical_formula_sum   'Cs1 Mn2 P6 O18'
_cell_volume   427.37510278
_cell_formula_units_Z   1
loop_
 _symmetry_equiv_pos_site_id
 _symmetry_equiv_pos_as_xyz
  1  'x, y, z'
loop_
 _atom_site_type_symbol
 _atom_site_label
 _atom_site_symmetry_multiplicity
 _atom_site_fract_x
 _atom_site_fract_y
 _atom_site_fract_z
 _atom_site_occupancy
  Cs  Cs0  1  0.53462494  0.94521684  0.94521684  1
  Mn  Mn1  1  0.00240077  0.77535159  0.22558706  1
  Mn  Mn2  1  0.00240077  0.22558706  0.77535159  1
  P  P3  1  0.09917595  0.40642750  0.18539389  1
  P  P4  1  0.09917595  0.18539389  0.40642750  1
  P  P5  1  0.89994803  0.59339899  0.81405108  1
  P  P6  1  0.89994803  0.81405108  0.59339899  1
  P  P7  1  0.49957657  0.71396858  0.28515849  1
  P  P8  1  0.49957657  0.28515849  0.71396858  1
  O  O9  1  0.10154640  0.34920353  0.34920353  1
  O  O10  1  0.89820594  0.64984025  0.64984025  1
  O  O11  1  0.36592810  0.51792341  0.23721374  1
  O  O12  1  0.36592810  0.23721374  0.51792341  1
  O  O13  1  0.63345280  0.48156109  0.76233297  1
  O  O14  1  0.63345280  0.76233297  0.48156109  1
  O  O15  1  0.95205037  0.51712652  0.17900227  1
  O  O16  1  0.95205037  0.17900227  0.51712652  1
  O  O17  1  0.05054899  0.48556596  0.82179832  1
  O  O18  1  0.05054899  0.82179832  0.48556596  1
  O  O19  1  0.04678769  0.25642455  0.03562160  1
  O  O20  1  0.04678769  0.03562160  0.25642455  1
  O  O21  1  0.94807746  0.74372836  0.96222262  1
  O  O22  1  0.94807746  0.96222262  0.74372836  1
  O  O23  1  0.66173523  0.73487411  0.18565415  1
  O  O24  1  0.66173523  0.18565415  0.73487411  1
  O  O25  1  0.33927942  0.26449499  0.81465752  1
  O  O26  1  0.33927942  0.81465752  0.26449499  1
