# generated using pymatgen
data_CrP8W3
_symmetry_space_group_name_H-M   'P 1'
_cell_length_a   3.15287008
_cell_length_b   4.51058189
_cell_length_c   13.00052567
_cell_angle_alpha   85.01863578
_cell_angle_beta   90.00000000
_cell_angle_gamma   110.45656200
_symmetry_Int_Tables_number   1
_chemical_formula_structural   CrP8W3
_chemical_formula_sum   'Cr1 P8 W3'
_cell_volume   172.47932472
_cell_formula_units_Z   1
loop_
 _symmetry_equiv_pos_site_id
 _symmetry_equiv_pos_as_xyz
  1  'x, y, z'
loop_
 _atom_site_type_symbol
 _atom_site_label
 _atom_site_symmetry_multiplicity
 _atom_site_fract_x
 _atom_site_fract_y
 _atom_site_fract_z
 _atom_site_occupancy
  Cr  Cr0  1  0.44579590  0.89159179  0.39636745  1
  P  P1  1  0.14995319  0.29990638  0.44579627  1
  P  P2  1  0.65064388  0.30128776  0.95062988  1
  P  P3  1  0.34828903  0.69657806  0.05373369  1
  P  P4  1  0.85036233  0.70072467  0.54161367  1
  P  P5  1  0.87738649  0.75477298  0.27109270  1
  P  P6  1  0.37605656  0.75211312  0.75972382  1
  P  P7  1  0.62133034  0.24266067  0.24534082  1
  P  P8  1  0.12515822  0.25031645  0.73457640  1
  W  W9  1  0.94518379  0.89036758  0.89644436  1
  W  W10  1  0.05396305  0.10792611  0.10710790  1
  W  W11  1  0.55587722  0.11175443  0.59757306  1
