# generated using pymatgen
data_Dy4MnSe7
_symmetry_space_group_name_H-M   'P 1'
_cell_length_a   3.96299101
_cell_length_b   6.84640701
_cell_length_c   12.04010509
_cell_angle_alpha   104.25915558
_cell_angle_beta   89.99999995
_cell_angle_gamma   73.17668728
_symmetry_Int_Tables_number   1
_chemical_formula_structural   Dy4MnSe7
_chemical_formula_sum   'Dy4 Mn1 Se7'
_cell_volume   302.16436404
_cell_formula_units_Z   1
loop_
 _symmetry_equiv_pos_site_id
 _symmetry_equiv_pos_as_xyz
  1  'x, y, z'
loop_
 _atom_site_type_symbol
 _atom_site_label
 _atom_site_symmetry_multiplicity
 _atom_site_fract_x
 _atom_site_fract_y
 _atom_site_fract_z
 _atom_site_occupancy
  Dy  Dy0  1  0.69334811  0.61330379  0.20372638  1
  Dy  Dy1  1  0.30620558  0.38758883  0.80182521  1
  Dy  Dy2  1  0.99949021  0.00101958  0.00602625  1
  Dy  Dy3  1  0.11405426  0.77189147  0.56656342  1
  Mn  Mn4  1  0.88412051  0.23175899  0.42264696  1
  Se  Se5  1  0.74474295  0.51051411  0.63973302  1
  Se  Se6  1  0.26897552  0.46204896  0.35239847  1
  Se  Se7  1  0.33766502  0.32466995  0.05039856  1
  Se  Se8  1  0.66055701  0.67888598  0.94954276  1
  Se  Se9  1  0.03350233  0.93299535  0.22604118  1
  Se  Se10  1  0.96382186  0.07235627  0.78454853  1
  Se  Se11  1  0.49351663  0.01296673  0.49654924  1
