# generated using pymatgen
data_Ho20Cu6(Pb3S14)3
_symmetry_space_group_name_H-M   'P 1'
_cell_length_a   8.81661250
_cell_length_b   14.37190459
_cell_length_c   15.60110475
_cell_angle_alpha   77.94686441
_cell_angle_beta   105.03631169
_cell_angle_gamma   78.18628478
_symmetry_Int_Tables_number   1
_chemical_formula_structural   Ho20Cu6(Pb3S14)3
_chemical_formula_sum   'Ho20 Cu6 Pb9 S42'
_cell_volume   1795.54669577
_cell_formula_units_Z   1
loop_
 _symmetry_equiv_pos_site_id
 _symmetry_equiv_pos_as_xyz
  1  'x, y, z'
loop_
 _atom_site_type_symbol
 _atom_site_label
 _atom_site_symmetry_multiplicity
 _atom_site_fract_x
 _atom_site_fract_y
 _atom_site_fract_z
 _atom_site_occupancy
  Ho  Ho0  1  0.30047297  0.59794013  0.45939071  1
  Ho  Ho1  1  0.13823486  0.42948801  0.62737553  1
  Ho  Ho2  1  0.46683728  0.76606556  0.29228913  1
  Ho  Ho3  1  0.96987583  0.26227678  0.79111379  1
  Ho  Ho4  1  0.79963525  0.09542165  0.95752019  1
  Ho  Ho5  1  0.63213341  0.93151235  0.12342893  1
  Ho  Ho6  1  0.66586512  0.16387656  0.33187692  1
  Ho  Ho7  1  0.51523903  0.99912545  0.50922581  1
  Ho  Ho8  1  0.83833719  0.32869970  0.16907752  1
  Ho  Ho9  1  0.32552507  0.83698010  0.66648074  1
  Ho  Ho10  1  0.16786163  0.67218771  0.83365147  1
  Ho  Ho11  1  0.00046229  0.50049626  0.00066300  1
  Ho  Ho12  1  0.69940237  0.38631946  0.52888247  1
  Ho  Ho13  1  0.54097844  0.20966991  0.69339674  1
  Ho  Ho14  1  0.86785699  0.54981079  0.36282289  1
  Ho  Ho15  1  0.35879070  0.05042893  0.85587935  1
  Ho  Ho16  1  0.19567366  0.88381066  0.02235115  1
  Ho  Ho17  1  0.02944596  0.71926285  0.19200544  1
  Ho  Ho18  1  0.73926899  0.81011295  0.87090305  1
  Ho  Ho19  1  0.05502158  0.12775089  0.55410921  1
  Cu  Cu20  1  0.52720450  0.97932918  0.29880636  1
  Cu  Cu21  1  0.19053053  0.64800891  0.63138679  1
  Cu  Cu22  1  0.85832880  0.31153119  0.96471257  1
  Cu  Cu23  1  0.02616612  0.48214050  0.79944809  1
  Cu  Cu24  1  0.69276212  0.14445489  0.13265705  1
  Cu  Cu25  1  0.35841814  0.81477603  0.46623868  1
  Pb  Pb26  1  0.93021466  0.86697208  0.45262834  1
  Pb  Pb27  1  0.76270069  0.70136571  0.61861331  1
  Pb  Pb28  1  0.09590336  0.03139713  0.28365063  1
  Pb  Pb29  1  0.58995084  0.53619268  0.78066799  1
  Pb  Pb30  1  0.42515720  0.36731504  0.94792923  1
  Pb  Pb31  1  0.25808829  0.19804513  0.11241728  1
  Pb  Pb32  1  0.24071630  0.29975586  0.38467210  1
  Pb  Pb33  1  0.57461727  0.63439285  0.05134062  1
  Pb  Pb34  1  0.41018913  0.46620462  0.21853548  1
  S  S35  1  0.75976618  0.00811745  0.26264239  1
  S  S36  1  0.59287119  0.84601433  0.43295585  1
  S  S37  1  0.92557510  0.17510276  0.09684170  1
  S  S38  1  0.42386378  0.67841300  0.59607340  1
  S  S39  1  0.25930075  0.51233764  0.76412819  1
  S  S40  1  0.08857799  0.34519877  0.92876649  1
  S  S41  1  0.20640555  0.99572412  0.71403756  1
  S  S42  1  0.03820132  0.82310168  0.88723654  1
  S  S43  1  0.36162899  0.15258419  0.55695787  1
  S  S44  1  0.87527538  0.66803842  0.04115170  1
  S  S45  1  0.72674296  0.48510793  0.22321160  1
  S  S46  1  0.55709081  0.31868493  0.39031586  1
  S  S47  1  0.81927421  0.20279305  0.64409240  1
  S  S48  1  0.64447861  0.02704452  0.81929269  1
  S  S49  1  0.98012542  0.36288779  0.48673894  1
  S  S50  1  0.48191683  0.86898763  0.97776479  1
  S  S51  1  0.30879869  0.70572354  0.15016236  1
  S  S52  1  0.14176557  0.53933974  0.31490156  1
  S  S53  1  0.80241201  0.03837066  0.50318547  1
  S  S54  1  0.62536861  0.86394185  0.67725263  1
  S  S55  1  0.96192529  0.19650861  0.34390412  1
  S  S56  1  0.46850818  0.70583688  0.83644193  1
  S  S57  1  0.29069547  0.53361325  0.00022186  1
  S  S58  1  0.12576527  0.36539709  0.16761762  1
  S  S59  1  0.25954715  0.24409518  0.74915142  1
  S  S60  1  0.09186875  0.07996691  0.91951864  1
  S  S61  1  0.42228696  0.40755804  0.58186958  1
  S  S62  1  0.92146045  0.91181975  0.08178597  1
  S  S63  1  0.75133008  0.74280840  0.24606616  1
  S  S64  1  0.58642952  0.57787800  0.41342863  1
  S  S65  1  0.21009866  0.95842453  0.48968944  1
  S  S66  1  0.04039378  0.78548996  0.65412586  1
  S  S67  1  0.37810855  0.11753255  0.32630820  1
  S  S68  1  0.87380659  0.62515415  0.82225634  1
  S  S69  1  0.70954609  0.45188181  0.98939235  1
  S  S70  1  0.54287583  0.28643734  0.15433109  1
  S  S71  1  0.18953061  0.78305269  0.34034964  1
  S  S72  1  0.02469739  0.61234073  0.50667519  1
  S  S73  1  0.35669559  0.94910249  0.17214325  1
  S  S74  1  0.85914872  0.44919371  0.67449526  1
  S  S75  1  0.69145545  0.27862647  0.83713584  1
  S  S76  1  0.52218612  0.11531597  0.00556606  1
