# generated using pymatgen
data_CeUZn17
_symmetry_space_group_name_H-M   'P 1'
_cell_length_a   6.82651027
_cell_length_b   6.82651027
_cell_length_c   6.82651027
_cell_angle_alpha   82.30302196
_cell_angle_beta   82.30302196
_cell_angle_gamma   82.30303113
_symmetry_Int_Tables_number   1
_chemical_formula_structural   CeUZn17
_chemical_formula_sum   'Ce1 U1 Zn17'
_cell_volume   310.23034414
_cell_formula_units_Z   1
loop_
 _symmetry_equiv_pos_site_id
 _symmetry_equiv_pos_as_xyz
  1  'x, y, z'
loop_
 _atom_site_type_symbol
 _atom_site_label
 _atom_site_symmetry_multiplicity
 _atom_site_fract_x
 _atom_site_fract_y
 _atom_site_fract_z
 _atom_site_occupancy
  Ce  Ce0  1  0.66438187  0.66438187  0.66438187  1
  U  U1  1  0.33491216  0.33491216  0.33491216  1
  Zn  Zn2  1  0.29680490  0.70223807  0.00097939  1
  Zn  Zn3  1  0.70223807  0.00097939  0.29680490  1
  Zn  Zn4  1  0.00097939  0.29680490  0.70223807  1
  Zn  Zn5  1  0.29680490  0.00097939  0.70223807  1
  Zn  Zn6  1  0.00097939  0.70223807  0.29680490  1
  Zn  Zn7  1  0.70223807  0.29680490  0.00097939  1
  Zn  Zn8  1  0.84072073  0.35116552  0.35116552  1
  Zn  Zn9  1  0.35116552  0.35116552  0.84072073  1
  Zn  Zn10  1  0.35116552  0.84072073  0.35116552  1
  Zn  Zn11  1  0.16128826  0.64670576  0.64670576  1
  Zn  Zn12  1  0.64670576  0.64670576  0.16128826  1
  Zn  Zn13  1  0.64670576  0.16128826  0.64670576  1
  Zn  Zn14  1  0.00091413  0.00091413  0.49921136  1
  Zn  Zn15  1  0.00091413  0.49921136  0.00091413  1
  Zn  Zn16  1  0.49921136  0.00091413  0.00091413  1
  Zn  Zn17  1  0.89956701  0.89956701  0.89956701  1
  Zn  Zn18  1  0.10230309  0.10230309  0.10230309  1
