# generated using pymatgen
data_Ce4Bi8Pd3
_symmetry_space_group_name_H-M   'P 1'
_cell_length_a   4.67526118
_cell_length_b   4.67526118
_cell_length_c   19.20934438
_cell_angle_alpha   90.00000000
_cell_angle_beta   90.00000000
_cell_angle_gamma   90.00000000
_symmetry_Int_Tables_number   1
_chemical_formula_structural   Ce4Bi8Pd3
_chemical_formula_sum   'Ce4 Bi8 Pd3'
_cell_volume   419.87913843
_cell_formula_units_Z   1
loop_
 _symmetry_equiv_pos_site_id
 _symmetry_equiv_pos_as_xyz
  1  'x, y, z'
loop_
 _atom_site_type_symbol
 _atom_site_label
 _atom_site_symmetry_multiplicity
 _atom_site_fract_x
 _atom_site_fract_y
 _atom_site_fract_z
 _atom_site_occupancy
  Ce  Ce0  1  0.75000000  0.75000000  0.36171593  1
  Ce  Ce1  1  0.75000000  0.75000000  0.86629272  1
  Ce  Ce2  1  0.25000000  0.25000000  0.13828407  1
  Ce  Ce3  1  0.25000000  0.25000000  0.63370728  1
  Bi  Bi4  1  0.75000000  0.75000000  0.17014252  1
  Bi  Bi5  1  0.75000000  0.75000000  0.66253934  1
  Bi  Bi6  1  0.25000000  0.25000000  0.32985748  1
  Bi  Bi7  1  0.25000000  0.25000000  0.83746066  1
  Bi  Bi8  1  0.75000000  0.25000000  0.00064023  1
  Bi  Bi9  1  0.75000000  0.25000000  0.49935977  1
  Bi  Bi10  1  0.25000000  0.75000000  0.00046463  1
  Bi  Bi11  1  0.25000000  0.75000000  0.49953537  1
  Pd  Pd12  1  0.75000000  0.25000000  0.75000000  1
  Pd  Pd13  1  0.25000000  0.75000000  0.25000000  1
  Pd  Pd14  1  0.25000000  0.75000000  0.75000000  1
