# generated using pymatgen
data_CaMg(PSe3)2
_symmetry_space_group_name_H-M   'P 1'
_cell_length_a   6.63801676
_cell_length_b   6.63801677
_cell_length_c   8.19329043
_cell_angle_alpha   66.10332578
_cell_angle_beta   66.10332576
_cell_angle_gamma   60.00000622
_symmetry_Int_Tables_number   1
_chemical_formula_structural   CaMg(PSe3)2
_chemical_formula_sum   'Ca1 Mg1 P2 Se6'
_cell_volume   276.34272274
_cell_formula_units_Z   1
loop_
 _symmetry_equiv_pos_site_id
 _symmetry_equiv_pos_as_xyz
  1  'x, y, z'
loop_
 _atom_site_type_symbol
 _atom_site_label
 _atom_site_symmetry_multiplicity
 _atom_site_fract_x
 _atom_site_fract_y
 _atom_site_fract_z
 _atom_site_occupancy
  Ca  Ca0  1  0.16843601  0.16843601  0.49469196  1
  Mg  Mg1  1  0.83170170  0.83170170  0.50489490  1
  P  P2  1  0.44805871  0.44805871  0.65582388  1
  P  P3  1  0.55238857  0.55238857  0.34283430  1
  Se  Se4  1  0.72396666  0.08663373  0.74652198  1
  Se  Se5  1  0.08663373  0.44287762  0.74652198  1
  Se  Se6  1  0.44287762  0.72396666  0.74652198  1
  Se  Se7  1  0.24549123  0.88261404  0.25406301  1
  Se  Se8  1  0.88261404  0.61783172  0.25406301  1
  Se  Se9  1  0.61783172  0.24549123  0.25406301  1
