# generated using pymatgen
data_CsAlSi5O12
_symmetry_space_group_name_H-M   'P 1'
_cell_length_a   5.10394431
_cell_length_b   7.43077298
_cell_length_c   17.35443366
_cell_angle_alpha   89.83632596
_cell_angle_beta   89.52341278
_cell_angle_gamma   69.91383457
_symmetry_Int_Tables_number   1
_chemical_formula_structural   CsAlSi5O12
_chemical_formula_sum   'Cs2 Al2 Si10 O24'
_cell_volume   618.13435826
_cell_formula_units_Z   2
loop_
 _symmetry_equiv_pos_site_id
 _symmetry_equiv_pos_as_xyz
  1  'x, y, z'
loop_
 _atom_site_type_symbol
 _atom_site_label
 _atom_site_symmetry_multiplicity
 _atom_site_fract_x
 _atom_site_fract_y
 _atom_site_fract_z
 _atom_site_occupancy
  Cs  Cs0  1  0.81007504  0.41080319  0.26784892  1
  Cs  Cs1  1  0.22087823  0.58919681  0.76784892  1
  Al  Al2  1  0.98625580  0.85333267  0.34169590  1
  Al  Al3  1  0.83958848  0.14666733  0.84169590  1
  Si  Si4  1  0.36671880  0.05006151  0.41154641  1
  Si  Si5  1  0.42886684  0.95004395  0.58681580  1
  Si  Si6  1  0.37891078  0.04995605  0.08681580  1
  Si  Si7  1  0.41678031  0.94993849  0.91154641  1
  Si  Si8  1  0.30024492  0.48366220  0.44607416  1
  Si  Si9  1  0.77974845  0.52039885  0.55141857  1
  Si  Si10  1  0.30014731  0.47960115  0.05141857  1
  Si  Si11  1  0.78390712  0.51633780  0.94607416  1
  Si  Si12  1  0.84429414  0.15007849  0.65460085  1
  Si  Si13  1  0.99437263  0.84992151  0.15460085  1
  O  O14  1  0.12124643  0.03724661  0.35582872  1
  O  O15  1  0.16304412  0.99192093  0.64651094  1
  O  O16  1  0.15496506  0.00807907  0.14651094  1
  O  O17  1  0.15849304  0.96275339  0.85582872  1
  O  O18  1  0.21182412  0.63367975  0.37644202  1
  O  O19  1  0.84159770  0.35396758  0.61720007  1
  O  O20  1  0.19556528  0.64603242  0.11720007  1
  O  O21  1  0.84550387  0.36632025  0.87644202  1
  O  O22  1  0.59884693  0.48090828  0.48144020  1
  O  O23  1  0.07575323  0.52758202  0.51825727  1
  O  O24  1  0.60333524  0.47241798  0.01825727  1
  O  O25  1  0.07975521  0.51909172  0.98144020  1
  O  O26  1  0.93753159  0.81843325  0.24344270  1
  O  O27  1  0.75596485  0.18156675  0.74344270  1
  O  O28  1  0.66787771  0.90624854  0.38770046  1
  O  O29  1  0.62189243  0.07752974  0.60771737  1
  O  O30  1  0.69942218  0.92247026  0.10771737  1
  O  O31  1  0.57412626  0.09375146  0.88770046  1
  O  O32  1  0.30204173  0.00331145  0.50144419  1
  O  O33  1  0.30535318  0.99668855  0.00144419  1
  O  O34  1  0.35004473  0.27540407  0.40729824  1
  O  O35  1  0.61386693  0.72184360  0.59671721  1
  O  O36  1  0.33571054  0.27815640  0.09671721  1
  O  O37  1  0.62544880  0.72459593  0.90729824  1
