# generated using pymatgen
data_CaLaSi4
_symmetry_space_group_name_H-M   'P 1'
_cell_length_a   4.37240607
_cell_length_b   4.37240607
_cell_length_c   7.40989250
_cell_angle_alpha   72.84015834
_cell_angle_beta   72.84015834
_cell_angle_gamma   90.00000000
_symmetry_Int_Tables_number   1
_chemical_formula_structural   CaLaSi4
_chemical_formula_sum   'Ca1 La1 Si4'
_cell_volume   128.74128531
_cell_formula_units_Z   1
loop_
 _symmetry_equiv_pos_site_id
 _symmetry_equiv_pos_as_xyz
  1  'x, y, z'
loop_
 _atom_site_type_symbol
 _atom_site_label
 _atom_site_symmetry_multiplicity
 _atom_site_fract_x
 _atom_site_fract_y
 _atom_site_fract_z
 _atom_site_occupancy
  Ca  Ca0  1  0.75000000  0.25000000  0.50000000  1
  La  La1  1  -0.00000000  0.00000000  -0.00000000  1
  Si  Si2  1  0.33614406  0.83614406  0.32771188  1
  Si  Si3  1  0.41411339  0.41411339  0.17177323  1
  Si  Si4  1  0.16385594  0.66385594  0.67228812  1
  Si  Si5  1  0.58588661  0.58588661  0.82822677  1
