# generated using pymatgen
data_Be4NbMo
_symmetry_space_group_name_H-M   'P 1'
_cell_length_a   4.54343048
_cell_length_b   4.54343048
_cell_length_c   7.41396115
_cell_angle_alpha   90.00761329
_cell_angle_beta   89.99238671
_cell_angle_gamma   119.98234396
_symmetry_Int_Tables_number   1
_chemical_formula_structural   Be4NbMo
_chemical_formula_sum   'Be8 Nb2 Mo2'
_cell_volume   132.56410603
_cell_formula_units_Z   2
loop_
 _symmetry_equiv_pos_site_id
 _symmetry_equiv_pos_as_xyz
  1  'x, y, z'
loop_
 _atom_site_type_symbol
 _atom_site_label
 _atom_site_symmetry_multiplicity
 _atom_site_fract_x
 _atom_site_fract_y
 _atom_site_fract_z
 _atom_site_occupancy
  Be  Be0  1  0.00000000  -0.00000000  0.50000000  1
  Be  Be1  1  0.00000000  -0.00000000  -0.00000000  1
  Be  Be2  1  0.17055228  0.34129523  0.74418425  1
  Be  Be3  1  0.17060317  0.82939683  0.74443542  1
  Be  Be4  1  0.65870477  0.82944772  0.74418425  1
  Be  Be5  1  0.82944772  0.65870477  0.25581575  1
  Be  Be6  1  0.82939683  0.17060317  0.25556458  1
  Be  Be7  1  0.34129523  0.17055228  0.25581575  1
  Nb  Nb8  1  0.33329735  0.66670265  0.07039663  1
  Nb  Nb9  1  0.66670265  0.33329735  0.92960337  1
  Mo  Mo10  1  0.66675392  0.33324608  0.56076124  1
  Mo  Mo11  1  0.33324608  0.66675392  0.43923876  1
