# generated using pymatgen
data_CrRe13B6
_symmetry_space_group_name_H-M   'P 1'
_cell_length_a   4.92665078
_cell_length_b   7.50588572
_cell_length_c   7.50588572
_cell_angle_alpha   119.98098301
_cell_angle_beta   89.99008643
_cell_angle_gamma   90.00991357
_symmetry_Int_Tables_number   1
_chemical_formula_structural   CrRe13B6
_chemical_formula_sum   'Cr1 Re13 B6'
_cell_volume   240.41938884
_cell_formula_units_Z   1
loop_
 _symmetry_equiv_pos_site_id
 _symmetry_equiv_pos_as_xyz
  1  'x, y, z'
loop_
 _atom_site_type_symbol
 _atom_site_label
 _atom_site_symmetry_multiplicity
 _atom_site_fract_x
 _atom_site_fract_y
 _atom_site_fract_z
 _atom_site_occupancy
  Cr  Cr0  1  0.40853932  0.33337138  0.66662862  1
  Re  Re1  1  0.45241292  0.54374412  0.45625588  1
  Re  Re2  1  0.45320389  0.91311356  0.45647624  1
  Re  Re3  1  0.45320389  0.54352376  0.08688644  1
  Re  Re4  1  0.95170484  0.45281451  0.54718549  1
  Re  Re5  1  0.95262436  0.09397856  0.54704217  1
  Re  Re6  1  0.95262436  0.45295783  0.90602144  1
  Re  Re7  1  0.90906292  0.66660272  0.33339728  1
  Re  Re8  1  0.25079036  0.12360513  0.87639487  1
  Re  Re9  1  0.25026788  0.75264896  0.87614645  1
  Re  Re10  1  0.25026788  0.12385355  0.24735104  1
  Re  Re11  1  0.75070305  0.87746909  0.12253091  1
  Re  Re12  1  0.75013756  0.24504952  0.12269644  1
  Re  Re13  1  0.75013756  0.87730356  0.75495048  1
  B  B14  1  0.16110632  0.80986757  0.19013243  1
  B  B15  1  0.16067208  0.38041366  0.18997518  1
  B  B16  1  0.16067208  0.81002482  0.61958634  1
  B  B17  1  0.65286149  0.19246292  0.80753708  1
  B  B18  1  0.65250362  0.61488130  0.80768653  1
  B  B19  1  0.65250362  0.19231347  0.38511870  1
