# generated using pymatgen
data_Ba3SrCa2(WO6)2
_symmetry_space_group_name_H-M   'P 1'
_cell_length_a   5.98435893
_cell_length_b   6.01234399
_cell_length_c   10.37955295
_cell_angle_alpha   89.68411547
_cell_angle_beta   73.23891082
_cell_angle_gamma   60.15636562
_symmetry_Int_Tables_number   1
_chemical_formula_structural   Ba3SrCa2(WO6)2
_chemical_formula_sum   'Ba3 Sr1 Ca2 W2 O12'
_cell_volume   305.85791479
_cell_formula_units_Z   1
loop_
 _symmetry_equiv_pos_site_id
 _symmetry_equiv_pos_as_xyz
  1  'x, y, z'
loop_
 _atom_site_type_symbol
 _atom_site_label
 _atom_site_symmetry_multiplicity
 _atom_site_fract_x
 _atom_site_fract_y
 _atom_site_fract_z
 _atom_site_occupancy
  Ba  Ba0  1  0.24947255  0.37532959  0.12569113  1
  Ba  Ba1  1  0.25053780  0.87466417  0.62431474  1
  Ba  Ba2  1  0.75037455  0.62494491  0.87487804  1
  Sr  Sr3  1  0.74954735  0.12506519  0.37515862  1
  Ca  Ca4  1  0.99971800  0.00010439  0.00054650  1
  Ca  Ca5  1  0.00027015  0.49990376  0.49946950  1
  W  W6  1  0.50053527  0.24964516  0.74878393  1
  W  W7  1  0.49947757  0.75036232  0.25122199  1
  O  O8  1  0.72979374  0.40411054  0.13655463  1
  O  O9  1  0.73058684  0.90534849  0.63327951  1
  O  O10  1  0.27098279  0.59484384  0.86449875  1
  O  O11  1  0.26866477  0.09562978  0.36562736  1
  O  O12  1  0.31337931  0.61045636  0.38273680  1
  O  O13  1  0.30712146  0.11708092  0.88200698  1
  O  O14  1  0.69296843  0.88191376  0.11756025  1
  O  O15  1  0.69434083  0.37895102  0.61380838  1
  O  O16  1  0.76464492  0.66049825  0.34725142  1
  O  O17  1  0.76471753  0.15367316  0.84639978  1
  O  O18  1  0.22831605  0.85067782  0.15711919  1
  O  O19  1  0.23455007  0.34679658  0.65309251  1
