# generated using pymatgen
data_Ba3SrMg4F16
_symmetry_space_group_name_H-M   'P 1'
_cell_length_a   4.12300502
_cell_length_b   9.60655537
_cell_length_c   9.72859527
_cell_angle_alpha   80.00293915
_cell_angle_beta   102.23379717
_cell_angle_gamma   77.60833381
_symmetry_Int_Tables_number   1
_chemical_formula_structural   Ba3SrMg4F16
_chemical_formula_sum   'Ba3 Sr1 Mg4 F16'
_cell_volume   357.98775531
_cell_formula_units_Z   1
loop_
 _symmetry_equiv_pos_site_id
 _symmetry_equiv_pos_as_xyz
  1  'x, y, z'
loop_
 _atom_site_type_symbol
 _atom_site_label
 _atom_site_symmetry_multiplicity
 _atom_site_fract_x
 _atom_site_fract_y
 _atom_site_fract_z
 _atom_site_occupancy
  Ba  Ba0  1  0.92646840  0.42322079  0.27615759  1
  Ba  Ba1  1  0.42696627  0.92200320  0.77593574  1
  Ba  Ba2  1  0.17710641  0.47247771  0.82669052  1
  Sr  Sr3  1  0.68161826  0.97810765  0.34134416  1
  Mg  Mg4  1  0.91172066  0.17369993  0.99714125  1
  Mg  Mg5  1  0.40018467  0.68491541  0.48528474  1
  Mg  Mg6  1  0.15597992  0.76082722  0.07278705  1
  Mg  Mg7  1  0.65696764  0.25804388  0.57197916  1
  F  F8  1  0.53421728  0.62959153  0.69802609  1
  F  F9  1  0.05172534  0.10699969  0.21045037  1
  F  F10  1  0.29085607  0.54535350  0.12706564  1
  F  F11  1  0.78932689  0.04322192  0.62187569  1
  F  F12  1  0.74980814  0.27647194  0.77608822  1
  F  F13  1  0.24556371  0.78238981  0.27351723  1
  F  F14  1  0.99555823  0.97484652  0.96596298  1
  F  F15  1  0.49660993  0.47625910  0.46947896  1
  F  F16  1  0.40210651  0.17939251  0.98360553  1
  F  F17  1  0.89214881  0.69090273  0.47520035  1
  F  F18  1  0.65087784  0.76790484  0.06966052  1
  F  F19  1  0.15034216  0.26991742  0.57060175  1
  F  F20  1  0.81345784  0.38256712  0.00948281  1
  F  F21  1  0.29954052  0.89720428  0.49628532  1
  F  F22  1  0.06179362  0.74171383  0.86530107  1
  F  F23  1  0.56415488  0.23686748  0.36517723  1
