# generated using pymatgen
data_Li9Mn2Co5O16
_symmetry_space_group_name_H-M   'P 1'
_cell_length_a   2.86692944
_cell_length_b   19.60376679
_cell_length_c   5.23871646
_cell_angle_alpha   97.42902390
_cell_angle_beta   90.00000000
_cell_angle_gamma   90.00000000
_symmetry_Int_Tables_number   1
_chemical_formula_structural   Li9Mn2Co5O16
_chemical_formula_sum   'Li9 Mn2 Co5 O16'
_cell_volume   291.95806743
_cell_formula_units_Z   1
loop_
 _symmetry_equiv_pos_site_id
 _symmetry_equiv_pos_as_xyz
  1  'x, y, z'
loop_
 _atom_site_type_symbol
 _atom_site_label
 _atom_site_symmetry_multiplicity
 _atom_site_fract_x
 _atom_site_fract_y
 _atom_site_fract_z
 _atom_site_occupancy
  Li  Li0  1  0.50000000  0.00177151  0.50219504  1
  Li  Li1  1  -0.00000000  0.12789589  0.75012242  1
  Li  Li2  1  0.50000000  0.25158779  0.00158198  1
  Li  Li3  1  0.00000000  0.37588427  0.26749874  1
  Li  Li4  1  0.50000000  0.50187010  0.49847572  1
  Li  Li5  1  -0.00000000  0.87737400  0.25177387  1
  Li  Li6  1  0.50000000  0.74615204  0.00561646  1
  Li  Li7  1  -0.00000000  0.61707708  0.72218255  1
  Li  Li8  1  -0.00000000  0.49987338  0.00209713  1
  Mn  Mn9  1  -0.00000000  0.00038500  0.99958129  1
  Mn  Mn10  1  -0.00000000  0.74875259  0.49822548  1
  Co  Co11  1  0.50000000  0.12706697  0.26163848  1
  Co  Co12  1  -0.00000000  0.25277352  0.49899921  1
  Co  Co13  1  0.50000000  0.38295174  0.79151700  1
  Co  Co14  1  0.50000000  0.61386657  0.20729323  1
  Co  Co15  1  0.50000000  0.87439715  0.73985400  1
  O  O16  1  0.50000000  0.94144230  0.11333253  1
  O  O17  1  0.00000000  0.07058707  0.36846354  1
  O  O18  1  0.50000000  0.19311397  0.62193530  1
  O  O19  1  -0.00000000  0.31804210  0.84641177  1
  O  O20  1  0.50000000  0.43168253  0.10609346  1
  O  O21  1  -0.00000000  0.81436552  0.83343710  1
  O  O22  1  0.50000000  0.69805912  0.63006915  1
  O  O23  1  -0.00000000  0.56648488  0.36950228  1
  O  O24  1  0.50000000  0.05649446  0.88162006  1
  O  O25  1  0.00000000  0.18174948  0.14638665  1
  O  O26  1  0.50000000  0.30547448  0.37100190  1
  O  O27  1  -0.00000000  0.42925607  0.64013077  1
  O  O28  1  0.50000000  0.56858580  0.89058263  1
  O  O29  1  -0.00000000  0.93011919  0.62677930  1
  O  O30  1  0.50000000  0.80487566  0.37721965  1
  O  O31  1  0.00000000  0.68998775  0.17838130  1
