# generated using pymatgen
data_Ca2Al3O6F
_symmetry_space_group_name_H-M   'P 1'
_cell_length_a   7.09846908
_cell_length_b   10.36540315
_cell_length_c   10.32852567
_cell_angle_alpha   114.92563035
_cell_angle_beta   102.94247476
_cell_angle_gamma   103.19873502
_symmetry_Int_Tables_number   1
_chemical_formula_structural   Ca2Al3O6F
_chemical_formula_sum   'Ca8 Al12 O24 F4'
_cell_volume   625.28575468
_cell_formula_units_Z   4
loop_
 _symmetry_equiv_pos_site_id
 _symmetry_equiv_pos_as_xyz
  1  'x, y, z'
loop_
 _atom_site_type_symbol
 _atom_site_label
 _atom_site_symmetry_multiplicity
 _atom_site_fract_x
 _atom_site_fract_y
 _atom_site_fract_z
 _atom_site_occupancy
  Ca  Ca0  1  0.28135635  0.00120584  0.99662183  1
  Ca  Ca1  1  0.71864365  0.99879416  0.00337817  1
  Ca  Ca2  1  0.26040523  0.96993345  0.59783348  1
  Ca  Ca3  1  0.66546382  0.40429284  0.36878887  1
  Ca  Ca4  1  0.30737701  0.64887962  0.03024523  1
  Ca  Ca5  1  0.73959477  0.03006655  0.40216652  1
  Ca  Ca6  1  0.33453618  0.59570716  0.63121113  1
  Ca  Ca7  1  0.69262299  0.35112038  0.96975477  1
  Al  Al8  1  0.16273904  0.27283555  0.31896452  1
  Al  Al9  1  0.84363310  0.67927772  0.95244281  1
  Al  Al10  1  0.89136828  0.04680622  0.72938052  1
  Al  Al11  1  0.83726096  0.72716445  0.68103548  1
  Al  Al12  1  0.15636690  0.32072228  0.04755719  1
  Al  Al13  1  0.10863172  0.95319378  0.27061948  1
  Al  Al14  1  0.50765541  0.76180717  0.45656977  1
  Al  Al15  1  0.05504470  0.54661981  0.30854027  1
  Al  Al16  1  0.74486284  0.69332105  0.23715306  1
  Al  Al17  1  0.49234459  0.23819283  0.54343023  1
  Al  Al18  1  0.94495530  0.45338019  0.69145973  1
  Al  Al19  1  0.25513716  0.30667895  0.76284694  1
  O  O20  1  0.09292788  0.82846499  0.08331985  1
  O  O21  1  0.00706210  0.91392294  0.74356045  1
  O  O22  1  0.26095273  0.25361201  0.16896934  1
  O  O23  1  0.90707212  0.17153501  0.91668015  1
  O  O24  1  0.99293790  0.08607706  0.25643955  1
  O  O25  1  0.73904727  0.74638799  0.83103066  1
  O  O26  1  0.53445781  0.73955476  0.28387108  1
  O  O27  1  0.25362395  0.71840292  0.46242767  1
  O  O28  1  0.79769462  0.54468887  0.25957525  1
  O  O29  1  0.46554219  0.26044524  0.71612892  1
  O  O30  1  0.74637605  0.28159708  0.53757233  1
  O  O31  1  0.20230538  0.45531113  0.74042475  1
  O  O32  1  0.38973109  0.35108468  0.48276056  1
  O  O33  1  0.90487818  0.51513715  0.86604825  1
  O  O34  1  0.03944131  0.13286183  0.64999094  1
  O  O35  1  0.61026891  0.64891532  0.51723944  1
  O  O36  1  0.09512182  0.48486285  0.13395175  1
  O  O37  1  0.96055869  0.86713817  0.35000906  1
  O  O38  1  0.63798080  0.95783157  0.59268182  1
  O  O39  1  0.05044226  0.41219041  0.37151258  1
  O  O40  1  0.67314247  0.63689079  0.04119400  1
  O  O41  1  0.36201920  0.04216843  0.40731818  1
  O  O42  1  0.94955774  0.58780959  0.62848742  1
  O  O43  1  0.32685753  0.36310921  0.95880600  1
  F  F44  1  0.63578078  0.20867780  0.13318897  1
  F  F45  1  0.54618337  0.95122967  0.15326903  1
  F  F46  1  0.36421922  0.79132220  0.86681103  1
  F  F47  1  0.45381663  0.04877033  0.84673097  1
