# generated using pymatgen
data_Ca2MnNbO6
_symmetry_space_group_name_H-M   'P 1'
_cell_length_a   5.55182145
_cell_length_b   5.70097319
_cell_length_c   7.65116782
_cell_angle_alpha   90.00000000
_cell_angle_beta   90.59407333
_cell_angle_gamma   90.00000000
_symmetry_Int_Tables_number   1
_chemical_formula_structural   Ca2MnNbO6
_chemical_formula_sum   'Ca4 Mn2 Nb2 O12'
_cell_volume   242.15245255
_cell_formula_units_Z   2
loop_
 _symmetry_equiv_pos_site_id
 _symmetry_equiv_pos_as_xyz
  1  'x, y, z'
loop_
 _atom_site_type_symbol
 _atom_site_label
 _atom_site_symmetry_multiplicity
 _atom_site_fract_x
 _atom_site_fract_y
 _atom_site_fract_z
 _atom_site_occupancy
  Ca  Ca0  1  0.50915397  0.54999372  0.25018897  1
  Ca  Ca1  1  0.99084603  0.04999372  0.24981103  1
  Ca  Ca2  1  0.49084603  0.45000628  0.74981103  1
  Ca  Ca3  1  0.00915397  0.95000628  0.75018897  1
  Mn  Mn4  1  0.00000000  0.50000000  0.00000000  1
  Mn  Mn5  1  0.50000000  -0.00000000  0.50000000  1
  Nb  Nb6  1  0.00000000  0.50000000  0.50000000  1
  Nb  Nb7  1  0.50000000  -0.00000000  0.00000000  1
  O  O8  1  0.79191764  0.80314634  0.04700681  1
  O  O9  1  0.70808236  0.30314634  0.45299319  1
  O  O10  1  0.19443273  0.21112497  0.54846307  1
  O  O11  1  0.30556727  0.71112497  0.95153693  1
  O  O12  1  0.20808236  0.19685366  0.95299319  1
  O  O13  1  0.29191764  0.69685366  0.54700681  1
  O  O14  1  0.80556727  0.78887503  0.45153693  1
  O  O15  1  0.69443273  0.28887503  0.04846307  1
  O  O16  1  0.40944861  0.97043144  0.25673800  1
  O  O17  1  0.09055139  0.47043144  0.24326200  1
  O  O18  1  0.59055139  0.02956856  0.74326200  1
  O  O19  1  0.90944861  0.52956856  0.75673800  1
