# generated using pymatgen
data_Ca(ErTe2)2
_symmetry_space_group_name_H-M   'P 1'
_cell_length_a   4.39334554
_cell_length_b   7.76389751
_cell_length_c   7.47859255
_cell_angle_alpha   72.37126158
_cell_angle_beta   90.00000216
_cell_angle_gamma   90.00000368
_symmetry_Int_Tables_number   1
_chemical_formula_structural   Ca(ErTe2)2
_chemical_formula_sum   'Ca1 Er2 Te4'
_cell_volume   243.11158220
_cell_formula_units_Z   1
loop_
 _symmetry_equiv_pos_site_id
 _symmetry_equiv_pos_as_xyz
  1  'x, y, z'
loop_
 _atom_site_type_symbol
 _atom_site_label
 _atom_site_symmetry_multiplicity
 _atom_site_fract_x
 _atom_site_fract_y
 _atom_site_fract_z
 _atom_site_occupancy
  Ca  Ca0  1  0.00000000  0.50000000  0.50000000  1
  Er  Er1  1  0.00000000  0.00000000  0.00000000  1
  Er  Er2  1  0.50000000  0.00000000  0.50000000  1
  Te  Te3  1  0.50000000  0.24302596  0.76040446  1
  Te  Te4  1  1.00000000  0.23590602  0.25501487  1
  Te  Te5  1  0.50000000  0.75697404  0.23959554  1
  Te  Te6  1  0.00000000  0.76409398  0.74498513  1
