# generated using pymatgen
data_Ba4CaMn2MoO12
_symmetry_space_group_name_H-M   'P 1'
_cell_length_a   5.93192593
_cell_length_b   5.93192672
_cell_length_c   10.45039265
_cell_angle_alpha   90.00000003
_cell_angle_beta   73.51205501
_cell_angle_gamma   119.99999905
_symmetry_Int_Tables_number   1
_chemical_formula_structural   Ba4CaMn2MoO12
_chemical_formula_sum   'Ba4 Ca1 Mn2 Mo1 O12'
_cell_volume   300.87294031
_cell_formula_units_Z   1
loop_
 _symmetry_equiv_pos_site_id
 _symmetry_equiv_pos_as_xyz
  1  'x, y, z'
loop_
 _atom_site_type_symbol
 _atom_site_label
 _atom_site_symmetry_multiplicity
 _atom_site_fract_x
 _atom_site_fract_y
 _atom_site_fract_z
 _atom_site_occupancy
  Ba  Ba0  1  0.74667512  0.37333756  0.87998732  1
  Ba  Ba1  1  0.26897862  0.63448931  0.09653206  1
  Ba  Ba2  1  0.40987564  0.20493782  0.38518655  1
  Ba  Ba3  1  0.55284718  0.77642359  0.67072922  1
  Ca  Ca4  1  0.99264742  0.49632371  0.51102888  1
  Mn  Mn5  1  0.00432471  0.00216235  0.99351294  1
  Mn  Mn6  1  0.17870688  0.08935344  0.73193969  1
  Mo  Mo7  1  0.82171640  0.91085820  0.26742539  1
  O  O8  1  0.23025584  0.89479204  0.87495213  1
  O  O9  1  0.78958407  0.89479204  0.87495213  1
  O  O10  1  0.23025584  0.33546380  0.87495213  1
  O  O11  1  0.77247643  0.10469483  0.12282874  1
  O  O12  1  0.20938966  0.10469483  0.12282874  1
  O  O13  1  0.77247643  0.66778160  0.12282874  1
  O  O14  1  0.91879531  0.72285328  0.35835141  1
  O  O15  1  0.44570657  0.72285328  0.35835141  1
  O  O16  1  0.91879531  0.19594202  0.35835141  1
  O  O17  1  0.09275947  0.27548682  0.63175371  1
  O  O18  1  0.55097364  0.27548682  0.63175371  1
  O  O19  1  0.09275947  0.81727265  0.63175371  1
