# generated using pymatgen
data_BaInGa
_symmetry_space_group_name_H-M   'P 1'
_cell_length_a   5.12971942
_cell_length_b   6.49854721
_cell_length_c   6.44899996
_cell_angle_alpha   98.70778859
_cell_angle_beta   113.43536788
_cell_angle_gamma   66.75385635
_symmetry_Int_Tables_number   1
_chemical_formula_structural   BaInGa
_chemical_formula_sum   'Ba2 In2 Ga2'
_cell_volume   181.23105886
_cell_formula_units_Z   2
loop_
 _symmetry_equiv_pos_site_id
 _symmetry_equiv_pos_as_xyz
  1  'x, y, z'
loop_
 _atom_site_type_symbol
 _atom_site_label
 _atom_site_symmetry_multiplicity
 _atom_site_fract_x
 _atom_site_fract_y
 _atom_site_fract_z
 _atom_site_occupancy
  Ba  Ba0  1  0.55198111  0.69923737  0.80319960  1
  Ba  Ba1  1  0.44801889  0.30076263  0.19680040  1
  In  In2  1  0.16712164  0.25837322  0.59261649  1
  In  In3  1  0.83287836  0.74162678  0.40738351  1
  Ga  Ga4  1  0.84690964  0.08582611  0.77964538  1
  Ga  Ga5  1  0.15309036  0.91417389  0.22035462  1
