# generated using pymatgen
data_Ca8Al9Fe3Si12(HO13)4
_symmetry_space_group_name_H-M   'P 1'
_cell_length_a   5.69442150
_cell_length_b   8.99338614
_cell_length_c   18.59195246
_cell_angle_alpha   89.59233830
_cell_angle_beta   90.00000000
_cell_angle_gamma   90.00000000
_symmetry_Int_Tables_number   1
_chemical_formula_structural   Ca8Al9Fe3Si12(HO13)4
_chemical_formula_sum   'Ca8 Al9 Fe3 Si12 H4 O52'
_cell_volume   952.10941174
_cell_formula_units_Z   1
loop_
 _symmetry_equiv_pos_site_id
 _symmetry_equiv_pos_as_xyz
  1  'x, y, z'
loop_
 _atom_site_type_symbol
 _atom_site_label
 _atom_site_symmetry_multiplicity
 _atom_site_fract_x
 _atom_site_fract_y
 _atom_site_fract_z
 _atom_site_occupancy
  Ca  Ca0  1  0.25000000  0.10414456  0.29024894  1
  Ca  Ca1  1  0.25000000  0.60545118  0.78945790  1
  Ca  Ca2  1  0.75000000  0.39497239  0.20984235  1
  Ca  Ca3  1  0.75000000  0.89471358  0.71010899  1
  Ca  Ca4  1  0.25000000  0.81874493  0.42315637  1
  Ca  Ca5  1  0.25000000  0.31831315  0.92309183  1
  Ca  Ca6  1  0.75000000  0.68181505  0.07672979  1
  Ca  Ca7  1  0.75000000  0.18166724  0.57577190  1
  Al  Al8  1  0.50054311  0.75074428  0.25042203  1
  Al  Al9  1  0.50009299  0.24997477  0.74984686  1
  Al  Al10  1  0.99945689  0.75074428  0.25042203  1
  Al  Al11  1  0.99990701  0.24997477  0.74984686  1
  Al  Al12  1  0.50052852  0.49717737  0.49896883  1
  Al  Al13  1  0.49992067  0.99993314  0.99992695  1
  Al  Al14  1  0.00007933  0.99993314  0.99992695  1
  Al  Al15  1  0.99947148  0.49717737  0.49896883  1
  Al  Al16  1  0.75000000  0.32361980  0.38542058  1
  Fe  Fe17  1  0.75000000  0.81896053  0.88817140  1
  Fe  Fe18  1  0.25000000  0.18112740  0.11166547  1
  Fe  Fe19  1  0.25000000  0.68008411  0.61122096  1
  Si  Si20  1  0.25000000  0.47342241  0.34183610  1
  Si  Si21  1  0.25000000  0.97567664  0.84052293  1
  Si  Si22  1  0.75000000  0.02429357  0.15938756  1
  Si  Si23  1  0.75000000  0.52434665  0.65903126  1
  Si  Si24  1  0.25000000  0.18527910  0.47640439  1
  Si  Si25  1  0.25000000  0.68552068  0.97701160  1
  Si  Si26  1  0.75000000  0.31438853  0.02297753  1
  Si  Si27  1  0.75000000  0.81414440  0.52273424  1
  Si  Si28  1  0.75000000  0.95881987  0.36344529  1
  Si  Si29  1  0.75000000  0.45143472  0.86246572  1
  Si  Si30  1  0.25000000  0.54874798  0.13766522  1
  Si  Si31  1  0.25000000  0.04843927  0.63731092  1
  H  H32  1  0.75000000  0.60679610  0.33658748  1
  H  H33  1  0.75000000  0.10727942  0.83639704  1
  H  H34  1  0.25000000  0.89239344  0.16386927  1
  H  H35  1  0.25000000  0.39274157  0.66361200  1
  O  O36  1  0.75000000  0.50315509  0.43359281  1
  O  O37  1  0.75000000  0.01418912  0.93588839  1
  O  O38  1  0.25000000  0.98585891  0.06422976  1
  O  O39  1  0.25000000  0.48503630  0.56356424  1
  O  O40  1  0.48620447  0.37322883  0.32488872  1
  O  O41  1  0.48121538  0.87417756  0.82126766  1
  O  O42  1  0.98098808  0.12595530  0.17901178  1
  O  O43  1  0.98126850  0.62565414  0.67866835  1
  O  O44  1  0.51901192  0.12595530  0.17901178  1
  O  O45  1  0.51873150  0.62565414  0.67866835  1
  O  O46  1  0.01379553  0.37322883  0.32488872  1
  O  O47  1  0.01878462  0.87417756  0.82126766  1
  O  O48  1  0.25000000  0.53114612  0.42743760  1
  O  O49  1  0.25000000  0.03055127  0.92703997  1
  O  O50  1  0.75000000  0.96951474  0.07298993  1
  O  O51  1  0.75000000  0.46937084  0.57244718  1
  O  O52  1  0.75000000  0.63197150  0.28492383  1
  O  O53  1  0.75000000  0.13155208  0.78468935  1
  O  O54  1  0.25000000  0.86804206  0.21560364  1
  O  O55  1  0.25000000  0.36859809  0.71534824  1
  O  O56  1  0.75000000  0.13641613  0.35199126  1
  O  O57  1  0.75000000  0.62709095  0.84619096  1
  O  O58  1  0.25000000  0.37296251  0.15435479  1
  O  O59  1  0.25000000  0.87252022  0.65351383  1
  O  O60  1  0.25000000  0.07360007  0.41077985  1
  O  O61  1  0.25000000  0.57521555  0.91085048  1
  O  O62  1  0.75000000  0.42462765  0.08925237  1
  O  O63  1  0.75000000  0.92418536  0.58906689  1
  O  O64  1  0.25000000  0.63535501  0.29720759  1
  O  O65  1  0.25000000  0.13769614  0.79706647  1
  O  O66  1  0.75000000  0.86220947  0.20278343  1
  O  O67  1  0.75000000  0.36261370  0.70288482  1
  O  O68  1  0.49566432  0.28612257  0.47890613  1
  O  O69  1  0.49450731  0.78761936  0.98068692  1
  O  O70  1  0.99465345  0.21240670  0.01952337  1
  O  O71  1  0.99270573  0.71069819  0.51826161  1
  O  O72  1  0.50534655  0.21240670  0.01952337  1
  O  O73  1  0.50729427  0.71069819  0.51826161  1
  O  O74  1  0.00433568  0.28612257  0.47890613  1
  O  O75  1  0.00549269  0.78761936  0.98068692  1
  O  O76  1  0.51517693  0.87993009  0.32922917  1
  O  O77  1  0.51285810  0.37446897  0.82985012  1
  O  O78  1  0.01268954  0.62553677  0.17035934  1
  O  O79  1  0.01283535  0.12532281  0.67014252  1
  O  O80  1  0.48731046  0.62553677  0.17035934  1
  O  O81  1  0.48716465  0.12532281  0.67014252  1
  O  O82  1  0.98482307  0.87993009  0.32922917  1
  O  O83  1  0.98714190  0.37446897  0.82985012  1
  O  O84  1  0.75000000  0.92005090  0.44994527  1
  O  O85  1  0.75000000  0.41940937  0.94979779  1
  O  O86  1  0.25000000  0.58046140  0.05034286  1
  O  O87  1  0.25000000  0.08135950  0.55015067  1
