# generated using pymatgen
data_Ca8Al9Fe3Si12(HO13)4
_symmetry_space_group_name_H-M   'P 1'
_cell_length_a   5.69885555
_cell_length_b   10.34584011
_cell_length_c   16.30143966
_cell_angle_alpha   81.63744371
_cell_angle_beta   90.00000000
_cell_angle_gamma   90.00000000
_symmetry_Int_Tables_number   1
_chemical_formula_structural   Ca8Al9Fe3Si12(HO13)4
_chemical_formula_sum   'Ca8 Al9 Fe3 Si12 H4 O52'
_cell_volume   950.90482582
_cell_formula_units_Z   1
loop_
 _symmetry_equiv_pos_site_id
 _symmetry_equiv_pos_as_xyz
  1  'x, y, z'
loop_
 _atom_site_type_symbol
 _atom_site_label
 _atom_site_symmetry_multiplicity
 _atom_site_fract_x
 _atom_site_fract_y
 _atom_site_fract_z
 _atom_site_occupancy
  Ca  Ca0  1  0.25000000  0.48529606  0.09208199  1
  Ca  Ca1  1  0.25000000  0.98506574  0.59159060  1
  Ca  Ca2  1  0.75000000  0.51488918  0.90827783  1
  Ca  Ca3  1  0.75000000  0.01485227  0.40824009  1
  Ca  Ca4  1  0.25000000  0.54522370  0.30182523  1
  Ca  Ca5  1  0.25000000  0.04503616  0.80218861  1
  Ca  Ca6  1  0.75000000  0.45487824  0.69778222  1
  Ca  Ca7  1  0.75000000  0.95410598  0.19770662  1
  Al  Al8  1  0.49994484  0.74995805  0.75014655  1
  Al  Al9  1  0.50036003  0.25041712  0.24983154  1
  Al  Al10  1  0.99963997  0.25041712  0.24983154  1
  Al  Al11  1  0.00005516  0.74995805  0.75014655  1
  Al  Al12  1  0.49999215  0.50009596  0.49994020  1
  Al  Al13  1  0.50064299  0.99787041  0.00043982  1
  Al  Al14  1  0.99935701  0.99787041  0.00043982  1
  Al  Al15  1  0.00000785  0.50009596  0.49994020  1
  Al  Al16  1  0.75000000  0.74046643  0.03222983  1
  Fe  Fe17  1  0.75000000  0.24214458  0.53499523  1
  Fe  Fe18  1  0.25000000  0.25732571  0.96522975  1
  Fe  Fe19  1  0.25000000  0.75786753  0.46482418  1
  Si  Si20  1  0.25000000  0.74907316  0.93398555  1
  Si  Si21  1  0.25000000  0.24919132  0.43242500  1
  Si  Si22  1  0.75000000  0.25046730  0.06748374  1
  Si  Si23  1  0.75000000  0.75088552  0.56753428  1
  Si  Si24  1  0.75000000  0.52328475  0.20274348  1
  Si  Si25  1  0.75000000  0.01967365  0.70528229  1
  Si  Si26  1  0.25000000  0.48027043  0.79471318  1
  Si  Si27  1  0.25000000  0.98024788  0.29452932  1
  Si  Si28  1  0.25000000  0.80623331  0.14518629  1
  Si  Si29  1  0.25000000  0.30679322  0.64558406  1
  Si  Si30  1  0.75000000  0.19314781  0.85438710  1
  Si  Si31  1  0.75000000  0.69312585  0.35419653  1
  H  H32  1  0.75000000  0.81001977  0.86458977  1
  H  H33  1  0.75000000  0.31038023  0.36434968  1
  H  H34  1  0.25000000  0.18970539  0.13563989  1
  H  H35  1  0.25000000  0.68981699  0.63565576  1
  O  O36  1  0.49578474  0.86058179  0.09610646  1
  O  O37  1  0.49389280  0.36366952  0.59648788  1
  O  O38  1  0.99277355  0.13527704  0.90373243  1
  O  O39  1  0.99381259  0.63633487  0.40357237  1
  O  O40  1  0.50722645  0.13527704  0.90373243  1
  O  O41  1  0.50618741  0.63633487  0.40357237  1
  O  O42  1  0.00421526  0.86058179  0.09610646  1
  O  O43  1  0.00610720  0.36366952  0.59648788  1
  O  O44  1  0.75000000  0.74413205  0.82655947  1
  O  O45  1  0.75000000  0.24430275  0.32649887  1
  O  O46  1  0.25000000  0.25599909  0.17344607  1
  O  O47  1  0.25000000  0.75583758  0.67361457  1
  O  O48  1  0.25000000  0.76239841  0.83085121  1
  O  O49  1  0.25000000  0.26427161  0.32942506  1
  O  O50  1  0.75000000  0.23609445  0.17024225  1
  O  O51  1  0.75000000  0.73626108  0.67043869  1
  O  O52  1  0.75000000  0.59253663  0.10734762  1
  O  O53  1  0.75000000  0.08199868  0.60911466  1
  O  O54  1  0.25000000  0.41813647  0.89102980  1
  O  O55  1  0.25000000  0.91800197  0.39083479  1
  O  O56  1  0.75000000  0.63618796  0.26462112  1
  O  O57  1  0.75000000  0.13608034  0.76463305  1
  O  O58  1  0.25000000  0.36385685  0.73538757  1
  O  O59  1  0.25000000  0.86424370  0.23484179  1
  O  O60  1  0.25000000  0.65162771  0.16760716  1
  O  O61  1  0.25000000  0.15213135  0.66729631  1
  O  O62  1  0.75000000  0.34789053  0.83281578  1
  O  O63  1  0.75000000  0.84783317  0.33282433  1
  O  O64  1  0.75000000  0.90280716  0.96522138  1
  O  O65  1  0.75000000  0.41086385  0.46137023  1
  O  O66  1  0.25000000  0.08840492  0.03870632  1
  O  O67  1  0.25000000  0.58907196  0.53874036  1
  O  O68  1  0.48668662  0.67399369  0.97551276  1
  O  O69  1  0.48103730  0.16976881  0.47350180  1
  O  O70  1  0.98092795  0.33034702  0.02645736  1
  O  O71  1  0.98115560  0.83025635  0.52653635  1
  O  O72  1  0.51907205  0.33034702  0.02645736  1
  O  O73  1  0.51884440  0.83025635  0.52653635  1
  O  O74  1  0.01331338  0.67399369  0.97551276  1
  O  O75  1  0.01896270  0.16976881  0.47350180  1
  O  O76  1  0.51513758  0.43346650  0.22620722  1
  O  O77  1  0.51295932  0.93221622  0.72789758  1
  O  O78  1  0.01298443  0.56766344  0.77223437  1
  O  O79  1  0.01305035  0.06784629  0.27219891  1
  O  O80  1  0.48701557  0.56766344  0.77223437  1
  O  O81  1  0.48694965  0.06784629  0.27219891  1
  O  O82  1  0.98486242  0.43346650  0.22620722  1
  O  O83  1  0.98704068  0.93221622  0.72789758  1
  O  O84  1  0.25000000  0.90709065  0.94781008  1
  O  O85  1  0.25000000  0.40659815  0.44790432  1
  O  O86  1  0.75000000  0.09299777  0.05177135  1
  O  O87  1  0.75000000  0.59334882  0.55218042  1
