# generated using pymatgen
data_KSe2O
_symmetry_space_group_name_H-M   'P 1'
_cell_length_a   8.21431364
_cell_length_b   7.36924385
_cell_length_c   8.90892259
_cell_angle_alpha   90.00000000
_cell_angle_beta   124.61422800
_cell_angle_gamma   90.00000000
_symmetry_Int_Tables_number   1
_chemical_formula_structural   KSe2O
_chemical_formula_sum   'K4 Se8 O4'
_cell_volume   443.83011476
_cell_formula_units_Z   4
loop_
 _symmetry_equiv_pos_site_id
 _symmetry_equiv_pos_as_xyz
  1  'x, y, z'
loop_
 _atom_site_type_symbol
 _atom_site_label
 _atom_site_symmetry_multiplicity
 _atom_site_fract_x
 _atom_site_fract_y
 _atom_site_fract_z
 _atom_site_occupancy
  K  K0  1  0.14019688  0.11521935  0.66700753  1
  K  K1  1  0.14019688  0.88478065  0.16700753  1
  K  K2  1  0.63160887  0.57820488  0.16794006  1
  K  K3  1  0.63160887  0.42179512  0.66794006  1
  Se  Se4  1  0.10835830  0.59481399  0.82595570  1
  Se  Se5  1  0.10835830  0.40518601  0.32595570  1
  Se  Se6  1  0.61796045  0.90323848  0.82042684  1
  Se  Se7  1  0.61796045  0.09676152  0.32042684  1
  Se  Se8  1  0.17232522  0.34234097  0.01088232  1
  Se  Se9  1  0.17232522  0.65765903  0.51088232  1
  Se  Se10  1  0.74682288  0.14362135  0.02665447  1
  Se  Se11  1  0.74682288  0.85637865  0.52665447  1
  O  O12  1  0.27243096  0.23750509  0.46657818  1
  O  O13  1  0.27243096  0.76249491  0.96657818  1
  O  O14  1  0.74839643  0.71138060  0.94217489  1
  O  O15  1  0.74839643  0.28861940  0.44217489  1
