# generated using pymatgen
data_Li9Mn2Co5O16
_symmetry_space_group_name_H-M   'P 1'
_cell_length_a   2.88561527
_cell_length_b   17.07324588
_cell_length_c   5.86056682
_cell_angle_alpha   89.81325713
_cell_angle_beta   90.00000000
_cell_angle_gamma   90.00000000
_symmetry_Int_Tables_number   1
_chemical_formula_structural   Li9Mn2Co5O16
_chemical_formula_sum   'Li9 Mn2 Co5 O16'
_cell_volume   288.72995115
_cell_formula_units_Z   1
loop_
 _symmetry_equiv_pos_site_id
 _symmetry_equiv_pos_as_xyz
  1  'x, y, z'
loop_
 _atom_site_type_symbol
 _atom_site_label
 _atom_site_symmetry_multiplicity
 _atom_site_fract_x
 _atom_site_fract_y
 _atom_site_fract_z
 _atom_site_occupancy
  Li  Li0  1  0.50000000  0.13256671  0.25374832  1
  Li  Li1  1  0.50000000  0.37305947  0.75890981  1
  Li  Li2  1  0.50000000  0.62173034  0.24899512  1
  Li  Li3  1  -0.00000000  0.25900721  0.00352539  1
  Li  Li4  1  -0.00000000  0.49004541  0.49376469  1
  Li  Li5  1  -0.00000000  0.74825356  0.00364536  1
  Li  Li6  1  0.50000000  0.87231230  0.75099356  1
  Li  Li7  1  0.00000000  0.00209387  0.49954638  1
  Li  Li8  1  0.50000000  0.37312736  0.24064655  1
  Mn  Mn9  1  0.00000000  0.00232855  0.99901184  1
  Mn  Mn10  1  0.00000000  0.49311085  0.00481603  1
  Co  Co11  1  -0.00000000  0.26615728  0.49285760  1
  Co  Co12  1  -0.00000000  0.74499035  0.49965579  1
  Co  Co13  1  0.50000000  0.62268197  0.75243121  1
  Co  Co14  1  0.50000000  0.87117498  0.25071696  1
  Co  Co15  1  0.50000000  0.13266963  0.74667148  1
  O  O16  1  0.50000000  0.00305106  0.22907643  1
  O  O17  1  0.50000000  0.25033663  0.72958645  1
  O  O18  1  0.50000000  0.49939964  0.22538598  1
  O  O19  1  -0.00000000  0.12638669  0.96834477  1
  O  O20  1  0.00000000  0.37025542  0.50041008  1
  O  O21  1  -0.00000000  0.61575076  0.98568821  1
  O  O22  1  0.50000000  0.74449363  0.73929690  1
  O  O23  1  -0.00000000  0.86984063  0.47600782  1
  O  O24  1  0.50000000  0.24922449  0.26937535  1
  O  O25  1  0.50000000  0.50221358  0.77313032  1
  O  O26  1  0.50000000  0.74767932  0.26616665  1
  O  O27  1  -0.00000000  0.38616793  -0.00225823  1
  O  O28  1  0.00000000  0.62578293  0.51603019  1
  O  O29  1  0.00000000  0.87574665  0.02596969  1
  O  O30  1  0.50000000  -0.00048252  0.77014205  1
  O  O31  1  -0.00000000  0.12884333  0.52771127  1
