# generated using pymatgen
data_Na3CuP2H6NO13
_symmetry_space_group_name_H-M   'P 1'
_cell_length_a   7.42363224
_cell_length_b   8.47174827
_cell_length_c   10.10589184
_cell_angle_alpha   90.00000000
_cell_angle_beta   107.51688505
_cell_angle_gamma   90.00000000
_symmetry_Int_Tables_number   1
_chemical_formula_structural   Na3CuP2H6NO13
_chemical_formula_sum   'Na6 Cu2 P4 H12 N2 O26'
_cell_volume   606.09857770
_cell_formula_units_Z   2
loop_
 _symmetry_equiv_pos_site_id
 _symmetry_equiv_pos_as_xyz
  1  'x, y, z'
loop_
 _atom_site_type_symbol
 _atom_site_label
 _atom_site_symmetry_multiplicity
 _atom_site_fract_x
 _atom_site_fract_y
 _atom_site_fract_z
 _atom_site_occupancy
  Na  Na0  1  0.96169903  0.46577570  0.17737743  1
  Na  Na1  1  0.03830097  0.96577570  0.82262257  1
  Na  Na2  1  0.03830097  0.53422430  0.82262257  1
  Na  Na3  1  0.96169903  0.03422430  0.17737743  1
  Na  Na4  1  0.15719017  0.75000000  0.42786155  1
  Na  Na5  1  0.84280983  0.25000000  0.57213845  1
  Cu  Cu6  1  0.50000000  0.50000000  0.00000000  1
  Cu  Cu7  1  0.50000000  -0.00000000  0.00000000  1
  P  P8  1  0.67199688  0.75000000  0.24067239  1
  P  P9  1  0.32800312  0.25000000  0.75932761  1
  P  P10  1  0.27420154  0.75000000  0.12293344  1
  P  P11  1  0.72579846  0.25000000  0.87706656  1
  H  H12  1  0.19634428  0.39812375  0.47751936  1
  H  H13  1  0.80365572  0.89812375  0.52248064  1
  H  H14  1  0.80365572  0.60187625  0.52248064  1
  H  H15  1  0.19634428  0.10187625  0.47751936  1
  H  H16  1  0.32038358  0.43812346  0.38302433  1
  H  H17  1  0.67961642  0.93812346  0.61697567  1
  H  H18  1  0.67961642  0.56187654  0.61697567  1
  H  H19  1  0.32038358  0.06187654  0.38302433  1
  H  H20  1  0.26353392  0.25000000  0.13990153  1
  H  H21  1  0.73646608  0.75000000  0.86009847  1
  H  H22  1  0.08600807  0.25000000  0.00881230  1
  H  H23  1  0.91399193  0.75000000  0.99118770  1
  N  N24  1  0.62039487  0.25000000  0.27986274  1
  N  N25  1  0.37960513  0.75000000  0.72013726  1
  O  O26  1  0.81170498  0.75000000  0.38626340  1
  O  O27  1  0.18829502  0.25000000  0.61373660  1
  O  O28  1  0.68521060  0.59927280  0.15923387  1
  O  O29  1  0.31478940  0.09927280  0.84076613  1
  O  O30  1  0.31478940  0.40072720  0.84076613  1
  O  O31  1  0.68521060  0.90072720  0.15923387  1
  O  O32  1  0.46069105  0.75000000  0.26010604  1
  O  O33  1  0.53930895  0.25000000  0.73989396  1
  O  O34  1  0.28188852  0.59753350  0.04157762  1
  O  O35  1  0.71811148  0.09753350  0.95842238  1
  O  O36  1  0.71811148  0.40246650  0.95842238  1
  O  O37  1  0.28188852  0.90246650  0.04157762  1
  O  O38  1  0.10429091  0.75000000  0.17765148  1
  O  O39  1  0.89570909  0.25000000  0.82234852  1
  O  O40  1  0.79918479  0.25000000  0.30733561  1
  O  O41  1  0.20081521  0.75000000  0.69266439  1
  O  O42  1  0.54695104  0.25000000  0.37867659  1
  O  O43  1  0.45304896  0.75000000  0.62132341  1
  O  O44  1  0.51459215  0.25000000  0.15549809  1
  O  O45  1  0.48540785  0.75000000  0.84450191  1
  O  O46  1  0.20334688  0.46947787  0.40163031  1
  O  O47  1  0.79665312  0.96947787  0.59836969  1
  O  O48  1  0.79665312  0.53052213  0.59836969  1
  O  O49  1  0.20334688  0.03052213  0.40163031  1
  O  O50  1  0.12353981  0.25000000  0.11079009  1
  O  O51  1  0.87646019  0.75000000  0.88920991  1
