# generated using pymatgen
data_Er20Cu6(Pb3S14)3
_symmetry_space_group_name_H-M   'P 1'
_cell_length_a   8.78340714
_cell_length_b   14.32375459
_cell_length_c   15.54824244
_cell_angle_alpha   77.88705472
_cell_angle_beta   104.99777577
_cell_angle_gamma   78.20977702
_symmetry_Int_Tables_number   1
_chemical_formula_structural   Er20Cu6(Pb3S14)3
_chemical_formula_sum   'Er20 Cu6 Pb9 S42'
_cell_volume   1776.81995118
_cell_formula_units_Z   1
loop_
 _symmetry_equiv_pos_site_id
 _symmetry_equiv_pos_as_xyz
  1  'x, y, z'
loop_
 _atom_site_type_symbol
 _atom_site_label
 _atom_site_symmetry_multiplicity
 _atom_site_fract_x
 _atom_site_fract_y
 _atom_site_fract_z
 _atom_site_occupancy
  Er  Er0  1  0.70069938  0.38517142  0.52871390  1
  Er  Er1  1  0.54306487  0.20765704  0.69310512  1
  Er  Er2  1  0.86852028  0.54908462  0.36270168  1
  Er  Er3  1  0.36015855  0.04918355  0.85586206  1
  Er  Er4  1  0.19679709  0.88313192  0.02232653  1
  Er  Er5  1  0.02998473  0.71861026  0.19172564  1
  Er  Er6  1  0.30056123  0.59688454  0.45853244  1
  Er  Er7  1  0.13879124  0.42792039  0.62670714  1
  Er  Er8  1  0.46648227  0.76546288  0.29160442  1
  Er  Er9  1  0.97078438  0.26092476  0.79051388  1
  Er  Er10  1  0.80025792  0.09420445  0.95680377  1
  Er  Er11  1  0.63198149  0.93078494  0.12262761  1
  Er  Er12  1  0.66718411  0.16254205  0.33140416  1
  Er  Er13  1  0.51436262  0.99847920  0.50832654  1
  Er  Er14  1  0.83919532  0.32749866  0.16837590  1
  Er  Er15  1  0.32708702  0.83539478  0.66639286  1
  Er  Er16  1  0.16889172  0.67069861  0.83331089  1
  Er  Er17  1  0.00120427  0.49971321  0.00025171  1
  Er  Er18  1  0.74229728  0.81124542  0.87100904  1
  Er  Er19  1  0.05525514  0.12719529  0.55621585  1
  Cu  Cu20  1  0.52443949  0.97910359  0.29749076  1
  Cu  Cu21  1  0.18779589  0.64776493  0.62979719  1
  Cu  Cu22  1  0.85473908  0.31169622  0.96253266  1
  Cu  Cu23  1  0.02197492  0.48265987  0.79758774  1
  Cu  Cu24  1  0.68832929  0.14512970  0.13100885  1
  Cu  Cu25  1  0.35481974  0.81490126  0.46468056  1
  Pb  Pb26  1  0.92878342  0.86811729  0.45282199  1
  Pb  Pb27  1  0.76192259  0.70175874  0.61834940  1
  Pb  Pb28  1  0.09382826  0.03367801  0.28395437  1
  Pb  Pb29  1  0.58814233  0.53746403  0.78101979  1
  Pb  Pb30  1  0.42416823  0.36859740  0.94831305  1
  Pb  Pb31  1  0.25591698  0.20034425  0.11234319  1
  Pb  Pb32  1  0.24386526  0.30027895  0.38696319  1
  Pb  Pb33  1  0.57824441  0.63507032  0.05337546  1
  Pb  Pb34  1  0.41456598  0.46627019  0.22082927  1
  S  S35  1  0.80172425  0.03851478  0.50329943  1
  S  S36  1  0.62554306  0.86393007  0.67694708  1
  S  S37  1  0.96146108  0.19705664  0.34380582  1
  S  S38  1  0.46804514  0.70599856  0.83670676  1
  S  S39  1  0.29060251  0.53385595  0.00053655  1
  S  S40  1  0.12532404  0.36606726  0.16773954  1
  S  S41  1  0.18868968  0.78184398  0.33912723  1
  S  S42  1  0.02452645  0.61096165  0.50579823  1
  S  S43  1  0.35612096  0.94802859  0.17087879  1
  S  S44  1  0.85846118  0.44772375  0.67304410  1
  S  S45  1  0.69134342  0.27713163  0.83562353  1
  S  S46  1  0.52182763  0.11424132  0.00393577  1
  S  S47  1  0.20838696  0.99345934  0.71470974  1
  S  S48  1  0.04155659  0.82186976  0.88693647  1
  S  S49  1  0.36287029  0.15057197  0.55766626  1
  S  S50  1  0.87816223  0.66723997  0.04068922  1
  S  S51  1  0.73131346  0.48305572  0.22380183  1
  S  S52  1  0.56126423  0.31633546  0.39112307  1
  S  S53  1  0.20951069  0.95881987  0.49014491  1
  S  S54  1  0.04085749  0.78543223  0.65427251  1
  S  S55  1  0.37809890  0.11812366  0.32654889  1
  S  S56  1  0.87343069  0.62571819  0.82229739  1
  S  S57  1  0.70949047  0.45233043  0.98954493  1
  S  S58  1  0.54259149  0.28701454  0.15477270  1
  S  S59  1  0.58523967  0.57598989  0.41134011  1
  S  S60  1  0.42134129  0.40526971  0.57953244  1
  S  S61  1  0.74990660  0.74113140  0.24403405  1
  S  S62  1  0.25957697  0.24217111  0.74765249  1
  S  S63  1  0.09181915  0.07859083  0.91813121  1
  S  S64  1  0.92077798  0.91047664  0.08010295  1
  S  S65  1  0.75858394  0.00773196  0.26149351  1
  S  S66  1  0.59121614  0.84568378  0.43191007  1
  S  S67  1  0.92420059  0.17478186  0.09544921  1
  S  S68  1  0.42328846  0.67757355  0.59507247  1
  S  S69  1  0.25805974  0.51128549  0.76330993  1
  S  S70  1  0.08762533  0.34489275  0.92759681  1
  S  S71  1  0.82120383  0.20099673  0.64374609  1
  S  S72  1  0.64627293  0.02506391  0.81890974  1
  S  S73  1  0.98085832  0.36187289  0.48633298  1
  S  S74  1  0.48258859  0.86801009  0.97767235  1
  S  S75  1  0.30912625  0.70492366  0.14983252  1
  S  S76  1  0.14201457  0.53860571  0.31435173  1
