# generated using pymatgen
data_Ba8Ti3Co(SiO4)8
_symmetry_space_group_name_H-M   'P 1'
_cell_length_a   5.33081887
_cell_length_b   12.18168786
_cell_length_c   12.18168786
_cell_angle_alpha   90.00000000
_cell_angle_beta   90.00000000
_cell_angle_gamma   90.00000000
_symmetry_Int_Tables_number   1
_chemical_formula_structural   Ba8Ti3Co(SiO4)8
_chemical_formula_sum   'Ba8 Ti3 Co1 Si8 O32'
_cell_volume   791.05897152
_cell_formula_units_Z   1
loop_
 _symmetry_equiv_pos_site_id
 _symmetry_equiv_pos_as_xyz
  1  'x, y, z'
loop_
 _atom_site_type_symbol
 _atom_site_label
 _atom_site_symmetry_multiplicity
 _atom_site_fract_x
 _atom_site_fract_y
 _atom_site_fract_z
 _atom_site_occupancy
  Ba  Ba0  1  0.99633878  0.42307524  0.75012359  1
  Ba  Ba1  1  0.99765077  0.92300470  0.25016139  1
  Ba  Ba2  1  0.99633878  0.57692476  0.24987641  1
  Ba  Ba3  1  0.99765077  0.07699530  0.74983861  1
  Ba  Ba4  1  0.99765077  0.74983861  0.92300470  1
  Ba  Ba5  1  0.99633878  0.24987641  0.42307524  1
  Ba  Ba6  1  0.99765077  0.25016139  0.07699530  1
  Ba  Ba7  1  0.99633878  0.75012359  0.57692476  1
  Ti  Ti8  1  0.53880736  0.50000000  -0.00000000  1
  Ti  Ti9  1  0.53880736  -0.00000000  0.50000000  1
  Ti  Ti10  1  0.53861840  -0.00000000  -0.00000000  1
  Co  Co11  1  0.54720202  0.50000000  0.50000000  1
  Si  Si12  1  0.51494352  0.62083527  0.74875142  1
  Si  Si13  1  0.51604857  0.12186237  0.25023379  1
  Si  Si14  1  0.51494352  0.37916473  0.25124858  1
  Si  Si15  1  0.51604857  0.87813763  0.74976621  1
  Si  Si16  1  0.51604857  0.74976621  0.12186237  1
  Si  Si17  1  0.51494352  0.25124858  0.62083527  1
  Si  Si18  1  0.51604857  0.25023379  0.87813763  1
  Si  Si19  1  0.51494352  0.74875142  0.37916473  1
  O  O20  1  0.21951009  0.50000000  -0.00000000  1
  O  O21  1  0.21951009  -0.00000000  0.50000000  1
  O  O22  1  0.21935420  -0.00000000  -0.00000000  1
  O  O23  1  0.22594678  0.50000000  0.50000000  1
  O  O24  1  0.21331923  0.62287010  0.74869412  1
  O  O25  1  0.21473722  0.12331478  0.25004199  1
  O  O26  1  0.21331923  0.37712990  0.25130588  1
  O  O27  1  0.21473722  0.87668522  0.74995801  1
  O  O28  1  0.21473722  0.74995801  0.12331478  1
  O  O29  1  0.21331923  0.25130588  0.62287010  1
  O  O30  1  0.21473722  0.25004199  0.87668522  1
  O  O31  1  0.21331923  0.74869412  0.37712990  1
  O  O32  1  0.65042376  0.56340688  0.64204426  1
  O  O33  1  0.64725582  0.06511146  0.14233032  1
  O  O34  1  0.65042376  0.43659312  0.35795574  1
  O  O35  1  0.64725582  0.93488854  0.85766968  1
  O  O36  1  0.64757287  0.64236147  0.06434984  1
  O  O37  1  0.64538787  0.14293978  0.56420943  1
  O  O38  1  0.64757287  0.35763853  0.93565016  1
  O  O39  1  0.64538787  0.85706022  0.43579057  1
  O  O40  1  0.64725582  0.14233032  0.93488854  1
  O  O41  1  0.65042376  0.64204426  0.43659312  1
  O  O42  1  0.64725582  0.85766968  0.06511146  1
  O  O43  1  0.65042376  0.35795574  0.56340688  1
  O  O44  1  0.64538787  0.56420943  0.85706022  1
  O  O45  1  0.64757287  0.06434984  0.35763853  1
  O  O46  1  0.64538787  0.43579057  0.14293978  1
  O  O47  1  0.64757287  0.93565016  0.64236147  1
  O  O48  1  0.63072252  0.74953197  0.74900969  1
  O  O49  1  0.63072252  0.25046803  0.25099031  1
  O  O50  1  0.63072252  0.25099031  0.74953197  1
  O  O51  1  0.63072252  0.74900969  0.25046803  1
