# generated using pymatgen
data_Ba2FeP4HO14
_symmetry_space_group_name_H-M   'P 1'
_cell_length_a   4.94323738
_cell_length_b   7.70685430
_cell_length_c   8.97661859
_cell_angle_alpha   109.40797124
_cell_angle_beta   98.76854071
_cell_angle_gamma   103.43422326
_symmetry_Int_Tables_number   1
_chemical_formula_structural   Ba2FeP4HO14
_chemical_formula_sum   'Ba2 Fe1 P4 H1 O14'
_cell_volume   303.73350508
_cell_formula_units_Z   1
loop_
 _symmetry_equiv_pos_site_id
 _symmetry_equiv_pos_as_xyz
  1  'x, y, z'
loop_
 _atom_site_type_symbol
 _atom_site_label
 _atom_site_symmetry_multiplicity
 _atom_site_fract_x
 _atom_site_fract_y
 _atom_site_fract_z
 _atom_site_occupancy
  Ba  Ba0  1  0.38258547  0.05020286  0.76695761  1
  Ba  Ba1  1  0.60788679  0.98925341  0.24411640  1
  Fe  Fe2  1  0.49343103  0.50526101  0.49993555  1
  P  P3  1  0.91604023  0.69160579  0.86792102  1
  P  P4  1  0.10498073  0.31244952  0.12927285  1
  P  P5  1  0.96364870  0.32536348  0.64275083  1
  P  P6  1  0.03279245  0.68243940  0.35946843  1
  H  H7  1  0.73761327  0.58423511  0.03839408  1
  O  O8  1  0.86025365  0.12726566  0.64978409  1
  O  O9  1  0.11776705  0.87838346  0.34491971  1
  O  O10  1  0.93639466  0.47506836  0.81387118  1
  O  O11  1  0.05338999  0.52946607  0.18946972  1
  O  O12  1  0.72894574  0.68770547  0.99819159  1
  O  O13  1  0.30081818  0.31830120  0.01716766  1
  O  O14  1  0.20877744  0.83819910  0.94811378  1
  O  O15  1  0.80732389  0.16411194  0.05165078  1
  O  O16  1  0.74918235  0.71980673  0.72529646  1
  O  O17  1  0.23726533  0.29348919  0.29078005  1
  O  O18  1  0.76093989  0.34552444  0.50518540  1
  O  O19  1  0.24624705  0.67675896  0.50165691  1
  O  O20  1  0.27707478  0.37846969  0.63461169  1
  O  O21  1  0.72204130  0.62923915  0.37398421  1
