# generated using pymatgen
data_Ho2InGe2
_symmetry_space_group_name_H-M   'P 1'
_cell_length_a   4.16997818
_cell_length_b   7.40257221
_cell_length_c   7.40257221
_cell_angle_alpha   90.00000000
_cell_angle_beta   90.00000000
_cell_angle_gamma   90.00000000
_symmetry_Int_Tables_number   1
_chemical_formula_structural   Ho2InGe2
_chemical_formula_sum   'Ho4 In2 Ge4'
_cell_volume   228.50677841
_cell_formula_units_Z   2
loop_
 _symmetry_equiv_pos_site_id
 _symmetry_equiv_pos_as_xyz
  1  'x, y, z'
loop_
 _atom_site_type_symbol
 _atom_site_label
 _atom_site_symmetry_multiplicity
 _atom_site_fract_x
 _atom_site_fract_y
 _atom_site_fract_z
 _atom_site_occupancy
  Ge  Ge0  1  0.00000000  0.62235378  0.12235378  1
  Ge  Ge1  1  0.00000000  0.87764622  0.62235378  1
  Ge  Ge2  1  0.00000000  0.12235378  0.37764622  1
  Ge  Ge3  1  0.00000000  0.37764622  0.87764622  1
  In  In4  1  0.00000000  0.00000000  0.00000000  1
  In  In5  1  0.00000000  0.50000000  0.50000000  1
  Ho  Ho6  1  0.50000000  0.82248147  0.32248147  1
  Ho  Ho7  1  0.50000000  0.67751853  0.82248147  1
  Ho  Ho8  1  0.50000000  0.32248147  0.17751853  1
  Ho  Ho9  1  0.50000000  0.17751853  0.67751853  1
