# generated using pymatgen
data_Al2Ga2Bi2O9
_symmetry_space_group_name_H-M   'P 1'
_cell_length_a   5.92324172
_cell_length_b   7.90431904
_cell_length_c   8.36208693
_cell_angle_alpha   90.00000000
_cell_angle_beta   90.00000000
_cell_angle_gamma   90.00000000
_symmetry_Int_Tables_number   1
_chemical_formula_structural   Al2Ga2Bi2O9
_chemical_formula_sum   'Al4 Ga4 Bi4 O18'
_cell_volume   391.50615605
_cell_formula_units_Z   2
loop_
 _symmetry_equiv_pos_site_id
 _symmetry_equiv_pos_as_xyz
  1  'x, y, z'
loop_
 _atom_site_type_symbol
 _atom_site_label
 _atom_site_symmetry_multiplicity
 _atom_site_fract_x
 _atom_site_fract_y
 _atom_site_fract_z
 _atom_site_occupancy
  Al  Al0  1  0.50000000  0.85494697  0.15900974  1
  Al  Al1  1  0.50000000  0.14505303  0.84099026  1
  Al  Al2  1  0.50000000  0.35494697  0.34099026  1
  Al  Al3  1  0.50000000  0.64505303  0.65900974  1
  Ga  Ga4  1  0.26161443  -0.00000000  0.50000000  1
  Ga  Ga5  1  0.73838557  0.50000000  -0.00000000  1
  Ga  Ga6  1  0.73838557  0.00000000  0.50000000  1
  Ga  Ga7  1  0.26161443  0.50000000  -0.00000000  1
  Bi  Bi8  1  -0.00000000  0.67614927  0.32755523  1
  Bi  Bi9  1  -0.00000000  0.32385073  0.67244477  1
  Bi  Bi10  1  -0.00000000  0.17614927  0.17244477  1
  Bi  Bi11  1  -0.00000000  0.82385073  0.82755523  1
  O  O12  1  0.50000000  0.50000000  0.50000000  1
  O  O13  1  0.50000000  -0.00000000  -0.00000000  1
  O  O14  1  0.50000000  0.64246258  0.08834406  1
  O  O15  1  0.50000000  0.35753742  0.91165594  1
  O  O16  1  0.50000000  0.14246258  0.41165594  1
  O  O17  1  0.50000000  0.85753742  0.58834406  1
  O  O18  1  -0.00000000  0.65110256  0.06299823  1
  O  O19  1  -0.00000000  0.34889744  0.93700177  1
  O  O20  1  -0.00000000  0.15110256  0.43700177  1
  O  O21  1  -0.00000000  0.84889744  0.56299823  1
  O  O22  1  0.25168063  0.12626832  0.71472491  1
  O  O23  1  0.25168063  0.87373168  0.28527509  1
  O  O24  1  0.74831937  0.62626832  0.78527509  1
  O  O25  1  0.74831937  0.37373168  0.21472491  1
  O  O26  1  0.74831937  0.87373168  0.28527509  1
  O  O27  1  0.74831937  0.12626832  0.71472491  1
  O  O28  1  0.25168063  0.37373168  0.21472491  1
  O  O29  1  0.25168063  0.62626832  0.78527509  1
