# generated using pymatgen
data_Ba2PtAu
_symmetry_space_group_name_H-M   'P 1'
_cell_length_a   4.50297083
_cell_length_b   4.84685156
_cell_length_c   6.44637898
_cell_angle_alpha   90.00000000
_cell_angle_beta   69.55772092
_cell_angle_gamma   90.00000000
_symmetry_Int_Tables_number   1
_chemical_formula_structural   Ba2PtAu
_chemical_formula_sum   'Ba2 Pt1 Au1'
_cell_volume   131.83345758
_cell_formula_units_Z   1
loop_
 _symmetry_equiv_pos_site_id
 _symmetry_equiv_pos_as_xyz
  1  'x, y, z'
loop_
 _atom_site_type_symbol
 _atom_site_label
 _atom_site_symmetry_multiplicity
 _atom_site_fract_x
 _atom_site_fract_y
 _atom_site_fract_z
 _atom_site_occupancy
  Ba  Ba0  1  0.86274843  0.75000000  0.27450313  1
  Ba  Ba1  1  0.13667146  0.25000000  0.72665708  1
  Pt  Pt2  1  0.57613785  0.75000000  0.84772430  1
  Au  Au3  1  0.42444226  0.25000000  0.15111549  1
