# generated using pymatgen
data_Ba2TiMnO6
_symmetry_space_group_name_H-M   'P 1'
_cell_length_a   5.76795821
_cell_length_b   5.76795772
_cell_length_c   9.98652076
_cell_angle_alpha   90.00000000
_cell_angle_beta   73.21464126
_cell_angle_gamma   120.00000301
_symmetry_Int_Tables_number   1
_chemical_formula_structural   Ba2TiMnO6
_chemical_formula_sum   'Ba4 Ti2 Mn2 O12'
_cell_volume   271.26369126
_cell_formula_units_Z   2
loop_
 _symmetry_equiv_pos_site_id
 _symmetry_equiv_pos_as_xyz
  1  'x, y, z'
loop_
 _atom_site_type_symbol
 _atom_site_label
 _atom_site_symmetry_multiplicity
 _atom_site_fract_x
 _atom_site_fract_y
 _atom_site_fract_z
 _atom_site_occupancy
  Ba  Ba0  1  0.57073132  0.28536566  0.14390302  1
  Ba  Ba1  1  0.42926868  0.71463434  0.85609698  1
  Ba  Ba2  1  0.25833273  0.12916637  0.61250090  1
  Ba  Ba3  1  0.74166727  0.87083363  0.38749910  1
  Ti  Ti4  1  0.81459219  0.40729609  0.77811172  1
  Ti  Ti5  1  0.18540781  0.59270391  0.22188828  1
  Mn  Mn6  1  -0.00000000  0.50000000  0.50000000  1
  Mn  Mn7  1  -0.00000000  -0.00000000  0.00000000  1
  O  O8  1  0.08533843  0.79652910  0.11813247  1
  O  O9  1  0.59305820  0.79652910  0.11813247  1
  O  O10  1  0.08533843  0.28880933  0.11813247  1
  O  O11  1  0.91466157  0.20347090  0.88186753  1
  O  O12  1  0.40694180  0.20347090  0.88186753  1
  O  O13  1  0.91466157  0.71119067  0.88186753  1
  O  O14  1  0.76401392  0.60524155  0.63074453  1
  O  O15  1  0.21048309  0.60524155  0.63074453  1
  O  O16  1  0.76401392  0.15877238  0.63074453  1
  O  O17  1  0.23598608  0.39475845  0.36925547  1
  O  O18  1  0.78951691  0.39475845  0.36925547  1
  O  O19  1  0.23598608  0.84122762  0.36925547  1
