# generated using pymatgen
data_BaMn2Fe4O11
_symmetry_space_group_name_H-M   'P 1'
_cell_length_a   5.88942023
_cell_length_b   5.90040674
_cell_length_c   13.61772365
_cell_angle_alpha   90.03406721
_cell_angle_beta   89.95587407
_cell_angle_gamma   120.07196325
_symmetry_Int_Tables_number   1
_chemical_formula_structural   BaMn2Fe4O11
_chemical_formula_sum   'Ba2 Mn4 Fe8 O22'
_cell_volume   409.51905596
_cell_formula_units_Z   2
loop_
 _symmetry_equiv_pos_site_id
 _symmetry_equiv_pos_as_xyz
  1  'x, y, z'
loop_
 _atom_site_type_symbol
 _atom_site_label
 _atom_site_symmetry_multiplicity
 _atom_site_fract_x
 _atom_site_fract_y
 _atom_site_fract_z
 _atom_site_occupancy
  Ba  Ba0  1  0.66622872  0.33319409  0.74768641  1
  Ba  Ba1  1  0.33381808  0.66678325  0.24844354  1
  Mn  Mn2  1  0.49852267  0.50129791  0.50018718  1
  Mn  Mn3  1  0.00273521  0.50116755  0.50022014  1
  Mn  Mn4  1  0.50122691  0.00254200  0.00094514  1
  Mn  Mn5  1  0.99739989  0.49870066  0.00093278  1
  Fe  Fe6  1  0.00346551  0.00629484  0.64445548  1
  Fe  Fe7  1  0.99693662  0.99398433  0.35523224  1
  Fe  Fe8  1  0.99677995  0.00292939  0.14516215  1
  Fe  Fe9  1  0.00307693  0.99681017  0.85527183  1
  Fe  Fe10  1  0.49895266  0.99788939  0.50008485  1
  Fe  Fe11  1  0.50104213  0.49895619  0.00111152  1
  Fe  Fe12  1  0.66790572  0.33444046  0.26891639  1
  Fe  Fe13  1  0.33212187  0.66674528  0.76823347  1
  O  O14  1  0.82403383  0.64842885  0.57632080  1
  O  O15  1  0.83498106  0.18429435  0.57778803  1
  O  O16  1  0.34944318  0.18458329  0.57782437  1
  O  O17  1  0.17663057  0.35298348  0.42338781  1
  O  O18  1  0.16497336  0.81525842  0.42183330  1
  O  O19  1  0.64976883  0.81502923  0.42146914  1
  O  O20  1  0.16489533  0.34919823  0.07864122  1
  O  O21  1  0.17556408  0.82460951  0.07697055  1
  O  O22  1  0.65137648  0.83541004  0.07844792  1
  O  O23  1  0.83471512  0.64992243  0.92177809  1
  O  O24  1  0.82364380  0.17620727  0.92388365  1
  O  O25  1  0.34947713  0.16501169  0.92198407  1
  O  O26  1  0.67450102  0.32571630  0.07658313  1
  O  O27  1  0.32638820  0.67344207  0.92171332  1
  O  O28  1  0.32552066  0.65135765  0.57525183  1
  O  O29  1  0.67374225  0.34700792  0.42134056  1
  O  O30  1  0.84912225  0.69858295  0.24837247  1
  O  O31  1  0.84980344  0.15068447  0.25417133  1
  O  O32  1  0.30233723  0.15109847  0.25146887  1
  O  O33  1  0.15024705  0.30071017  0.75360346  1
  O  O34  1  0.15053055  0.84958463  0.74782086  1
  O  O35  1  0.69809173  0.84914307  0.75106213  1
