# generated using pymatgen
data_Cu2As2O7
_symmetry_space_group_name_H-M   'P 1'
_cell_length_a   5.01974662
_cell_length_b   5.61573223
_cell_length_c   5.61573223
_cell_angle_alpha   96.11334826
_cell_angle_beta   105.02294312
_cell_angle_gamma   105.02294312
_symmetry_Int_Tables_number   1
_chemical_formula_structural   Cu2As2O7
_chemical_formula_sum   'Cu2 As2 O7'
_cell_volume   145.08657584
_cell_formula_units_Z   1
loop_
 _symmetry_equiv_pos_site_id
 _symmetry_equiv_pos_as_xyz
  1  'x, y, z'
loop_
 _atom_site_type_symbol
 _atom_site_label
 _atom_site_symmetry_multiplicity
 _atom_site_fract_x
 _atom_site_fract_y
 _atom_site_fract_z
 _atom_site_occupancy
  O  O0  1  0.28334933  0.96541333  0.62810876  1
  O  O1  1  0.71665067  0.37189124  0.03458667  1
  O  O2  1  0.71665067  0.03458667  0.37189124  1
  O  O3  1  0.28334933  0.62810876  0.96541333  1
  O  O4  1  0.00000000  0.00000000  0.00000000  1
  O  O5  1  0.76625968  0.60056585  0.60056585  1
  O  O6  1  0.23374032  0.39943415  0.39943415  1
  Cu  Cu7  1  0.50000000  0.68582621  0.31417379  1
  Cu  Cu8  1  0.50000000  0.31417379  0.68582621  1
  As  As9  1  0.09458501  0.79855850  0.79855850  1
  As  As10  1  0.90541499  0.20144150  0.20144150  1
