# generated using pymatgen
data_ErAgSn
_symmetry_space_group_name_H-M   'P 1'
_cell_length_a   7.38169776
_cell_length_b   7.38169776
_cell_length_c   4.48572570
_cell_angle_alpha   90.00000000
_cell_angle_beta   90.00000000
_cell_angle_gamma   120.00000001
_symmetry_Int_Tables_number   1
_chemical_formula_structural   ErAgSn
_chemical_formula_sum   'Er3 Ag3 Sn3'
_cell_volume   211.67806805
_cell_formula_units_Z   3
loop_
 _symmetry_equiv_pos_site_id
 _symmetry_equiv_pos_as_xyz
  1  'x, y, z'
loop_
 _atom_site_type_symbol
 _atom_site_label
 _atom_site_symmetry_multiplicity
 _atom_site_fract_x
 _atom_site_fract_y
 _atom_site_fract_z
 _atom_site_occupancy
  Ag  Ag0  1  0.00000000  0.24657382  0.50000000  1
  Ag  Ag1  1  0.75342618  0.75342618  0.50000000  1
  Ag  Ag2  1  0.24657382  0.00000000  0.50000000  1
  Sn  Sn3  1  0.00000000  0.00000000  0.00000000  1
  Sn  Sn4  1  0.66666667  0.33333333  0.50000000  1
  Sn  Sn5  1  0.33333333  0.66666667  0.50000000  1
  Er  Er6  1  0.00000000  0.56982382  0.00000000  1
  Er  Er7  1  0.43017618  0.43017618  0.00000000  1
  Er  Er8  1  0.56982382  0.00000000  0.00000000  1
