# generated using pymatgen
data_AlAuO2
_symmetry_space_group_name_H-M   'P 1'
_cell_length_a   2.93385755
_cell_length_b   2.93385755
_cell_length_c   12.37706806
_cell_angle_alpha   90.00000000
_cell_angle_beta   90.00000000
_cell_angle_gamma   119.99999991
_symmetry_Int_Tables_number   1
_chemical_formula_structural   AlAuO2
_chemical_formula_sum   'Al2 Au2 O4'
_cell_volume   92.26276327
_cell_formula_units_Z   2
loop_
 _symmetry_equiv_pos_site_id
 _symmetry_equiv_pos_as_xyz
  1  'x, y, z'
loop_
 _atom_site_type_symbol
 _atom_site_label
 _atom_site_symmetry_multiplicity
 _atom_site_fract_x
 _atom_site_fract_y
 _atom_site_fract_z
 _atom_site_occupancy
  O  O0  1  0.33333333  0.66666667  0.42336577  1
  O  O1  1  0.66666667  0.33333333  0.92336577  1
  O  O2  1  0.33333333  0.66666667  0.07663423  1
  O  O3  1  0.66666667  0.33333333  0.57663423  1
  Al  Al4  1  0.00000000  0.00000000  0.00000000  1
  Al  Al5  1  0.00000000  0.00000000  0.50000000  1
  Au  Au6  1  0.66666667  0.33333333  0.75000000  1
  Au  Au7  1  0.33333333  0.66666667  0.25000000  1
