# generated using pymatgen
data_Li9Mn2Co5O16
_symmetry_space_group_name_H-M   'P 1'
_cell_length_a   2.96633996
_cell_length_b   10.03297621
_cell_length_c   9.99066949
_cell_angle_alpha   101.65280255
_cell_angle_beta   90.00000000
_cell_angle_gamma   90.00000000
_symmetry_Int_Tables_number   1
_chemical_formula_structural   Li9Mn2Co5O16
_chemical_formula_sum   'Li9 Mn2 Co5 O16'
_cell_volume   291.20628997
_cell_formula_units_Z   1
loop_
 _symmetry_equiv_pos_site_id
 _symmetry_equiv_pos_as_xyz
  1  'x, y, z'
loop_
 _atom_site_type_symbol
 _atom_site_label
 _atom_site_symmetry_multiplicity
 _atom_site_fract_x
 _atom_site_fract_y
 _atom_site_fract_z
 _atom_site_occupancy
  Li  Li0  1  0.50000000  0.13201459  0.27465672  1
  Li  Li1  1  0.50000000  0.37048230  0.72915217  1
  Li  Li2  1  0.50000000  0.63577413  0.25804123  1
  Li  Li3  1  0.00000000  0.38561003  0.26128324  1
  Li  Li4  1  0.00000000  0.61989658  0.74266473  1
  Li  Li5  1  0.00000000  0.87268696  0.26625876  1
  Li  Li6  1  0.50000000  0.86528505  0.74081703  1
  Li  Li7  1  0.00000000  0.12250213  0.73179754  1
  Li  Li8  1  -0.00000000  0.24958532  0.49852043  1
  Mn  Mn9  1  0.00000000  0.99478041  0.99655649  1
  Mn  Mn10  1  0.50000000  0.25310518  0.99712347  1
  Co  Co11  1  -0.00000000  0.50900939  0.00331858  1
  Co  Co12  1  -0.00000000  0.74940628  0.50258815  1
  Co  Co13  1  0.50000000  0.48591989  0.50371183  1
  Co  Co14  1  0.50000000  0.73785598  0.00252495  1
  Co  Co15  1  0.50000000  0.01133740  0.49572120  1
  O  O16  1  0.50000000  0.94743439  0.10363479  1
  O  O17  1  0.50000000  0.16815460  0.62138653  1
  O  O18  1  0.50000000  0.42757256  0.10992300  1
  O  O19  1  0.00000000  0.18695939  0.09983365  1
  O  O20  1  0.00000000  0.43924399  0.61960109  1
  O  O21  1  0.00000000  0.70107502  0.12651751  1
  O  O22  1  0.50000000  0.68260671  0.61344797  1
  O  O23  1  0.00000000  0.91979203  0.61359386  1
  O  O24  1  0.50000000  0.33037351  0.37578396  1
  O  O25  1  0.50000000  0.56861507  0.88373168  1
  O  O26  1  0.50000000  0.81805391  0.39132765  1
  O  O27  1  0.00000000  0.58111777  0.38993772  1
  O  O28  1  0.00000000  0.81919656  0.88949467  1
  O  O29  1  -0.00000000  0.05732120  0.37743028  1
  O  O30  1  0.50000000  0.05819464  0.89173870  1
  O  O31  1  0.00000000  0.29903702  0.88788040  1
