# generated using pymatgen
data_Dy4Si2S3O7
_symmetry_space_group_name_H-M   'P 1'
_cell_length_a   10.75819767
_cell_length_b   10.75819767
_cell_length_c   10.75819768
_cell_angle_alpha   100.94438843
_cell_angle_beta   113.89563492
_cell_angle_gamma   113.89563494
_symmetry_Int_Tables_number   1
_chemical_formula_structural   Dy4Si2S3O7
_chemical_formula_sum   'Dy16 Si8 S12 O28'
_cell_volume   942.92920970
_cell_formula_units_Z   4
loop_
 _symmetry_equiv_pos_site_id
 _symmetry_equiv_pos_as_xyz
  1  'x, y, z'
loop_
 _atom_site_type_symbol
 _atom_site_label
 _atom_site_symmetry_multiplicity
 _atom_site_fract_x
 _atom_site_fract_y
 _atom_site_fract_z
 _atom_site_occupancy
  O  O0  1  0.25000000  0.39929976  0.14929976  1
  O  O1  1  0.75000000  0.14929976  0.39929976  1
  O  O2  1  0.75000000  0.60070024  0.85070024  1
  O  O3  1  0.25000000  0.85070024  0.60070024  1
  O  O4  1  0.01744254  0.82582441  0.34326695  1
  O  O5  1  0.48255746  0.82582441  0.80838187  1
  O  O6  1  0.48255746  0.65673305  0.17417559  1
  O  O7  1  0.98255746  0.80838187  0.82582441  1
  O  O8  1  0.51744254  0.34326695  0.82582441  1
  O  O9  1  0.51744254  0.17417559  0.19161813  1
  O  O10  1  0.98255746  0.17417559  0.65673305  1
  O  O11  1  0.01744254  0.19161813  0.17417559  1
  O  O12  1  0.76792004  0.91828210  0.43293517  1
  O  O13  1  0.73207996  0.16501513  0.15036207  1
  O  O14  1  0.73207996  0.56706483  0.08171790  1
  O  O15  1  0.98534693  0.15036207  0.91828210  1
  O  O16  1  0.51465307  0.43293517  0.16501513  1
  O  O17  1  0.51465307  0.08171790  0.84963793  1
  O  O18  1  0.98534693  0.83498487  0.56706483  1
  O  O19  1  0.76792004  0.84963793  0.83498487  1
  O  O20  1  0.23207996  0.08171790  0.56706483  1
  O  O21  1  0.26792004  0.83498487  0.84963793  1
  O  O22  1  0.26792004  0.43293517  0.91828210  1
  O  O23  1  0.01465307  0.84963793  0.08171790  1
  O  O24  1  0.48534693  0.56706483  0.83498487  1
  O  O25  1  0.48534693  0.91828210  0.15036207  1
  O  O26  1  0.01465307  0.16501513  0.43293517  1
  O  O27  1  0.23207996  0.15036207  0.16501513  1
  Si  Si28  1  0.37505546  0.90395223  0.77900769  1
  Si  Si29  1  0.12494454  0.90395223  0.52889677  1
  Si  Si30  1  0.12494454  0.22099231  0.09604777  1
  Si  Si31  1  0.62494454  0.52889677  0.90395223  1
  Si  Si32  1  0.87505546  0.77900769  0.90395223  1
  Si  Si33  1  0.87505546  0.09604777  0.47110323  1
  Si  Si34  1  0.62494454  0.09604777  0.22099231  1
  Si  Si35  1  0.37505546  0.47110323  0.09604777  1
  S  S36  1  0.25000000  0.12500000  0.87500000  1
  S  S37  1  0.75000000  0.87500000  0.12500000  1
  S  S38  1  0.75000000  0.37500000  0.62500000  1
  S  S39  1  0.25000000  0.62500000  0.37500000  1
  S  S40  1  0.85373299  0.50000000  0.35373299  1
  S  S41  1  0.85373299  0.35373299  0.00000000  1
  S  S42  1  0.64626701  0.64626701  0.50000000  1
  S  S43  1  0.64626701  0.00000000  0.64626701  1
  S  S44  1  0.14626701  0.50000000  0.64626701  1
  S  S45  1  0.14626701  0.64626701  0.00000000  1
  S  S46  1  0.35373299  0.35373299  0.50000000  1
  S  S47  1  0.35373299  0.00000000  0.35373299  1
  Dy  Dy48  1  0.09439520  0.04719760  0.29719760  1
  Dy  Dy49  1  0.25000000  0.29719760  0.70280240  1
  Dy  Dy50  1  0.25000000  0.95280240  0.04719760  1
  Dy  Dy51  1  0.40560480  0.70280240  0.95280240  1
  Dy  Dy52  1  0.90560480  0.95280240  0.70280240  1
  Dy  Dy53  1  0.75000000  0.70280240  0.29719760  1
  Dy  Dy54  1  0.75000000  0.04719760  0.95280240  1
  Dy  Dy55  1  0.59439520  0.29719760  0.04719760  1
  Dy  Dy56  1  0.01427765  0.65838391  0.17266156  1
  Dy  Dy57  1  0.48572235  0.65838391  0.64410626  1
  Dy  Dy58  1  0.48572235  0.82733844  0.34161609  1
  Dy  Dy59  1  0.98572235  0.64410626  0.65838391  1
  Dy  Dy60  1  0.51427765  0.17266156  0.65838391  1
  Dy  Dy61  1  0.51427765  0.34161609  0.35589374  1
  Dy  Dy62  1  0.98572235  0.34161609  0.82733844  1
  Dy  Dy63  1  0.01427765  0.35589374  0.34161609  1
