# generated using pymatgen
data_Sr2Ga2S5
_symmetry_space_group_name_H-M   'P 1'
_cell_length_a   11.30702298
_cell_length_b   12.14725776
_cell_length_c   12.65366126
_cell_angle_alpha   90.00000000
_cell_angle_beta   90.00000000
_cell_angle_gamma   90.00000000
_symmetry_Int_Tables_number   1
_chemical_formula_structural   Sr2Ga2S5
_chemical_formula_sum   'Sr16 Ga16 S40'
_cell_volume   1737.97180293
_cell_formula_units_Z   8
loop_
 _symmetry_equiv_pos_site_id
 _symmetry_equiv_pos_as_xyz
  1  'x, y, z'
loop_
 _atom_site_type_symbol
 _atom_site_label
 _atom_site_symmetry_multiplicity
 _atom_site_fract_x
 _atom_site_fract_y
 _atom_site_fract_z
 _atom_site_occupancy
  S  S0  1  0.75034592  0.36162541  0.53819297  1
  S  S1  1  0.25034592  0.63837459  0.96180703  1
  S  S2  1  0.74965408  0.86162541  0.46180703  1
  S  S3  1  0.24965408  0.13837459  0.03819297  1
  S  S4  1  0.24965408  0.63837459  0.46180703  1
  S  S5  1  0.74965408  0.36162541  0.03819297  1
  S  S6  1  0.25034592  0.13837459  0.53819297  1
  S  S7  1  0.75034592  0.86162541  0.96180703  1
  S  S8  1  0.23496048  0.48612466  0.20628822  1
  S  S9  1  0.73496048  0.51387534  0.29371178  1
  S  S10  1  0.26503952  0.98612466  0.79371178  1
  S  S11  1  0.76503952  0.01387534  0.70628822  1
  S  S12  1  0.76503952  0.51387534  0.79371178  1
  S  S13  1  0.26503952  0.48612466  0.70628822  1
  S  S14  1  0.73496048  0.01387534  0.20628822  1
  S  S15  1  0.23496048  0.98612466  0.29371178  1
  S  S16  1  0.42820817  0.38264674  0.43699546  1
  S  S17  1  0.00751737  0.22525975  0.71954352  1
  S  S18  1  0.92820817  0.61735326  0.06300454  1
  S  S19  1  0.57179183  0.11735326  0.93699546  1
  S  S20  1  0.57179183  0.61735326  0.56300454  1
  S  S21  1  0.07179183  0.38264674  0.93699546  1
  S  S22  1  0.92820817  0.11735326  0.43699546  1
  S  S23  1  0.42820817  0.88264674  0.06300454  1
  S  S24  1  0.90366884  0.11951089  0.97632109  1
  S  S25  1  0.40366884  0.88048911  0.52367891  1
  S  S26  1  0.59633116  0.61951089  0.02367891  1
  S  S27  1  0.09633116  0.38048911  0.47632109  1
  S  S28  1  0.09633116  0.88048911  0.02367891  1
  S  S29  1  0.59633116  0.11951089  0.47632109  1
  S  S30  1  0.40366884  0.38048911  0.97632109  1
  S  S31  1  0.90366884  0.61951089  0.52367891  1
  S  S32  1  0.00751737  0.72525975  0.78045648  1
  S  S33  1  0.50751737  0.27474025  0.71954352  1
  S  S34  1  0.49248263  0.22525975  0.21954352  1
  S  S35  1  0.99248263  0.77474025  0.28045648  1
  S  S36  1  0.99248263  0.27474025  0.21954352  1
  S  S37  1  0.49248263  0.72525975  0.28045648  1
  S  S38  1  0.50751737  0.77474025  0.78045648  1
  S  S39  1  0.07179183  0.88264674  0.56300454  1
  Ga  Ga40  1  0.55923192  0.29513021  0.54910534  1
  Ga  Ga41  1  0.05923192  0.70486979  0.95089466  1
  Ga  Ga42  1  0.94076808  0.79513021  0.45089466  1
  Ga  Ga43  1  0.44076808  0.20486979  0.04910534  1
  Ga  Ga44  1  0.44076808  0.70486979  0.45089466  1
  Ga  Ga45  1  0.94076808  0.29513021  0.04910534  1
  Ga  Ga46  1  0.05923192  0.20486979  0.54910534  1
  Ga  Ga47  1  0.55923192  0.79513021  0.95089466  1
  Ga  Ga48  1  0.77605191  0.53611446  0.97136677  1
  Ga  Ga49  1  0.27605191  0.46388554  0.52863323  1
  Ga  Ga50  1  0.72394809  0.03611446  0.02863323  1
  Ga  Ga51  1  0.22394809  0.96388554  0.47136677  1
  Ga  Ga52  1  0.22394809  0.46388554  0.02863323  1
  Ga  Ga53  1  0.72394809  0.53611446  0.47136677  1
  Ga  Ga54  1  0.27605191  0.96388554  0.97136677  1
  Ga  Ga55  1  0.77605191  0.03611446  0.52863323  1
  Sr  Sr56  1  0.74712775  0.25347817  0.31011592  1
  Sr  Sr57  1  0.24712775  0.74652183  0.18988408  1
  Sr  Sr58  1  0.75287225  0.75347817  0.68988408  1
  Sr  Sr59  1  0.25287225  0.24652183  0.81011592  1
  Sr  Sr60  1  0.25287225  0.74652183  0.68988408  1
  Sr  Sr61  1  0.75287225  0.25347817  0.81011592  1
  Sr  Sr62  1  0.24712775  0.24652183  0.31011592  1
  Sr  Sr63  1  0.74712775  0.75347817  0.18988408  1
  Sr  Sr64  1  0.49790335  0.47767817  0.19818548  1
  Sr  Sr65  1  0.99790335  0.52232183  0.30181452  1
  Sr  Sr66  1  0.00209665  0.97767817  0.80181452  1
  Sr  Sr67  1  0.50209665  0.02232183  0.69818548  1
  Sr  Sr68  1  0.50209665  0.52232183  0.80181452  1
  Sr  Sr69  1  0.00209665  0.47767817  0.69818548  1
  Sr  Sr70  1  0.99790335  0.02232183  0.19818548  1
  Sr  Sr71  1  0.49790335  0.97767817  0.30181452  1
