# generated using pymatgen
data_KPO3
_symmetry_space_group_name_H-M   'P 1'
_cell_length_a   4.50450679
_cell_length_b   5.93715273
_cell_length_c   12.80704400
_cell_angle_alpha   90.00000000
_cell_angle_beta   90.00000000
_cell_angle_gamma   90.00000000
_symmetry_Int_Tables_number   1
_chemical_formula_structural   KPO3
_chemical_formula_sum   'K4 P4 O12'
_cell_volume   342.51087760
_cell_formula_units_Z   4
loop_
 _symmetry_equiv_pos_site_id
 _symmetry_equiv_pos_as_xyz
  1  'x, y, z'
loop_
 _atom_site_type_symbol
 _atom_site_label
 _atom_site_symmetry_multiplicity
 _atom_site_fract_x
 _atom_site_fract_y
 _atom_site_fract_z
 _atom_site_occupancy
  O  O0  1  0.34037352  0.25000000  0.71155623  1
  O  O1  1  0.84037352  0.25000000  0.78844377  1
  O  O2  1  0.65962648  0.75000000  0.28844377  1
  O  O3  1  0.15962648  0.75000000  0.21155623  1
  O  O4  1  0.25802895  0.53212477  0.38265574  1
  O  O5  1  0.75802895  0.96787523  0.11734426  1
  O  O6  1  0.74197105  0.03212477  0.61734426  1
  O  O7  1  0.24197105  0.46787523  0.88265574  1
  O  O8  1  0.75802895  0.53212477  0.11734426  1
  O  O9  1  0.25802895  0.96787523  0.38265574  1
  O  O10  1  0.24197105  0.03212477  0.88265574  1
  O  O11  1  0.74197105  0.46787523  0.61734426  1
  P  P12  1  0.68606383  0.25000000  0.67342436  1
  P  P13  1  0.18606383  0.25000000  0.82657564  1
  P  P14  1  0.31393617  0.75000000  0.32657564  1
  P  P15  1  0.81393617  0.75000000  0.17342436  1
  K  K16  1  0.23105595  0.75000000  0.58949631  1
  K  K17  1  0.73105595  0.75000000  0.91050369  1
  K  K18  1  0.76894405  0.25000000  0.41050369  1
  K  K19  1  0.26894405  0.25000000  0.08949631  1
