# generated using pymatgen
data_VCrMoO7
_symmetry_space_group_name_H-M   'P 1'
_cell_length_a   5.64009124
_cell_length_b   6.75485123
_cell_length_c   8.02104453
_cell_angle_alpha   83.98223262
_cell_angle_beta   90.03781718
_cell_angle_gamma   78.59397967
_symmetry_Int_Tables_number   1
_chemical_formula_structural   VCrMoO7
_chemical_formula_sum   'V2 Cr2 Mo2 O14'
_cell_volume   297.82794984
_cell_formula_units_Z   2
loop_
 _symmetry_equiv_pos_site_id
 _symmetry_equiv_pos_as_xyz
  1  'x, y, z'
loop_
 _atom_site_type_symbol
 _atom_site_label
 _atom_site_symmetry_multiplicity
 _atom_site_fract_x
 _atom_site_fract_y
 _atom_site_fract_z
 _atom_site_occupancy
  O  O0  1  0.22208427  0.04875042  0.10047452  1
  O  O1  1  0.77791573  0.95124958  0.89952548  1
  O  O2  1  0.57273136  0.70601440  0.23179107  1
  O  O3  1  0.42726864  0.29398560  0.76820893  1
  O  O4  1  0.06766344  0.68303460  0.21973404  1
  O  O5  1  0.93233656  0.31696540  0.78026596  1
  O  O6  1  0.79695310  0.98808014  0.38765299  1
  O  O7  1  0.20304690  0.01191986  0.61234701  1
  O  O8  1  0.89403332  0.37730605  0.42398204  1
  O  O9  1  0.10596668  0.62269395  0.57601796  1
  O  O10  1  0.66508238  0.29413647  0.10899610  1
  O  O11  1  0.33491762  0.70586353  0.89100390  1
  O  O12  1  0.41380596  0.30719600  0.41765179  1
  O  O13  1  0.58619404  0.69280400  0.58234821  1
  V  V14  1  0.30871607  0.76125706  0.66333987  1
  V  V15  1  0.69128393  0.23874294  0.33666013  1
  Cr  Cr16  1  0.82970245  0.68803794  0.40445965  1
  Cr  Cr17  1  0.17029755  0.31196206  0.59554035  1
  Mo  Mo18  1  0.29748222  0.78715407  0.10953178  1
  Mo  Mo19  1  0.70251778  0.21284593  0.89046822  1
