# generated using pymatgen
data_BaTb2ZnO5
_symmetry_space_group_name_H-M   'P 1'
_cell_length_a   5.78106210
_cell_length_b   7.17893090
_cell_length_c   12.49437822
_cell_angle_alpha   90.00000000
_cell_angle_beta   90.00000000
_cell_angle_gamma   90.00000000
_symmetry_Int_Tables_number   1
_chemical_formula_structural   BaTb2ZnO5
_chemical_formula_sum   'Ba4 Tb8 Zn4 O20'
_cell_volume   518.53975256
_cell_formula_units_Z   4
loop_
 _symmetry_equiv_pos_site_id
 _symmetry_equiv_pos_as_xyz
  1  'x, y, z'
loop_
 _atom_site_type_symbol
 _atom_site_label
 _atom_site_symmetry_multiplicity
 _atom_site_fract_x
 _atom_site_fract_y
 _atom_site_fract_z
 _atom_site_occupancy
  O  O0  1  0.25000000  0.42617031  0.59996433  1
  O  O1  1  0.75000000  0.57382969  0.40003567  1
  O  O2  1  0.75000000  0.92617031  0.90003567  1
  O  O3  1  0.25000000  0.07382969  0.09996433  1
  O  O4  1  0.00102932  0.85716970  0.27535083  1
  O  O5  1  0.50102932  0.14283030  0.72464917  1
  O  O6  1  0.99897068  0.35716970  0.22464917  1
  O  O7  1  0.49897068  0.64283030  0.77535083  1
  O  O8  1  0.99897068  0.14283030  0.72464917  1
  O  O9  1  0.49897068  0.85716970  0.27535083  1
  O  O10  1  0.00102932  0.64283030  0.77535083  1
  O  O11  1  0.50102932  0.35716970  0.22464917  1
  O  O12  1  0.49767309  0.66370199  0.06606024  1
  O  O13  1  0.99767309  0.33629801  0.93393976  1
  O  O14  1  0.50232691  0.16370199  0.43393976  1
  O  O15  1  0.00232691  0.83629801  0.56606024  1
  O  O16  1  0.99767309  0.16370199  0.43393976  1
  O  O17  1  0.49767309  0.83629801  0.56606024  1
  O  O18  1  0.00232691  0.66370199  0.06606024  1
  O  O19  1  0.50232691  0.33629801  0.93393976  1
  Zn  Zn20  1  0.25000000  0.80853335  0.14986547  1
  Zn  Zn21  1  0.75000000  0.30853335  0.35013453  1
  Zn  Zn22  1  0.25000000  0.69146665  0.64986547  1
  Zn  Zn23  1  0.75000000  0.19146665  0.85013453  1
  Ba  Ba24  1  0.75000000  0.42285347  0.60121955  1
  Ba  Ba25  1  0.75000000  0.07714653  0.10121955  1
  Ba  Ba26  1  0.25000000  0.57714653  0.39878045  1
  Ba  Ba27  1  0.25000000  0.92285347  0.89878045  1
  Tb  Tb28  1  0.25000000  0.11829360  0.29201624  1
  Tb  Tb29  1  0.75000000  0.88170640  0.70798376  1
  Tb  Tb30  1  0.75000000  0.61829360  0.20798376  1
  Tb  Tb31  1  0.25000000  0.38170640  0.79201624  1
  Tb  Tb32  1  0.25000000  0.39952068  0.07449338  1
  Tb  Tb33  1  0.75000000  0.60047932  0.92550662  1
  Tb  Tb34  1  0.75000000  0.89952068  0.42550662  1
  Tb  Tb35  1  0.25000000  0.10047932  0.57449338  1
