# generated using pymatgen
data_CaTeO3
_symmetry_space_group_name_H-M   'P 1'
_cell_length_a   5.74821132
_cell_length_b   8.77025017
_cell_length_c   11.49999471
_cell_angle_alpha   110.56300330
_cell_angle_beta   90.00000000
_cell_angle_gamma   90.00000000
_symmetry_Int_Tables_number   1
_chemical_formula_structural   CaTeO3
_chemical_formula_sum   'Ca6 Te6 O18'
_cell_volume   542.81410366
_cell_formula_units_Z   6
loop_
 _symmetry_equiv_pos_site_id
 _symmetry_equiv_pos_as_xyz
  1  'x, y, z'
loop_
 _atom_site_type_symbol
 _atom_site_label
 _atom_site_symmetry_multiplicity
 _atom_site_fract_x
 _atom_site_fract_y
 _atom_site_fract_z
 _atom_site_occupancy
  O  O0  1  0.22112981  0.92048805  0.78028710  1
  O  O1  1  0.72112981  0.07951195  0.21971290  1
  O  O2  1  0.55908208  0.84986911  0.94797434  1
  O  O3  1  0.05908208  0.15013089  0.05202566  1
  O  O4  1  0.64295341  0.46910588  0.90918228  1
  O  O5  1  0.52700539  0.76719344  0.20119877  1
  O  O6  1  0.70476268  0.76425840  0.69834838  1
  O  O7  1  0.20476268  0.23574160  0.30165162  1
  O  O8  1  0.50538078  0.82130314  0.48135371  1
  O  O9  1  0.00538078  0.17869686  0.51864629  1
  O  O10  1  0.97855707  0.83077721  0.50234755  1
  O  O11  1  0.56223642  0.15088517  0.76200769  1
  O  O12  1  0.09044544  0.79122221  0.95061682  1
  O  O13  1  0.59044544  0.20877779  0.04938318  1
  O  O14  1  0.02700539  0.23280656  0.79880123  1
  O  O15  1  0.47855707  0.16922279  0.49765245  1
  O  O16  1  0.06223642  0.84911483  0.23799231  1
  O  O17  1  0.14295341  0.53089412  0.09081772  1
  Ca  Ca18  1  0.81533050  0.70005585  0.04790649  1
  Ca  Ca19  1  0.31533050  0.29994415  0.95209351  1
  Ca  Ca20  1  0.83303595  0.99670664  0.86853126  1
  Ca  Ca21  1  0.26152665  0.01934335  0.61854901  1
  Ca  Ca22  1  0.76152665  0.98065665  0.38145099  1
  Ca  Ca23  1  0.33303595  0.00329336  0.13146874  1
  Te  Te24  1  0.32651193  0.74740154  0.82786699  1
  Te  Te25  1  0.82651193  0.25259846  0.17213301  1
  Te  Te26  1  0.23766454  0.30063931  0.47481871  1
  Te  Te27  1  0.73766454  0.69936069  0.52518129  1
  Te  Te28  1  0.25427736  0.67761839  0.24563197  1
  Te  Te29  1  0.75427736  0.32238161  0.75436803  1
