# generated using pymatgen
data_Sr2SnSe3F2
_symmetry_space_group_name_H-M   'P 1'
_cell_length_a   6.19249044
_cell_length_b   6.19838079
_cell_length_c   19.73559572
_cell_angle_alpha   90.00000000
_cell_angle_beta   90.00000000
_cell_angle_gamma   90.00000000
_symmetry_Int_Tables_number   1
_chemical_formula_structural   Sr2SnSe3F2
_chemical_formula_sum   'Sr8 Sn4 Se12 F8'
_cell_volume   757.51953683
_cell_formula_units_Z   4
loop_
 _symmetry_equiv_pos_site_id
 _symmetry_equiv_pos_as_xyz
  1  'x, y, z'
loop_
 _atom_site_type_symbol
 _atom_site_label
 _atom_site_symmetry_multiplicity
 _atom_site_fract_x
 _atom_site_fract_y
 _atom_site_fract_z
 _atom_site_occupancy
  F  F0  1  0.25331076  0.49872553  0.49932579  1
  F  F1  1  0.75331076  0.00127447  0.50067421  1
  F  F2  1  0.24668924  0.99872553  0.00067421  1
  F  F3  1  0.74668924  0.50127447  0.99932579  1
  F  F4  1  0.74668924  0.50127447  0.50067421  1
  F  F5  1  0.24668924  0.99872553  0.49932579  1
  F  F6  1  0.75331076  0.00127447  0.99932579  1
  F  F7  1  0.25331076  0.49872553  0.00067421  1
  Se  Se8  1  0.48736908  0.25720711  0.36942899  1
  Se  Se9  1  0.98736908  0.24279289  0.63057101  1
  Se  Se10  1  0.01263092  0.75720711  0.13057101  1
  Se  Se11  1  0.51263092  0.74279289  0.86942899  1
  Se  Se12  1  0.50717506  0.73346049  0.25000000  1
  Se  Se13  1  0.00717506  0.76653951  0.75000000  1
  Se  Se14  1  0.99282494  0.23346049  0.25000000  1
  Se  Se15  1  0.49282494  0.26653951  0.75000000  1
  Se  Se16  1  0.48736908  0.25720711  0.13057101  1
  Se  Se17  1  0.98736908  0.24279289  0.86942899  1
  Se  Se18  1  0.01263092  0.75720711  0.36942899  1
  Se  Se19  1  0.51263092  0.74279289  0.63057101  1
  Sr  Sr20  1  0.50471856  0.75421259  0.06953312  1
  Sr  Sr21  1  0.00471856  0.74578741  0.93046688  1
  Sr  Sr22  1  0.99528144  0.25421259  0.43046688  1
  Sr  Sr23  1  0.49528144  0.24578741  0.56953312  1
  Sr  Sr24  1  0.50471856  0.75421259  0.43046688  1
  Sr  Sr25  1  0.00471856  0.74578741  0.56953312  1
  Sr  Sr26  1  0.99528144  0.25421259  0.06953312  1
  Sr  Sr27  1  0.49528144  0.24578741  0.93046688  1
  Sn  Sn28  1  0.58037466  0.14605463  0.25000000  1
  Sn  Sn29  1  0.08037466  0.35394537  0.75000000  1
  Sn  Sn30  1  0.91962534  0.64605463  0.25000000  1
  Sn  Sn31  1  0.41962534  0.85394537  0.75000000  1
