# generated using pymatgen
data_Li9Mn2Co5O16
_symmetry_space_group_name_H-M   'P 1'
_cell_length_a   2.87537056
_cell_length_b   5.14987723
_cell_length_c   19.82366559
_cell_angle_alpha   99.86191855
_cell_angle_beta   90.00000000
_cell_angle_gamma   90.00000000
_symmetry_Int_Tables_number   1
_chemical_formula_structural   Li9Mn2Co5O16
_chemical_formula_sum   'Li9 Mn2 Co5 O16'
_cell_volume   289.20737944
_cell_formula_units_Z   1
loop_
 _symmetry_equiv_pos_site_id
 _symmetry_equiv_pos_as_xyz
  1  'x, y, z'
loop_
 _atom_site_type_symbol
 _atom_site_label
 _atom_site_symmetry_multiplicity
 _atom_site_fract_x
 _atom_site_fract_y
 _atom_site_fract_z
 _atom_site_occupancy
  Li  Li0  1  0.50000000  0.23721226  0.11834044  1
  Li  Li1  1  0.50000000  0.75385538  0.37917874  1
  Li  Li2  1  0.50000000  0.25322701  0.62662218  1
  Li  Li3  1  0.50000000  0.76185729  0.87757304  1
  Li  Li4  1  -0.00000000  0.70765057  0.10856771  1
  Li  Li5  1  0.00000000  0.25634418  0.37994539  1
  Li  Li6  1  -0.00000000  0.75196347  0.62677092  1
  Li  Li7  1  -0.00000000  0.27778400  0.88091251  1
  Li  Li8  1  0.50000000  0.49645747  0.99903468  1
  Mn  Mn9  1  -0.00000000  -0.00116962  0.00038152  1
  Mn  Mn10  1  0.00000000  0.49747714  0.24951214  1
  Co  Co11  1  0.00000000  0.00083491  0.49998755  1
  Co  Co12  1  0.00000000  0.50393237  0.75138068  1
  Co  Co13  1  0.50000000  0.99612931  0.24910102  1
  Co  Co14  1  0.50000000  0.50109127  0.50027543  1
  Co  Co15  1  0.50000000  0.00457361  0.75101178  1
  O  O16  1  0.50000000  0.88116075  0.05654515  1
  O  O17  1  0.50000000  0.39690089  0.30646473  1
  O  O18  1  0.50000000  0.87470381  0.55687432  1
  O  O19  1  0.50000000  0.37724810  0.80902181  1
  O  O20  1  0.00000000  0.34013529  0.05899506  1
  O  O21  1  0.00000000  0.85645694  0.30296333  1
  O  O22  1  -0.00000000  0.37354973  0.55683710  1
  O  O23  1  -0.00000000  0.87816835  0.80735109  1
  O  O24  1  0.50000000  0.59835122  0.19371445  1
  O  O25  1  0.50000000  0.12473145  0.43981750  1
  O  O26  1  0.50000000  0.62877650  0.69253765  1
  O  O27  1  0.50000000  0.11472404  0.94642787  1
  O  O28  1  -0.00000000  0.14052920  0.19807991  1
  O  O29  1  -0.00000000  0.62474922  0.44086710  1
  O  O30  1  0.00000000  0.13034609  0.69247733  1
  O  O31  1  0.00000000  0.66024780  0.94242988  1
