# generated using pymatgen
data_Ho2Si2O7
_symmetry_space_group_name_H-M   'P 1'
_cell_length_a   6.63854772
_cell_length_b   6.67128976
_cell_length_c   12.11895767
_cell_angle_alpha   94.28309686
_cell_angle_beta   91.48553324
_cell_angle_gamma   92.11317184
_symmetry_Int_Tables_number   1
_chemical_formula_structural   Ho2Si2O7
_chemical_formula_sum   'Ho8 Si8 O28'
_cell_volume   534.63600755
_cell_formula_units_Z   4
loop_
 _symmetry_equiv_pos_site_id
 _symmetry_equiv_pos_as_xyz
  1  'x, y, z'
loop_
 _atom_site_type_symbol
 _atom_site_label
 _atom_site_symmetry_multiplicity
 _atom_site_fract_x
 _atom_site_fract_y
 _atom_site_fract_z
 _atom_site_occupancy
  O  O0  1  0.00082863  0.98479861  0.81491210  1
  O  O1  1  0.99917137  0.01520139  0.18508790  1
  O  O2  1  0.00019538  0.33327478  0.91844709  1
  O  O3  1  0.99980462  0.66672522  0.08155291  1
  O  O4  1  0.34976142  0.20929317  0.81524282  1
  O  O5  1  0.65023858  0.79070683  0.18475718  1
  O  O6  1  0.23001004  0.08338069  0.00604303  1
  O  O7  1  0.76998996  0.91661931  0.99395697  1
  O  O8  1  0.07593145  0.41414635  0.30907123  1
  O  O9  1  0.92406855  0.58585365  0.69092877  1
  O  O10  1  0.96195457  0.77201968  0.41760791  1
  O  O11  1  0.03804543  0.22798032  0.58239209  1
  O  O12  1  0.29039524  0.78239812  0.31160662  1
  O  O13  1  0.70960476  0.21760188  0.68839338  1
  O  O14  1  0.28255009  0.57353321  0.48848892  1
  O  O15  1  0.71744991  0.42646679  0.51151108  1
  O  O16  1  0.35386246  0.48832542  0.12571720  1
  O  O17  1  0.64613754  0.51167458  0.87428280  1
  O  O18  1  0.38383505  0.13631204  0.21227974  1
  O  O19  1  0.61616495  0.86368796  0.78772026  1
  O  O20  1  0.70084070  0.29470096  0.09444530  1
  O  O21  1  0.29915930  0.70529904  0.90555470  1
  O  O22  1  0.59949132  0.43420795  0.30619232  1
  O  O23  1  0.40050868  0.56579205  0.69380768  1
  O  O24  1  0.41284526  0.17460018  0.44823957  1
  O  O25  1  0.58715474  0.82539982  0.55176043  1
  O  O26  1  0.77393830  0.09698971  0.37719289  1
  O  O27  1  0.22606170  0.90301029  0.62280711  1
  Si  Si28  1  0.14446265  0.62520201  0.37758249  1
  Si  Si29  1  0.85553735  0.37479799  0.62241751  1
  Si  Si30  1  0.37726655  0.72402364  0.59374695  1
  Si  Si31  1  0.62273345  0.27597636  0.40625305  1
  Si  Si32  1  0.48727963  0.66526041  0.82470059  1
  Si  Si33  1  0.51272037  0.33473959  0.17529941  1
  Si  Si34  1  0.15550402  0.14807423  0.88542896  1
  Si  Si35  1  0.84449598  0.85192577  0.11457104  1
  Ho  Ho36  1  0.67441472  0.17327819  0.89008127  1
  Ho  Ho37  1  0.32558528  0.82672181  0.10991873  1
  Ho  Ho38  1  0.36743399  0.21525031  0.63446802  1
  Ho  Ho39  1  0.63256601  0.78474969  0.36553198  1
  Ho  Ho40  1  0.88186764  0.91027988  0.64434681  1
  Ho  Ho41  1  0.11813236  0.08972012  0.35565319  1
  Ho  Ho42  1  0.95008229  0.67245437  0.88542807  1
  Ho  Ho43  1  0.04991771  0.32754563  0.11457193  1
