# generated using pymatgen
data_LuCu(BO2)5
_symmetry_space_group_name_H-M   'P 1'
_cell_length_a   6.27911604
_cell_length_b   8.25119261
_cell_length_c   8.25119261
_cell_angle_alpha   62.43085779
_cell_angle_beta   67.63549867
_cell_angle_gamma   67.63549869
_symmetry_Int_Tables_number   1
_chemical_formula_structural   LuCu(BO2)5
_chemical_formula_sum   'Lu2 Cu2 B10 O20'
_cell_volume   339.38286649
_cell_formula_units_Z   2
loop_
 _symmetry_equiv_pos_site_id
 _symmetry_equiv_pos_as_xyz
  1  'x, y, z'
loop_
 _atom_site_type_symbol
 _atom_site_label
 _atom_site_symmetry_multiplicity
 _atom_site_fract_x
 _atom_site_fract_y
 _atom_site_fract_z
 _atom_site_occupancy
  B  B0  1  0.53750257  0.53879804  0.15320615  1
  B  B1  1  0.30414816  0.69585184  0.69585184  1
  B  B2  1  0.80414816  0.19585184  0.19585184  1
  B  B3  1  0.33774171  0.73841719  0.35300125  1
  B  B4  1  0.57083985  0.35300125  0.73841719  1
  B  B5  1  0.77049324  0.15320615  0.53879804  1
  B  B6  1  0.27049324  0.03879804  0.65320615  1
  B  B7  1  0.03750257  0.65320615  0.03879804  1
  B  B8  1  0.83774171  0.85300125  0.23841719  1
  B  B9  1  0.07083985  0.23841719  0.85300125  1
  O  O10  1  0.37831013  0.90429879  0.21526536  1
  O  O11  1  0.87831013  0.71526536  0.40429879  1
  O  O12  1  0.00212572  0.40429879  0.71526536  1
  O  O13  1  0.50212572  0.21526536  0.90429879  1
  O  O14  1  0.60604362  0.67663407  0.98734544  1
  O  O15  1  0.72997688  0.98734544  0.67663407  1
  O  O16  1  0.22997688  0.17663407  0.48734544  1
  O  O17  1  0.10604362  0.48734544  0.17663407  1
  O  O18  1  0.59008910  0.35394574  0.16501719  1
  O  O19  1  0.89094796  0.16501719  0.35394574  1
  O  O20  1  0.39094796  0.85394574  0.66501719  1
  O  O21  1  0.09008910  0.66501719  0.85394574  1
  O  O22  1  0.90663118  0.81816519  0.07351558  1
  O  O23  1  0.20168805  0.07351558  0.81816519  1
  O  O24  1  0.70168805  0.31816519  0.57351558  1
  O  O25  1  0.40663118  0.57351558  0.31816519  1
  O  O26  1  0.71722377  0.03788684  0.22648579  1
  O  O27  1  0.01840361  0.22648579  0.03788684  1
  O  O28  1  0.51840361  0.53788684  0.72648579  1
  O  O29  1  0.21722377  0.72648579  0.53788684  1
  Cu  Cu30  1  0.05408725  0.44591275  0.44591275  1
  Cu  Cu31  1  0.55408725  0.94591275  0.94591275  1
  Lu  Lu32  1  0.80415721  0.69584279  0.69584279  1
  Lu  Lu33  1  0.30415721  0.19584279  0.19584279  1
