# generated using pymatgen
data_ErGe2Pt
_symmetry_space_group_name_H-M   'P 1'
_cell_length_a   4.31858502
_cell_length_b   8.75357383
_cell_length_c   9.57634120
_cell_angle_alpha   117.19637559
_cell_angle_beta   103.03122271
_cell_angle_gamma   90.00000003
_symmetry_Int_Tables_number   1
_chemical_formula_structural   ErGe2Pt
_chemical_formula_sum   'Er4 Ge8 Pt4'
_cell_volume   311.47399301
_cell_formula_units_Z   4
loop_
 _symmetry_equiv_pos_site_id
 _symmetry_equiv_pos_as_xyz
  1  'x, y, z'
loop_
 _atom_site_type_symbol
 _atom_site_label
 _atom_site_symmetry_multiplicity
 _atom_site_fract_x
 _atom_site_fract_y
 _atom_site_fract_z
 _atom_site_occupancy
  Ge  Ge0  1  0.20108874  0.05123175  0.40217749  1
  Ge  Ge1  1  0.79891126  0.94876825  0.59782251  1
  Ge  Ge2  1  0.79891126  0.64905426  0.59782251  1
  Ge  Ge3  1  0.20108874  0.35094574  0.40217749  1
  Ge  Ge4  1  0.57378893  0.57378893  0.14757786  1
  Ge  Ge5  1  0.42693745  0.92693745  0.85387490  1
  Ge  Ge6  1  0.57306255  0.07306255  0.14612510  1
  Ge  Ge7  1  0.42621107  0.42621107  0.85242214  1
  Er  Er8  1  0.20043046  0.70043046  0.40086091  1
  Er  Er9  1  0.00000000  0.26311677  0.00000000  1
  Er  Er10  1  0.79956954  0.29956954  0.59913909  1
  Er  Er11  1  0.00000000  0.73688323  0.00000000  1
  Pt  Pt12  1  0.35264527  0.60303490  0.70529054  1
  Pt  Pt13  1  0.64735473  0.39696510  0.29470946  1
  Pt  Pt14  1  0.64735473  0.89774436  0.29470946  1
  Pt  Pt15  1  0.35264527  0.10225564  0.70529054  1
