# generated using pymatgen
data_Y2HfS5
_symmetry_space_group_name_H-M   'P 1'
_cell_length_a   7.26882472
_cell_length_b   7.74733768
_cell_length_c   11.57074105
_cell_angle_alpha   90.00000000
_cell_angle_beta   90.00000000
_cell_angle_gamma   90.00000000
_symmetry_Int_Tables_number   1
_chemical_formula_structural   Y2HfS5
_chemical_formula_sum   'Y8 Hf4 S20'
_cell_volume   651.59517018
_cell_formula_units_Z   4
loop_
 _symmetry_equiv_pos_site_id
 _symmetry_equiv_pos_as_xyz
  1  'x, y, z'
loop_
 _atom_site_type_symbol
 _atom_site_label
 _atom_site_symmetry_multiplicity
 _atom_site_fract_x
 _atom_site_fract_y
 _atom_site_fract_z
 _atom_site_occupancy
  S  S0  1  0.31049731  0.75000000  0.20666734  1
  S  S1  1  0.81049731  0.25000000  0.29333266  1
  S  S2  1  0.68950269  0.25000000  0.79333266  1
  S  S3  1  0.18950269  0.75000000  0.70666734  1
  S  S4  1  0.05433089  0.75000000  0.99631302  1
  S  S5  1  0.55433089  0.25000000  0.50368698  1
  S  S6  1  0.94566911  0.25000000  0.00368698  1
  S  S7  1  0.44566911  0.75000000  0.49631302  1
  S  S8  1  0.83222932  0.75000000  0.31946215  1
  S  S9  1  0.33222932  0.25000000  0.18053785  1
  S  S10  1  0.16777068  0.25000000  0.68053785  1
  S  S11  1  0.66777068  0.75000000  0.81946215  1
  S  S12  1  0.83993463  0.96362603  0.59343195  1
  S  S13  1  0.33993463  0.03637397  0.90656805  1
  S  S14  1  0.16006537  0.46362603  0.40656805  1
  S  S15  1  0.66006537  0.53637397  0.09343195  1
  S  S16  1  0.16006537  0.03637397  0.40656805  1
  S  S17  1  0.66006537  0.96362603  0.09343195  1
  S  S18  1  0.83993463  0.53637397  0.59343195  1
  S  S19  1  0.33993463  0.46362603  0.90656805  1
  Y  Y20  1  0.97831139  0.00279683  0.82106469  1
  Y  Y21  1  0.47831139  0.99720317  0.67893531  1
  Y  Y22  1  0.02168861  0.50279683  0.17893531  1
  Y  Y23  1  0.52168861  0.49720317  0.32106469  1
  Y  Y24  1  0.47831139  0.50279683  0.67893531  1
  Y  Y25  1  0.97831139  0.49720317  0.82106469  1
  Y  Y26  1  0.52168861  0.00279683  0.32106469  1
  Y  Y27  1  0.02168861  0.99720317  0.17893531  1
  Hf  Hf28  1  0.42430508  0.75000000  0.99407932  1
  Hf  Hf29  1  0.92430508  0.25000000  0.50592068  1
  Hf  Hf30  1  0.57569492  0.25000000  0.00592068  1
  Hf  Hf31  1  0.07569492  0.75000000  0.49407932  1
