# generated using pymatgen
data_Ba2HgS3
_symmetry_space_group_name_H-M   'P 1'
_cell_length_a   4.40863738
_cell_length_b   9.06836905
_cell_length_c   17.53796720
_cell_angle_alpha   90.00000000
_cell_angle_beta   90.00000000
_cell_angle_gamma   90.00000000
_symmetry_Int_Tables_number   1
_chemical_formula_structural   Ba2HgS3
_chemical_formula_sum   'Ba8 Hg4 S12'
_cell_volume   701.15303488
_cell_formula_units_Z   4
loop_
 _symmetry_equiv_pos_site_id
 _symmetry_equiv_pos_as_xyz
  1  'x, y, z'
loop_
 _atom_site_type_symbol
 _atom_site_label
 _atom_site_symmetry_multiplicity
 _atom_site_fract_x
 _atom_site_fract_y
 _atom_site_fract_z
 _atom_site_occupancy
  S  S0  1  0.25000000  0.81452858  0.27771198  1
  S  S1  1  0.75000000  0.18547142  0.72228802  1
  S  S2  1  0.25000000  0.31452858  0.22228802  1
  S  S3  1  0.75000000  0.68547142  0.77771198  1
  S  S4  1  0.25000000  0.98348496  0.90375798  1
  S  S5  1  0.75000000  0.01651504  0.09624202  1
  S  S6  1  0.25000000  0.48348496  0.59624202  1
  S  S7  1  0.75000000  0.51651504  0.40375798  1
  S  S8  1  0.25000000  0.61756333  0.07174983  1
  S  S9  1  0.75000000  0.88243667  0.57174983  1
  S  S10  1  0.25000000  0.11756333  0.42825017  1
  S  S11  1  0.75000000  0.38243667  0.92825017  1
  Ba  Ba12  1  0.25000000  0.25994323  0.03934019  1
  Ba  Ba13  1  0.25000000  0.42215468  0.78384915  1
  Ba  Ba14  1  0.75000000  0.07784532  0.28384915  1
  Ba  Ba15  1  0.25000000  0.92215468  0.71615085  1
  Ba  Ba16  1  0.25000000  0.75994323  0.46065981  1
  Ba  Ba17  1  0.75000000  0.24005677  0.53934019  1
  Ba  Ba18  1  0.75000000  0.74005677  0.96065981  1
  Ba  Ba19  1  0.75000000  0.57784532  0.21615085  1
  Hg  Hg20  1  0.75000000  0.62379995  0.63302700  1
  Hg  Hg21  1  0.25000000  0.37620005  0.36697300  1
  Hg  Hg22  1  0.75000000  0.12379995  0.86697300  1
  Hg  Hg23  1  0.25000000  0.87620005  0.13302700  1
