# generated using pymatgen
data_BaTeMo2O9
_symmetry_space_group_name_H-M   'P 1'
_cell_length_a   5.70228442
_cell_length_b   7.58706967
_cell_length_c   9.00990658
_cell_angle_alpha   90.00000000
_cell_angle_beta   90.44591010
_cell_angle_gamma   90.00000000
_symmetry_Int_Tables_number   1
_chemical_formula_structural   BaTeMo2O9
_chemical_formula_sum   'Ba2 Te2 Mo4 O18'
_cell_volume   389.78945207
_cell_formula_units_Z   2
loop_
 _symmetry_equiv_pos_site_id
 _symmetry_equiv_pos_as_xyz
  1  'x, y, z'
loop_
 _atom_site_type_symbol
 _atom_site_label
 _atom_site_symmetry_multiplicity
 _atom_site_fract_x
 _atom_site_fract_y
 _atom_site_fract_z
 _atom_site_occupancy
  O  O0  1  0.28883046  0.47550353  0.86591426  1
  O  O1  1  0.71116954  0.97550353  0.13408574  1
  O  O2  1  0.99358031  0.29109084  0.67601013  1
  O  O3  1  0.00641969  0.79109084  0.32398987  1
  O  O4  1  0.02433693  0.65030364  0.64315084  1
  O  O5  1  0.97566307  0.15030364  0.35684916  1
  O  O6  1  0.76293237  0.61558066  0.91400656  1
  O  O7  1  0.23706763  0.11558066  0.08599344  1
  O  O8  1  0.28727764  0.43139166  0.44110071  1
  O  O9  1  0.71272236  0.93139166  0.55889929  1
  O  O10  1  0.53405388  0.73508938  0.32913087  1
  O  O11  1  0.46594612  0.23508938  0.67086913  1
  O  O12  1  0.54164144  0.59547776  0.62427095  1
  O  O13  1  0.45835856  0.09547776  0.37572905  1
  O  O14  1  0.50109938  0.39749923  0.19734997  1
  O  O15  1  0.49890062  0.89749923  0.80265003  1
  O  O16  1  0.02041080  0.42540123  0.16005393  1
  O  O17  1  0.97958920  0.92540123  0.83994607  1
  Mo  Mo18  1  0.21645389  0.45103179  0.67487836  1
  Mo  Mo19  1  0.78354611  0.95103179  0.32512164  1
  Mo  Mo20  1  0.77705732  0.77043470  0.76747882  1
  Mo  Mo21  1  0.22294268  0.27043470  0.23252118  1
  Te  Te22  1  0.39039301  0.01426895  0.58264971  1
  Te  Te23  1  0.60960699  0.51426895  0.41735029  1
  Ba  Ba24  1  0.72085743  0.24696664  0.93448889  1
  Ba  Ba25  1  0.27914257  0.74696664  0.06551111  1
