# generated using pymatgen
data_BaCo2(PO4)2
_symmetry_space_group_name_H-M   'P 1'
_cell_length_a   8.41936925
_cell_length_b   8.41936924
_cell_length_c   8.41936924
_cell_angle_alpha   33.77344499
_cell_angle_beta   33.77344499
_cell_angle_gamma   33.77344493
_symmetry_Int_Tables_number   1
_chemical_formula_structural   BaCo2(PO4)2
_chemical_formula_sum   'Ba1 Co2 P2 O8'
_cell_volume   164.34104406
_cell_formula_units_Z   1
loop_
 _symmetry_equiv_pos_site_id
 _symmetry_equiv_pos_as_xyz
  1  'x, y, z'
loop_
 _atom_site_type_symbol
 _atom_site_label
 _atom_site_symmetry_multiplicity
 _atom_site_fract_x
 _atom_site_fract_y
 _atom_site_fract_z
 _atom_site_occupancy
  O  O0  1  0.75680991  0.14800724  0.43895864  1
  O  O1  1  0.14800707  0.43895911  0.75681013  1
  O  O2  1  0.43895952  0.75680976  0.14800662  1
  O  O3  1  0.24318988  0.85199258  0.56104119  1
  O  O4  1  0.85199273  0.56104071  0.24318970  1
  O  O5  1  0.63751257  0.63751195  0.63751018  1
  O  O6  1  0.56104027  0.24319006  0.85199321  1
  O  O7  1  0.36248939  0.36248787  0.36248785  1
  P  P8  1  0.42671668  0.42671720  0.42671769  1
  P  P9  1  0.57328309  0.57328261  0.57328334  1
  Co  Co10  1  0.16928994  0.16929200  0.16929153  1
  Co  Co11  1  0.83070983  0.83070781  0.83070950  1
  Ba  Ba12  1  0.00000000  0.00000000  0.00000000  1
