# generated using pymatgen
data_InGaS3
_symmetry_space_group_name_H-M   'P 1'
_cell_length_a   3.80701951
_cell_length_b   6.23336528
_cell_length_c   10.08237505
_cell_angle_alpha   90.00000000
_cell_angle_beta   100.88251495
_cell_angle_gamma   90.00000000
_symmetry_Int_Tables_number   1
_chemical_formula_structural   InGaS3
_chemical_formula_sum   'In2 Ga2 S6'
_cell_volume   234.95747048
_cell_formula_units_Z   2
loop_
 _symmetry_equiv_pos_site_id
 _symmetry_equiv_pos_as_xyz
  1  'x, y, z'
loop_
 _atom_site_type_symbol
 _atom_site_label
 _atom_site_symmetry_multiplicity
 _atom_site_fract_x
 _atom_site_fract_y
 _atom_site_fract_z
 _atom_site_occupancy
  S  S0  1  0.89517818  0.69656232  0.79035637  1
  S  S1  1  0.10482182  0.19656232  0.20964363  1
  S  S2  1  0.56667679  0.70825398  0.13335359  1
  S  S3  1  0.43332321  0.20825398  0.86664641  1
  S  S4  1  0.78068950  0.24157568  0.56137900  1
  S  S5  1  0.21931050  0.74157568  0.43862100  1
  Ga  Ga6  1  0.88446472  0.05745233  0.76892943  1
  Ga  Ga7  1  0.11553528  0.55745233  0.23107057  1
  In  In8  1  0.33253477  0.50205570  0.66506954  1
  In  In9  1  0.66746523  0.00205570  0.33493046  1
