# generated using pymatgen
data_Ba3NiSb2O9
_symmetry_space_group_name_H-M   'P 1'
_cell_length_a   5.87851720
_cell_length_b   5.87851720
_cell_length_c   14.52209311
_cell_angle_alpha   90.00000000
_cell_angle_beta   90.00000000
_cell_angle_gamma   120.00000001
_symmetry_Int_Tables_number   1
_chemical_formula_structural   Ba3NiSb2O9
_chemical_formula_sum   'Ba6 Ni2 Sb4 O18'
_cell_volume   434.60571706
_cell_formula_units_Z   2
loop_
 _symmetry_equiv_pos_site_id
 _symmetry_equiv_pos_as_xyz
  1  'x, y, z'
loop_
 _atom_site_type_symbol
 _atom_site_label
 _atom_site_symmetry_multiplicity
 _atom_site_fract_x
 _atom_site_fract_y
 _atom_site_fract_z
 _atom_site_occupancy
  O  O0  1  0.83522414  0.16477586  0.41545903  1
  O  O1  1  0.67044828  0.83522414  0.91545903  1
  O  O2  1  0.16477586  0.32955172  0.91545903  1
  O  O3  1  0.83522414  0.67044828  0.41545903  1
  O  O4  1  0.32955172  0.16477586  0.41545903  1
  O  O5  1  0.16477586  0.83522414  0.91545903  1
  O  O6  1  0.51141184  0.48858816  0.25339043  1
  O  O7  1  0.02282367  0.51141184  0.75339043  1
  O  O8  1  0.48858816  0.97717633  0.75339043  1
  O  O9  1  0.51141184  0.02282367  0.25339043  1
  O  O10  1  0.97717633  0.48858816  0.25339043  1
  O  O11  1  0.48858816  0.51141184  0.75339043  1
  O  O12  1  0.16126304  0.83873696  0.57559022  1
  O  O13  1  0.32252608  0.16126304  0.07559022  1
  O  O14  1  0.83873696  0.67747392  0.07559022  1
  O  O15  1  0.16126304  0.32252608  0.57559022  1
  O  O16  1  0.67747392  0.83873696  0.57559022  1
  O  O17  1  0.83873696  0.16126304  0.07559022  1
  Ni  Ni18  1  0.33333333  0.66666667  0.65008464  1
  Ni  Ni19  1  0.66666667  0.33333333  0.15008464  1
  Sb  Sb20  1  0.00000000  0.00000000  0.00151253  1
  Sb  Sb21  1  0.00000000  0.00000000  0.50151253  1
  Sb  Sb22  1  0.33333333  0.66666667  0.83636817  1
  Sb  Sb23  1  0.66666667  0.33333333  0.33636817  1
  Ba  Ba24  1  0.66666667  0.33333333  0.90952250  1
  Ba  Ba25  1  0.33333333  0.66666667  0.40952250  1
  Ba  Ba26  1  0.66666667  0.33333333  0.60629080  1
  Ba  Ba27  1  0.33333333  0.66666667  0.10629080  1
  Ba  Ba28  1  0.00000000  0.00000000  0.74389231  1
  Ba  Ba29  1  0.00000000  0.00000000  0.24389231  1
