# generated using pymatgen
data_Li9Mn2Co5O16
_symmetry_space_group_name_H-M   'P 1'
_cell_length_a   2.94515292
_cell_length_b   19.38200512
_cell_length_c   5.06978401
_cell_angle_alpha   93.73576928
_cell_angle_beta   90.05178651
_cell_angle_gamma   85.55727301
_symmetry_Int_Tables_number   1
_chemical_formula_structural   Li9Mn2Co5O16
_chemical_formula_sum   'Li9 Mn2 Co5 O16'
_cell_volume   287.91317648
_cell_formula_units_Z   1
loop_
 _symmetry_equiv_pos_site_id
 _symmetry_equiv_pos_as_xyz
  1  'x, y, z'
loop_
 _atom_site_type_symbol
 _atom_site_label
 _atom_site_symmetry_multiplicity
 _atom_site_fract_x
 _atom_site_fract_y
 _atom_site_fract_z
 _atom_site_occupancy
  Li  Li0  1  0.92997466  0.13478205  0.69671421  1
  Li  Li1  1  0.31935050  0.36676462  0.56235406  1
  Li  Li2  1  0.68665186  0.62424149  0.44403360  1
  Li  Li3  1  0.06428301  0.87396351  0.31511099  1
  Li  Li4  1  0.43046772  0.13144200  0.19614317  1
  Li  Li5  1  0.81786383  0.36844775  0.04709740  1
  Li  Li6  1  0.18642978  0.62537648  0.93402712  1
  Li  Li7  1  0.56471198  0.87529872  0.80604171  1
  Li  Li8  1  0.37450931  0.25059920  0.87598280  1
  Mn  Mn9  1  0.99823963  0.00160272  0.00099921  1
  Mn  Mn10  1  0.25147003  0.49852398  0.24756629  1
  Co  Co11  1  0.75192410  0.49783364  0.74785186  1
  Co  Co12  1  0.12530345  0.74991510  0.62491566  1
  Co  Co13  1  0.49828628  0.00172733  0.50133225  1
  Co  Co14  1  0.87488123  0.24997838  0.37521239  1
  Co  Co15  1  0.62536380  0.74982298  0.12488590  1
  O  O16  1  0.46884685  0.05757584  0.87021432  1
  O  O17  1  0.84857711  0.30603503  0.67536524  1
  O  O18  1  0.22231367  0.55541912  0.57861552  1
  O  O19  1  0.59424100  0.80896583  0.45484580  1
  O  O20  1  0.96894567  0.05673789  0.33089212  1
  O  O21  1  0.34691056  0.30527469  0.23359427  1
  O  O22  1  0.72234853  0.55521008  0.11673187  1
  O  O23  1  0.09477689  0.80772750  0.95574336  1
  O  O24  1  0.40276068  0.19434116  0.52146928  1
  O  O25  1  0.77972037  0.44343094  0.37583073  1
  O  O26  1  0.15592415  0.69215422  0.29445823  1
  O  O27  1  0.52781970  0.94516697  0.13124217  1
  O  O28  1  0.90067315  0.19521182  0.07559044  1
  O  O29  1  0.28102219  0.44125111  0.91940545  1
  O  O30  1  0.65636104  0.69094242  0.79483163  1
  O  O31  1  0.02904724  0.94423544  0.67090095  1
