# generated using pymatgen
data_La4Mo2O11
_symmetry_space_group_name_H-M   'P 1'
_cell_length_a   5.76375663
_cell_length_b   13.22185321
_cell_length_c   13.22185321
_cell_angle_alpha   90.00000000
_cell_angle_beta   90.00000000
_cell_angle_gamma   90.00000000
_symmetry_Int_Tables_number   1
_chemical_formula_structural   La4Mo2O11
_chemical_formula_sum   'La16 Mo8 O44'
_cell_volume   1007.60496159
_cell_formula_units_Z   4
loop_
 _symmetry_equiv_pos_site_id
 _symmetry_equiv_pos_as_xyz
  1  'x, y, z'
loop_
 _atom_site_type_symbol
 _atom_site_label
 _atom_site_symmetry_multiplicity
 _atom_site_fract_x
 _atom_site_fract_y
 _atom_site_fract_z
 _atom_site_occupancy
  O  O0  1  0.25000000  0.75000000  0.75000000  1
  O  O1  1  0.75000000  0.25000000  0.25000000  1
  O  O2  1  0.75000000  0.75000000  0.75000000  1
  O  O3  1  0.25000000  0.25000000  0.25000000  1
  O  O4  1  0.66748461  -0.00173344  0.57549347  1
  O  O5  1  0.16748461  0.42450653  0.49826656  1
  O  O6  1  0.16748461  0.07549347  1.00173344  1
  O  O7  1  0.66748461  0.50173344  0.92450653  1
  O  O8  1  0.33251539  1.00173344  0.42450653  1
  O  O9  1  0.83251539  0.57549347  0.50173344  1
  O  O10  1  0.83251539  0.92450653  -0.00173344  1
  O  O11  1  0.33251539  0.49826656  0.07549347  1
  O  O12  1  0.32660556  0.83166321  0.54267561  1
  O  O13  1  0.82660556  0.45732439  0.33166321  1
  O  O14  1  0.82660556  0.04267561  0.16833679  1
  O  O15  1  0.32660556  0.66833679  0.95732439  1
  O  O16  1  0.80419408  0.94678711  0.37420855  1
  O  O17  1  0.67339444  0.16833679  0.45732439  1
  O  O18  1  0.17339444  0.95732439  0.83166321  1
  O  O19  1  0.67339444  0.33166321  0.04267561  1
  O  O20  1  0.19580592  0.05321289  0.62579145  1
  O  O21  1  0.69580592  0.37420855  0.55321289  1
  O  O22  1  0.69580592  0.12579145  0.94678711  1
  O  O23  1  0.19580592  0.44678711  0.87420855  1
  O  O24  1  0.49553721  0.70089474  0.15319600  1
  O  O25  1  0.99553721  0.84680400  0.20089474  1
  O  O26  1  0.99553721  0.65319600  0.29910526  1
  O  O27  1  0.49553721  0.79910526  0.34680400  1
  O  O28  1  0.50446279  0.29910526  0.84680400  1
  O  O29  1  0.00446279  0.15319600  0.79910526  1
  O  O30  1  0.00446279  0.34680400  0.70089474  1
  O  O31  1  0.50446279  0.20089474  0.65319600  1
  O  O32  1  0.19398080  0.29864278  0.02973858  1
  O  O33  1  0.69398080  0.97026142  0.79864278  1
  O  O34  1  0.69398080  0.52973858  0.70135722  1
  O  O35  1  0.19398080  0.20135722  0.47026142  1
  O  O36  1  0.80601920  0.70135722  0.97026142  1
  O  O37  1  0.30601920  0.02973858  0.20135722  1
  O  O38  1  0.30601920  0.47026142  0.29864278  1
  O  O39  1  0.80601920  0.79864278  0.52973858  1
  O  O40  1  0.80419408  0.55321289  0.12579145  1
  O  O41  1  0.30419408  0.87420855  0.05321289  1
  O  O42  1  0.30419408  0.62579145  0.44678711  1
  O  O43  1  0.17339444  0.54267561  0.66833679  1
  Mo  Mo44  1  0.41476853  0.10238943  0.53018141  1
  Mo  Mo45  1  0.91476853  0.46981859  0.60238943  1
  Mo  Mo46  1  0.91476853  0.03018141  0.89761057  1
  Mo  Mo47  1  0.41476853  0.39761057  0.96981859  1
  Mo  Mo48  1  0.58523147  0.89761057  0.46981859  1
  Mo  Mo49  1  0.08523147  0.53018141  0.39761057  1
  Mo  Mo50  1  0.08523147  0.96981859  0.10238943  1
  Mo  Mo51  1  0.58523147  0.60238943  0.03018141  1
  La  La52  1  0.91134885  0.19918660  0.61084989  1
  La  La53  1  0.41134885  0.38915011  0.69918660  1
  La  La54  1  0.41134885  0.11084989  0.80081340  1
  La  La55  1  0.91134885  0.30081340  0.88915011  1
  La  La56  1  0.08865115  0.80081340  0.38915011  1
  La  La57  1  0.58865115  0.61084989  0.30081340  1
  La  La58  1  0.58865115  0.88915011  0.19918660  1
  La  La59  1  0.08865115  0.69918660  0.11084989  1
  La  La60  1  0.50275173  0.67901867  0.62065346  1
  La  La61  1  0.00275173  0.37934654  0.17901867  1
  La  La62  1  0.00275173  0.12065346  0.32098133  1
  La  La63  1  0.50275173  0.82098133  0.87934654  1
  La  La64  1  0.49724827  0.32098133  0.37934654  1
  La  La65  1  0.99724827  0.62065346  0.82098133  1
  La  La66  1  0.99724827  0.87934654  0.67901867  1
  La  La67  1  0.49724827  0.17901867  0.12065346  1
