# generated using pymatgen
data_MnTe2O5
_symmetry_space_group_name_H-M   'P 1'
_cell_length_a   8.94670831
_cell_length_b   8.94670831
_cell_length_c   13.14340518
_cell_angle_alpha   90.00000000
_cell_angle_beta   90.00000000
_cell_angle_gamma   90.00000000
_symmetry_Int_Tables_number   1
_chemical_formula_structural   MnTe2O5
_chemical_formula_sum   'Mn8 Te16 O40'
_cell_volume   1052.04532997
_cell_formula_units_Z   8
loop_
 _symmetry_equiv_pos_site_id
 _symmetry_equiv_pos_as_xyz
  1  'x, y, z'
loop_
 _atom_site_type_symbol
 _atom_site_label
 _atom_site_symmetry_multiplicity
 _atom_site_fract_x
 _atom_site_fract_y
 _atom_site_fract_z
 _atom_site_occupancy
  O  O0  1  0.05237291  0.05237291  0.75000004  1
  O  O1  1  0.44762785  0.05237291  0.25000001  1
  O  O2  1  0.05237291  0.44762785  0.25000001  1
  O  O3  1  0.44762785  0.44762785  0.75000004  1
  O  O4  1  0.94762748  0.94762748  0.25000001  1
  O  O5  1  0.55237255  0.94762748  0.75000004  1
  O  O6  1  0.94762748  0.55237255  0.75000004  1
  O  O7  1  0.55237255  0.55237255  0.25000001  1
  O  O8  1  0.87481495  0.52013659  0.95186836  1
  O  O9  1  0.62518508  0.97986344  0.95186836  1
  O  O10  1  0.52013659  0.87481495  0.54813171  1
  O  O11  1  0.52013659  0.62518508  0.45186834  1
  O  O12  1  0.97986344  0.87481495  0.45186834  1
  O  O13  1  0.62518508  0.52013659  0.04813169  1
  O  O14  1  0.87481495  0.97986344  0.04813169  1
  O  O15  1  0.60400400  0.67197628  0.86684608  1
  O  O16  1  0.12518544  0.47986269  0.04813169  1
  O  O17  1  0.37481419  0.02013695  0.04813169  1
  O  O18  1  0.47986269  0.12518544  0.45186834  1
  O  O19  1  0.47986269  0.37481419  0.54813171  1
  O  O20  1  0.02013695  0.12518544  0.54813171  1
  O  O21  1  0.37481419  0.47986269  0.95186836  1
  O  O22  1  0.12518544  0.02013695  0.95186836  1
  O  O23  1  0.02013695  0.37481419  0.45186834  1
  O  O24  1  0.17197664  0.10400437  0.36684605  1
  O  O25  1  0.39599527  0.17197664  0.86684608  1
  O  O26  1  0.10400437  0.32802412  0.86684608  1
  O  O27  1  0.17197664  0.39599527  0.63315400  1
  O  O28  1  0.32802412  0.10400437  0.63315400  1
  O  O29  1  0.32802412  0.39599527  0.36684605  1
  O  O30  1  0.10400437  0.17197664  0.13315397  1
  O  O31  1  0.39599527  0.32802412  0.13315397  1
  O  O32  1  0.82802375  0.89599603  0.63315400  1
  O  O33  1  0.60400400  0.82802375  0.13315397  1
  O  O34  1  0.89599603  0.67197628  0.13315397  1
  O  O35  1  0.82802375  0.60400400  0.36684605  1
  O  O36  1  0.67197628  0.89599603  0.36684605  1
  O  O37  1  0.67197628  0.60400400  0.63315400  1
  O  O38  1  0.89599603  0.82802375  0.86684608  1
  O  O39  1  0.97986344  0.62518508  0.54813171  1
  Mn  Mn40  1  0.25000038  0.25000038  0.00000000  1
  Mn  Mn41  1  0.25000038  0.25000038  0.50000002  1
  Mn  Mn42  1  0.75000001  0.75000001  0.00000000  1
  Mn  Mn43  1  0.75000001  0.75000001  0.50000002  1
  Mn  Mn44  1  0.25000038  0.25000038  0.25000001  1
  Mn  Mn45  1  0.25000038  0.25000038  0.75000004  1
  Mn  Mn46  1  0.75000001  0.75000001  0.75000004  1
  Mn  Mn47  1  0.75000001  0.75000001  0.25000001  1
  Te  Te48  1  0.03554400  0.93636393  0.61639728  1
  Te  Te49  1  0.56363610  0.03554400  0.11639726  1
  Te  Te50  1  0.46445563  0.93636393  0.38360277  1
  Te  Te51  1  0.46445563  0.56363610  0.61639728  1
  Te  Te52  1  0.93636393  0.46445563  0.11639726  1
  Te  Te53  1  0.56363610  0.46445563  0.88360279  1
  Te  Te54  1  0.93636393  0.03554400  0.88360279  1
  Te  Te55  1  0.03554400  0.56363610  0.38360277  1
  Te  Te56  1  0.96445639  0.43636317  0.61639728  1
  Te  Te57  1  0.06363647  0.96445639  0.11639726  1
  Te  Te58  1  0.43636317  0.53554364  0.11639726  1
  Te  Te59  1  0.96445639  0.06363647  0.38360277  1
  Te  Te60  1  0.53554364  0.43636317  0.38360277  1
  Te  Te61  1  0.53554364  0.06363647  0.61639728  1
  Te  Te62  1  0.43636317  0.96445639  0.88360279  1
  Te  Te63  1  0.06363647  0.53554364  0.88360279  1
