# generated using pymatgen
data_LaMnO3
_symmetry_space_group_name_H-M   'P 1'
_cell_length_a   5.56396973
_cell_length_b   5.56396973
_cell_length_c   5.56396972
_cell_angle_alpha   61.04400607
_cell_angle_beta   61.04400601
_cell_angle_gamma   61.04400609
_symmetry_Int_Tables_number   1
_chemical_formula_structural   LaMnO3
_chemical_formula_sum   'La2 Mn2 O6'
_cell_volume   124.66110776
_cell_formula_units_Z   2
loop_
 _symmetry_equiv_pos_site_id
 _symmetry_equiv_pos_as_xyz
  1  'x, y, z'
loop_
 _atom_site_type_symbol
 _atom_site_label
 _atom_site_symmetry_multiplicity
 _atom_site_fract_x
 _atom_site_fract_y
 _atom_site_fract_z
 _atom_site_occupancy
  O  O0  1  0.32358138  0.75000000  0.17641862  1
  O  O1  1  0.75000000  0.17641862  0.32358138  1
  O  O2  1  0.17641862  0.32358138  0.75000000  1
  O  O3  1  0.67641862  0.25000000  0.82358138  1
  O  O4  1  0.82358138  0.67641862  0.25000000  1
  O  O5  1  0.25000000  0.82358138  0.67641862  1
  Mn  Mn6  1  0.50000000  0.50000000  0.50000000  1
  Mn  Mn7  1  0.00000000  0.00000000  0.00000000  1
  La  La8  1  0.75000000  0.75000000  0.75000000  1
  La  La9  1  0.25000000  0.25000000  0.25000000  1
