# generated using pymatgen
data_U7Te12
_symmetry_space_group_name_H-M   'P 1'
_cell_length_a   12.42108704
_cell_length_b   12.42108705
_cell_length_c   4.19090591
_cell_angle_alpha   90.00000000
_cell_angle_beta   90.00000000
_cell_angle_gamma   120.00000000
_symmetry_Int_Tables_number   1
_chemical_formula_structural   U7Te12
_chemical_formula_sum   'U7 Te12'
_cell_volume   559.96096423
_cell_formula_units_Z   1
loop_
 _symmetry_equiv_pos_site_id
 _symmetry_equiv_pos_as_xyz
  1  'x, y, z'
loop_
 _atom_site_type_symbol
 _atom_site_label
 _atom_site_symmetry_multiplicity
 _atom_site_fract_x
 _atom_site_fract_y
 _atom_site_fract_z
 _atom_site_occupancy
  Te  Te0  1  0.74364035  0.75239310  0.00000000  1
  Te  Te1  1  0.24760690  0.99124725  0.00000000  1
  Te  Te2  1  0.00875275  0.25635965  0.00000000  1
  Te  Te3  1  0.49259274  0.86384083  0.00000000  1
  Te  Te4  1  0.13615917  0.62875190  0.00000000  1
  Te  Te5  1  0.37124810  0.50740726  0.00000000  1
  Te  Te6  1  0.86098663  0.38567260  0.50000000  1
  Te  Te7  1  0.21195966  0.20855038  0.50000000  1
  Te  Te8  1  0.99659072  0.78804034  0.50000000  1
  Te  Te9  1  0.79144962  0.00340928  0.50000000  1
  Te  Te10  1  0.52468597  0.13901337  0.50000000  1
  Te  Te11  1  0.61432740  0.47531403  0.50000000  1
  U  U12  1  0.72410216  0.15497573  0.00000000  1
  U  U13  1  0.84502427  0.56912644  0.00000000  1
  U  U14  1  0.43087356  0.27589784  0.00000000  1
  U  U15  1  0.54788723  0.70761690  0.50000000  1
  U  U16  1  0.29238310  0.84027033  0.50000000  1
  U  U17  1  0.15972967  0.45211277  0.50000000  1
  U  U18  1  0.00000000  0.00000000  0.00000000  1
