# generated using pymatgen
data_Li9Mn2Co5O16
_symmetry_space_group_name_H-M   'P 1'
_cell_length_a   2.88818267
_cell_length_b   10.65851861
_cell_length_c   10.32999369
_cell_angle_alpha   112.67845816
_cell_angle_beta   89.99999963
_cell_angle_gamma   82.21321826
_symmetry_Int_Tables_number   1
_chemical_formula_structural   Li9Mn2Co5O16
_chemical_formula_sum   'Li9 Mn2 Co5 O16'
_cell_volume   290.22898213
_cell_formula_units_Z   1
loop_
 _symmetry_equiv_pos_site_id
 _symmetry_equiv_pos_as_xyz
  1  'x, y, z'
loop_
 _atom_site_type_symbol
 _atom_site_label
 _atom_site_symmetry_multiplicity
 _atom_site_fract_x
 _atom_site_fract_y
 _atom_site_fract_z
 _atom_site_occupancy
  Li  Li0  1  0.36373359  0.27253282  0.20241881  1
  Li  Li1  1  0.13291113  0.73417774  0.54341865  1
  Li  Li2  1  0.86934917  0.26130166  0.94513076  1
  Li  Li3  1  0.87218351  0.25563298  0.44563078  1
  Li  Li4  1  0.63088887  0.73822227  0.80352126  1
  Li  Li5  1  0.37113215  0.25773570  0.68620581  1
  Li  Li6  1  0.13261647  0.73476705  0.05781901  1
  Li  Li7  1  0.62553876  0.74892247  0.32351692  1
  Li  Li8  1  0.74953254  0.50093491  0.37517199  1
  Mn  Mn9  1  0.00005081  -0.00010163  0.99603176  1
  Mn  Mn10  1  0.50001524  -0.00003048  0.25392450  1
  Co  Co11  1  0.50034923  0.99930154  0.74635014  1
  Co  Co12  1  0.24636114  0.50727772  0.14538701  1
  Co  Co13  1  0.99942472  0.00115056  0.50579596  1
  Co  Co14  1  0.75054151  0.49891698  0.87387903  1
  Co  Co15  1  0.25345577  0.49308845  0.60368501  1
  O  O16  1  0.44319861  0.11360278  0.97628529  1
  O  O17  1  0.18897285  0.62205430  0.32762466  1
  O  O18  1  0.94464675  0.11070651  0.72066901  1
  O  O19  1  0.94889837  0.10220326  0.20423666  1
  O  O20  1  0.69033601  0.61932798  0.60203453  1
  O  O21  1  0.43961237  0.12077527  0.47549511  1
  O  O22  1  0.19650448  0.60699104  0.84783743  1
  O  O23  1  0.69798277  0.60403447  0.07138372  1
  O  O24  1  0.31122210  0.37755580  0.42069781  1
  O  O25  1  0.05127954  0.89744091  0.79337535  1
  O  O26  1  0.80964674  0.38070653  0.14857471  1
  O  O27  1  0.80179899  0.39640202  0.67573168  1
  O  O28  1  0.55761875  0.88476251  0.01611254  1
  O  O29  1  0.30458157  0.39083687  0.89999098  1
  O  O30  1  0.05611165  0.88777669  0.27983954  1
  O  O31  1  0.55950384  0.88099232  0.53222360  1
