# generated using pymatgen
data_PrLuO3
_symmetry_space_group_name_H-M   'P 1'
_cell_length_a   5.77056193
_cell_length_b   6.01032990
_cell_length_c   8.35974854
_cell_angle_alpha   90.00000000
_cell_angle_beta   90.00000000
_cell_angle_gamma   90.00000000
_symmetry_Int_Tables_number   1
_chemical_formula_structural   PrLuO3
_chemical_formula_sum   'Pr4 Lu4 O12'
_cell_volume   289.94099901
_cell_formula_units_Z   4
loop_
 _symmetry_equiv_pos_site_id
 _symmetry_equiv_pos_as_xyz
  1  'x, y, z'
loop_
 _atom_site_type_symbol
 _atom_site_label
 _atom_site_symmetry_multiplicity
 _atom_site_fract_x
 _atom_site_fract_y
 _atom_site_fract_z
 _atom_site_occupancy
  O  O0  1  0.69194804  0.30582712  0.43525265  1
  O  O1  1  0.19194804  0.19417288  0.56474735  1
  O  O2  1  0.80805196  0.80582712  0.06474735  1
  O  O3  1  0.30805196  0.69417288  0.93525265  1
  O  O4  1  0.30805196  0.69417288  0.56474735  1
  O  O5  1  0.80805196  0.80582712  0.43525265  1
  O  O6  1  0.19194804  0.19417288  0.93525265  1
  O  O7  1  0.69194804  0.30582712  0.06474735  1
  O  O8  1  0.12307865  0.44588833  0.25000000  1
  O  O9  1  0.62307865  0.05411167  0.75000000  1
  O  O10  1  0.37692135  0.94588833  0.25000000  1
  O  O11  1  0.87692135  0.55411167  0.75000000  1
  Pr  Pr12  1  0.98433672  0.05388854  0.25000000  1
  Pr  Pr13  1  0.48433672  0.44611146  0.75000000  1
  Pr  Pr14  1  0.51566328  0.55388854  0.25000000  1
  Pr  Pr15  1  0.01566328  0.94611146  0.75000000  1
  Lu  Lu16  1  0.00000000  0.50000000  0.00000000  1
  Lu  Lu17  1  0.50000000  0.00000000  0.00000000  1
  Lu  Lu18  1  0.50000000  0.00000000  0.50000000  1
  Lu  Lu19  1  0.00000000  0.50000000  0.50000000  1
