# generated using pymatgen
data_Na2ScCuF7
_symmetry_space_group_name_H-M   'P 1'
_cell_length_a   7.34252264
_cell_length_b   7.77302582
_cell_length_c   10.63958738
_cell_angle_alpha   90.00000000
_cell_angle_beta   90.00000000
_cell_angle_gamma   90.00000000
_symmetry_Int_Tables_number   1
_chemical_formula_structural   Na2ScCuF7
_chemical_formula_sum   'Na8 Sc4 Cu4 F28'
_cell_volume   607.23974649
_cell_formula_units_Z   4
loop_
 _symmetry_equiv_pos_site_id
 _symmetry_equiv_pos_as_xyz
  1  'x, y, z'
loop_
 _atom_site_type_symbol
 _atom_site_label
 _atom_site_symmetry_multiplicity
 _atom_site_fract_x
 _atom_site_fract_y
 _atom_site_fract_z
 _atom_site_occupancy
  F  F0  1  0.53035316  0.26431109  0.62146453  1
  F  F1  1  0.03035316  0.73568891  0.37853547  1
  F  F2  1  0.46964684  0.76431109  0.87853547  1
  F  F3  1  0.96964684  0.23568891  0.12146453  1
  F  F4  1  0.46964684  0.73568891  0.37853547  1
  F  F5  1  0.96964684  0.26431109  0.62146453  1
  F  F6  1  0.53035316  0.23568891  0.12146453  1
  F  F7  1  0.03035316  0.76431109  0.87853547  1
  F  F8  1  0.44673251  0.64398542  0.64359023  1
  F  F9  1  0.94673251  0.35601458  0.35640977  1
  F  F10  1  0.55326749  0.14398542  0.85640977  1
  F  F11  1  0.05326749  0.85601458  0.14359023  1
  F  F12  1  0.55326749  0.35601458  0.35640977  1
  F  F13  1  0.05326749  0.64398542  0.64359023  1
  F  F14  1  0.44673251  0.85601458  0.14359023  1
  F  F15  1  0.94673251  0.14398542  0.85640977  1
  F  F16  1  0.25000000  0.06500582  0.96691379  1
  F  F17  1  0.75000000  0.93499418  0.03308621  1
  F  F18  1  0.75000000  0.56500582  0.53308621  1
  F  F19  1  0.25000000  0.43499418  0.46691379  1
  F  F20  1  0.25000000  0.94835942  0.67127748  1
  F  F21  1  0.75000000  0.05164058  0.32872252  1
  F  F22  1  0.75000000  0.44835942  0.82872252  1
  F  F23  1  0.25000000  0.55164058  0.17127748  1
  F  F24  1  0.25000000  0.48317904  0.85550077  1
  F  F25  1  0.75000000  0.51682096  0.14449923  1
  F  F26  1  0.75000000  0.98317904  0.64449923  1
  F  F27  1  0.25000000  0.01682096  0.35550077  1
  Na  Na28  1  0.00000000  0.50000000  0.00000000  1
  Na  Na29  1  0.50000000  0.50000000  0.00000000  1
  Na  Na30  1  0.00000000  0.00000000  0.50000000  1
  Na  Na31  1  0.50000000  0.00000000  0.50000000  1
  Na  Na32  1  0.25000000  0.21625101  0.76162887  1
  Na  Na33  1  0.25000000  0.28374899  0.26162887  1
  Na  Na34  1  0.75000000  0.71625101  0.73837113  1
  Na  Na35  1  0.75000000  0.78374899  0.23837113  1
  Sc  Sc36  1  0.25000000  0.72225628  0.76761635  1
  Sc  Sc37  1  0.75000000  0.22225628  0.73238365  1
  Sc  Sc38  1  0.75000000  0.27774372  0.23238365  1
  Sc  Sc39  1  0.25000000  0.77774372  0.26761635  1
  Cu  Cu40  1  0.50000000  0.50000000  0.50000000  1
  Cu  Cu41  1  0.00000000  0.50000000  0.50000000  1
  Cu  Cu42  1  0.50000000  0.00000000  0.00000000  1
  Cu  Cu43  1  0.00000000  0.00000000  0.00000000  1
