# generated using pymatgen
data_SmGeRu
_symmetry_space_group_name_H-M   'P 1'
_cell_length_a   4.53130570
_cell_length_b   7.21553323
_cell_length_c   7.21641617
_cell_angle_alpha   90.00000000
_cell_angle_beta   90.00000000
_cell_angle_gamma   90.00000000
_symmetry_Int_Tables_number   1
_chemical_formula_structural   SmGeRu
_chemical_formula_sum   'Sm4 Ge4 Ru4'
_cell_volume   235.94640494
_cell_formula_units_Z   4
loop_
 _symmetry_equiv_pos_site_id
 _symmetry_equiv_pos_as_xyz
  1  'x, y, z'
loop_
 _atom_site_type_symbol
 _atom_site_label
 _atom_site_symmetry_multiplicity
 _atom_site_fract_x
 _atom_site_fract_y
 _atom_site_fract_z
 _atom_site_occupancy
  Ge  Ge0  1  0.25000000  0.89398134  0.30273314  1
  Ge  Ge1  1  0.75000000  0.10601866  0.69726686  1
  Ge  Ge2  1  0.75000000  0.39398134  0.19726686  1
  Ge  Ge3  1  0.25000000  0.60601866  0.80273314  1
  Ru  Ru4  1  0.25000000  0.56690259  0.15149748  1
  Ru  Ru5  1  0.75000000  0.43309741  0.84850252  1
  Ru  Ru6  1  0.75000000  0.06690259  0.34850252  1
  Ru  Ru7  1  0.25000000  0.93309741  0.65149748  1
  Sm  Sm8  1  0.25000000  0.18825759  0.97936918  1
  Sm  Sm9  1  0.75000000  0.81174241  0.02063082  1
  Sm  Sm10  1  0.75000000  0.68825759  0.52063082  1
  Sm  Sm11  1  0.25000000  0.31174241  0.47936918  1
