# generated using pymatgen
data_Li3TiF6
_symmetry_space_group_name_H-M   'P 1'
_cell_length_a   8.57734161
_cell_length_b   8.57734160
_cell_length_c   10.28997117
_cell_angle_alpha   84.46300360
_cell_angle_beta   84.46300363
_cell_angle_gamma   62.50879272
_symmetry_Int_Tables_number   1
_chemical_formula_structural   Li3TiF6
_chemical_formula_sum   'Li18 Ti6 F36'
_cell_volume   667.26614243
_cell_formula_units_Z   6
loop_
 _symmetry_equiv_pos_site_id
 _symmetry_equiv_pos_as_xyz
  1  'x, y, z'
loop_
 _atom_site_type_symbol
 _atom_site_label
 _atom_site_symmetry_multiplicity
 _atom_site_fract_x
 _atom_site_fract_y
 _atom_site_fract_z
 _atom_site_occupancy
  Li  Li0  1  0.29412835  0.98653150  0.21956281  1
  Li  Li1  1  0.01346850  0.70587165  0.28043719  1
  Li  Li2  1  0.70587165  0.01346850  0.78043719  1
  Li  Li3  1  0.98653150  0.29412835  0.71956281  1
  Li  Li4  1  0.94155380  0.65495652  0.92868394  1
  Li  Li5  1  0.34504348  0.05844620  0.57131606  1
  Li  Li6  1  0.67107163  0.36677358  0.97361198  1
  Li  Li7  1  0.63322642  0.32892837  0.52638802  1
  Li  Li8  1  0.32892837  0.63322642  0.02638802  1
  Li  Li9  1  0.36677358  0.67107163  0.47361198  1
  Li  Li10  1  0.13059681  0.53019868  0.54814005  1
  Li  Li11  1  0.46980132  0.86940319  0.95185995  1
  Li  Li12  1  0.86940319  0.46980132  0.45185995  1
  Li  Li13  1  0.53019868  0.13059681  0.04814005  1
  Li  Li14  1  0.80264601  0.19735399  0.25000000  1
  Li  Li15  1  0.19735399  0.80264601  0.75000000  1
  Li  Li16  1  0.05844620  0.34504348  0.07131606  1
  Li  Li17  1  0.65495652  0.94155380  0.42868394  1
  F  F18  1  0.75749544  0.44199568  0.81078009  1
  F  F19  1  0.09572500  0.75244564  0.43916984  1
  F  F20  1  0.75244564  0.09572500  0.93916984  1
  F  F21  1  0.90427500  0.24755436  0.56083016  1
  F  F22  1  0.41148677  0.43060583  0.43512071  1
  F  F23  1  0.56939417  0.58851323  0.06487929  1
  F  F24  1  0.58851323  0.56939417  0.56487929  1
  F  F25  1  0.43060583  0.41148677  0.93512071  1
  F  F26  1  0.24755436  0.90427500  0.06083016  1
  F  F27  1  0.92618314  0.92922231  0.66736039  1
  F  F28  1  0.92922231  0.92618314  0.16736039  1
  F  F29  1  0.07381686  0.07077769  0.33263961  1
  F  F30  1  0.55800432  0.24250456  0.68921991  1
  F  F31  1  0.77709634  0.72921452  0.34382611  1
  F  F32  1  0.72921452  0.77709634  0.84382611  1
  F  F33  1  0.22290366  0.27078548  0.65617389  1
  F  F34  1  0.09659061  0.75703374  0.92922262  1
  F  F35  1  0.24296626  0.90340939  0.57077738  1
  F  F36  1  0.90340939  0.24296626  0.07077738  1
  F  F37  1  0.75703374  0.09659061  0.42922262  1
  F  F38  1  0.41437285  0.10745850  0.39305101  1
  F  F39  1  0.89254150  0.58562715  0.10694899  1
  F  F40  1  0.58562715  0.89254150  0.60694899  1
  F  F41  1  0.10745850  0.41437285  0.89305101  1
  F  F42  1  0.24250456  0.55800432  0.18921991  1
  F  F43  1  0.44199568  0.75749544  0.31078009  1
  F  F44  1  0.89776687  0.56425222  0.61301320  1
  F  F45  1  0.27078548  0.22290366  0.15617389  1
  F  F46  1  0.10223313  0.43574778  0.38698680  1
  F  F47  1  0.56425222  0.89776687  0.11301320  1
  F  F48  1  0.75458503  0.42696227  0.31196356  1
  F  F49  1  0.57303773  0.24541497  0.18803644  1
  F  F50  1  0.24541497  0.57303773  0.68803644  1
  F  F51  1  0.42696227  0.75458503  0.81196356  1
  F  F52  1  0.07077769  0.07381686  0.83263961  1
  F  F53  1  0.43574778  0.10223313  0.88698680  1
  Ti  Ti54  1  0.33557735  0.34131205  0.79213776  1
  Ti  Ti55  1  0.65868795  0.66442265  0.70786224  1
  Ti  Ti56  1  0.66442265  0.65868795  0.20786224  1
  Ti  Ti57  1  0.34131205  0.33557735  0.29213776  1
  Ti  Ti58  1  0.00000000  0.00000000  0.50000000  1
  Ti  Ti59  1  0.00000000  0.00000000  0.00000000  1
