# generated using pymatgen
data_Tb(MnSn)6
_symmetry_space_group_name_H-M   'P 1'
_cell_length_a   5.45741105
_cell_length_b   5.45900860
_cell_length_c   9.00266645
_cell_angle_alpha   89.99928796
_cell_angle_beta   90.00029207
_cell_angle_gamma   119.98697804
_symmetry_Int_Tables_number   1
_chemical_formula_structural   Tb(MnSn)6
_chemical_formula_sum   'Tb1 Mn6 Sn6'
_cell_volume   232.30534805
_cell_formula_units_Z   1
loop_
 _symmetry_equiv_pos_site_id
 _symmetry_equiv_pos_as_xyz
  1  'x, y, z'
loop_
 _atom_site_type_symbol
 _atom_site_label
 _atom_site_symmetry_multiplicity
 _atom_site_fract_x
 _atom_site_fract_y
 _atom_site_fract_z
 _atom_site_occupancy
  Tb  Tb0  1  0.00000011  0.00000285  0.00000514  1
  Mn  Mn1  1  0.49999162  0.49998615  0.75119798  1
  Mn  Mn2  1  0.50000955  0.50001495  0.24878268  1
  Mn  Mn3  1  0.49999106  0.00000292  0.24877217  1
  Mn  Mn4  1  -0.00000014  0.49998144  0.75117949  1
  Mn  Mn5  1  0.50000323  0.99999219  0.75119580  1
  Mn  Mn6  1  0.00000068  0.50001941  0.24879433  1
  Sn  Sn7  1  0.00000287  0.99999291  0.66683228  1
  Sn  Sn8  1  0.00000147  0.00000877  0.33326098  1
  Sn  Sn9  1  0.33325162  0.66662833  0.99991753  1
  Sn  Sn10  1  0.66671113  0.33335550  0.50007360  1
  Sn  Sn11  1  0.33329039  0.66664281  0.50006774  1
  Sn  Sn12  1  0.66674641  0.33337177  0.99992027  1
