# generated using pymatgen
data_Gd3S4
_symmetry_space_group_name_H-M   'P 1'
_cell_length_a   7.29084720
_cell_length_b   7.29084720
_cell_length_c   7.29084720
_cell_angle_alpha   109.47122064
_cell_angle_beta   109.47122064
_cell_angle_gamma   109.47122063
_symmetry_Int_Tables_number   1
_chemical_formula_structural   Gd3S4
_chemical_formula_sum   'Gd6 S8'
_cell_volume   298.34042122
_cell_formula_units_Z   2
loop_
 _symmetry_equiv_pos_site_id
 _symmetry_equiv_pos_as_xyz
  1  'x, y, z'
loop_
 _atom_site_type_symbol
 _atom_site_label
 _atom_site_symmetry_multiplicity
 _atom_site_fract_x
 _atom_site_fract_y
 _atom_site_fract_z
 _atom_site_occupancy
  S  S0  1  0.64449697  0.64449697  0.64449697  1
  S  S1  1  0.35550303  0.50000000  0.00000000  1
  S  S2  1  0.50000000  0.00000000  0.35550303  1
  S  S3  1  0.00000000  0.35550303  0.50000000  1
  S  S4  1  0.50000000  0.00000000  0.85550303  1
  S  S5  1  0.00000000  0.85550303  0.50000000  1
  S  S6  1  0.14449697  0.14449697  0.14449697  1
  S  S7  1  0.85550303  0.50000000  0.00000000  1
  Gd  Gd8  1  0.75000000  0.87500000  0.12500000  1
  Gd  Gd9  1  0.62500000  0.37500000  0.25000000  1
  Gd  Gd10  1  0.87500000  0.12500000  0.75000000  1
  Gd  Gd11  1  0.12500000  0.75000000  0.87500000  1
  Gd  Gd12  1  0.37500000  0.25000000  0.62500000  1
  Gd  Gd13  1  0.25000000  0.62500000  0.37500000  1
