# generated using pymatgen
data_K2TeBr6
_symmetry_space_group_name_H-M   'P 1'
_cell_length_a   7.70141543
_cell_length_b   7.70141543
_cell_length_c   11.09744470
_cell_angle_alpha   90.00000000
_cell_angle_beta   90.00000000
_cell_angle_gamma   90.00000000
_symmetry_Int_Tables_number   1
_chemical_formula_structural   K2TeBr6
_chemical_formula_sum   'K4 Te2 Br12'
_cell_volume   658.20941640
_cell_formula_units_Z   2
loop_
 _symmetry_equiv_pos_site_id
 _symmetry_equiv_pos_as_xyz
  1  'x, y, z'
loop_
 _atom_site_type_symbol
 _atom_site_label
 _atom_site_symmetry_multiplicity
 _atom_site_fract_x
 _atom_site_fract_y
 _atom_site_fract_z
 _atom_site_occupancy
  K  K0  1  0.00000000  0.50000000  0.25000000  1
  K  K1  1  0.50000000  0.00000000  0.75000000  1
  K  K2  1  0.00000000  0.50000000  0.75000000  1
  K  K3  1  0.50000000  0.00000000  0.25000000  1
  Br  Br4  1  0.20751708  0.29837910  0.50000000  1
  Br  Br5  1  0.79248292  0.70162090  0.50000000  1
  Br  Br6  1  0.00000000  0.00000000  0.24649075  1
  Br  Br7  1  0.50000000  0.50000000  0.25350925  1
  Br  Br8  1  0.00000000  0.00000000  0.75350925  1
  Br  Br9  1  0.50000000  0.50000000  0.74649075  1
  Br  Br10  1  0.20162090  0.29248292  0.00000000  1
  Br  Br11  1  0.70751708  0.20162090  0.00000000  1
  Br  Br12  1  0.29248292  0.79837910  0.00000000  1
  Br  Br13  1  0.70162090  0.20751708  0.50000000  1
  Br  Br14  1  0.29837910  0.79248292  0.50000000  1
  Br  Br15  1  0.79837910  0.70751708  0.00000000  1
  Te  Te16  1  0.50000000  0.50000000  0.50000000  1
  Te  Te17  1  0.00000000  0.00000000  0.00000000  1
