# generated using pymatgen
data_CCl3F
_symmetry_space_group_name_H-M   'P 1'
_cell_length_a   6.29014904
_cell_length_b   10.20946852
_cell_length_c   16.97105475
_cell_angle_alpha   90.00000000
_cell_angle_beta   90.00000000
_cell_angle_gamma   90.00000000
_symmetry_Int_Tables_number   1
_chemical_formula_structural   CCl3F
_chemical_formula_sum   'C8 Cl24 F8'
_cell_volume   1089.86549908
_cell_formula_units_Z   8
loop_
 _symmetry_equiv_pos_site_id
 _symmetry_equiv_pos_as_xyz
  1  'x, y, z'
loop_
 _atom_site_type_symbol
 _atom_site_label
 _atom_site_symmetry_multiplicity
 _atom_site_fract_x
 _atom_site_fract_y
 _atom_site_fract_z
 _atom_site_occupancy
  C  C0  1  0.09890309  0.41204213  0.36119713  1
  C  C1  1  0.59890309  0.08795787  0.63880287  1
  C  C2  1  0.90109691  0.91204213  0.13880287  1
  C  C3  1  0.40109691  0.58795787  0.86119713  1
  C  C4  1  0.90109691  0.58795787  0.63880287  1
  C  C5  1  0.40109691  0.91204213  0.36119713  1
  C  C6  1  0.09890309  0.08795787  0.86119713  1
  C  C7  1  0.59890309  0.41204213  0.13880287  1
  F  F8  1  0.11391632  0.33634244  0.29485848  1
  F  F9  1  0.61391632  0.16365756  0.70514152  1
  F  F10  1  0.88608368  0.83634244  0.20514152  1
  F  F11  1  0.38608368  0.66365756  0.79485848  1
  F  F12  1  0.88608368  0.66365756  0.70514152  1
  F  F13  1  0.38608368  0.83634244  0.29485848  1
  F  F14  1  0.11391632  0.16365756  0.79485848  1
  F  F15  1  0.61391632  0.33634244  0.20514152  1
  Cl  Cl16  1  0.94681929  0.32486945  0.43180621  1
  Cl  Cl17  1  0.44681929  0.17513055  0.56819379  1
  Cl  Cl18  1  0.05318071  0.82486945  0.06819379  1
  Cl  Cl19  1  0.55318071  0.67513055  0.93180621  1
  Cl  Cl20  1  0.05318071  0.67513055  0.56819379  1
  Cl  Cl21  1  0.55318071  0.82486945  0.43180621  1
  Cl  Cl22  1  0.94681929  0.17513055  0.93180621  1
  Cl  Cl23  1  0.44681929  0.32486945  0.06819379  1
  Cl  Cl24  1  0.35901434  0.44088717  0.39689041  1
  Cl  Cl25  1  0.85901434  0.05911283  0.60310959  1
  Cl  Cl26  1  0.64098566  0.94088717  0.10310959  1
  Cl  Cl27  1  0.14098566  0.55911283  0.89689041  1
  Cl  Cl28  1  0.64098566  0.55911283  0.60310959  1
  Cl  Cl29  1  0.14098566  0.94088717  0.39689041  1
  Cl  Cl30  1  0.35901434  0.05911283  0.89689041  1
  Cl  Cl31  1  0.85901434  0.44088717  0.10310959  1
  Cl  Cl32  1  0.97280792  0.56069171  0.33564290  1
  Cl  Cl33  1  0.47280792  0.93930829  0.66435710  1
  Cl  Cl34  1  0.02719208  0.06069171  0.16435710  1
  Cl  Cl35  1  0.52719208  0.43930829  0.83564290  1
  Cl  Cl36  1  0.02719208  0.43930829  0.66435710  1
  Cl  Cl37  1  0.52719208  0.06069171  0.33564290  1
  Cl  Cl38  1  0.97280792  0.93930829  0.83564290  1
  Cl  Cl39  1  0.47280792  0.56069171  0.16435710  1
