# generated using pymatgen
data_SrZnCl4
_symmetry_space_group_name_H-M   'P 1'
_cell_length_a   6.56320332
_cell_length_b   6.56320331
_cell_length_c   8.66220613
_cell_angle_alpha   112.26193019
_cell_angle_beta   112.26193021
_cell_angle_gamma   90.00000003
_symmetry_Int_Tables_number   1
_chemical_formula_structural   SrZnCl4
_chemical_formula_sum   'Sr2 Zn2 Cl8'
_cell_volume   315.05933746
_cell_formula_units_Z   2
loop_
 _symmetry_equiv_pos_site_id
 _symmetry_equiv_pos_as_xyz
  1  'x, y, z'
loop_
 _atom_site_type_symbol
 _atom_site_label
 _atom_site_symmetry_multiplicity
 _atom_site_fract_x
 _atom_site_fract_y
 _atom_site_fract_z
 _atom_site_occupancy
  Cl  Cl0  1  0.71551146  0.36204319  0.91185762  1
  Cl  Cl1  1  0.86204319  0.69634615  0.41185762  1
  Cl  Cl2  1  0.28448854  0.63795681  0.08814238  1
  Cl  Cl3  1  0.45018557  0.78448854  0.58814238  1
  Cl  Cl4  1  0.54981443  0.21551146  0.41185762  1
  Cl  Cl5  1  0.80365385  0.95018557  0.08814238  1
  Cl  Cl6  1  0.13795681  0.30365385  0.58814238  1
  Cl  Cl7  1  0.19634615  0.04981443  0.91185762  1
  Zn  Zn8  1  0.62500000  0.87500000  0.25000000  1
  Zn  Zn9  1  0.37500000  0.12500000  0.75000000  1
  Sr  Sr10  1  0.87500000  0.62500000  0.75000000  1
  Sr  Sr11  1  0.12500000  0.37500000  0.25000000  1
