# generated using pymatgen
data_CuSeO3
_symmetry_space_group_name_H-M   'P 1'
_cell_length_a   6.03593781
_cell_length_b   7.26511207
_cell_length_c   12.36079801
_cell_angle_alpha   90.00000000
_cell_angle_beta   90.00000000
_cell_angle_gamma   90.00000000
_symmetry_Int_Tables_number   1
_chemical_formula_structural   CuSeO3
_chemical_formula_sum   'Cu8 Se8 O24'
_cell_volume   542.04280506
_cell_formula_units_Z   8
loop_
 _symmetry_equiv_pos_site_id
 _symmetry_equiv_pos_as_xyz
  1  'x, y, z'
loop_
 _atom_site_type_symbol
 _atom_site_label
 _atom_site_symmetry_multiplicity
 _atom_site_fract_x
 _atom_site_fract_y
 _atom_site_fract_z
 _atom_site_occupancy
  O  O0  1  0.02718184  0.64480554  0.09017368  1
  O  O1  1  0.52718184  0.35519446  0.40982632  1
  O  O2  1  0.47281816  0.14480554  0.90982632  1
  O  O3  1  0.97281816  0.85519446  0.59017368  1
  O  O4  1  0.97281816  0.35519446  0.90982632  1
  O  O5  1  0.47281816  0.64480554  0.59017368  1
  O  O6  1  0.52718184  0.85519446  0.09017368  1
  O  O7  1  0.02718184  0.14480554  0.40982632  1
  O  O8  1  0.64019318  0.46163946  0.06648596  1
  O  O9  1  0.14019318  0.53836054  0.43351404  1
  O  O10  1  0.85980682  0.96163946  0.93351404  1
  O  O11  1  0.35980682  0.03836054  0.56648596  1
  O  O12  1  0.35980682  0.53836054  0.93351404  1
  O  O13  1  0.85980682  0.46163946  0.56648596  1
  O  O14  1  0.14019318  0.03836054  0.06648596  1
  O  O15  1  0.64019318  0.96163946  0.43351404  1
  O  O16  1  0.79356664  0.04065371  0.23559320  1
  O  O17  1  0.29356664  0.95934629  0.26440680  1
  O  O18  1  0.70643336  0.54065371  0.76440680  1
  O  O19  1  0.20643336  0.45934629  0.73559320  1
  O  O20  1  0.20643336  0.95934629  0.76440680  1
  O  O21  1  0.70643336  0.04065371  0.73559320  1
  O  O22  1  0.29356664  0.45934629  0.23559320  1
  O  O23  1  0.79356664  0.54065371  0.26440680  1
  Cu  Cu24  1  0.84579763  0.42496582  0.40631385  1
  Cu  Cu25  1  0.34579763  0.57503418  0.09368615  1
  Cu  Cu26  1  0.65420237  0.92496582  0.59368615  1
  Cu  Cu27  1  0.15420237  0.07503418  0.90631385  1
  Cu  Cu28  1  0.15420237  0.57503418  0.59368615  1
  Cu  Cu29  1  0.65420237  0.42496582  0.90631385  1
  Cu  Cu30  1  0.34579763  0.07503418  0.40631385  1
  Cu  Cu31  1  0.84579763  0.92496582  0.09368615  1
  Se  Se32  1  0.89065741  0.95153814  0.35557563  1
  Se  Se33  1  0.39065741  0.04846186  0.14442437  1
  Se  Se34  1  0.60934259  0.45153814  0.64442437  1
  Se  Se35  1  0.10934259  0.54846186  0.85557563  1
  Se  Se36  1  0.10934259  0.04846186  0.64442437  1
  Se  Se37  1  0.60934259  0.95153814  0.85557563  1
  Se  Se38  1  0.39065741  0.54846186  0.35557563  1
  Se  Se39  1  0.89065741  0.45153814  0.14442437  1
