# generated using pymatgen
data_Li9Mn2Co5O16
_symmetry_space_group_name_H-M   'P 1'
_cell_length_a   2.91611526
_cell_length_b   9.82378272
_cell_length_c   10.17152890
_cell_angle_alpha   85.77020503
_cell_angle_beta   89.99999957
_cell_angle_gamma   81.46455949
_symmetry_Int_Tables_number   1
_chemical_formula_structural   Li9Mn2Co5O16
_chemical_formula_sum   'Li9 Mn2 Co5 O16'
_cell_volume   287.35676087
_cell_formula_units_Z   1
loop_
 _symmetry_equiv_pos_site_id
 _symmetry_equiv_pos_as_xyz
  1  'x, y, z'
loop_
 _atom_site_type_symbol
 _atom_site_label
 _atom_site_symmetry_multiplicity
 _atom_site_fract_x
 _atom_site_fract_y
 _atom_site_fract_z
 _atom_site_occupancy
  Li  Li0  1  0.36460618  0.27078764  0.06438341  1
  Li  Li1  1  0.13640424  0.72719152  0.18236524  1
  Li  Li2  1  0.86947517  0.26104966  0.31510278  1
  Li  Li3  1  0.63249340  0.73501321  0.43776555  1
  Li  Li4  1  0.36991607  0.26016787  0.56455718  1
  Li  Li5  1  0.13132954  0.73734092  0.68808943  1
  Li  Li6  1  0.86793976  0.26412048  0.81369362  1
  Li  Li7  1  0.62892875  0.74214250  0.93557694  1
  Li  Li8  1  0.75002208  0.49995585  0.12427307  1
  Mn  Mn9  1  0.00078824  0.99842352  0.99948010  1
  Mn  Mn10  1  0.99920799  0.00158402  0.50103166  1
  Co  Co11  1  0.50039479  0.99921042  0.24975042  1
  Co  Co12  1  0.25131899  0.49736203  0.36030582  1
  Co  Co13  1  0.75009376  0.49981248  0.62488084  1
  Co  Co14  1  0.49933765  0.00132470  0.74972814  1
  Co  Co15  1  0.24851092  0.50297816  0.88934857  1
  O  O16  1  0.44367184  0.11265633  0.92526230  1
  O  O17  1  0.18921974  0.62156053  0.01596628  1
  O  O18  1  0.94840133  0.10319734  0.15829485  1
  O  O19  1  0.68997551  0.62004898  0.28657861  1
  O  O20  1  0.44387547  0.11224907  0.42090727  1
  O  O21  1  0.19342792  0.61314415  0.53181880  1
  O  O22  1  0.94458620  0.11082759  0.64924040  1
  O  O23  1  0.69429269  0.61141462  0.77141287  1
  O  O24  1  0.31266091  0.37467817  0.23565674  1
  O  O25  1  0.05145559  0.89708882  0.34234553  1
  O  O26  1  0.80439939  0.39120121  0.47724349  1
  O  O27  1  0.55664291  0.88671417  0.57492921  1
  O  O28  1  0.30676723  0.38646553  0.71903891  1
  O  O29  1  0.05446894  0.89106213  0.84887394  1
  O  O30  1  0.80924909  0.38150182  0.96252717  1
  O  O31  1  0.55613772  0.88772455  0.07957088  1
