# generated using pymatgen
data_KMnCl3
_symmetry_space_group_name_H-M   'P 1'
_cell_length_a   7.02772304
_cell_length_b   7.15781859
_cell_length_c   10.08013668
_cell_angle_alpha   90.00000000
_cell_angle_beta   90.00000000
_cell_angle_gamma   90.00000000
_symmetry_Int_Tables_number   1
_chemical_formula_structural   KMnCl3
_chemical_formula_sum   'K4 Mn4 Cl12'
_cell_volume   507.06279498
_cell_formula_units_Z   4
loop_
 _symmetry_equiv_pos_site_id
 _symmetry_equiv_pos_as_xyz
  1  'x, y, z'
loop_
 _atom_site_type_symbol
 _atom_site_label
 _atom_site_symmetry_multiplicity
 _atom_site_fract_x
 _atom_site_fract_y
 _atom_site_fract_z
 _atom_site_occupancy
  Cl  Cl0  1  0.70719235  0.29201771  0.46914253  1
  Cl  Cl1  1  0.20719235  0.20798229  0.53085747  1
  Cl  Cl2  1  0.79280765  0.79201771  0.03085747  1
  Cl  Cl3  1  0.29280765  0.70798229  0.96914253  1
  Cl  Cl4  1  0.29280765  0.70798229  0.53085747  1
  Cl  Cl5  1  0.79280765  0.79201771  0.46914253  1
  Cl  Cl6  1  0.20719235  0.20798229  0.96914253  1
  Cl  Cl7  1  0.70719235  0.29201771  0.03085747  1
  Cl  Cl8  1  0.06047223  0.49357194  0.25000000  1
  Cl  Cl9  1  0.56047223  0.00642806  0.75000000  1
  Cl  Cl10  1  0.43952777  0.99357194  0.25000000  1
  Cl  Cl11  1  0.93952777  0.50642806  0.75000000  1
  K  K12  1  0.98732747  0.04959090  0.25000000  1
  K  K13  1  0.48732747  0.45040910  0.75000000  1
  K  K14  1  0.51267253  0.54959090  0.25000000  1
  K  K15  1  0.01267253  0.95040910  0.75000000  1
  Mn  Mn16  1  0.50000000  0.00000000  0.00000000  1
  Mn  Mn17  1  0.00000000  0.50000000  0.00000000  1
  Mn  Mn18  1  0.00000000  0.50000000  0.50000000  1
  Mn  Mn19  1  0.50000000  0.00000000  0.50000000  1
