# generated using pymatgen
data_PH10N2O4F
_symmetry_space_group_name_H-M   'P 1'
_cell_length_a   6.37873654
_cell_length_b   8.36700375
_cell_length_c   12.73254198
_cell_angle_alpha   90.00000000
_cell_angle_beta   98.91811741
_cell_angle_gamma   90.00000000
_symmetry_Int_Tables_number   1
_chemical_formula_structural   PH10N2O4F
_chemical_formula_sum   'P4 H40 N8 O16 F4'
_cell_volume   671.33226552
_cell_formula_units_Z   4
loop_
 _symmetry_equiv_pos_site_id
 _symmetry_equiv_pos_as_xyz
  1  'x, y, z'
loop_
 _atom_site_type_symbol
 _atom_site_label
 _atom_site_symmetry_multiplicity
 _atom_site_fract_x
 _atom_site_fract_y
 _atom_site_fract_z
 _atom_site_occupancy
  H  H0  1  0.12881494  0.06525535  0.82503974  1
  H  H1  1  0.87118506  0.56525535  0.67496026  1
  H  H2  1  0.87118506  0.93474465  0.17496026  1
  H  H3  1  0.12881494  0.43474465  0.32503974  1
  H  H4  1  0.79636472  0.42490083  0.59489375  1
  H  H5  1  0.20363528  0.92490083  0.90510625  1
  H  H6  1  0.20363528  0.57509917  0.40510625  1
  H  H7  1  0.79636472  0.07509917  0.09489375  1
  H  H8  1  0.19505627  0.22396831  0.62087555  1
  H  H9  1  0.80494373  0.72396831  0.87912445  1
  H  H10  1  0.80494373  0.77603169  0.37912445  1
  H  H11  1  0.19505627  0.27603169  0.12087555  1
  H  H12  1  0.44109500  0.27646005  0.59523339  1
  H  H13  1  0.55890500  0.77646005  0.90476661  1
  H  H14  1  0.55890500  0.72353995  0.40476661  1
  H  H15  1  0.44109500  0.22353995  0.09523339  1
  H  H16  1  0.22582764  0.36264242  0.52361241  1
  H  H17  1  0.80086511  0.39952045  0.84244842  1
  H  H18  1  0.77417236  0.86264242  0.97638759  1
  H  H19  1  0.22582764  0.13735758  0.02361241  1
  H  H20  1  0.29319933  0.40624672  0.65680679  1
  H  H21  1  0.70680067  0.90624672  0.84319321  1
  H  H22  1  0.70680067  0.59375328  0.34319321  1
  H  H23  1  0.29319933  0.09375328  0.15680679  1
  H  H24  1  0.67297016  0.21926990  0.81358013  1
  H  H25  1  0.32702984  0.71926990  0.68641987  1
  H  H26  1  0.32702984  0.78073010  0.18641987  1
  H  H27  1  0.67297016  0.28073010  0.31358013  1
  H  H28  1  0.68873485  0.30340316  0.93812354  1
  H  H29  1  0.31126515  0.80340316  0.56187646  1
  H  H30  1  0.31126515  0.69659684  0.06187646  1
  H  H31  1  0.68873485  0.19659684  0.43812354  1
  H  H32  1  0.53749178  0.10865700  0.33022584  1
  H  H33  1  0.46250822  0.60865700  0.16977416  1
  H  H34  1  0.46250822  0.89134300  0.66977416  1
  H  H35  1  0.53749178  0.39134300  0.83022584  1
  H  H36  1  0.80086511  0.10047955  0.34244842  1
  H  H37  1  0.19913489  0.60047955  0.15755158  1
  H  H38  1  0.19913489  0.89952045  0.65755158  1
  H  H39  1  0.77417236  0.63735758  0.47638759  1
  N  N40  1  0.67514970  0.17376977  0.35617360  1
  N  N41  1  0.32485030  0.67376977  0.14382640  1
  N  N42  1  0.32485030  0.82623023  0.64382640  1
  N  N43  1  0.67514970  0.32623023  0.85617360  1
  N  N44  1  0.28822733  0.31735190  0.59894111  1
  N  N45  1  0.71177267  0.81735190  0.90105889  1
  N  N46  1  0.71177267  0.68264810  0.40105889  1
  N  N47  1  0.28822733  0.18264810  0.09894111  1
  O  O48  1  0.17822643  0.04160086  0.90094051  1
  O  O49  1  0.82177357  0.95839914  0.09905949  1
  O  O50  1  0.82177357  0.54160086  0.59905949  1
  O  O51  1  0.17822643  0.45839914  0.40094051  1
  O  O52  1  0.04411445  0.07680218  0.68244061  1
  O  O53  1  0.95588555  0.57680218  0.81755939  1
  O  O54  1  0.95588555  0.92319782  0.31755939  1
  O  O55  1  0.04411445  0.42319782  0.18244061  1
  O  O56  1  0.66915261  0.46207480  0.23005935  1
  O  O57  1  0.27786186  0.72245675  0.92306641  1
  O  O58  1  0.27786186  0.77754325  0.42306641  1
  O  O59  1  0.72213814  0.27754325  0.07693359  1
  O  O60  1  0.66915261  0.03792520  0.73005935  1
  O  O61  1  0.33084739  0.53792520  0.76994065  1
  O  O62  1  0.33084739  0.96207480  0.26994065  1
  O  O63  1  0.72213814  0.22245675  0.57693359  1
  F  F64  1  0.23418532  0.42898608  0.93775665  1
  F  F65  1  0.76581468  0.92898608  0.56224335  1
  F  F66  1  0.76581468  0.57101392  0.06224335  1
  F  F67  1  0.23418532  0.07101392  0.43775665  1
  P  P68  1  0.80506869  0.07788252  0.64451761  1
  P  P69  1  0.19493131  0.57788252  0.85548239  1
  P  P70  1  0.19493131  0.92211748  0.35548239  1
  P  P71  1  0.80506869  0.42211748  0.14451761  1
