# generated using pymatgen
data_Li9Mn2Co5O16
_symmetry_space_group_name_H-M   'P 1'
_cell_length_a   2.88134292
_cell_length_b   13.12105060
_cell_length_c   7.76272774
_cell_angle_alpha   86.74569716
_cell_angle_beta   79.30456757
_cell_angle_gamma   89.99999854
_symmetry_Int_Tables_number   1
_chemical_formula_structural   Li9Mn2Co5O16
_chemical_formula_sum   'Li9 Mn2 Co5 O16'
_cell_volume   287.89950699
_cell_formula_units_Z   1
loop_
 _symmetry_equiv_pos_site_id
 _symmetry_equiv_pos_as_xyz
  1  'x, y, z'
loop_
 _atom_site_type_symbol
 _atom_site_label
 _atom_site_symmetry_multiplicity
 _atom_site_fract_x
 _atom_site_fract_y
 _atom_site_fract_z
 _atom_site_occupancy
  Li  Li0  1  0.56111349  0.19218045  0.87777301  1
  Li  Li1  1  0.68234837  0.56187513  0.63530327  1
  Li  Li2  1  0.81229160  0.93456165  0.37541681  1
  Li  Li3  1  0.93610848  0.32480977  0.12778304  1
  Li  Li4  1  0.06451594  0.67743017  0.87096812  1
  Li  Li5  1  0.18907181  0.05940689  0.62185638  1
  Li  Li6  1  0.31388070  0.44116320  0.37223859  1
  Li  Li7  1  0.43726611  0.80528626  0.12546778  1
  Li  Li8  1  0.50235360  0.50082703  0.99529280  1
  Mn  Mn9  1  0.00019084  0.99875340  0.99961831  1
  Mn  Mn10  1  0.12158765  0.38369638  0.75682469  1
  Co  Co11  1  0.25542700  0.74880291  0.48914600  1
  Co  Co12  1  0.37258396  0.12935630  0.25483208  1
  Co  Co13  1  0.62629200  0.86705824  0.74741600  1
  Co  Co14  1  0.74866968  0.25427148  0.50266064  1
  Co  Co15  1  0.88184491  0.60852913  0.23631018  1
  O  O16  1  0.58686120  0.02813792  0.82627760  1
  O  O17  1  0.70725738  0.40537379  0.58548523  1
  O  O18  1  0.83815090  0.78093670  0.32369819  1
  O  O19  1  0.95693675  0.15448052  0.08612649  1
  O  O20  1  0.09632143  0.51822429  0.80735714  1
  O  O21  1  0.21332260  0.90152744  0.57335480  1
  O  O22  1  0.33185157  0.28063147  0.33629687  1
  O  O23  1  0.46002030  0.65220936  0.07995940  1
  O  O24  1  0.54078673  0.34529714  0.91842654  1
  O  O25  1  0.66250147  0.72053045  0.67499706  1
  O  O26  1  0.78907261  0.10017384  0.42185478  1
  O  O27  1  0.90225345  0.47429303  0.19549309  1
  O  O28  1  0.03821347  0.84401606  0.92357306  1
  O  O29  1  0.16303751  0.23253823  0.67392497  1
  O  O30  1  0.29262027  0.60137854  0.41475947  1
  O  O31  1  0.41524620  0.97224283  0.16950759  1
