# generated using pymatgen
data_Na2AsH15O11
_symmetry_space_group_name_H-M   'P 1'
_cell_length_a   9.49085903
_cell_length_b   10.66241584
_cell_length_c   11.02677808
_cell_angle_alpha   90.00000000
_cell_angle_beta   90.00000000
_cell_angle_gamma   95.71282428
_symmetry_Int_Tables_number   1
_chemical_formula_structural   Na2AsH15O11
_chemical_formula_sum   'Na8 As4 H60 O44'
_cell_volume   1110.31803582
_cell_formula_units_Z   4
loop_
 _symmetry_equiv_pos_site_id
 _symmetry_equiv_pos_as_xyz
  1  'x, y, z'
loop_
 _atom_site_type_symbol
 _atom_site_label
 _atom_site_symmetry_multiplicity
 _atom_site_fract_x
 _atom_site_fract_y
 _atom_site_fract_z
 _atom_site_occupancy
  H  H0  1  0.95670697  0.36947676  0.44527093  1
  H  H1  1  0.54329303  0.13052324  0.94527093  1
  H  H2  1  0.04329303  0.63052324  0.55472907  1
  H  H3  1  0.45670697  0.86947676  0.05472907  1
  H  H4  1  0.35214395  0.35211781  0.11202154  1
  H  H5  1  0.14785605  0.14788219  0.61202154  1
  H  H6  1  0.64785605  0.64788219  0.88797846  1
  H  H7  1  0.85214395  0.85211781  0.38797846  1
  H  H8  1  0.41218439  0.28088822  0.99892031  1
  H  H9  1  0.08781561  0.21911178  0.49892031  1
  H  H10  1  0.58781561  0.71911178  0.00107969  1
  H  H11  1  0.91218439  0.78088822  0.50107969  1
  H  H12  1  0.29414073  0.18699252  0.25243145  1
  H  H13  1  0.20585927  0.31300748  0.75243145  1
  H  H14  1  0.70585927  0.81300748  0.74756855  1
  H  H15  1  0.79414073  0.68699252  0.24756855  1
  H  H16  1  0.40838042  0.08765253  0.25245094  1
  H  H17  1  0.09161958  0.41234747  0.75245094  1
  H  H18  1  0.59161958  0.91234747  0.74754906  1
  H  H19  1  0.90838042  0.58765253  0.24754906  1
  H  H20  1  0.06302369  0.21817776  0.02803199  1
  H  H21  1  0.43697631  0.28182224  0.52803199  1
  H  H22  1  0.93697631  0.78182224  0.97196801  1
  H  H23  1  0.56302369  0.71817776  0.47196801  1
  H  H24  1  0.13538550  0.16793593  0.90826967  1
  H  H25  1  0.36461450  0.33206407  0.40826967  1
  H  H26  1  0.86461450  0.83206407  0.09173033  1
  H  H27  1  0.63538550  0.66793593  0.59173033  1
  H  H28  1  0.39203643  0.50040936  0.25814033  1
  H  H29  1  0.10796357  0.99959064  0.75814033  1
  H  H30  1  0.60796357  0.49959064  0.74185967  1
  H  H31  1  0.89203643  0.00040936  0.24185967  1
  H  H32  1  0.46602194  0.64150502  0.27697887  1
  H  H33  1  0.03397806  0.85849498  0.77697887  1
  H  H34  1  0.53397806  0.35849498  0.72302113  1
  H  H35  1  0.96602194  0.14150502  0.22302113  1
  H  H36  1  0.14693814  0.59534396  0.08825974  1
  H  H37  1  0.35306186  0.90465604  0.58825974  1
  H  H38  1  0.85306186  0.40465604  0.91174026  1
  H  H39  1  0.64693814  0.09534396  0.41174026  1
  H  H40  1  0.10660443  0.62885900  0.95076780  1
  H  H41  1  0.39339557  0.87114100  0.45076780  1
  H  H42  1  0.89339557  0.37114100  0.04923220  1
  H  H43  1  0.60660443  0.12885900  0.54923220  1
  H  H44  1  0.23405581  0.72482852  0.49159193  1
  H  H45  1  0.26594419  0.77517148  0.99159193  1
  H  H46  1  0.76594419  0.27517148  0.50840807  1
  H  H47  1  0.73405581  0.22482852  0.00840807  1
  H  H48  1  0.16468602  0.61542898  0.40262332  1
  H  H49  1  0.33531398  0.88457102  0.90262332  1
  H  H50  1  0.83531398  0.38457102  0.59737668  1
  H  H51  1  0.66468602  0.11542898  0.09737668  1
  H  H52  1  0.29840211  0.81223117  0.26930394  1
  H  H53  1  0.20159789  0.68776883  0.76930394  1
  H  H54  1  0.70159789  0.18776883  0.73069606  1
  H  H55  1  0.79840211  0.31223117  0.23069606  1
  H  H56  1  0.15677318  0.72853528  0.24368550  1
  H  H57  1  0.34322682  0.77146472  0.74368550  1
  H  H58  1  0.84322682  0.27146472  0.75631450  1
  H  H59  1  0.65677318  0.22853528  0.25631450  1
  O  O60  1  0.69679613  0.31681844  0.24924087  1
  O  O61  1  0.80320387  0.18318156  0.74924087  1
  O  O62  1  0.30320387  0.68318156  0.75075913  1
  O  O63  1  0.19679613  0.81681844  0.25075913  1
  O  O64  1  0.69318765  0.13472059  0.01239936  1
  O  O65  1  0.80681235  0.36527941  0.51239936  1
  O  O66  1  0.30681235  0.86527941  0.98760064  1
  O  O67  1  0.19318765  0.63472059  0.48760064  1
  O  O68  1  0.68651631  0.11952846  0.49269473  1
  O  O69  1  0.81348369  0.38047154  0.99269473  1
  O  O70  1  0.31348369  0.88047154  0.50730527  1
  O  O71  1  0.18651631  0.61952846  0.00730527  1
  O  O72  1  0.98227349  0.30923094  0.17478204  1
  O  O73  1  0.51772651  0.19076906  0.67478204  1
  O  O74  1  0.01772651  0.69076906  0.82521796  1
  O  O75  1  0.48227349  0.80923094  0.32521796  1
  O  O76  1  0.09502586  0.55532962  0.24732135  1
  O  O77  1  0.40497414  0.94467038  0.74732135  1
  O  O78  1  0.90497414  0.44467038  0.75267865  1
  O  O79  1  0.59502586  0.05532962  0.25267865  1
  O  O80  1  0.26988347  0.35344427  0.25603133  1
  O  O81  1  0.23011653  0.14655573  0.75603133  1
  O  O82  1  0.73011653  0.64655573  0.74396867  1
  O  O83  1  0.76988347  0.85344427  0.24396867  1
  O  O84  1  0.05893697  0.36006133  0.42046435  1
  O  O85  1  0.44106303  0.13993867  0.92046435  1
  O  O86  1  0.94106303  0.63993867  0.57953565  1
  O  O87  1  0.55893697  0.86006133  0.07953565  1
  O  O88  1  0.41103989  0.36429345  0.03779913  1
  O  O89  1  0.08896011  0.13570655  0.53779913  1
  O  O90  1  0.58896011  0.63570655  0.96220087  1
  O  O91  1  0.91103989  0.86429345  0.46220087  1
  O  O92  1  0.30516407  0.09554861  0.25235378  1
  O  O93  1  0.19483593  0.40445139  0.75235378  1
  O  O94  1  0.69483593  0.90445139  0.74764622  1
  O  O95  1  0.80516407  0.59554861  0.24764622  1
  O  O96  1  0.07046788  0.14427259  0.97625346  1
  O  O97  1  0.42953212  0.35572741  0.47625346  1
  O  O98  1  0.92953212  0.85572741  0.02374654  1
  O  O99  1  0.57046788  0.64427259  0.52374654  1
  O  O100  1  0.48266129  0.55452591  0.25444288  1
  O  O101  1  0.01733871  0.94547409  0.75444288  1
  O  O102  1  0.51733871  0.44547409  0.74555712  1
  O  O103  1  0.98266129  0.05452591  0.24555712  1
  Na  Na104  1  0.64726254  0.47834856  0.39688620  1
  Na  Na105  1  0.85273746  0.02165144  0.89688620  1
  Na  Na106  1  0.35273746  0.52165144  0.60311380  1
  Na  Na107  1  0.14726254  0.97834856  0.10311380  1
  Na  Na108  1  0.63506862  0.47928529  0.10371948  1
  Na  Na109  1  0.86493138  0.02071471  0.60371948  1
  Na  Na110  1  0.36493138  0.52071471  0.89628052  1
  Na  Na111  1  0.13506862  0.97928529  0.39628052  1
  As  As112  1  0.60118189  0.89602568  0.23347811  1
  As  As113  1  0.89881811  0.60397432  0.73347811  1
  As  As114  1  0.39881811  0.10397432  0.76652189  1
  As  As115  1  0.10118189  0.39602568  0.26652189  1
