# generated using pymatgen
data_CsAgBr2
_symmetry_space_group_name_H-M   'P 1'
_cell_length_a   4.66612395
_cell_length_b   6.04444603
_cell_length_c   10.43640602
_cell_angle_alpha   90.00000000
_cell_angle_beta   102.91764685
_cell_angle_gamma   90.00000000
_symmetry_Int_Tables_number   1
_chemical_formula_structural   CsAgBr2
_chemical_formula_sum   'Cs2 Ag2 Br4'
_cell_volume   286.90050746
_cell_formula_units_Z   2
loop_
 _symmetry_equiv_pos_site_id
 _symmetry_equiv_pos_as_xyz
  1  'x, y, z'
loop_
 _atom_site_type_symbol
 _atom_site_label
 _atom_site_symmetry_multiplicity
 _atom_site_fract_x
 _atom_site_fract_y
 _atom_site_fract_z
 _atom_site_occupancy
  Br  Br0  1  0.93069893  0.75000000  0.86139787  1
  Br  Br1  1  0.06930107  0.25000000  0.13860213  1
  Br  Br2  1  0.77469521  0.25000000  0.54939041  1
  Br  Br3  1  0.22530479  0.75000000  0.45060959  1
  Ag  Ag4  1  0.20089827  0.25000000  0.40179654  1
  Ag  Ag5  1  0.79910173  0.75000000  0.59820346  1
  Cs  Cs6  1  0.58456598  0.75000000  0.16913196  1
  Cs  Cs7  1  0.41543402  0.25000000  0.83086804  1
