# generated using pymatgen
data_CrCuH18Br5N6
_symmetry_space_group_name_H-M   'P 1'
_cell_length_a   16.56158491
_cell_length_b   16.56158482
_cell_length_c   16.56158424
_cell_angle_alpha   60.00000115
_cell_angle_beta   60.00000133
_cell_angle_gamma   59.99999949
_symmetry_Int_Tables_number   1
_chemical_formula_structural   CrCuH18Br5N6
_chemical_formula_sum   'Cr8 Cu8 H144 Br40 N48'
_cell_volume   3212.11196521
_cell_formula_units_Z   8
loop_
 _symmetry_equiv_pos_site_id
 _symmetry_equiv_pos_as_xyz
  1  'x, y, z'
loop_
 _atom_site_type_symbol
 _atom_site_label
 _atom_site_symmetry_multiplicity
 _atom_site_fract_x
 _atom_site_fract_y
 _atom_site_fract_z
 _atom_site_occupancy
  H  H0  1  0.99650309  0.93012431  0.18434356  1
  H  H1  1  0.56987569  0.31565644  0.11097096  1
  H  H2  1  0.11097096  0.50349691  0.56987569  1
  H  H3  1  0.56987569  0.11097096  0.50349691  1
  H  H4  1  0.31565644  0.50349691  0.11097096  1
  H  H5  1  0.31565644  0.11097096  0.56987569  1
  H  H6  1  0.11097096  0.31565644  0.50349691  1
  H  H7  1  0.18434356  0.99650309  0.93012431  1
  H  H8  1  0.93012431  0.18434356  0.99650309  1
  H  H9  1  0.38902904  0.99650309  0.18434356  1
  H  H10  1  0.93012431  0.38902904  0.18434356  1
  H  H11  1  0.38902904  0.93012431  0.99650309  1
  H  H12  1  0.18434356  0.93012431  0.38902904  1
  H  H13  1  0.99650309  0.18434356  0.38902904  1
  H  H14  1  0.99650309  0.38902904  0.93012431  1
  H  H15  1  0.11097096  0.56987569  0.31565644  1
  H  H16  1  0.50349691  0.11097096  0.31565644  1
  H  H17  1  0.50349691  0.56987569  0.11097096  1
  H  H18  1  0.56987569  0.50349691  0.31565644  1
  H  H19  1  0.31565644  0.56987569  0.50349691  1
  H  H20  1  0.50349691  0.31565644  0.56987569  1
  H  H21  1  0.18434356  0.38902904  0.99650309  1
  H  H22  1  0.38902904  0.18434356  0.93012431  1
  H  H23  1  0.93012431  0.99650309  0.38902904  1
  H  H24  1  0.00349691  0.06987569  0.81565644  1
  H  H25  1  0.43012431  0.68434356  0.88902904  1
  H  H26  1  0.88902904  0.49650309  0.43012431  1
  H  H27  1  0.43012431  0.88902904  0.49650309  1
  H  H28  1  0.68434356  0.49650309  0.88902904  1
  H  H29  1  0.68434356  0.88902904  0.43012431  1
  H  H30  1  0.88902904  0.68434356  0.49650309  1
  H  H31  1  0.81565644  0.00349691  0.06987569  1
  H  H32  1  0.06987569  0.81565644  0.00349691  1
  H  H33  1  0.61097096  0.00349691  0.81565644  1
  H  H34  1  0.06987569  0.61097096  0.81565644  1
  H  H35  1  0.61097096  0.06987569  0.00349691  1
  H  H36  1  0.81565644  0.06987569  0.61097096  1
  H  H37  1  0.00349691  0.81565644  0.61097096  1
  H  H38  1  0.00349691  0.61097096  0.06987569  1
  H  H39  1  0.88902904  0.43012431  0.68434356  1
  H  H40  1  0.49650309  0.88902904  0.68434356  1
  H  H41  1  0.49650309  0.43012431  0.88902904  1
  H  H42  1  0.43012431  0.49650309  0.68434356  1
  H  H43  1  0.68434356  0.43012431  0.49650309  1
  H  H44  1  0.49650309  0.68434356  0.43012431  1
  H  H45  1  0.81565644  0.61097096  0.00349691  1
  H  H46  1  0.61097096  0.81565644  0.06987569  1
  H  H47  1  0.06987569  0.00349691  0.61097096  1
  H  H48  1  0.88158235  0.98221384  0.18572067  1
  H  H49  1  0.51778616  0.31427933  0.04951686  1
  H  H50  1  0.04951686  0.61841765  0.51778616  1
  H  H51  1  0.51778616  0.04951686  0.61841765  1
  H  H52  1  0.31427933  0.61841765  0.04951686  1
  H  H53  1  0.31427933  0.04951686  0.51778616  1
  H  H54  1  0.04951686  0.31427933  0.61841765  1
  H  H55  1  0.18572067  0.88158235  0.98221384  1
  H  H56  1  0.98221384  0.18572067  0.88158235  1
  H  H57  1  0.45048314  0.88158235  0.18572067  1
  H  H58  1  0.98221384  0.45048314  0.18572067  1
  H  H59  1  0.45048314  0.98221384  0.88158235  1
  H  H60  1  0.18572067  0.98221384  0.45048314  1
  H  H61  1  0.88158235  0.18572067  0.45048314  1
  H  H62  1  0.88158235  0.45048314  0.98221384  1
  H  H63  1  0.04951686  0.51778616  0.31427933  1
  H  H64  1  0.61841765  0.04951686  0.31427933  1
  H  H65  1  0.61841765  0.51778616  0.04951686  1
  H  H66  1  0.51778616  0.61841765  0.31427933  1
  H  H67  1  0.31427933  0.51778616  0.61841765  1
  H  H68  1  0.61841765  0.31427933  0.51778616  1
  H  H69  1  0.18572067  0.45048314  0.88158235  1
  H  H70  1  0.45048314  0.18572067  0.98221384  1
  H  H71  1  0.98221384  0.88158235  0.45048314  1
  H  H72  1  0.11841765  0.01778616  0.81427933  1
  H  H73  1  0.48221384  0.68572067  0.95048314  1
  H  H74  1  0.95048314  0.38158235  0.48221384  1
  H  H75  1  0.48221384  0.95048314  0.38158235  1
  H  H76  1  0.68572067  0.38158235  0.95048314  1
  H  H77  1  0.68572067  0.95048314  0.48221384  1
  H  H78  1  0.95048314  0.68572067  0.38158235  1
  H  H79  1  0.81427933  0.11841765  0.01778616  1
  H  H80  1  0.01778616  0.81427933  0.11841765  1
  H  H81  1  0.54951686  0.11841765  0.81427933  1
  H  H82  1  0.01778616  0.54951686  0.81427933  1
  H  H83  1  0.54951686  0.01778616  0.11841765  1
  H  H84  1  0.81427933  0.01778616  0.54951686  1
  H  H85  1  0.11841765  0.81427933  0.54951686  1
  H  H86  1  0.11841765  0.54951686  0.01778616  1
  H  H87  1  0.95048314  0.48221384  0.68572067  1
  H  H88  1  0.38158235  0.95048314  0.68572067  1
  H  H89  1  0.38158235  0.48221384  0.95048314  1
  H  H90  1  0.48221384  0.38158235  0.68572067  1
  H  H91  1  0.68572067  0.48221384  0.38158235  1
  H  H92  1  0.38158235  0.68572067  0.48221384  1
  H  H93  1  0.81427933  0.54951686  0.11841765  1
  H  H94  1  0.54951686  0.81427933  0.01778616  1
  H  H95  1  0.01778616  0.11841765  0.54951686  1
  H  H96  1  0.94387496  0.05206757  0.15600536  1
  H  H97  1  0.44793243  0.34399464  0.15194790  1
  H  H98  1  0.15194790  0.55612504  0.44793243  1
  H  H99  1  0.44793243  0.15194790  0.55612504  1
  H  H100  1  0.34399464  0.55612504  0.15194790  1
  H  H101  1  0.34399464  0.15194790  0.44793243  1
  H  H102  1  0.15194790  0.34399464  0.55612504  1
  H  H103  1  0.15600536  0.94387496  0.05206757  1
  H  H104  1  0.05206757  0.15600536  0.94387496  1
  H  H105  1  0.34805210  0.94387496  0.15600536  1
  H  H106  1  0.05206757  0.34805210  0.15600536  1
  H  H107  1  0.34805210  0.05206757  0.94387496  1
  H  H108  1  0.15600536  0.05206757  0.34805210  1
  H  H109  1  0.94387496  0.15600536  0.34805210  1
  H  H110  1  0.94387496  0.34805210  0.05206757  1
  H  H111  1  0.15194790  0.44793243  0.34399464  1
  H  H112  1  0.55612504  0.15194790  0.34399464  1
  H  H113  1  0.55612504  0.44793243  0.15194790  1
  H  H114  1  0.44793243  0.55612504  0.34399464  1
  H  H115  1  0.34399464  0.44793243  0.55612504  1
  H  H116  1  0.55612504  0.34399464  0.44793243  1
  H  H117  1  0.15600536  0.34805210  0.94387496  1
  H  H118  1  0.34805210  0.15600536  0.05206757  1
  H  H119  1  0.05206757  0.94387496  0.34805210  1
  H  H120  1  0.05612504  0.94793243  0.84399464  1
  H  H121  1  0.55206757  0.65600536  0.84805210  1
  H  H122  1  0.84805210  0.44387496  0.55206757  1
  H  H123  1  0.55206757  0.84805210  0.44387496  1
  H  H124  1  0.65600536  0.44387496  0.84805210  1
  H  H125  1  0.65600536  0.84805210  0.55206757  1
  H  H126  1  0.84805210  0.65600536  0.44387496  1
  H  H127  1  0.84399464  0.05612504  0.94793243  1
  H  H128  1  0.94793243  0.84399464  0.05612504  1
  H  H129  1  0.65194790  0.05612504  0.84399464  1
  H  H130  1  0.94793243  0.65194790  0.84399464  1
  H  H131  1  0.65194790  0.94793243  0.05612504  1
  H  H132  1  0.84399464  0.94793243  0.65194790  1
  H  H133  1  0.05612504  0.84399464  0.65194790  1
  H  H134  1  0.05612504  0.65194790  0.94793243  1
  H  H135  1  0.84805210  0.55206757  0.65600536  1
  H  H136  1  0.44387496  0.84805210  0.65600536  1
  H  H137  1  0.44387496  0.55206757  0.84805210  1
  H  H138  1  0.55206757  0.44387496  0.65600536  1
  H  H139  1  0.65600536  0.55206757  0.44387496  1
  H  H140  1  0.44387496  0.65600536  0.55206757  1
  H  H141  1  0.84399464  0.65194790  0.05612504  1
  H  H142  1  0.65194790  0.84399464  0.94793243  1
  H  H143  1  0.94793243  0.05612504  0.65194790  1
  N  N144  1  0.94990216  0.99139176  0.14741077  1
  N  N145  1  0.50860824  0.35258923  0.08870468  1
  N  N146  1  0.08870468  0.55009784  0.50860824  1
  N  N147  1  0.50860824  0.08870468  0.55009784  1
  N  N148  1  0.35258923  0.55009784  0.08870468  1
  N  N149  1  0.35258923  0.08870468  0.50860824  1
  N  N150  1  0.08870468  0.35258923  0.55009784  1
  N  N151  1  0.14741077  0.94990216  0.99139176  1
  N  N152  1  0.99139176  0.14741077  0.94990216  1
  N  N153  1  0.41129532  0.94990216  0.14741077  1
  N  N154  1  0.99139176  0.41129532  0.14741077  1
  N  N155  1  0.41129532  0.99139176  0.94990216  1
  N  N156  1  0.14741077  0.99139176  0.41129532  1
  N  N157  1  0.94990216  0.14741077  0.41129532  1
  N  N158  1  0.94990216  0.41129532  0.99139176  1
  N  N159  1  0.08870468  0.50860824  0.35258923  1
  N  N160  1  0.55009784  0.08870468  0.35258923  1
  N  N161  1  0.55009784  0.50860824  0.08870468  1
  N  N162  1  0.50860824  0.55009784  0.35258923  1
  N  N163  1  0.35258923  0.50860824  0.55009784  1
  N  N164  1  0.55009784  0.35258923  0.50860824  1
  N  N165  1  0.14741077  0.41129532  0.94990216  1
  N  N166  1  0.41129532  0.14741077  0.99139176  1
  N  N167  1  0.99139176  0.94990216  0.41129532  1
  N  N168  1  0.05009784  0.00860824  0.85258923  1
  N  N169  1  0.49139176  0.64741077  0.91129532  1
  N  N170  1  0.91129532  0.44990216  0.49139176  1
  N  N171  1  0.49139176  0.91129532  0.44990216  1
  N  N172  1  0.64741077  0.44990216  0.91129532  1
  N  N173  1  0.64741077  0.91129532  0.49139176  1
  N  N174  1  0.91129532  0.64741077  0.44990216  1
  N  N175  1  0.85258923  0.05009784  0.00860824  1
  N  N176  1  0.00860824  0.85258923  0.05009784  1
  N  N177  1  0.58870468  0.05009784  0.85258923  1
  N  N178  1  0.00860824  0.58870468  0.85258923  1
  N  N179  1  0.58870468  0.00860824  0.05009784  1
  N  N180  1  0.85258923  0.00860824  0.58870468  1
  N  N181  1  0.05009784  0.85258923  0.58870468  1
  N  N182  1  0.05009784  0.58870468  0.00860824  1
  N  N183  1  0.91129532  0.49139176  0.64741077  1
  N  N184  1  0.44990216  0.91129532  0.64741077  1
  N  N185  1  0.44990216  0.49139176  0.91129532  1
  N  N186  1  0.49139176  0.44990216  0.64741077  1
  N  N187  1  0.64741077  0.49139176  0.44990216  1
  N  N188  1  0.44990216  0.64741077  0.49139176  1
  N  N189  1  0.85258923  0.58870468  0.05009784  1
  N  N190  1  0.58870468  0.85258923  0.00860824  1
  N  N191  1  0.00860824  0.05009784  0.58870468  1
  Cr  Cr192  1  0.00000000  0.00000000  0.00000000  1
  Cr  Cr193  1  0.50000000  0.50000000  0.00000000  1
  Cr  Cr194  1  0.00000000  0.50000000  0.50000000  1
  Cr  Cr195  1  0.50000000  0.00000000  0.50000000  1
  Cr  Cr196  1  0.50000000  0.00000000  0.00000000  1
  Cr  Cr197  1  0.00000000  0.50000000  0.00000000  1
  Cr  Cr198  1  0.00000000  0.00000000  0.50000000  1
  Cr  Cr199  1  0.50000000  0.50000000  0.50000000  1
  Cu  Cu200  1  0.25000000  0.25000000  0.25000000  1
  Cu  Cu201  1  0.25000000  0.25000000  0.75000000  1
  Cu  Cu202  1  0.75000000  0.25000000  0.25000000  1
  Cu  Cu203  1  0.25000000  0.75000000  0.25000000  1
  Cu  Cu204  1  0.75000000  0.75000000  0.75000000  1
  Cu  Cu205  1  0.75000000  0.75000000  0.25000000  1
  Cu  Cu206  1  0.25000000  0.75000000  0.75000000  1
  Cu  Cu207  1  0.75000000  0.25000000  0.75000000  1
  Br  Br208  1  0.18920623  0.18920623  0.18920623  1
  Br  Br209  1  0.31079377  0.31079377  0.56761870  1
  Br  Br210  1  0.56761870  0.31079377  0.31079377  1
  Br  Br211  1  0.31079377  0.56761870  0.31079377  1
  Br  Br212  1  0.93238130  0.18920623  0.18920623  1
  Br  Br213  1  0.18920623  0.93238130  0.18920623  1
  Br  Br214  1  0.18920623  0.18920623  0.93238130  1
  Br  Br215  1  0.31079377  0.31079377  0.31079377  1
  Br  Br216  1  0.81079377  0.81079377  0.81079377  1
  Br  Br217  1  0.68920623  0.68920623  0.43238130  1
  Br  Br218  1  0.43238130  0.68920623  0.68920623  1
  Br  Br219  1  0.68920623  0.43238130  0.68920623  1
  Br  Br220  1  0.06761870  0.81079377  0.81079377  1
  Br  Br221  1  0.81079377  0.06761870  0.81079377  1
  Br  Br222  1  0.81079377  0.81079377  0.06761870  1
  Br  Br223  1  0.68920623  0.68920623  0.68920623  1
  Br  Br224  1  0.75000000  0.09391826  0.40608174  1
  Br  Br225  1  0.40608174  0.09391826  0.25000000  1
  Br  Br226  1  0.25000000  0.75000000  0.40608174  1
  Br  Br227  1  0.40608174  0.25000000  0.75000000  1
  Br  Br228  1  0.09391826  0.75000000  0.25000000  1
  Br  Br229  1  0.09391826  0.25000000  0.40608174  1
  Br  Br230  1  0.25000000  0.09391826  0.75000000  1
  Br  Br231  1  0.40608174  0.75000000  0.09391826  1
  Br  Br232  1  0.09391826  0.40608174  0.75000000  1
  Br  Br233  1  0.75000000  0.40608174  0.25000000  1
  Br  Br234  1  0.75000000  0.25000000  0.09391826  1
  Br  Br235  1  0.25000000  0.40608174  0.09391826  1
  Br  Br236  1  0.25000000  0.90608174  0.59391826  1
  Br  Br237  1  0.59391826  0.90608174  0.75000000  1
  Br  Br238  1  0.75000000  0.25000000  0.59391826  1
  Br  Br239  1  0.59391826  0.75000000  0.25000000  1
  Br  Br240  1  0.90608174  0.25000000  0.75000000  1
  Br  Br241  1  0.90608174  0.75000000  0.59391826  1
  Br  Br242  1  0.75000000  0.90608174  0.25000000  1
  Br  Br243  1  0.59391826  0.25000000  0.90608174  1
  Br  Br244  1  0.90608174  0.59391826  0.25000000  1
  Br  Br245  1  0.25000000  0.59391826  0.75000000  1
  Br  Br246  1  0.25000000  0.75000000  0.90608174  1
  Br  Br247  1  0.75000000  0.59391826  0.90608174  1
