# generated using pymatgen
data_CaP2(HO)4
_symmetry_space_group_name_H-M   'P 1'
_cell_length_a   5.73254412
_cell_length_b   6.75532714
_cell_length_c   8.14680301
_cell_angle_alpha   101.33175794
_cell_angle_beta   110.59915444
_cell_angle_gamma   89.99999996
_symmetry_Int_Tables_number   1
_chemical_formula_structural   CaP2(HO)4
_chemical_formula_sum   'Ca2 P4 H8 O8'
_cell_volume   288.73648952
_cell_formula_units_Z   2
loop_
 _symmetry_equiv_pos_site_id
 _symmetry_equiv_pos_as_xyz
  1  'x, y, z'
loop_
 _atom_site_type_symbol
 _atom_site_label
 _atom_site_symmetry_multiplicity
 _atom_site_fract_x
 _atom_site_fract_y
 _atom_site_fract_z
 _atom_site_occupancy
  H  H0  1  0.09307669  0.36253099  0.55971506  1
  H  H1  1  0.53336163  0.13746901  0.44028494  1
  H  H2  1  0.90692331  0.63746901  0.44028494  1
  H  H3  1  0.46663837  0.86253099  0.55971506  1
  H  H4  1  0.05705709  0.08258954  0.65792456  1
  H  H5  1  0.39913252  0.41741046  0.34207544  1
  H  H6  1  0.94294291  0.91741046  0.34207544  1
  H  H7  1  0.60086748  0.58258954  0.65792456  1
  O  O8  1  0.21320749  0.10229179  0.14967976  1
  O  O9  1  0.06352773  0.39770821  0.85032024  1
  O  O10  1  0.32295534  0.77103966  0.77917971  1
  O  O11  1  0.54377562  0.72896034  0.22082029  1
  O  O12  1  0.67704466  0.22896034  0.22082029  1
  O  O13  1  0.45622438  0.27103966  0.77917971  1
  O  O14  1  0.93647227  0.60229179  0.14967976  1
  O  O15  1  0.78679251  0.89770821  0.85032024  1
  P  P16  1  0.17543515  0.28157497  0.71705155  1
  P  P17  1  0.45838360  0.21842503  0.28294845  1
  P  P18  1  0.82456485  0.71842503  0.28294845  1
  P  P19  1  0.54161640  0.78157497  0.71705155  1
  Ca  Ca20  1  0.83275712  0.25000000  0.00000000  1
  Ca  Ca21  1  0.16724288  0.75000000  0.00000000  1
