# generated using pymatgen
data_MgP2(H8O5)2
_symmetry_space_group_name_H-M   'P 1'
_cell_length_a   10.44693540
_cell_length_b   10.44690826
_cell_length_c   12.62103005
_cell_angle_alpha   114.45442313
_cell_angle_beta   114.44818507
_cell_angle_gamma   89.99999999
_symmetry_Int_Tables_number   1
_chemical_formula_structural   MgP2(H8O5)2
_chemical_formula_sum   'Mg4 P8 H64 O40'
_cell_volume   1116.77795122
_cell_formula_units_Z   4
loop_
 _symmetry_equiv_pos_site_id
 _symmetry_equiv_pos_as_xyz
  1  'x, y, z'
loop_
 _atom_site_type_symbol
 _atom_site_label
 _atom_site_symmetry_multiplicity
 _atom_site_fract_x
 _atom_site_fract_y
 _atom_site_fract_z
 _atom_site_occupancy
  H  H0  1  0.03159654  0.13563442  0.42344852  1
  H  H1  1  0.71220467  0.10818182  0.07657526  1
  H  H2  1  0.36435921  0.46838871  0.07649538  1
  H  H3  1  0.10814802  0.36436558  0.57655148  1
  H  H4  1  0.46838369  0.71215464  0.57651923  1
  H  H5  1  0.78786383  0.03161129  0.92350462  1
  H  H6  1  0.13562942  0.39181818  0.92342474  1
  H  H7  1  0.39186446  0.78784536  0.42348077  1
  H  H8  1  0.96840346  0.86436558  0.57655148  1
  H  H9  1  0.28779533  0.89181818  0.92342474  1
  H  H10  1  0.63564079  0.53161129  0.92350462  1
  H  H11  1  0.89185198  0.63563442  0.42344852  1
  H  H12  1  0.53161631  0.28784536  0.42348077  1
  H  H13  1  0.21213617  0.96838871  0.07649538  1
  H  H14  1  0.86437058  0.60818182  0.07657526  1
  H  H15  1  0.60813554  0.21215464  0.57651923  1
  H  H16  1  0.14549710  0.09467727  0.80152259  1
  H  H17  1  0.29312563  0.84399531  0.69848392  1
  H  H18  1  0.40534292  0.35452940  0.69846637  1
  H  H19  1  0.84397451  0.40532273  0.19847741  1
  H  H20  1  0.35451512  0.29309202  0.19847372  1
  H  H21  1  0.20687656  0.14547060  0.30153363  1
  H  H22  1  0.09464171  0.65600469  0.30151608  1
  H  H23  1  0.65604141  0.20690798  0.80152628  1
  H  H24  1  0.85450290  0.90532273  0.19847741  1
  H  H25  1  0.70687437  0.15600469  0.30151608  1
  H  H26  1  0.59465708  0.64547060  0.30153363  1
  H  H27  1  0.15602549  0.59467727  0.80152259  1
  H  H28  1  0.68932181  0.54944957  0.48957490  1
  H  H29  1  0.64548488  0.70690798  0.80152628  1
  H  H30  1  0.90535829  0.34399531  0.69848392  1
  H  H31  1  0.34395859  0.79309202  0.19847372  1
  H  H32  1  0.09235969  0.15193902  0.69170761  1
  H  H33  1  0.46020510  0.90070055  0.80830352  1
  H  H34  1  0.34804968  0.40765906  0.80826927  1
  H  H35  1  0.90065208  0.34806098  0.30829239  1
  H  H36  1  0.40762306  0.46019156  0.30827999  1
  H  H37  1  0.03978041  0.09234094  0.19173073  1
  H  H38  1  0.15190158  0.59929945  0.19169648  1
  H  H39  1  0.59934307  0.03980844  0.69172001  1
  H  H40  1  0.90764031  0.84806098  0.30829239  1
  H  H41  1  0.53979490  0.09929945  0.19169648  1
  H  H42  1  0.65195032  0.59234094  0.19173073  1
  H  H43  1  0.09934792  0.65193902  0.69170761  1
  H  H44  1  0.59237694  0.53980844  0.69172001  1
  H  H45  1  0.96021959  0.90765906  0.80826927  1
  H  H46  1  0.84809842  0.40070055  0.80830352  1
  H  H47  1  0.40065693  0.96019156  0.30827999  1
  H  H48  1  0.81066268  0.05991519  0.51041939  1
  H  H49  1  0.54946070  0.80023072  0.98958349  1
  H  H50  1  0.44008814  0.68930610  0.98957249  1
  H  H51  1  0.80024329  0.44008481  0.48958061  1
  H  H52  1  0.30025310  0.04944957  0.48957490  1
  H  H53  1  0.94012279  0.30023072  0.98958349  1
  H  H54  1  0.04948436  0.18930610  0.98957249  1
  H  H55  1  0.31067819  0.45055043  0.51042510  1
  H  H56  1  0.19975671  0.55991519  0.51041939  1
  H  H57  1  0.55991186  0.31069390  0.01042751  1
  H  H58  1  0.45053930  0.19976928  0.01041651  1
  H  H59  1  0.18933732  0.94008481  0.48958061  1
  H  H60  1  0.69974690  0.95055043  0.51042510  1
  H  H61  1  0.05987721  0.69976928  0.01041651  1
  H  H62  1  0.95051564  0.81069390  0.01042751  1
  H  H63  1  0.79312344  0.85452940  0.69846637  1
  O  O64  1  0.95457741  0.20799161  0.59091102  1
  O  O65  1  0.61706316  0.86369679  0.90909171  1
  O  O66  1  0.29195513  0.54543529  0.90905954  1
  O  O67  1  0.86366639  0.29200839  0.40908898  1
  O  O68  1  0.54541143  0.61708627  0.40906222  1
  O  O69  1  0.88289560  0.95456471  0.09094046  1
  O  O70  1  0.20797145  0.63630321  0.09090829  1
  O  O71  1  0.63634922  0.88291373  0.59093778  1
  O  O72  1  0.04542259  0.79200839  0.40908898  1
  O  O73  1  0.38293684  0.13630321  0.09090829  1
  O  O74  1  0.70804487  0.45456471  0.09094046  1
  O  O75  1  0.13633361  0.70799161  0.59091102  1
  O  O76  1  0.45458857  0.38291373  0.59093778  1
  O  O77  1  0.11710440  0.04543529  0.90905954  1
  O  O78  1  0.79202855  0.36369679  0.90909171  1
  O  O79  1  0.36365078  0.11708627  0.40906222  1
  O  O80  1  0.32798581  0.37468037  0.25607150  1
  O  O81  1  0.11858340  0.57186538  0.24389214  1
  O  O82  1  0.12528086  0.17198109  0.24393118  1
  O  O83  1  0.57191431  0.12531963  0.74392850  1
  O  O84  1  0.17199245  0.11862241  0.74389375  1
  O  O85  1  0.38134968  0.32801891  0.75606882  1
  O  O86  1  0.37469126  0.92813462  0.75610786  1
  O  O87  1  0.92809870  0.38137759  0.25610625  1
  O  O88  1  0.67201419  0.62531963  0.74392850  1
  O  O89  1  0.88141660  0.42813462  0.75610786  1
  O  O90  1  0.87471914  0.82801891  0.75606882  1
  O  O91  1  0.42808569  0.87468037  0.25607150  1
  O  O92  1  0.82800755  0.88137759  0.25610625  1
  O  O93  1  0.61865032  0.67198109  0.24393118  1
  O  O94  1  0.62530874  0.07186538  0.24389214  1
  O  O95  1  0.07190130  0.61862241  0.74389375  1
  O  O96  1  0.02247709  0.27243560  0.04502065  1
  O  O97  1  0.27255030  0.02246077  0.54502051  1
  O  O98  1  0.47745644  0.22756440  0.95497935  1
  O  O99  1  0.22752979  0.47753923  0.45497949  1
  O  O100  1  0.97752291  0.72756440  0.95497935  1
  O  O101  1  0.72744970  0.97753923  0.45497949  1
  O  O102  1  0.52254356  0.77243560  0.04502065  1
  O  O103  1  0.77247021  0.52246077  0.54502051  1
  Mg  Mg104  1  0.87500546  0.62502818  0.74999965  1
  Mg  Mg105  1  0.62500581  0.87497182  0.25000035  1
  Mg  Mg106  1  0.12499454  0.37497182  0.25000035  1
  Mg  Mg107  1  0.37499419  0.12502818  0.74999965  1
  P  P108  1  0.01306234  0.75000000  0.50000000  1
  P  P109  1  0.25000805  0.01304936  0.99998153  1
  P  P110  1  0.75002652  0.48695064  0.00001847  1
  P  P111  1  0.48694011  0.25000000  0.50000000  1
  P  P112  1  0.51305989  0.75000000  0.50000000  1
  P  P113  1  0.24997348  0.51304936  0.99998153  1
  P  P114  1  0.74999195  0.98695064  0.00001847  1
  P  P115  1  0.98693766  0.25000000  0.50000000  1
