# generated using pymatgen
data_LiP5
_symmetry_space_group_name_H-M   'P 1'
_cell_length_a   6.59713459
_cell_length_b   6.68665505
_cell_length_c   10.51214938
_cell_angle_alpha   90.00000000
_cell_angle_beta   90.00000000
_cell_angle_gamma   90.00000000
_symmetry_Int_Tables_number   1
_chemical_formula_structural   LiP5
_chemical_formula_sum   'Li4 P20'
_cell_volume   463.71995760
_cell_formula_units_Z   4
loop_
 _symmetry_equiv_pos_site_id
 _symmetry_equiv_pos_as_xyz
  1  'x, y, z'
loop_
 _atom_site_type_symbol
 _atom_site_label
 _atom_site_symmetry_multiplicity
 _atom_site_fract_x
 _atom_site_fract_y
 _atom_site_fract_z
 _atom_site_occupancy
  Li  Li0  1  0.05537956  0.45712789  0.07807323  1
  Li  Li1  1  0.55537956  0.54287211  0.92192677  1
  Li  Li2  1  0.05537956  0.04287211  0.57807323  1
  Li  Li3  1  0.55537956  0.95712789  0.42192677  1
  P  P4  1  0.42521737  0.91465140  0.08438519  1
  P  P5  1  0.92521737  0.08534860  0.91561481  1
  P  P6  1  0.42521737  0.58534860  0.58438519  1
  P  P7  1  0.92521737  0.41465140  0.41561481  1
  P  P8  1  0.90964866  0.90107730  0.09271086  1
  P  P9  1  0.40964866  0.09892270  0.90728914  1
  P  P10  1  0.90964866  0.59892270  0.59271086  1
  P  P11  1  0.40964866  0.40107730  0.40728914  1
  P  P12  1  0.16701734  0.92279347  0.80724034  1
  P  P13  1  0.66701734  0.07720653  0.19275966  1
  P  P14  1  0.16701734  0.57720653  0.30724034  1
  P  P15  1  0.66701734  0.42279347  0.69275966  1
  P  P16  1  0.16693246  0.44606651  0.69147350  1
  P  P17  1  0.66693246  0.55393349  0.30852650  1
  P  P18  1  0.16693246  0.05393349  0.19147350  1
  P  P19  1  0.66693246  0.94606651  0.80852650  1
  P  P20  1  0.18480462  0.61144238  0.87069673  1
  P  P21  1  0.68480462  0.38855762  0.12930327  1
  P  P22  1  0.18480462  0.88855762  0.37069673  1
  P  P23  1  0.68480462  0.11144238  0.62930327  1
