# generated using pymatgen
data_MnSiO3
_symmetry_space_group_name_H-M   'P 1'
_cell_length_a   5.44932916
_cell_length_b   9.34160166
_cell_length_c   9.70158143
_cell_angle_alpha   90.00000000
_cell_angle_beta   102.18262787
_cell_angle_gamma   90.00000000
_symmetry_Int_Tables_number   1
_chemical_formula_structural   MnSiO3
_chemical_formula_sum   'Mn8 Si8 O24'
_cell_volume   482.74164450
_cell_formula_units_Z   8
loop_
 _symmetry_equiv_pos_site_id
 _symmetry_equiv_pos_as_xyz
  1  'x, y, z'
loop_
 _atom_site_type_symbol
 _atom_site_label
 _atom_site_symmetry_multiplicity
 _atom_site_fract_x
 _atom_site_fract_y
 _atom_site_fract_z
 _atom_site_occupancy
  O  O0  1  0.56352832  0.76593147  0.59977591  1
  O  O1  1  0.93647184  0.26593058  0.40022384  1
  O  O2  1  0.43647039  0.23406924  0.40022355  1
  O  O3  1  0.06352876  0.73406906  0.59977584  1
  O  O4  1  0.76450263  0.51263348  0.62606412  1
  O  O5  1  0.73549753  0.01263365  0.37393563  1
  O  O6  1  0.23549609  0.48736723  0.37393534  1
  O  O7  1  0.26450306  0.98736705  0.62606405  1
  O  O8  1  0.71529319  0.65876100  0.37366312  1
  O  O9  1  0.78470697  0.15876012  0.62633663  1
  O  O10  1  0.28470740  0.34123970  0.62633657  1
  O  O11  1  0.21529175  0.84123953  0.37366282  1
  O  O12  1  0.04994948  0.25790940  0.10070749  1
  O  O13  1  0.45005152  0.75790922  0.89929316  1
  O  O14  1  0.95005111  0.74209025  0.89929220  1
  O  O15  1  0.54994905  0.24209042  0.10070755  1
  O  O16  1  0.71058290  0.34058602  0.87316691  1
  O  O17  1  0.78941723  0.84058584  0.12683387  1
  O  O18  1  0.28941767  0.65941468  0.12683381  1
  O  O19  1  0.21058333  0.15941380  0.87316684  1
  O  O20  1  0.26907598  0.01081164  0.12429489  1
  O  O21  1  0.73092274  0.98918906  0.87570456  1
  O  O22  1  0.23092317  0.51081147  0.87570450  1
  O  O23  1  0.76907742  0.48918924  0.12429519  1
  Si  Si24  1  0.77835745  0.66394101  0.54648620  1
  Si  Si25  1  0.72164268  0.16394119  0.45351459  1
  Si  Si26  1  0.22164312  0.33605863  0.45351452  1
  Si  Si27  1  0.27835789  0.83605845  0.54648613  1
  Si  Si28  1  0.27241963  0.16363711  0.04588114  1
  Si  Si29  1  0.22758139  0.66363693  0.95411848  1
  Si  Si30  1  0.72758096  0.83636254  0.95411855  1
  Si  Si31  1  0.77241920  0.33636272  0.04588120  1
  Mn  Mn32  1  0.50275215  0.48807202  0.24980842  1
  Mn  Mn33  1  0.99724801  0.98807184  0.75019133  1
  Mn  Mn34  1  0.49724844  0.51192762  0.75019126  1
  Mn  Mn35  1  0.00275258  0.01192780  0.24980836  1
  Mn  Mn36  1  0.50239530  0.85077147  0.25025220  1
  Mn  Mn37  1  0.99760483  0.35077165  0.74974858  1
  Mn  Mn38  1  0.49760527  0.14922817  0.74974852  1
  Mn  Mn39  1  0.00239573  0.64922799  0.25025213  1
