# generated using pymatgen
data_Cu9(PO4)8
_symmetry_space_group_name_H-M   'P 1'
_cell_length_a   9.16673231
_cell_length_b   8.96234475
_cell_length_c   8.79099152
_cell_angle_alpha   106.54172958
_cell_angle_beta   99.46772727
_cell_angle_gamma   111.43969168
_symmetry_Int_Tables_number   1
_chemical_formula_structural   Cu9(PO4)8
_chemical_formula_sum   'Cu9 P8 O32'
_cell_volume   614.54622306
_cell_formula_units_Z   1
loop_
 _symmetry_equiv_pos_site_id
 _symmetry_equiv_pos_as_xyz
  1  'x, y, z'
loop_
 _atom_site_type_symbol
 _atom_site_label
 _atom_site_symmetry_multiplicity
 _atom_site_fract_x
 _atom_site_fract_y
 _atom_site_fract_z
 _atom_site_occupancy
  O  O0  1  0.45138842  0.25848913  0.90961451  1
  O  O1  1  0.96030434  0.51679239  0.71430679  1
  O  O2  1  0.72094960  0.08877936  0.42978154  1
  O  O3  1  0.65643264  0.06069511  0.11939582  1
  O  O4  1  0.88976705  0.75589792  0.41537378  1
  O  O5  1  0.77213475  0.44482179  0.40568806  1
  O  O6  1  0.93917573  0.80026648  0.81457952  1
  O  O7  1  0.71212295  0.53924000  0.15512958  1
  O  O8  1  0.87043078  0.06993499  0.69063078  1
  O  O9  1  0.12956922  0.93006501  0.30936922  1
  O  O10  1  -0.00987437  0.65701014  0.01593460  1
  O  O11  1  0.03969566  0.48320761  0.28569321  1
  O  O12  1  0.27905040  0.91122064  0.57021846  1
  O  O13  1  0.34356736  0.93930489  0.88060418  1
  O  O14  1  0.11023295  0.24410208  0.58462622  1
  O  O15  1  0.22786525  0.55517821  0.59431194  1
  O  O16  1  0.06082427  0.19973352  0.18542048  1
  O  O17  1  0.28787705  0.46076000  0.84487042  1
  O  O18  1  0.32539746  0.79735634  0.28354861  1
  O  O19  1  0.67460254  0.20264366  0.71645139  1
  O  O20  1  0.29129143  0.46795118  0.19489470  1
  O  O21  1  0.58720714  0.83578806  0.84000465  1
  O  O22  1  0.56689708  0.88227758  0.55754517  1
  O  O23  1  0.41686100  0.41786780  0.60123485  1
  O  O24  1  0.17585470  0.11488227  0.93217837  1
  O  O25  1  0.54861158  0.74151087  0.09038549  1
  O  O26  1  0.58313900  0.58213220  0.39876515  1
  O  O27  1  0.43310292  0.11772242  0.44245483  1
  O  O28  1  0.41279286  0.16421194  0.15999535  1
  O  O29  1  0.70870857  0.53204882  0.80510530  1
  O  O30  1  0.82414530  0.88511773  0.06782163  1
  O  O31  1  1.00987437  0.34298986  0.98406540  1
  P  P32  1  0.28713915  0.93169805  0.40344821  1
  P  P33  1  0.10145184  0.37646526  0.16395962  1
  P  P34  1  0.26639666  0.42105482  0.64963743  1
  P  P35  1  0.35069850  0.11881910  0.96986818  1
  P  P36  1  0.64930150  0.88118090  0.03013182  1
  P  P37  1  0.73360334  0.57894518  0.35036257  1
  P  P38  1  0.89854816  0.62353474  0.83604038  1
  P  P39  1  0.71286085  0.06830195  0.59655179  1
  Cu  Cu40  1  0.93132307  0.72487108  0.20890693  1
  Cu  Cu41  1  0.55919639  0.11054674  0.28390593  1
  Cu  Cu42  1  0.55514142  0.31388970  0.64898420  1
  Cu  Cu43  1  0.50000000  0.50000000  0.00000000  1
  Cu  Cu44  1  0.44485858  0.68611030  0.35101580  1
  Cu  Cu45  1  0.00000000  0.00000000  0.00000000  1
  Cu  Cu46  1  0.44080361  0.88945326  0.71609407  1
  Cu  Cu47  1  0.06867693  0.27512892  0.79109307  1
  Cu  Cu48  1  0.00000000  0.50000000  0.50000000  1
