# generated using pymatgen
data_Li9Mn2Co5O16
_symmetry_space_group_name_H-M   'P 1'
_cell_length_a   2.91352483
_cell_length_b   9.86101971
_cell_length_c   10.64549106
_cell_angle_alpha   72.38997444
_cell_angle_beta   82.13477726
_cell_angle_gamma   89.99999466
_symmetry_Int_Tables_number   1
_chemical_formula_structural   Li9Mn2Co5O16
_chemical_formula_sum   'Li9 Mn2 Co5 O16'
_cell_volume   288.49556769
_cell_formula_units_Z   1
loop_
 _symmetry_equiv_pos_site_id
 _symmetry_equiv_pos_as_xyz
  1  'x, y, z'
loop_
 _atom_site_type_symbol
 _atom_site_label
 _atom_site_symmetry_multiplicity
 _atom_site_fract_x
 _atom_site_fract_y
 _atom_site_fract_z
 _atom_site_occupancy
  Li  Li0  1  0.43780763  0.20192849  0.12438473  1
  Li  Li1  1  0.30508737  0.55836868  0.38982525  1
  Li  Li2  1  0.19360315  0.92543804  0.61279369  1
  Li  Li3  1  0.81063081  0.06168411  0.37873838  1
  Li  Li4  1  0.68742767  0.44015432  0.62514467  1
  Li  Li5  1  0.56571790  0.80432002  0.86856420  1
  Li  Li6  1  0.06539571  0.32669527  0.86920859  1
  Li  Li7  1  0.93532007  0.67486657  0.12935987  1
  Li  Li8  1  0.74945944  0.75088665  0.50108113  1
  Mn  Mn9  1  0.00010734  0.99912982  0.99978533  1
  Mn  Mn10  1  0.37047410  0.87382287  0.25905179  1
  Co  Co11  1  0.87450502  0.37482549  0.25098996  1
  Co  Co12  1  0.63088513  0.12544854  0.73822975  1
  Co  Co13  1  0.50191236  0.50648339  0.99617529  1
  Co  Co14  1  0.24894294  0.25280468  0.50211411  1
  Co  Co15  1  0.13581467  0.62711749  0.72837067  1
  O  O16  1  0.52689002  0.13504845  0.94621996  1
  O  O17  1  0.40470959  0.52099039  0.19058081  1
  O  O18  1  0.29144796  0.90904499  0.41710407  1
  O  O19  1  0.90853521  0.01474569  0.18292958  1
  O  O20  1  0.77982565  0.39573017  0.44034870  1
  O  O21  1  0.65400499  0.76884106  0.69199002  1
  O  O22  1  0.15142056  0.26906573  0.69715887  1
  O  O23  1  0.02864833  0.64671538  0.94270334  1
  O  O24  1  0.34500486  0.22999014  0.30999027  1
  O  O25  1  0.21476306  0.59291616  0.57047389  1
  O  O26  1  0.08611909  0.97693587  0.82776182  1
  O  O27  1  0.71524260  0.09466605  0.56951481  1
  O  O28  1  0.59365487  0.48393450  0.81269026  1
  O  O29  1  0.46773287  0.86235213  0.06453427  1
  O  O30  1  0.96972390  0.35497466  0.06055220  1
  O  O31  1  0.84918514  0.74007418  0.30162972  1
