# generated using pymatgen
data_LiCoPO4F
_symmetry_space_group_name_H-M   'P 1'
_cell_length_a   5.16949848
_cell_length_b   5.35147483
_cell_length_c   7.33223855
_cell_angle_alpha   109.99589035
_cell_angle_beta   105.10085669
_cell_angle_gamma   99.12675353
_symmetry_Int_Tables_number   1
_chemical_formula_structural   LiCoPO4F
_chemical_formula_sum   'Li2 Co2 P2 O8 F2'
_cell_volume   177.04040826
_cell_formula_units_Z   2
loop_
 _symmetry_equiv_pos_site_id
 _symmetry_equiv_pos_as_xyz
  1  'x, y, z'
loop_
 _atom_site_type_symbol
 _atom_site_label
 _atom_site_symmetry_multiplicity
 _atom_site_fract_x
 _atom_site_fract_y
 _atom_site_fract_z
 _atom_site_occupancy
  Li  Li0  1  0.92305373  0.56784496  0.19078620  1
  Li  Li1  1  0.07694521  0.43215394  0.80921304  1
  O  O2  1  0.34862868  0.31056812  0.65811622  1
  O  O3  1  0.65137094  0.68943154  0.34188361  1
  O  O4  1  0.71533010  0.84558655  0.07866830  1
  O  O5  1  0.63693261  0.18331547  0.38761918  1
  O  O6  1  0.28466941  0.15441326  0.92133154  1
  O  O7  1  0.36306708  0.81668433  0.61238077  1
  O  O8  1  0.76440075  0.22938898  0.88866544  1
  O  O9  1  0.23559887  0.77061077  0.11133444  1
  F  F10  1  0.13207105  0.33294562  0.26839233  1
  F  F11  1  0.86792843  0.66705395  0.73160758  1
  P  P12  1  0.44597692  0.12001461  0.76464547  1
  P  P13  1  0.55402270  0.87998512  0.23535437  1
  Co  Co14  1  -0.00000014  -0.00000021  -0.00000003  1
  Co  Co15  1  0.49999977  0.49999989  0.49999993  1
