# generated using pymatgen
data_Nb2Te3O11
_symmetry_space_group_name_H-M   'P 1'
_cell_length_a   4.08177594
_cell_length_b   7.94433671
_cell_length_c   15.97215431
_cell_angle_alpha   90.00000000
_cell_angle_beta   90.00000000
_cell_angle_gamma   90.00000000
_symmetry_Int_Tables_number   1
_chemical_formula_structural   Nb2Te3O11
_chemical_formula_sum   'Nb4 Te6 O22'
_cell_volume   517.92908682
_cell_formula_units_Z   2
loop_
 _symmetry_equiv_pos_site_id
 _symmetry_equiv_pos_as_xyz
  1  'x, y, z'
loop_
 _atom_site_type_symbol
 _atom_site_label
 _atom_site_symmetry_multiplicity
 _atom_site_fract_x
 _atom_site_fract_y
 _atom_site_fract_z
 _atom_site_occupancy
  O  O0  1  0.83477524  0.13633793  0.88552188  1
  O  O1  1  0.83477524  0.86366207  0.11447812  1
  O  O2  1  0.16522476  0.63633793  0.61447812  1
  O  O3  1  0.16522476  0.36366207  0.38552188  1
  O  O4  1  0.79516903  0.91967602  0.67207921  1
  O  O5  1  0.79516903  0.08032398  0.32792079  1
  O  O6  1  0.20483097  0.41967602  0.82792079  1
  O  O7  1  0.20483097  0.58032398  0.17207921  1
  O  O8  1  0.80403814  0.35469540  0.54365004  1
  O  O9  1  0.80403814  0.64530460  0.45634996  1
  O  O10  1  0.69542921  0.35145840  0.10674918  1
  O  O11  1  0.69542921  0.64854160  0.89325082  1
  O  O12  1  0.30457079  0.85145840  0.39325082  1
  O  O13  1  0.30457079  0.14854160  0.60674918  1
  O  O14  1  0.19111803  0.24846960  0.21853104  1
  O  O15  1  0.19111803  0.75153040  0.78146896  1
  O  O16  1  0.80888197  0.74846960  0.28146896  1
  O  O17  1  0.80888197  0.25153040  0.71853104  1
  O  O18  1  0.19722693  0.50000000  0.00000000  1
  O  O19  1  0.80277307  0.00000000  0.50000000  1
  O  O20  1  0.19596186  0.14530460  0.04365004  1
  O  O21  1  0.19596186  0.85469540  0.95634996  1
  Nb  Nb22  1  0.75012060  0.12889987  0.60168654  1
  Nb  Nb23  1  0.75012060  0.87110013  0.39831346  1
  Nb  Nb24  1  0.24987940  0.62889987  0.89831346  1
  Nb  Nb25  1  0.24987940  0.37110013  0.10168654  1
  Te  Te26  1  0.86430422  0.00000000  0.00000000  1
  Te  Te27  1  0.13569578  0.50000000  0.50000000  1
  Te  Te28  1  0.13686706  0.19267950  0.79770566  1
  Te  Te29  1  0.13686706  0.80732050  0.20229434  1
  Te  Te30  1  0.86313294  0.69267950  0.70229434  1
  Te  Te31  1  0.86313294  0.30732050  0.29770566  1
