# generated using pymatgen
data_SrH2Br2O7
_symmetry_space_group_name_H-M   'P 1'
_cell_length_a   7.61099560
_cell_length_b   7.61099560
_cell_length_c   7.65929150
_cell_angle_alpha   102.49500722
_cell_angle_beta   107.72659668
_cell_angle_gamma   118.41570205
_symmetry_Int_Tables_number   1
_chemical_formula_structural   SrH2Br2O7
_chemical_formula_sum   'Sr2 H4 Br4 O14'
_cell_volume   335.36672063
_cell_formula_units_Z   2
loop_
 _symmetry_equiv_pos_site_id
 _symmetry_equiv_pos_as_xyz
  1  'x, y, z'
loop_
 _atom_site_type_symbol
 _atom_site_label
 _atom_site_symmetry_multiplicity
 _atom_site_fract_x
 _atom_site_fract_y
 _atom_site_fract_z
 _atom_site_occupancy
  H  H0  1  0.08269012  0.28520608  0.36526655  1
  H  H1  1  0.91993953  0.21742357  0.13473345  1
  H  H2  1  0.91730988  0.71479392  0.63473345  1
  H  H3  1  0.08006047  0.78257643  0.86526655  1
  O  O4  1  0.07411628  0.32411628  0.25000000  1
  O  O5  1  0.92588372  0.67588372  0.75000000  1
  O  O6  1  0.73604035  0.09912840  0.51294170  1
  O  O7  1  0.58618670  0.72309865  0.98705830  1
  O  O8  1  0.26395965  0.90087160  0.48705830  1
  O  O9  1  0.41381330  0.27690135  0.01294170  1
  O  O10  1  0.16707293  0.25519316  0.60023155  1
  O  O11  1  0.65496161  0.06684138  0.89976845  1
  O  O12  1  0.83292707  0.74480684  0.39976845  1
  O  O13  1  0.34503839  0.93315862  0.10023155  1
  O  O14  1  0.06768294  0.40401233  0.87808182  1
  O  O15  1  0.52593051  0.68960112  0.62191818  1
  O  O16  1  0.93231706  0.59598767  0.12191818  1
  O  O17  1  0.47406949  0.31039888  0.37808182  1
  Br  Br18  1  0.52527207  0.21389738  0.19546407  1
  Br  Br19  1  0.01843331  0.82980800  0.30453593  1
  Br  Br20  1  0.47472793  0.78610262  0.80453593  1
  Br  Br21  1  0.98156669  0.17019200  0.69546407  1
  Sr  Sr22  1  0.39856597  0.64856597  0.25000000  1
  Sr  Sr23  1  0.60143403  0.35143403  0.75000000  1
