# generated using pymatgen
data_HfFeCl6
_symmetry_space_group_name_H-M   'P 1'
_cell_length_a   6.36160510
_cell_length_b   6.36160510
_cell_length_c   12.87187743
_cell_angle_alpha   90.00000000
_cell_angle_beta   90.00000000
_cell_angle_gamma   120.00000002
_symmetry_Int_Tables_number   1
_chemical_formula_structural   HfFeCl6
_chemical_formula_sum   'Hf2 Fe2 Cl12'
_cell_volume   451.13439554
_cell_formula_units_Z   2
loop_
 _symmetry_equiv_pos_site_id
 _symmetry_equiv_pos_as_xyz
  1  'x, y, z'
loop_
 _atom_site_type_symbol
 _atom_site_label
 _atom_site_symmetry_multiplicity
 _atom_site_fract_x
 _atom_site_fract_y
 _atom_site_fract_z
 _atom_site_occupancy
  Cl  Cl0  1  0.66433989  0.96843362  0.13993469  1
  Cl  Cl1  1  0.03156638  0.69590627  0.13993469  1
  Cl  Cl2  1  0.30409373  0.33566011  0.13993469  1
  Cl  Cl3  1  0.03156638  0.33566011  0.36006531  1
  Cl  Cl4  1  0.33566011  0.30409373  0.63993469  1
  Cl  Cl5  1  0.69590627  0.03156638  0.63993469  1
  Cl  Cl6  1  0.96843362  0.66433989  0.63993469  1
  Cl  Cl7  1  0.69590627  0.66433989  0.86006531  1
  Cl  Cl8  1  0.96843362  0.30409373  0.86006531  1
  Cl  Cl9  1  0.33566011  0.03156638  0.86006531  1
  Cl  Cl10  1  0.66433989  0.69590627  0.36006531  1
  Cl  Cl11  1  0.30409373  0.96843362  0.36006531  1
  Fe  Fe12  1  0.00000000  0.00000000  0.25000000  1
  Fe  Fe13  1  0.00000000  0.00000000  0.75000000  1
  Hf  Hf14  1  0.33333333  0.66666667  0.25000000  1
  Hf  Hf15  1  0.66666667  0.33333333  0.75000000  1
