# generated using pymatgen
data_Pd(PbBr3)2
_symmetry_space_group_name_H-M   'P 1'
_cell_length_a   6.93277018
_cell_length_b   8.38332598
_cell_length_c   9.79974039
_cell_angle_alpha   90.70927733
_cell_angle_beta   90.00000000
_cell_angle_gamma   90.00000000
_symmetry_Int_Tables_number   1
_chemical_formula_structural   Pd(PbBr3)2
_chemical_formula_sum   'Pd2 Pb4 Br12'
_cell_volume   569.51406072
_cell_formula_units_Z   2
loop_
 _symmetry_equiv_pos_site_id
 _symmetry_equiv_pos_as_xyz
  1  'x, y, z'
loop_
 _atom_site_type_symbol
 _atom_site_label
 _atom_site_symmetry_multiplicity
 _atom_site_fract_x
 _atom_site_fract_y
 _atom_site_fract_z
 _atom_site_occupancy
  Br  Br0  1  0.34387370  0.83244176  0.44332500  1
  Br  Br1  1  0.84387370  0.66755824  0.55667500  1
  Br  Br2  1  0.65612630  0.16755824  0.55667500  1
  Br  Br3  1  0.15612630  0.33244176  0.44332500  1
  Br  Br4  1  0.29599647  0.85478579  0.06541766  1
  Br  Br5  1  0.79599647  0.64521421  0.93458234  1
  Br  Br6  1  0.62658609  0.47269340  0.23557935  1
  Br  Br7  1  0.12658609  0.02730660  0.76442065  1
  Br  Br8  1  0.37341391  0.52730660  0.76442065  1
  Br  Br9  1  0.87341391  0.97269340  0.23557935  1
  Br  Br10  1  0.20400353  0.35478579  0.06541766  1
  Br  Br11  1  0.70400353  0.14521421  0.93458234  1
  Pd  Pd12  1  0.50000000  0.50000000  0.00000000  1
  Pd  Pd13  1  0.00000000  0.00000000  0.00000000  1
  Pb  Pb14  1  0.04152314  0.62128111  0.28256504  1
  Pb  Pb15  1  0.54152314  0.87871889  0.71743496  1
  Pb  Pb16  1  0.95847686  0.37871889  0.71743496  1
  Pb  Pb17  1  0.45847686  0.12128111  0.28256504  1
