# generated using pymatgen
data_Ho6Fe23
_symmetry_space_group_name_H-M   'P 1'
_cell_length_a   8.47313635
_cell_length_b   8.47313635
_cell_length_c   8.47313635
_cell_angle_alpha   59.99999998
_cell_angle_beta   59.99999997
_cell_angle_gamma   59.99999996
_symmetry_Int_Tables_number   1
_chemical_formula_structural   Ho6Fe23
_chemical_formula_sum   'Ho6 Fe23'
_cell_volume   430.14768280
_cell_formula_units_Z   1
loop_
 _symmetry_equiv_pos_site_id
 _symmetry_equiv_pos_as_xyz
  1  'x, y, z'
loop_
 _atom_site_type_symbol
 _atom_site_label
 _atom_site_symmetry_multiplicity
 _atom_site_fract_x
 _atom_site_fract_y
 _atom_site_fract_z
 _atom_site_occupancy
  Fe  Fe0  1  0.50000000  0.50000000  0.50000000  1
  Fe  Fe1  1  0.50000000  0.00000000  0.00000000  1
  Fe  Fe2  1  0.00000000  0.00000000  0.50000000  1
  Fe  Fe3  1  0.50000000  0.50000000  0.00000000  1
  Fe  Fe4  1  0.00000000  0.50000000  0.50000000  1
  Fe  Fe5  1  0.00000000  0.50000000  0.00000000  1
  Fe  Fe6  1  0.50000000  0.00000000  0.50000000  1
  Fe  Fe7  1  0.17548806  0.17548806  0.17548806  1
  Fe  Fe8  1  0.82451194  0.82451194  0.52646419  1
  Fe  Fe9  1  0.52646419  0.82451194  0.82451194  1
  Fe  Fe10  1  0.82451194  0.52646419  0.82451194  1
  Fe  Fe11  1  0.47353581  0.17548806  0.17548806  1
  Fe  Fe12  1  0.17548806  0.47353581  0.17548806  1
  Fe  Fe13  1  0.17548806  0.17548806  0.47353581  1
  Fe  Fe14  1  0.82451194  0.82451194  0.82451194  1
  Fe  Fe15  1  0.37839772  0.37839772  0.37839772  1
  Fe  Fe16  1  0.62160228  0.62160228  0.13519317  1
  Fe  Fe17  1  0.13519317  0.62160228  0.62160228  1
  Fe  Fe18  1  0.62160228  0.13519317  0.62160228  1
  Fe  Fe19  1  0.86480683  0.37839772  0.37839772  1
  Fe  Fe20  1  0.37839772  0.86480683  0.37839772  1
  Fe  Fe21  1  0.37839772  0.37839772  0.86480683  1
  Fe  Fe22  1  0.62160228  0.62160228  0.62160228  1
  Ho  Ho23  1  0.79027717  0.20972283  0.20972283  1
  Ho  Ho24  1  0.79027717  0.79027717  0.20972283  1
  Ho  Ho25  1  0.20972283  0.20972283  0.79027717  1
  Ho  Ho26  1  0.79027717  0.20972283  0.79027717  1
  Ho  Ho27  1  0.20972283  0.79027717  0.20972283  1
  Ho  Ho28  1  0.20972283  0.79027717  0.79027717  1
