# generated using pymatgen
data_Li9Mn2Co5O16
_symmetry_space_group_name_H-M   'P 1'
_cell_length_a   2.96126362
_cell_length_b   10.00009241
_cell_length_c   10.45707643
_cell_angle_alpha   73.40288371
_cell_angle_beta   81.86004809
_cell_angle_gamma   89.99999476
_symmetry_Int_Tables_number   1
_chemical_formula_structural   Li9Mn2Co5O16
_chemical_formula_sum   'Li9 Mn2 Co5 O16'
_cell_volume   293.50597511
_cell_formula_units_Z   1
loop_
 _symmetry_equiv_pos_site_id
 _symmetry_equiv_pos_as_xyz
  1  'x, y, z'
loop_
 _atom_site_type_symbol
 _atom_site_label
 _atom_site_symmetry_multiplicity
 _atom_site_fract_x
 _atom_site_fract_y
 _atom_site_fract_z
 _atom_site_occupancy
  Li  Li0  1  0.43339424  0.21542465  0.13321151  1
  Li  Li1  1  0.31344429  0.53878774  0.37311142  1
  Li  Li2  1  0.18566144  0.93343556  0.62867712  1
  Li  Li3  1  0.80892442  0.07274547  0.38215116  1
  Li  Li4  1  0.68777388  0.43221587  0.62445224  1
  Li  Li5  1  0.56355602  0.80555355  0.87288796  1
  Li  Li6  1  0.06503862  0.32978344  0.86992275  1
  Li  Li7  1  0.93687447  0.66668153  0.12625106  1
  Li  Li8  1  0.87438213  0.37575794  0.25123575  1
  Mn  Mn9  1  0.00272804  0.00441516  0.99454393  1
  Mn  Mn10  1  0.37541188  0.87560619  0.24917624  1
  Co  Co11  1  0.74540112  0.74377015  0.50919776  1
  Co  Co12  1  0.63331932  0.13075540  0.73336135  1
  Co  Co13  1  0.49146423  0.49138968  0.01707154  1
  Co  Co14  1  0.25856992  0.26032816  0.48286017  1
  Co  Co15  1  0.11833717  0.61994736  0.76332566  1
  O  O16  1  0.52829206  0.13463563  0.94341588  1
  O  O17  1  0.41212235  0.53443271  0.17575530  1
  O  O18  1  0.28677326  0.89192459  0.42645348  1
  O  O19  1  0.90667596  0.01188880  0.18664808  1
  O  O20  1  0.77826342  0.39860443  0.44347315  1
  O  O21  1  0.65743300  0.77318580  0.68513401  1
  O  O22  1  0.15507168  0.26986736  0.68985664  1
  O  O23  1  0.03452663  0.65518698  0.93094675  1
  O  O24  1  0.33634714  0.21310296  0.32730572  1
  O  O25  1  0.22090690  0.61088393  0.55818620  1
  O  O26  1  0.08788452  0.97770051  0.82423096  1
  O  O27  1  0.71339694  0.09029039  0.57320613  1
  O  O28  1  0.59474364  0.47889833  0.81051272  1
  O  O29  1  0.46997993  0.86832176  0.06004013  1
  O  O30  1  0.97186876  0.35108159  0.05626247  1
  O  O31  1  0.85143264  0.74339634  0.29713473  1
