# generated using pymatgen
data_Zr2P
_symmetry_space_group_name_H-M   'P 1'
_cell_length_a   3.63772164
_cell_length_b   17.63674016
_cell_length_c   17.63674016
_cell_angle_alpha   114.22060498
_cell_angle_beta   90.00000000
_cell_angle_gamma   90.00000000
_symmetry_Int_Tables_number   1
_chemical_formula_structural   Zr2P
_chemical_formula_sum   'Zr36 P18'
_cell_volume   1031.92445675
_cell_formula_units_Z   18
loop_
 _symmetry_equiv_pos_site_id
 _symmetry_equiv_pos_as_xyz
  1  'x, y, z'
loop_
 _atom_site_type_symbol
 _atom_site_label
 _atom_site_symmetry_multiplicity
 _atom_site_fract_x
 _atom_site_fract_y
 _atom_site_fract_z
 _atom_site_occupancy
  P  P0  1  0.50000000  0.84469983  0.15530017  1
  P  P1  1  0.50000000  0.15530017  0.84469983  1
  P  P2  1  0.00000000  0.17800454  0.60822905  1
  P  P3  1  0.00000000  0.82199546  0.39177095  1
  P  P4  1  0.00000000  0.60822905  0.17800454  1
  P  P5  1  0.00000000  0.39177095  0.82199546  1
  P  P6  1  0.00000000  0.96102241  0.62725061  1
  P  P7  1  0.00000000  0.03897759  0.37274939  1
  P  P8  1  0.00000000  0.62725061  0.96102241  1
  P  P9  1  0.00000000  0.37274939  0.03897759  1
  P  P10  1  0.50000000  0.71842544  0.58059033  1
  P  P11  1  0.50000000  0.28157456  0.41940967  1
  P  P12  1  0.50000000  0.58059033  0.71842544  1
  P  P13  1  0.50000000  0.41940967  0.28157456  1
  P  P14  1  0.50000000  0.91821607  0.79200890  1
  P  P15  1  0.50000000  0.08178393  0.20799110  1
  P  P16  1  0.50000000  0.79200890  0.91821607  1
  P  P17  1  0.50000000  0.20799110  0.08178393  1
  Zr  Zr18  1  0.00000000  0.69931584  0.46178573  1
  Zr  Zr19  1  0.00000000  0.30068416  0.53821427  1
  Zr  Zr20  1  0.50000000  0.25060853  0.25060853  1
  Zr  Zr21  1  0.50000000  0.74939147  0.74939147  1
  Zr  Zr22  1  0.00000000  0.10662164  0.10662164  1
  Zr  Zr23  1  0.00000000  0.89337836  0.89337836  1
  Zr  Zr24  1  0.00000000  0.38422510  0.38422510  1
  Zr  Zr25  1  0.00000000  0.61577490  0.61577490  1
  Zr  Zr26  1  0.50000000  0.05782070  0.94217930  1
  Zr  Zr27  1  0.50000000  0.94217930  0.05782070  1
  Zr  Zr28  1  0.50000000  0.30758578  0.69241422  1
  Zr  Zr29  1  0.50000000  0.69241422  0.30758578  1
  Zr  Zr30  1  0.50000000  0.44779402  0.55220598  1
  Zr  Zr31  1  0.50000000  0.55220598  0.44779402  1
  Zr  Zr32  1  0.00000000  0.22114501  0.77885499  1
  Zr  Zr33  1  0.00000000  0.77885499  0.22114501  1
  Zr  Zr34  1  0.00000000  0.50000000  0.00000000  1
  Zr  Zr35  1  0.00000000  0.00000000  0.50000000  1
  Zr  Zr36  1  0.00000000  0.53821427  0.30068416  1
  Zr  Zr37  1  0.00000000  0.46178573  0.69931584  1
  Zr  Zr38  1  0.00000000  0.03157678  0.78912846  1
  Zr  Zr39  1  0.00000000  0.96842322  0.21087154  1
  Zr  Zr40  1  0.00000000  0.78912846  0.03157678  1
  Zr  Zr41  1  0.00000000  0.21087154  0.96842322  1
  Zr  Zr42  1  0.00000000  0.83470976  0.66941026  1
  Zr  Zr43  1  0.00000000  0.16529024  0.33058974  1
  Zr  Zr44  1  0.00000000  0.66941026  0.83470976  1
  Zr  Zr45  1  0.00000000  0.33058974  0.16529024  1
  Zr  Zr46  1  0.50000000  0.14125412  0.48136153  1
  Zr  Zr47  1  0.50000000  0.85874588  0.51863847  1
  Zr  Zr48  1  0.50000000  0.48136153  0.14125412  1
  Zr  Zr49  1  0.50000000  0.51863847  0.85874588  1
  Zr  Zr50  1  0.50000000  0.08599088  0.65429158  1
  Zr  Zr51  1  0.50000000  0.91400912  0.34570842  1
  Zr  Zr52  1  0.50000000  0.65429158  0.08599088  1
  Zr  Zr53  1  0.50000000  0.34570842  0.91400912  1
