# generated using pymatgen
data_Li9Mn2Co5O16
_symmetry_space_group_name_H-M   'P 1'
_cell_length_a   2.86909547
_cell_length_b   19.49013764
_cell_length_c   5.13527549
_cell_angle_alpha   92.38555989
_cell_angle_beta   89.99999989
_cell_angle_gamma   85.77899879
_symmetry_Int_Tables_number   1
_chemical_formula_structural   Li9Mn2Co5O16
_chemical_formula_sum   'Li9 Mn2 Co5 O16'
_cell_volume   286.13136108
_cell_formula_units_Z   1
loop_
 _symmetry_equiv_pos_site_id
 _symmetry_equiv_pos_as_xyz
  1  'x, y, z'
loop_
 _atom_site_type_symbol
 _atom_site_label
 _atom_site_symmetry_multiplicity
 _atom_site_fract_x
 _atom_site_fract_y
 _atom_site_fract_z
 _atom_site_occupancy
  Li  Li0  1  0.44103340  0.11793321  0.17589541  1
  Li  Li1  1  0.31031362  0.37937276  0.56442367  1
  Li  Li2  1  0.18759160  0.62481680  0.94121747  1
  Li  Li3  1  0.05867437  0.88265127  0.33279810  1
  Li  Li4  1  0.94513396  0.10973208  0.65131817  1
  Li  Li5  1  0.81004450  0.37991100  0.06681474  1
  Li  Li6  1  0.68693977  0.62612046  0.43348990  1
  Li  Li7  1  0.56120059  0.87759883  0.82889116  1
  Li  Li8  1  0.50039817  0.99920367  0.49696205  1
  Mn  Mn9  1  -0.00000426  0.00000853  -0.00005573  1
  Mn  Mn10  1  0.87516887  0.24966225  0.37289402  1
  Co  Co11  1  0.74988650  0.50022700  0.75069651  1
  Co  Co12  1  0.62459707  0.75080587  0.12958033  1
  Co  Co13  1  0.37531261  0.24937478  0.87221147  1
  Co  Co14  1  0.24973517  0.50052966  0.25139958  1
  Co  Co15  1  0.12456673  0.75086653  0.62965554  1
  O  O16  1  0.47181516  0.05636969  0.85253938  1
  O  O17  1  0.34676963  0.30646073  0.24344090  1
  O  O18  1  0.22071981  0.55856038  0.59488892  1
  O  O19  1  0.09558647  0.80882706  0.98632732  1
  O  O20  1  0.97080540  0.05838921  0.30929214  1
  O  O21  1  0.84821663  0.30356673  0.70016805  1
  O  O22  1  0.72091018  0.55817965  0.09115568  1
  O  O23  1  0.59793330  0.80413340  0.48395148  1
  O  O24  1  0.40332233  0.19335534  0.50322121  1
  O  O25  1  0.27999535  0.44000930  0.90539718  1
  O  O26  1  0.15470512  0.69058975  0.27343205  1
  O  O27  1  0.02911343  0.94177313  0.68992555  1
  O  O28  1  0.90101504  0.19796992  0.04617182  1
  O  O29  1  0.77942479  0.44115043  0.40571636  1
  O  O30  1  0.65166401  0.69667198  0.77193499  1
  O  O31  1  0.52741070  0.94517861  0.14424459  1
