# generated using pymatgen
data_Ga(SbCl)4
_symmetry_space_group_name_H-M   'P 1'
_cell_length_a   10.13157373
_cell_length_b   13.52340165
_cell_length_c   18.30142323
_cell_angle_alpha   90.00000000
_cell_angle_beta   90.00000000
_cell_angle_gamma   90.00000000
_symmetry_Int_Tables_number   1
_chemical_formula_structural   Ga(SbCl)4
_chemical_formula_sum   'Ga8 Sb32 Cl32'
_cell_volume   2507.53913992
_cell_formula_units_Z   8
loop_
 _symmetry_equiv_pos_site_id
 _symmetry_equiv_pos_as_xyz
  1  'x, y, z'
loop_
 _atom_site_type_symbol
 _atom_site_label
 _atom_site_symmetry_multiplicity
 _atom_site_fract_x
 _atom_site_fract_y
 _atom_site_fract_z
 _atom_site_occupancy
  Cl  Cl0  1  0.53832778  0.90435861  0.49707728  1
  Cl  Cl1  1  0.46167222  0.40435861  0.50292272  1
  Cl  Cl2  1  0.96167222  0.90435861  0.99707728  1
  Cl  Cl3  1  0.03832778  0.40435861  0.00292272  1
  Cl  Cl4  1  0.34629723  0.37663509  0.87773347  1
  Cl  Cl5  1  0.65370277  0.87663509  0.12226653  1
  Cl  Cl6  1  0.15370277  0.37663509  0.37773347  1
  Cl  Cl7  1  0.84629723  0.87663509  0.62226653  1
  Cl  Cl8  1  0.60150561  0.22491742  0.80135189  1
  Cl  Cl9  1  0.39849439  0.72491742  0.19864811  1
  Cl  Cl10  1  0.89849439  0.22491742  0.30135189  1
  Cl  Cl11  1  0.10150561  0.72491742  0.69864811  1
  Cl  Cl12  1  0.32534918  0.10771715  0.44765655  1
  Cl  Cl13  1  0.67465082  0.60771715  0.55234345  1
  Cl  Cl14  1  0.17465082  0.10771715  0.94765655  1
  Cl  Cl15  1  0.82534918  0.60771715  0.05234345  1
  Cl  Cl16  1  0.51099808  0.11731160  0.61667315  1
  Cl  Cl17  1  0.48900192  0.61731160  0.38332685  1
  Cl  Cl18  1  0.98900192  0.11731160  0.11667315  1
  Cl  Cl19  1  0.01099808  0.61731160  0.88332685  1
  Cl  Cl20  1  0.67928722  0.13844736  0.44537610  1
  Cl  Cl21  1  0.32071278  0.63844736  0.55462390  1
  Cl  Cl22  1  0.82071278  0.13844736  0.94537610  1
  Cl  Cl23  1  0.17928722  0.63844736  0.05462390  1
  Cl  Cl24  1  0.51109890  0.45171352  0.71228251  1
  Cl  Cl25  1  0.48890110  0.95171352  0.28771749  1
  Cl  Cl26  1  0.98890110  0.45171352  0.21228251  1
  Cl  Cl27  1  0.01109890  0.95171352  0.78771749  1
  Cl  Cl28  1  0.68346566  0.46156819  0.88283131  1
  Cl  Cl29  1  0.31653434  0.96156819  0.11716869  1
  Cl  Cl30  1  0.81653434  0.46156819  0.38283131  1
  Cl  Cl31  1  0.18346566  0.96156819  0.61716869  1
  Ga  Ga32  1  0.53649295  0.37787118  0.81918537  1
  Ga  Ga33  1  0.46350705  0.87787118  0.18081463  1
  Ga  Ga34  1  0.96350705  0.37787118  0.31918537  1
  Ga  Ga35  1  0.03649295  0.87787118  0.68081463  1
  Ga  Ga36  1  0.51254012  0.06540256  0.50224012  1
  Ga  Ga37  1  0.48745988  0.56540256  0.49775988  1
  Ga  Ga38  1  0.98745988  0.06540256  0.00224012  1
  Ga  Ga39  1  0.01254012  0.56540256  0.99775988  1
  Sb  Sb40  1  0.88960601  0.17814501  0.67695410  1
  Sb  Sb41  1  0.11039399  0.67814501  0.32304590  1
  Sb  Sb42  1  0.61039399  0.17814501  0.17695410  1
  Sb  Sb43  1  0.38960601  0.67814501  0.82304590  1
  Sb  Sb44  1  0.06143692  0.23957213  0.55089058  1
  Sb  Sb45  1  0.93856308  0.73957213  0.44910942  1
  Sb  Sb46  1  0.43856308  0.23957213  0.05089058  1
  Sb  Sb47  1  0.56143692  0.73957213  0.94910942  1
  Sb  Sb48  1  0.96774683  0.31877990  0.79125491  1
  Sb  Sb49  1  0.03225317  0.81877990  0.20874509  1
  Sb  Sb50  1  0.53225317  0.31877990  0.29125491  1
  Sb  Sb51  1  0.46774683  0.81877990  0.70874509  1
  Sb  Sb52  1  0.05067136  0.45608989  0.56513578  1
  Sb  Sb53  1  0.94932864  0.95608989  0.43486422  1
  Sb  Sb54  1  0.44932864  0.45608989  0.06513578  1
  Sb  Sb55  1  0.55067136  0.95608989  0.93486422  1
  Sb  Sb56  1  0.17900795  0.22570218  0.69665164  1
  Sb  Sb57  1  0.82099205  0.72570218  0.30334836  1
  Sb  Sb58  1  0.32099205  0.22570218  0.19665164  1
  Sb  Sb59  1  0.67900795  0.72570218  0.80334836  1
  Sb  Sb60  1  0.87434250  0.47939104  0.69580345  1
  Sb  Sb61  1  0.12565750  0.97939104  0.30419655  1
  Sb  Sb62  1  0.62565750  0.47939104  0.19580345  1
  Sb  Sb63  1  0.37434250  0.97939104  0.80419655  1
  Sb  Sb64  1  0.79805389  0.33844437  0.58219818  1
  Sb  Sb65  1  0.20194611  0.83844437  0.41780182  1
  Sb  Sb66  1  0.70194611  0.33844437  0.08219818  1
  Sb  Sb67  1  0.29805389  0.83844437  0.91780182  1
  Sb  Sb68  1  0.16833402  0.44101280  0.71098299  1
  Sb  Sb69  1  0.83166598  0.94101280  0.28901701  1
  Sb  Sb70  1  0.33166598  0.44101280  0.21098299  1
  Sb  Sb71  1  0.66833402  0.94101280  0.78901701  1
