# generated using pymatgen
data_Y6Fe23
_symmetry_space_group_name_H-M   'P 1'
_cell_length_a   8.51637452
_cell_length_b   8.51637451
_cell_length_c   8.51637451
_cell_angle_alpha   59.99999998
_cell_angle_beta   59.99999999
_cell_angle_gamma   59.99999998
_symmetry_Int_Tables_number   1
_chemical_formula_structural   Y6Fe23
_chemical_formula_sum   'Y6 Fe23'
_cell_volume   436.76643586
_cell_formula_units_Z   1
loop_
 _symmetry_equiv_pos_site_id
 _symmetry_equiv_pos_as_xyz
  1  'x, y, z'
loop_
 _atom_site_type_symbol
 _atom_site_label
 _atom_site_symmetry_multiplicity
 _atom_site_fract_x
 _atom_site_fract_y
 _atom_site_fract_z
 _atom_site_occupancy
  Fe  Fe0  1  0.50000000  0.50000000  0.50000000  1
  Fe  Fe1  1  0.50000000  0.00000000  0.00000000  1
  Fe  Fe2  1  0.00000000  0.00000000  0.50000000  1
  Fe  Fe3  1  0.50000000  0.50000000  0.00000000  1
  Fe  Fe4  1  0.00000000  0.50000000  0.50000000  1
  Fe  Fe5  1  0.00000000  0.50000000  0.00000000  1
  Fe  Fe6  1  0.50000000  0.00000000  0.50000000  1
  Fe  Fe7  1  0.37807321  0.37807321  0.37807321  1
  Fe  Fe8  1  0.62192679  0.62192679  0.13421962  1
  Fe  Fe9  1  0.13421962  0.62192679  0.62192679  1
  Fe  Fe10  1  0.62192679  0.13421962  0.62192679  1
  Fe  Fe11  1  0.86578038  0.37807321  0.37807321  1
  Fe  Fe12  1  0.37807321  0.86578038  0.37807321  1
  Fe  Fe13  1  0.37807321  0.37807321  0.86578038  1
  Fe  Fe14  1  0.62192679  0.62192679  0.62192679  1
  Fe  Fe15  1  0.17603374  0.17603374  0.17603374  1
  Fe  Fe16  1  0.82396626  0.82396626  0.52810123  1
  Fe  Fe17  1  0.52810123  0.82396626  0.82396626  1
  Fe  Fe18  1  0.82396626  0.52810123  0.82396626  1
  Fe  Fe19  1  0.47189877  0.17603374  0.17603374  1
  Fe  Fe20  1  0.17603374  0.47189877  0.17603374  1
  Fe  Fe21  1  0.17603374  0.17603374  0.47189877  1
  Fe  Fe22  1  0.82396626  0.82396626  0.82396626  1
  Y  Y23  1  0.79083872  0.20916128  0.20916128  1
  Y  Y24  1  0.79083872  0.79083872  0.20916128  1
  Y  Y25  1  0.20916128  0.20916128  0.79083872  1
  Y  Y26  1  0.79083872  0.20916128  0.79083872  1
  Y  Y27  1  0.20916128  0.79083872  0.20916128  1
  Y  Y28  1  0.20916128  0.79083872  0.79083872  1
