# generated using pymatgen
data_Li3Co(PO4)2
_symmetry_space_group_name_H-M   'P 1'
_cell_length_a   8.26514389
_cell_length_b   10.42417375
_cell_length_c   8.17845517
_cell_angle_alpha   90.00000000
_cell_angle_beta   104.57236065
_cell_angle_gamma   90.00000000
_symmetry_Int_Tables_number   1
_chemical_formula_structural   Li3Co(PO4)2
_chemical_formula_sum   'Li12 Co4 P8 O32'
_cell_volume   681.96598261
_cell_formula_units_Z   4
loop_
 _symmetry_equiv_pos_site_id
 _symmetry_equiv_pos_as_xyz
  1  'x, y, z'
loop_
 _atom_site_type_symbol
 _atom_site_label
 _atom_site_symmetry_multiplicity
 _atom_site_fract_x
 _atom_site_fract_y
 _atom_site_fract_z
 _atom_site_occupancy
  Li  Li0  1  0.10014366  0.66328916  0.61204473  1
  Li  Li1  1  0.90827951  0.33301209  0.39380195  1
  Li  Li2  1  0.84439841  0.84218271  0.35256683  1
  Li  Li3  1  0.78575427  0.57680860  0.54804804  1
  Li  Li4  1  0.71424628  0.07680843  0.45195282  1
  Li  Li5  1  0.16601449  0.15286039  0.64437096  1
  Li  Li6  1  0.15680895  0.35463620  0.16373615  1
  Li  Li7  1  0.34319001  0.85463636  0.83626375  1
  Li  Li8  1  0.33398573  0.65286056  0.35562926  1
  Li  Li9  1  0.39985655  0.16328900  0.38795549  1
  Li  Li10  1  0.59171981  0.83301129  0.60619737  1
  Li  Li11  1  0.65560090  0.34218254  0.64743248  1
  O  O12  1  0.05690381  0.16513270  0.12863082  1
  O  O13  1  0.99184418  0.53693586  0.72662117  1
  O  O14  1  0.91757361  0.65931020  0.39336957  1
  O  O15  1  0.99652212  0.94449265  0.23842266  1
  O  O16  1  0.01069710  0.06094000  0.76498377  1
  O  O17  1  0.07156233  0.32223713  0.61594994  1
  O  O18  1  0.00196074  0.45495475  0.25539133  1
  O  O19  1  0.11707346  0.84471807  0.69006411  1
  O  O20  1  0.19669678  0.37996897  0.92177362  1
  O  O21  1  0.38292675  0.34471886  0.30993611  1
  O  O22  1  0.10470636  0.67179964  0.18842148  1
  O  O23  1  0.19516558  0.10325802  0.42626759  1
  O  O24  1  0.30483463  0.60325818  0.57373263  1
  O  O25  1  0.79946275  0.61927535  0.08377032  1
  O  O26  1  0.44309640  0.66513286  0.87136940  1
  O  O27  1  0.30330343  0.87996817  0.07822660  1
  O  O28  1  0.88210050  0.14382305  0.34557217  1
  O  O29  1  0.49803947  0.95495491  0.74460888  1
  O  O30  1  0.50347844  0.44449248  0.76157820  1
  O  O31  1  0.42843788  0.82223730  0.38405028  1
  O  O32  1  0.48930312  0.56094016  0.23501645  1
  O  O33  1  0.58242695  0.15931004  0.60663128  1
  O  O34  1  0.50815638  0.03693569  0.27337969  1
  O  O35  1  0.61790006  0.64382321  0.65442747  1
  O  O36  1  0.70053781  0.11927519  0.91623054  1
  O  O37  1  0.57420770  0.35838660  0.11101506  1
  O  O38  1  0.61188795  0.83090756  0.17677150  1
  O  O39  1  0.68982744  0.40628197  0.42544922  1
  O  O40  1  0.81017187  0.90628117  0.57455132  1
  O  O41  1  0.88811261  0.33090739  0.82322936  1
  O  O42  1  0.92579161  0.85838676  0.88898548  1
  O  O43  1  0.39529385  0.17179948  0.81157874  1
  P  P44  1  0.54355458  0.09593802  0.76357843  1
  P  P45  1  0.46235738  0.89733267  0.23686546  1
  P  P46  1  0.53303021  0.41391474  0.27576669  1
  P  P47  1  0.96697035  0.91391490  0.72423417  1
  P  P48  1  0.03764283  0.39733251  0.76313476  1
  P  P49  1  0.03189372  0.09036651  0.29141739  1
  P  P50  1  0.46810649  0.59036667  0.70858160  1
  P  P51  1  0.95644598  0.59593819  0.23642242  1
  Co  Co52  1  0.91442902  0.16130061  0.91181855  1
  Co  Co53  1  0.58557029  0.66130077  0.08818077  1
  Co  Co54  1  0.41623193  0.33859832  0.90727726  1
  Co  Co55  1  0.08376828  0.83859848  0.09272296  1
