# generated using pymatgen
data_Li2Co(PO3)4
_symmetry_space_group_name_H-M   'P 1'
_cell_length_a   8.57245474
_cell_length_b   8.57245473
_cell_length_c   7.64465557
_cell_angle_alpha   83.20224503
_cell_angle_beta   96.79775500
_cell_angle_gamma   65.54721006
_symmetry_Int_Tables_number   1
_chemical_formula_structural   Li2Co(PO3)4
_chemical_formula_sum   'Li4 Co2 P8 O24'
_cell_volume   499.01715246
_cell_formula_units_Z   2
loop_
 _symmetry_equiv_pos_site_id
 _symmetry_equiv_pos_as_xyz
  1  'x, y, z'
loop_
 _atom_site_type_symbol
 _atom_site_label
 _atom_site_symmetry_multiplicity
 _atom_site_fract_x
 _atom_site_fract_y
 _atom_site_fract_z
 _atom_site_occupancy
  Li  Li0  1  0.48923486  0.81604163  0.75460124  1
  Li  Li1  1  0.51076490  0.18395757  0.24539858  1
  Li  Li2  1  0.81604251  0.48923527  0.74539845  1
  Li  Li3  1  0.18395790  0.51076521  0.25460130  1
  O  O4  1  0.61998056  0.92021150  0.31078395  1
  O  O5  1  0.82727724  0.10735522  0.33069626  1
  O  O6  1  0.17272317  0.89264526  0.66930350  1
  O  O7  1  0.10735477  0.82727667  0.16930364  1
  O  O8  1  0.01958915  0.72796262  0.50891779  1
  O  O9  1  0.27203746  0.98041000  0.00891801  1
  O  O10  1  0.16431807  0.63137310  0.84013329  1
  O  O11  1  0.36862650  0.83568212  0.34013334  1
  O  O12  1  0.07978890  0.38001908  0.81078391  1
  O  O13  1  0.10974838  0.10974821  0.25000061  1
  O  O14  1  0.63333613  0.68770902  0.57000483  1
  O  O15  1  0.36996551  0.36996668  0.75000035  1
  O  O16  1  0.89025208  0.89025223  0.75000046  1
  O  O17  1  0.98041061  0.27203659  0.49108203  1
  O  O18  1  0.68770957  0.63333602  0.92999488  1
  O  O19  1  0.89264499  0.17272254  0.83069618  1
  O  O20  1  0.63003376  0.63003379  0.25000059  1
  O  O21  1  0.36666363  0.31229018  0.42999499  1
  O  O22  1  0.38001871  0.07978896  0.68921700  1
  O  O23  1  0.92021033  0.61998143  0.18921572  1
  O  O24  1  0.63137272  0.16431839  0.65986628  1
  O  O25  1  0.83568234  0.36862739  0.15986647  1
  O  O26  1  0.72796349  0.01958918  0.99108194  1
  O  O27  1  0.31229138  0.36666317  0.07000507  1
  P  P28  1  0.77383530  0.57372988  0.12338296  1
  P  P29  1  0.79160470  0.06461545  0.82678207  1
  P  P30  1  0.06461429  0.79160526  0.67321870  1
  P  P31  1  0.20839456  0.93538501  0.17321888  1
  P  P32  1  0.22616392  0.42627063  0.87661667  1
  P  P33  1  0.57373007  0.77383538  0.37661694  1
  P  P34  1  0.42627034  0.22616511  0.62338282  1
  P  P35  1  0.93538494  0.20839525  0.32678092  1
  Co  Co36  1  0.87186524  0.87186617  0.25000050  1
  Co  Co37  1  0.12813403  0.12813429  0.75000045  1
