# generated using pymatgen
data_Th5Sn3
_symmetry_space_group_name_H-M   'P 1'
_cell_length_a   9.43806945
_cell_length_b   9.43806944
_cell_length_c   6.46138300
_cell_angle_alpha   90.00000000
_cell_angle_beta   90.00000000
_cell_angle_gamma   119.99999999
_symmetry_Int_Tables_number   1
_chemical_formula_structural   Th5Sn3
_chemical_formula_sum   'Th10 Sn6'
_cell_volume   498.45097933
_cell_formula_units_Z   2
loop_
 _symmetry_equiv_pos_site_id
 _symmetry_equiv_pos_as_xyz
  1  'x, y, z'
loop_
 _atom_site_type_symbol
 _atom_site_label
 _atom_site_symmetry_multiplicity
 _atom_site_fract_x
 _atom_site_fract_y
 _atom_site_fract_z
 _atom_site_occupancy
  Sn  Sn0  1  0.61131503  0.00000000  0.25000000  1
  Sn  Sn1  1  0.61131503  0.61131503  0.75000000  1
  Sn  Sn2  1  0.00000000  0.38868497  0.75000000  1
  Sn  Sn3  1  0.00000000  0.61131503  0.25000000  1
  Sn  Sn4  1  0.38868497  0.38868497  0.25000000  1
  Sn  Sn5  1  0.38868497  0.00000000  0.75000000  1
  Th  Th6  1  0.33333333  0.66666667  0.00000000  1
  Th  Th7  1  0.66666667  0.33333333  0.50000000  1
  Th  Th8  1  0.66666667  0.33333333  0.00000000  1
  Th  Th9  1  0.33333333  0.66666667  0.50000000  1
  Th  Th10  1  0.25258511  0.00000000  0.25000000  1
  Th  Th11  1  0.25258511  0.25258511  0.75000000  1
  Th  Th12  1  0.00000000  0.74741489  0.75000000  1
  Th  Th13  1  0.00000000  0.25258511  0.25000000  1
  Th  Th14  1  0.74741489  0.74741489  0.25000000  1
  Th  Th15  1  0.74741489  0.00000000  0.75000000  1
