# generated using pymatgen
data_EuIBr
_symmetry_space_group_name_H-M   'P 1'
_cell_length_a   4.81224992
_cell_length_b   8.47264515
_cell_length_c   9.80553085
_cell_angle_alpha   90.00000000
_cell_angle_beta   90.00000000
_cell_angle_gamma   90.00000000
_symmetry_Int_Tables_number   1
_chemical_formula_structural   EuIBr
_chemical_formula_sum   'Eu4 I4 Br4'
_cell_volume   399.79586877
_cell_formula_units_Z   4
loop_
 _symmetry_equiv_pos_site_id
 _symmetry_equiv_pos_as_xyz
  1  'x, y, z'
loop_
 _atom_site_type_symbol
 _atom_site_label
 _atom_site_symmetry_multiplicity
 _atom_site_fract_x
 _atom_site_fract_y
 _atom_site_fract_z
 _atom_site_occupancy
  Br  Br0  1  0.25000000  0.14490132  0.93530416  1
  Br  Br1  1  0.75000000  0.85509868  0.06469584  1
  Br  Br2  1  0.25000000  0.64490132  0.56469584  1
  Br  Br3  1  0.75000000  0.35509868  0.43530416  1
  I  I4  1  0.75000000  0.97341654  0.66694573  1
  I  I5  1  0.25000000  0.02658346  0.33305427  1
  I  I6  1  0.75000000  0.47341654  0.83305427  1
  I  I7  1  0.25000000  0.52658346  0.16694573  1
  Eu  Eu8  1  0.75000000  0.22622275  0.12801186  1
  Eu  Eu9  1  0.25000000  0.77377725  0.87198814  1
  Eu  Eu10  1  0.75000000  0.72622275  0.37198814  1
  Eu  Eu11  1  0.25000000  0.27377725  0.62801186  1
