# generated using pymatgen
data_Tl4Sn5S12
_symmetry_space_group_name_H-M   'P 1'
_cell_length_a   7.50399246
_cell_length_b   9.87483602
_cell_length_c   17.36787746
_cell_angle_alpha   104.99746174
_cell_angle_beta   90.12190139
_cell_angle_gamma   111.92491341
_symmetry_Int_Tables_number   1
_chemical_formula_structural   Tl4Sn5S12
_chemical_formula_sum   'Tl8 Sn10 S24'
_cell_volume   1146.19862997
_cell_formula_units_Z   2
loop_
 _symmetry_equiv_pos_site_id
 _symmetry_equiv_pos_as_xyz
  1  'x, y, z'
loop_
 _atom_site_type_symbol
 _atom_site_label
 _atom_site_symmetry_multiplicity
 _atom_site_fract_x
 _atom_site_fract_y
 _atom_site_fract_z
 _atom_site_occupancy
  S  S0  1  0.47158345  0.67608605  0.52190634  1
  S  S1  1  0.52841655  0.32391395  0.47809366  1
  S  S2  1  0.01213176  0.70755557  0.54555326  1
  S  S3  1  0.98786824  0.29244443  0.45444674  1
  S  S4  1  0.73051164  0.76264016  0.72150081  1
  S  S5  1  0.26948836  0.23735984  0.27849919  1
  S  S6  1  0.33036166  0.44329085  0.67282131  1
  S  S7  1  0.66963834  0.55670915  0.32717869  1
  S  S8  1  0.88197866  0.05149729  0.59270401  1
  S  S9  1  0.11802134  0.94850271  0.40729599  1
  S  S10  1  0.81043746  0.43952463  0.67068194  1
  S  S11  1  0.18956254  0.56047537  0.32931806  1
  S  S12  1  0.21046057  0.15230427  0.79813663  1
  S  S13  1  0.78953943  0.84769573  0.20186337  1
  S  S14  1  0.33742947  0.91425984  0.90801432  1
  S  S15  1  0.66257053  0.08574016  0.09198568  1
  S  S16  1  0.69342508  0.16380168  0.80325303  1
  S  S17  1  0.30657492  0.83619832  0.19674697  1
  S  S18  1  0.96189547  0.67960834  0.00798401  1
  S  S19  1  0.03810453  0.32039166  0.99201599  1
  S  S20  1  0.46995802  0.67877136  0.01685206  1
  S  S21  1  0.53004198  0.32122864  0.98314794  1
  S  S22  1  0.17035413  0.08202186  0.08759201  1
  S  S23  1  0.82964587  0.91797814  0.91240799  1
  Sn  Sn24  1  0.68314706  0.57436944  0.58249716  1
  Sn  Sn25  1  0.31685294  0.42563056  0.41750284  1
  Sn  Sn26  1  0.01777136  0.32359011  0.59724429  1
  Sn  Sn27  1  0.98222864  0.67640989  0.40275571  1
  Sn  Sn28  1  0.88446236  0.03179839  0.72998595  1
  Sn  Sn29  1  0.11553764  0.96820161  0.27001405  1
  Sn  Sn30  1  0.68758928  0.12735799  0.94751031  1
  Sn  Sn31  1  0.31241072  0.87264201  0.05248969  1
  Sn  Sn32  1  0.18471254  0.11932113  0.94212343  1
  Sn  Sn33  1  0.81528746  0.88067887  0.05787657  1
  Tl  Tl34  1  0.31260844  0.76162770  0.70198306  1
  Tl  Tl35  1  0.68739156  0.23837230  0.29801694  1
  Tl  Tl36  1  0.10140719  0.46254443  0.85466428  1
  Tl  Tl37  1  0.89859281  0.53745557  0.14533572  1
  Tl  Tl38  1  0.41740631  0.15287539  0.61265393  1
  Tl  Tl39  1  0.58259369  0.84712461  0.38734607  1
  Tl  Tl40  1  0.62462418  0.51741087  0.85683200  1
  Tl  Tl41  1  0.37537582  0.48258913  0.14316800  1
