# generated using pymatgen
data_NaYF4
_symmetry_space_group_name_H-M   'P 1'
_cell_length_a   6.07674995
_cell_length_b   6.07675076
_cell_length_c   7.09244930
_cell_angle_alpha   90.00000000
_cell_angle_beta   90.00000000
_cell_angle_gamma   119.99999552
_symmetry_Int_Tables_number   1
_chemical_formula_structural   NaYF4
_chemical_formula_sum   'Na3 Y3 F12'
_cell_volume   226.81390796
_cell_formula_units_Z   3
loop_
 _symmetry_equiv_pos_site_id
 _symmetry_equiv_pos_as_xyz
  1  'x, y, z'
loop_
 _atom_site_type_symbol
 _atom_site_label
 _atom_site_symmetry_multiplicity
 _atom_site_fract_x
 _atom_site_fract_y
 _atom_site_fract_z
 _atom_site_occupancy
  Na  Na0  1  0.00000000  0.00000000  0.39166985  1
  Na  Na1  1  0.00000000  0.00000000  0.82097403  1
  Na  Na2  1  0.66666700  0.33333300  0.61799096  1
  Y  Y3  1  0.33333300  0.66666700  0.37179934  1
  Y  Y4  1  0.33333300  0.66666700  0.86500868  1
  Y  Y5  1  0.66666700  0.33333300  0.11771619  1
  F  F6  1  0.08822590  0.69429695  0.11864068  1
  F  F7  1  0.10898529  0.72420517  0.61795716  1
  F  F8  1  0.30570305  0.39392896  0.11864068  1
  F  F9  1  0.27579483  0.38477912  0.61795716  1
  F  F10  1  0.60607104  0.91177410  0.11864068  1
  F  F11  1  0.61522088  0.89101471  0.61795716  1
  F  F12  1  0.39874859  0.07366241  0.35370568  1
  F  F13  1  0.39759787  0.07321090  0.88264279  1
  F  F14  1  0.67491382  0.60125141  0.35370568  1
  F  F15  1  0.67561303  0.60240213  0.88264279  1
  F  F16  1  0.92633759  0.32508618  0.35370568  1
  F  F17  1  0.92678910  0.32438697  0.88264279  1
