# generated using pymatgen
data_Sr(SmS2)2
_symmetry_space_group_name_H-M   'P 1'
_cell_length_a   7.47120851
_cell_length_b   7.47120882
_cell_length_c   7.47120908
_cell_angle_alpha   109.40500199
_cell_angle_beta   109.60373523
_cell_angle_gamma   109.40500651
_symmetry_Int_Tables_number   1
_chemical_formula_structural   Sr(SmS2)2
_chemical_formula_sum   'Sr2 Sm4 S8'
_cell_volume   321.03248873
_cell_formula_units_Z   2
loop_
 _symmetry_equiv_pos_site_id
 _symmetry_equiv_pos_as_xyz
  1  'x, y, z'
loop_
 _atom_site_type_symbol
 _atom_site_label
 _atom_site_symmetry_multiplicity
 _atom_site_fract_x
 _atom_site_fract_y
 _atom_site_fract_z
 _atom_site_occupancy
  S  S0  1  0.98734709  0.84716141  0.48930457  1
  S  S1  1  0.98930457  0.34716141  0.48734709  1
  S  S2  1  0.14018568  0.15283859  0.14214316  1
  S  S3  1  0.35981432  0.50195748  0.01265291  1
  S  S4  1  0.51265291  0.00195748  0.85981432  1
  S  S5  1  0.64214316  0.65283859  0.64018568  1
  S  S6  1  0.51069543  0.99804252  0.35785684  1
  S  S7  1  0.85785684  0.49804252  0.01069543  1
  Sm  Sm8  1  0.25000000  0.62600393  0.37600393  1
  Sm  Sm9  1  0.62399607  0.37399607  0.25000000  1
  Sm  Sm10  1  0.75000000  0.87399607  0.12399607  1
  Sm  Sm11  1  0.87600393  0.12600393  0.75000000  1
  Sr  Sr12  1  0.12500000  0.75000000  0.87500000  1
  Sr  Sr13  1  0.37500000  0.25000000  0.62500000  1
