# generated using pymatgen
data_LiCr(PO3)3
_symmetry_space_group_name_H-M   'P 1'
_cell_length_a   9.80188321
_cell_length_b   9.73189538
_cell_length_c   9.63841158
_cell_angle_alpha   111.46176763
_cell_angle_beta   106.01255098
_cell_angle_gamma   106.92891923
_symmetry_Int_Tables_number   1
_chemical_formula_structural   LiCr(PO3)3
_chemical_formula_sum   'Li4 Cr4 P12 O36'
_cell_volume   739.24408451
_cell_formula_units_Z   4
loop_
 _symmetry_equiv_pos_site_id
 _symmetry_equiv_pos_as_xyz
  1  'x, y, z'
loop_
 _atom_site_type_symbol
 _atom_site_label
 _atom_site_symmetry_multiplicity
 _atom_site_fract_x
 _atom_site_fract_y
 _atom_site_fract_z
 _atom_site_occupancy
  Li  Li0  1  0.49619630  0.93225855  0.34494733  1
  Li  Li1  1  0.50380458  0.06774157  0.65505318  1
  Li  Li2  1  0.68298801  0.84148045  0.65083345  1
  Li  Li3  1  0.31701286  0.15851966  0.34916602  1
  O  O4  1  0.09190419  0.13719030  0.21662157  1
  O  O5  1  0.84089577  0.17037687  0.10064508  1
  O  O6  1  0.91366301  0.17930930  0.36238354  1
  O  O7  1  0.99924697  0.72947471  0.04068352  1
  O  O8  1  0.00075284  0.27052542  0.95931669  1
  O  O9  1  0.08633680  0.82069082  0.63761667  1
  O  O10  1  0.15910404  0.82962325  0.89935513  1
  O  O11  1  0.19826813  0.63198444  0.98705995  1
  O  O12  1  0.04664946  0.17561485  0.62630277  1
  O  O13  1  0.14294559  0.70172584  0.39764395  1
  O  O14  1  0.18863100  0.09405025  0.89572214  1
  O  O15  1  0.32215759  0.43767199  0.94683012  1
  O  O16  1  0.37473288  0.64868512  0.84524958  1
  O  O17  1  0.29889891  0.62231586  0.57273040  1
  O  O18  1  0.29551658  0.92810792  0.20779820  1
  O  O19  1  0.74944532  0.98879127  0.43979167  1
  O  O20  1  0.26143845  0.52451889  0.27491586  1
  O  O21  1  0.44420865  0.82629973  0.49410005  1
  O  O22  1  0.35760940  0.39569383  0.61371859  1
  O  O23  1  0.25055397  0.01120762  0.56020792  1
  O  O24  1  0.58118220  0.68829362  0.73586988  1
  O  O25  1  0.95335035  0.82438527  0.37369744  1
  O  O26  1  0.49239593  0.74537567  0.15151824  1
  O  O27  1  0.41881761  0.31170651  0.26413033  1
  O  O28  1  0.80173275  0.36801569  0.01294056  1
  O  O29  1  0.64239148  0.60430628  0.38628089  1
  O  O30  1  0.55579116  0.17370040  0.50590016  1
  O  O31  1  0.73856136  0.47548123  0.72508435  1
  O  O32  1  0.90809669  0.86280981  0.78337790  1
  O  O33  1  0.70448323  0.07189219  0.79220096  1
  O  O34  1  0.70110089  0.37768425  0.42726876  1
  O  O35  1  0.62526642  0.35131377  0.15475001  1
  O  O36  1  0.67784222  0.56232814  0.05317008  1
  O  O37  1  0.81136881  0.90594986  0.10427703  1
  O  O38  1  0.85705529  0.29827429  0.60235656  1
  O  O39  1  0.50760495  0.25462445  0.84848123  1
  P  P40  1  0.70117191  0.32994598  0.57117573  1
  P  P41  1  0.83928149  0.20993959  0.95191822  1
  P  P42  1  0.64565126  0.38756466  0.01082360  1
  P  P43  1  0.89397942  0.14929863  0.51038780  1
  P  P44  1  0.07698000  0.91314985  0.80918259  1
  P  P45  1  0.10602146  0.85070149  0.48961271  1
  P  P46  1  0.35434855  0.61243547  0.98917660  1
  P  P47  1  0.16071939  0.79006054  0.04808229  1
  P  P48  1  0.29882897  0.67005415  0.42882479  1
  P  P49  1  0.41122457  0.57699404  0.68662483  1
  P  P50  1  0.58877524  0.42300608  0.31337537  1
  P  P51  1  0.92301981  0.08685028  0.19081761  1
  Cr  Cr52  1  0.72000954  0.76783430  0.26022294  1
  Cr  Cr53  1  0.78571412  0.70266901  0.89909274  1
  Cr  Cr54  1  0.21428569  0.29733111  0.10090746  1
  Cr  Cr55  1  0.27999027  0.23216582  0.73977623  1
