# generated using pymatgen
data_Li9Mn2Co5O16
_symmetry_space_group_name_H-M   'P 1'
_cell_length_a   2.87141090
_cell_length_b   19.54445971
_cell_length_c   5.14065943
_cell_angle_alpha   92.66715822
_cell_angle_beta   89.99999989
_cell_angle_gamma   85.78734876
_symmetry_Int_Tables_number   1
_chemical_formula_structural   Li9Mn2Co5O16
_chemical_formula_sum   'Li9 Mn2 Co5 O16'
_cell_volume   287.40190336
_cell_formula_units_Z   1
loop_
 _symmetry_equiv_pos_site_id
 _symmetry_equiv_pos_as_xyz
  1  'x, y, z'
loop_
 _atom_site_type_symbol
 _atom_site_label
 _atom_site_symmetry_multiplicity
 _atom_site_fract_x
 _atom_site_fract_y
 _atom_site_fract_z
 _atom_site_occupancy
  Li  Li0  1  0.43058515  0.13882970  0.21353602  1
  Li  Li1  1  0.31530031  0.36939938  0.54165433  1
  Li  Li2  1  0.18843180  0.62313639  0.93626614  1
  Li  Li3  1  0.06466036  0.87067928  0.30923579  1
  Li  Li4  1  0.93374476  0.13251048  0.69911130  1
  Li  Li5  1  0.81373025  0.37253951  0.05270550  1
  Li  Li6  1  0.68840004  0.62319992  0.43531423  1
  Li  Li7  1  0.56451972  0.87096057  0.81063184  1
  Li  Li8  1  0.87469398  0.25061204  0.37667532  1
  Mn  Mn9  1  0.99981928  0.00036144  0.00389996  1
  Mn  Mn10  1  0.37505013  0.24989973  0.87369679  1
  Co  Co11  1  0.75040797  0.49918406  0.74715844  1
  Co  Co12  1  0.62515501  0.74968997  0.12401392  1
  Co  Co13  1  0.49954018  0.00091965  0.50364851  1
  Co  Co14  1  0.25062977  0.49874046  0.24785758  1
  Co  Co15  1  0.12506607  0.74986786  0.62407821  1
  O  O16  1  0.47194293  0.05611414  0.87679601  1
  O  O17  1  0.34619605  0.30760790  0.18284032  1
  O  O18  1  0.22103989  0.55792021  0.59504842  1
  O  O19  1  0.09559083  0.80881833  0.97256735  1
  O  O20  1  0.97339742  0.05320515  0.33339416  1
  O  O21  1  0.84790702  0.30418596  0.73050138  1
  O  O22  1  0.72117102  0.55765795  0.09652248  1
  O  O23  1  0.59509973  0.80980054  0.47187752  1
  O  O24  1  0.40495102  0.19009795  0.56308628  1
  O  O25  1  0.27866869  0.44266262  0.89883834  1
  O  O26  1  0.15353703  0.69292593  0.27751225  1
  O  O27  1  0.02657502  0.94684995  0.67217552  1
  O  O28  1  0.90279072  0.19441855  0.01886959  1
  O  O29  1  0.77941751  0.44116498  0.40087485  1
  O  O30  1  0.65359530  0.69280940  0.77766992  1
  O  O31  1  0.52838502  0.94322997  0.13194176  1
