# generated using pymatgen
data_SrGd2O4
_symmetry_space_group_name_H-M   'P 1'
_cell_length_a   3.48678227
_cell_length_b   10.25197590
_cell_length_c   12.15045860
_cell_angle_alpha   90.00000000
_cell_angle_beta   90.00000000
_cell_angle_gamma   90.00000000
_symmetry_Int_Tables_number   1
_chemical_formula_structural   SrGd2O4
_chemical_formula_sum   'Sr4 Gd8 O16'
_cell_volume   434.33524808
_cell_formula_units_Z   4
loop_
 _symmetry_equiv_pos_site_id
 _symmetry_equiv_pos_as_xyz
  1  'x, y, z'
loop_
 _atom_site_type_symbol
 _atom_site_label
 _atom_site_symmetry_multiplicity
 _atom_site_fract_x
 _atom_site_fract_y
 _atom_site_fract_z
 _atom_site_occupancy
  O  O0  1  0.25000000  0.92568250  0.92157173  1
  O  O1  1  0.75000000  0.07431750  0.07842827  1
  O  O2  1  0.25000000  0.42568250  0.57842827  1
  O  O3  1  0.75000000  0.57431750  0.42157173  1
  O  O4  1  0.25000000  0.01189746  0.28423408  1
  O  O5  1  0.75000000  0.98810254  0.71576592  1
  O  O6  1  0.25000000  0.51189746  0.21576592  1
  O  O7  1  0.75000000  0.48810254  0.78423408  1
  O  O8  1  0.25000000  0.62799825  0.97988658  1
  O  O9  1  0.75000000  0.37200175  0.02011342  1
  O  O10  1  0.25000000  0.12799825  0.52011342  1
  O  O11  1  0.75000000  0.87200175  0.47988658  1
  O  O12  1  0.75000000  0.78725171  0.17879738  1
  O  O13  1  0.25000000  0.21274829  0.82120262  1
  O  O14  1  0.75000000  0.28725171  0.32120262  1
  O  O15  1  0.25000000  0.71274829  0.67879738  1
  Sr  Sr16  1  0.75000000  0.24734770  0.64827606  1
  Sr  Sr17  1  0.25000000  0.75265230  0.35172394  1
  Sr  Sr18  1  0.75000000  0.74734770  0.85172394  1
  Sr  Sr19  1  0.25000000  0.25265230  0.14827606  1
  Gd  Gd20  1  0.25000000  0.92373402  0.61171347  1
  Gd  Gd21  1  0.75000000  0.07626598  0.38828653  1
  Gd  Gd22  1  0.25000000  0.42373402  0.88828653  1
  Gd  Gd23  1  0.75000000  0.57626598  0.11171347  1
  Gd  Gd24  1  0.75000000  0.57928825  0.61205098  1
  Gd  Gd25  1  0.25000000  0.42071175  0.38794902  1
  Gd  Gd26  1  0.75000000  0.07928825  0.88794902  1
  Gd  Gd27  1  0.25000000  0.92071175  0.11205098  1
