# generated using pymatgen
data_Li3Fe2P5O16
_symmetry_space_group_name_H-M   'P 1'
_cell_length_a   18.33499826
_cell_length_b   6.99420581
_cell_length_c   5.08654070
_cell_angle_alpha   90.00000000
_cell_angle_beta   92.98405424
_cell_angle_gamma   90.00000000
_symmetry_Int_Tables_number   1
_chemical_formula_structural   Li3Fe2P5O16
_chemical_formula_sum   'Li6 Fe4 P10 O32'
_cell_volume   651.40716129
_cell_formula_units_Z   2
loop_
 _symmetry_equiv_pos_site_id
 _symmetry_equiv_pos_as_xyz
  1  'x, y, z'
loop_
 _atom_site_type_symbol
 _atom_site_label
 _atom_site_symmetry_multiplicity
 _atom_site_fract_x
 _atom_site_fract_y
 _atom_site_fract_z
 _atom_site_occupancy
  Li  Li0  1  0.03411924  0.32574796  0.25857259  1
  Li  Li1  1  0.96588117  0.67425190  0.74142842  1
  Li  Li2  1  0.75000009  0.01572417  0.49999951  1
  Li  Li3  1  0.53411902  0.67425190  0.25857258  1
  Li  Li4  1  0.46588085  0.32574796  0.74142835  1
  Li  Li5  1  0.24999977  0.98427569  0.49999944  1
  O  O6  1  0.29579671  0.61746422  0.18895168  1
  O  O7  1  0.92801639  0.91530676  0.94410534  1
  O  O8  1  0.93204377  0.38131376  0.08462365  1
  O  O9  1  0.97994950  0.79345856  0.38728313  1
  O  O10  1  0.02005037  0.20654130  0.61271582  1
  O  O11  1  0.06795610  0.61868611  0.91537530  1
  O  O12  1  0.07198347  0.08469310  0.05589361  1
  O  O13  1  0.10775407  0.55537365  0.44680197  1
  O  O14  1  0.13188404  0.98576293  0.62211584  1
  O  O15  1  0.14328794  0.31737857  0.80533476  1
  O  O16  1  0.20250233  0.86922469  0.17906753  1
  O  O17  1  0.20420338  0.61746422  0.81104926  1
  O  O18  1  0.52005069  0.79345856  0.61271589  1
  O  O19  1  0.29749722  0.86922469  0.82093332  1
  O  O20  1  0.35671160  0.31737857  0.19466412  1
  O  O21  1  0.36811604  0.98576293  0.37788312  1
  O  O22  1  0.39224602  0.55537365  0.55319897  1
  O  O23  1  0.86811582  0.01423837  0.37788311  1
  O  O24  1  0.43204345  0.61868611  0.08462358  1
  O  O25  1  0.47994918  0.20654130  0.38728306  1
  O  O26  1  0.89224580  0.44462765  0.55319895  1
  O  O27  1  0.56795642  0.38131376  0.91537538  1
  O  O28  1  0.57198380  0.91530676  0.05589368  1
  O  O29  1  0.60775385  0.44462765  0.44680196  1
  O  O30  1  0.63188382  0.01423837  0.62211583  1
  O  O31  1  0.64328826  0.68262129  0.80533483  1
  O  O32  1  0.70250265  0.13077517  0.17906760  1
  O  O33  1  0.70420316  0.38253708  0.81104924  1
  O  O34  1  0.79579649  0.38253708  0.18895167  1
  O  O35  1  0.79749754  0.13077517  0.82093339  1
  O  O36  1  0.85671193  0.68262129  0.19466419  1
  O  O37  1  0.42801607  0.08469310  0.94410527  1
  P  P38  1  0.58777857  0.86847050  0.77035481  1
  P  P39  1  0.62419196  0.46517412  0.74031254  1
  P  P40  1  0.74999994  0.24042550  0.00000002  1
  P  P41  1  0.87580823  0.46517412  0.25968648  1
  P  P42  1  0.08777879  0.13152936  0.77035482  1
  P  P43  1  0.12419164  0.53482574  0.74031247  1
  P  P44  1  0.25000016  0.75957436  0.00000004  1
  P  P45  1  0.37580845  0.53482574  0.25968649  1
  P  P46  1  0.41222130  0.13152936  0.22964612  1
  P  P47  1  0.91222108  0.86847050  0.22964610  1
  Fe  Fe48  1  0.91045209  0.17028008  0.73364583  1
  Fe  Fe49  1  0.58954810  0.17028008  0.26635516  1
  Fe  Fe50  1  0.41045177  0.82972122  0.73364576  1
  Fe  Fe51  1  0.08954832  0.82972122  0.26635517  1
