# generated using pymatgen
data_Li7OsO6
_symmetry_space_group_name_H-M   'P 1'
_cell_length_a   5.36983170
_cell_length_b   5.44256369
_cell_length_c   5.96611781
_cell_angle_alpha   117.17662559
_cell_angle_beta   91.28761704
_cell_angle_gamma   119.39498202
_symmetry_Int_Tables_number   1
_chemical_formula_structural   Li7OsO6
_chemical_formula_sum   'Li7 Os1 O6'
_cell_volume   128.11891621
_cell_formula_units_Z   1
loop_
 _symmetry_equiv_pos_site_id
 _symmetry_equiv_pos_as_xyz
  1  'x, y, z'
loop_
 _atom_site_type_symbol
 _atom_site_label
 _atom_site_symmetry_multiplicity
 _atom_site_fract_x
 _atom_site_fract_y
 _atom_site_fract_z
 _atom_site_occupancy
  Li  Li0  1  0.23723709  0.76529015  0.62415973  1
  Li  Li1  1  0.30321785  0.67903606  0.03921247  1
  Li  Li2  1  0.49564606  0.58572061  0.34656360  1
  Li  Li3  1  0.47825966  0.37178997  0.62846303  1
  Li  Li4  1  0.70479240  0.36192911  0.99714988  1
  Li  Li5  1  0.76144297  0.25289326  0.35627083  1
  Li  Li6  1  0.91709787  0.11229552  0.61728532  1
  O  O7  1  0.07884217  0.44725763  0.23029630  1
  O  O8  1  0.24793188  0.16559670  0.79918584  1
  O  O9  1  0.62722301  0.84339628  0.74451716  1
  O  O10  1  0.37893732  0.14481073  0.23544157  1
  O  O11  1  0.75621390  0.85046411  0.22149669  1
  O  O12  1  0.91751326  0.52671142  0.75859842  1
  Os  Os13  1  0.99864455  0.99280844  0.00235914  1
