# generated using pymatgen
data_Na10Mn4O9
_symmetry_space_group_name_H-M   'P 1'
_cell_length_a   8.91723347
_cell_length_b   8.88452782
_cell_length_c   8.88452726
_cell_angle_alpha   78.63761975
_cell_angle_beta   77.56671919
_cell_angle_gamma   77.56671999
_symmetry_Int_Tables_number   1
_chemical_formula_structural   Na10Mn4O9
_chemical_formula_sum   'Na20 Mn8 O18'
_cell_volume   662.82223090
_cell_formula_units_Z   2
loop_
 _symmetry_equiv_pos_site_id
 _symmetry_equiv_pos_as_xyz
  1  'x, y, z'
loop_
 _atom_site_type_symbol
 _atom_site_label
 _atom_site_symmetry_multiplicity
 _atom_site_fract_x
 _atom_site_fract_y
 _atom_site_fract_z
 _atom_site_occupancy
  Mn  Mn0  1  0.09286229  0.08717112  0.08717112  1
  Mn  Mn1  1  0.17354161  0.46855678  0.46855678  1
  Mn  Mn2  1  0.46668033  0.16817834  0.47517579  1
  Mn  Mn3  1  0.46668033  0.47517579  0.16817834  1
  Mn  Mn4  1  0.53000912  0.82850329  0.53371310  1
  Mn  Mn5  1  0.53000912  0.53371310  0.82850329  1
  Mn  Mn6  1  0.83779286  0.52892796  0.52892796  1
  Mn  Mn7  1  0.92895921  0.90215918  0.90215918  1
  Na  Na8  1  0.02304072  0.26783820  0.73849679  1
  Na  Na9  1  0.11117895  0.12320512  0.43776722  1
  Na  Na10  1  0.11117895  0.43776722  0.12320512  1
  Na  Na11  1  0.26969303  0.98700657  0.73017837  1
  Na  Na12  1  0.26969303  0.73017837  0.98700657  1
  Na  Na13  1  0.18702426  0.79720758  0.53764183  1
  Na  Na14  1  0.18702426  0.53764183  0.79720758  1
  Na  Na15  1  0.44982665  0.14078401  0.14078401  1
  Na  Na16  1  0.38728033  0.21920931  0.83999707  1
  Na  Na17  1  0.38728033  0.83999707  0.21920931  1
  Na  Na18  1  0.49350536  0.50309438  0.50309438  1
  Na  Na19  1  0.73650023  0.25987950  0.99350889  1
  Na  Na20  1  0.74731331  0.69531410  0.14529670  1
  Na  Na21  1  0.74731331  0.14529670  0.69531410  1
  Na  Na22  1  0.56569357  0.88461322  0.88461322  1
  Na  Na23  1  0.84724401  0.28169610  0.28169610  1
  Na  Na24  1  0.73650023  0.99350889  0.25987950  1
  Na  Na25  1  0.86372399  0.55122191  0.87635659  1
  Na  Na26  1  0.86372399  0.87635659  0.55122191  1
  Na  Na27  1  0.02304072  0.73849679  0.26783820  1
  O  O28  1  0.01187269  0.69161741  0.01249875  1
  O  O29  1  0.01187269  0.01249875  0.69161741  1
  O  O30  1  0.00638772  0.61388933  0.61388933  1
  O  O31  1  0.29916357  0.61598478  0.30736284  1
  O  O32  1  0.29916357  0.30736284  0.61598478  1
  O  O33  1  0.37666288  0.40319912  0.99511875  1
  O  O34  1  0.37666288  0.99511875  0.40319912  1
  O  O35  1  0.38245662  0.69712628  0.69712628  1
  O  O36  1  0.70970020  0.00152382  0.00152382  1
  O  O37  1  0.30735598  0.98936244  0.98936244  1
  O  O38  1  0.59353417  0.27425031  0.27425031  1
  O  O39  1  0.59591576  0.00141293  0.62454102  1
  O  O40  1  0.59591576  0.62454102  0.00141293  1
  O  O41  1  0.71980513  0.39784944  0.71764258  1
  O  O42  1  0.71980513  0.71764258  0.39784944  1
  O  O43  1  0.00727264  0.38855239  0.38855239  1
  O  O44  1  0.98386923  0.30055287  0.00041593  1
  O  O45  1  0.98386923  0.00041593  0.30055287  1
