# generated using pymatgen
data_Ca(LaS2)2
_symmetry_space_group_name_H-M   'P 1'
_cell_length_a   7.52916350
_cell_length_b   7.52916341
_cell_length_c   7.52916358
_cell_angle_alpha   109.60787091
_cell_angle_beta   109.60787145
_cell_angle_gamma   109.19826321
_symmetry_Int_Tables_number   1
_chemical_formula_structural   Ca(LaS2)2
_chemical_formula_sum   'Ca2 La4 S8'
_cell_volume   328.55713929
_cell_formula_units_Z   2
loop_
 _symmetry_equiv_pos_site_id
 _symmetry_equiv_pos_as_xyz
  1  'x, y, z'
loop_
 _atom_site_type_symbol
 _atom_site_label
 _atom_site_symmetry_multiplicity
 _atom_site_fract_x
 _atom_site_fract_y
 _atom_site_fract_z
 _atom_site_occupancy
  Ca  Ca0  1  0.62500000  0.37500000  0.25000000  1
  Ca  Ca1  1  0.87500000  0.12500000  0.75000000  1
  La  La2  1  0.11977851  0.75000000  0.86977851  1
  La  La3  1  0.25000000  0.61977851  0.36977851  1
  La  La4  1  0.38022149  0.25000000  0.63022149  1
  La  La5  1  0.75000000  0.88022149  0.13022149  1
  S  S6  1  0.00115643  0.85666086  0.50217548  1
  S  S7  1  0.99898095  0.35448538  0.49782452  1
  S  S8  1  0.14333914  0.14551462  0.14449558  1
  S  S9  1  0.35666086  0.50115643  0.00217548  1
  S  S10  1  0.49884357  0.00101905  0.85550442  1
  S  S11  1  0.64551462  0.64333914  0.64449558  1
  S  S12  1  0.50101905  0.99884357  0.35550442  1
  S  S13  1  0.85448538  0.49898095  0.99782452  1
