# generated using pymatgen
data_NaCeS2
_symmetry_space_group_name_H-M   'P 1'
_cell_length_a   8.08384399
_cell_length_b   10.83051694
_cell_length_c   7.20774395
_cell_angle_alpha   28.98069333
_cell_angle_beta   55.89059635
_cell_angle_gamma   41.72094368
_symmetry_Int_Tables_number   1
_chemical_formula_structural   NaCeS2
_chemical_formula_sum   'Na2 Ce2 S4'
_cell_volume   194.99292794
_cell_formula_units_Z   2
loop_
 _symmetry_equiv_pos_site_id
 _symmetry_equiv_pos_as_xyz
  1  'x, y, z'
loop_
 _atom_site_type_symbol
 _atom_site_label
 _atom_site_symmetry_multiplicity
 _atom_site_fract_x
 _atom_site_fract_y
 _atom_site_fract_z
 _atom_site_occupancy
  Na  Na0  1  0.00000000  -0.00000000  -0.00000000  1
  Na  Na1  1  0.75000000  0.50000000  -0.00000000  1
  Ce  Ce2  1  0.25000000  0.50000000  -0.00000000  1
  Ce  Ce3  1  0.50000000  -0.00000000  -0.00000000  1
  S  S4  1  0.26357149  0.00000000  0.47285701  1
  S  S5  1  0.01357149  0.50000000  0.47285701  1
  S  S6  1  0.73642851  1.00000000  0.52714299  1
  S  S7  1  0.48642851  0.50000000  0.52714299  1
