# generated using pymatgen
data_Nd(BO2)3
_symmetry_space_group_name_H-M   'P 1'
_cell_length_a   6.42380893
_cell_length_b   6.42380893
_cell_length_c   6.43835543
_cell_angle_alpha   62.41178411
_cell_angle_beta   62.41178408
_cell_angle_gamma   79.03304243
_symmetry_Int_Tables_number   1
_chemical_formula_structural   Nd(BO2)3
_chemical_formula_sum   'Nd2 B6 O12'
_cell_volume   208.59976645
_cell_formula_units_Z   2
loop_
 _symmetry_equiv_pos_site_id
 _symmetry_equiv_pos_as_xyz
  1  'x, y, z'
loop_
 _atom_site_type_symbol
 _atom_site_label
 _atom_site_symmetry_multiplicity
 _atom_site_fract_x
 _atom_site_fract_y
 _atom_site_fract_z
 _atom_site_occupancy
  B  B0  1  0.27759560  0.72240440  0.75000000  1
  B  B1  1  0.84039665  0.70630657  0.08511954  1
  B  B2  1  0.29369343  0.15960335  0.41488046  1
  B  B3  1  0.72240440  0.27759560  0.25000000  1
  B  B4  1  0.70630657  0.84039665  0.58511954  1
  B  B5  1  0.15960335  0.29369343  0.91488046  1
  O  O6  1  0.70893276  0.88511771  0.00418041  1
  O  O7  1  0.11488229  0.29106724  0.49581959  1
  O  O8  1  0.71841843  0.49102174  0.28867041  1
  O  O9  1  0.50897826  0.28158157  0.21132959  1
  O  O10  1  0.28158157  0.50897826  0.71132959  1
  O  O11  1  0.49102174  0.71841843  0.78867041  1
  O  O12  1  0.71227828  0.08396188  0.49259453  1
  O  O13  1  0.91603812  0.28772172  0.00740547  1
  O  O14  1  0.28772172  0.91603812  0.50740547  1
  O  O15  1  0.08396188  0.71227828  0.99259453  1
  O  O16  1  0.88511771  0.70893276  0.50418041  1
  O  O17  1  0.29106724  0.11488229  0.99581959  1
  Nd  Nd18  1  0.29828124  0.70171876  0.25000000  1
  Nd  Nd19  1  0.70171876  0.29828124  0.75000000  1
