# generated using pymatgen
data_Li9Mn2Co5O16
_symmetry_space_group_name_H-M   'P 1'
_cell_length_a   2.88768847
_cell_length_b   19.41204758
_cell_length_c   5.15088168
_cell_angle_alpha   98.83764720
_cell_angle_beta   90.00000000
_cell_angle_gamma   90.00000000
_symmetry_Int_Tables_number   1
_chemical_formula_structural   Li9Mn2Co5O16
_chemical_formula_sum   'Li9 Mn2 Co5 O16'
_cell_volume   285.30955097
_cell_formula_units_Z   1
loop_
 _symmetry_equiv_pos_site_id
 _symmetry_equiv_pos_as_xyz
  1  'x, y, z'
loop_
 _atom_site_type_symbol
 _atom_site_label
 _atom_site_symmetry_multiplicity
 _atom_site_fract_x
 _atom_site_fract_y
 _atom_site_fract_z
 _atom_site_occupancy
  Li  Li0  1  0.50000000  0.99636799  0.50279148  1
  Li  Li1  1  0.00000000  0.12583310  0.74727001  1
  Li  Li2  1  0.50000000  0.24967480  -0.00001653  1
  Li  Li3  1  -0.00000000  0.37500000  0.25000000  1
  Li  Li4  1  0.50000000  0.50032520  0.50001653  1
  Li  Li5  1  -0.00000000  0.87500000  0.25000000  1
  Li  Li6  1  0.50000000  0.75363201  0.99720852  1
  Li  Li7  1  -0.00000000  0.62416690  0.75272999  1
  Li  Li8  1  0.50000000  0.87500000  0.75000000  1
  Mn  Mn9  1  -0.00000000  0.99679283  0.98476166  1
  Mn  Mn10  1  0.00000000  0.75320717  0.51523834  1
  Co  Co11  1  0.50000000  0.12540360  0.25024539  1
  Co  Co12  1  -0.00000000  0.24935245  0.49668805  1
  Co  Co13  1  0.50000000  0.37500000  0.75000000  1
  Co  Co14  1  0.00000000  0.50064755  0.00331195  1
  Co  Co15  1  0.50000000  0.62459640  0.24975461  1
  O  O16  1  0.50000000  0.94439530  0.11741462  1
  O  O17  1  -0.00000000  0.06437352  0.33831284  1
  O  O18  1  0.50000000  0.19073964  0.61974866  1
  O  O19  1  -0.00000000  0.31796958  0.85275232  1
  O  O20  1  0.50000000  0.44183670  0.12054770  1
  O  O21  1  0.00000000  0.80626547  0.84027436  1
  O  O22  1  0.50000000  0.69382322  0.61556508  1
  O  O23  1  0.00000000  0.56601342  0.36136296  1
  O  O24  1  0.50000000  0.05617678  0.88443492  1
  O  O25  1  -0.00000000  0.18398658  0.13863704  1
  O  O26  1  0.50000000  0.30816330  0.37945230  1
  O  O27  1  0.00000000  0.43203042  0.64724768  1
  O  O28  1  0.50000000  0.55926036  0.88025134  1
  O  O29  1  -0.00000000  0.94373453  0.65972564  1
  O  O30  1  0.50000000  0.80560470  0.38258538  1
  O  O31  1  -0.00000000  0.68562648  0.16168716  1
