# generated using pymatgen
data_NaCaTaTiO6
_symmetry_space_group_name_H-M   'P 1'
_cell_length_a   5.45648370
_cell_length_b   5.55056885
_cell_length_c   7.75343856
_cell_angle_alpha   90.00000000
_cell_angle_beta   89.92916803
_cell_angle_gamma   90.00000000
_symmetry_Int_Tables_number   1
_chemical_formula_structural   NaCaTaTiO6
_chemical_formula_sum   'Na2 Ca2 Ta2 Ti2 O12'
_cell_volume   234.82502359
_cell_formula_units_Z   2
loop_
 _symmetry_equiv_pos_site_id
 _symmetry_equiv_pos_as_xyz
  1  'x, y, z'
loop_
 _atom_site_type_symbol
 _atom_site_label
 _atom_site_symmetry_multiplicity
 _atom_site_fract_x
 _atom_site_fract_y
 _atom_site_fract_z
 _atom_site_occupancy
  Na  Na0  1  0.00441413  0.97613024  0.75007076  1
  Na  Na1  1  0.50441413  0.52386976  0.25007076  1
  Ca  Ca2  1  0.48718370  0.45496317  0.74999346  1
  Ca  Ca3  1  0.98718370  0.04503683  0.24999346  1
  Ta  Ta4  1  0.49402785  0.99396879  0.00022413  1
  Ta  Ta5  1  0.99402785  0.50603121  0.50022413  1
  Ti  Ti6  1  0.49362455  0.99497935  0.50304441  1
  Ti  Ti7  1  0.99362455  0.50502065  0.00304441  1
  O  O8  1  0.07478960  0.48230207  0.24805275  1
  O  O9  1  0.22315026  0.21988973  0.53785546  1
  O  O10  1  0.21987860  0.21902207  0.96101021  1
  O  O11  1  0.29392762  0.71225220  0.54319002  1
  O  O12  1  0.29183523  0.70730962  0.95564283  1
  O  O13  1  0.41716846  0.98326974  0.25091497  1
  O  O14  1  0.57478960  0.01769793  0.74805275  1
  O  O15  1  0.72315026  0.28011027  0.03785546  1
  O  O16  1  0.71987860  0.28097793  0.46101021  1
  O  O17  1  0.79392762  0.78774780  0.04319002  1
  O  O18  1  0.79183523  0.79269038  0.45564283  1
  O  O19  1  0.91716846  0.51673026  0.75091497  1
