# generated using pymatgen
data_LiGdSe2
_symmetry_space_group_name_H-M   'P 1'
_cell_length_a   8.14000525
_cell_length_b   10.79390134
_cell_length_c   7.08846862
_cell_angle_alpha   29.16909203
_cell_angle_beta   54.95830869
_cell_angle_gamma   41.05058746
_symmetry_Int_Tables_number   1
_chemical_formula_structural   LiGdSe2
_chemical_formula_sum   'Li2 Gd2 Se4'
_cell_volume   192.30726606
_cell_formula_units_Z   2
loop_
 _symmetry_equiv_pos_site_id
 _symmetry_equiv_pos_as_xyz
  1  'x, y, z'
loop_
 _atom_site_type_symbol
 _atom_site_label
 _atom_site_symmetry_multiplicity
 _atom_site_fract_x
 _atom_site_fract_y
 _atom_site_fract_z
 _atom_site_occupancy
  Gd  Gd0  1  0.49999223  0.00000000  0.00000000  1
  Gd  Gd1  1  0.25000777  0.50000000  0.00000000  1
  Li  Li2  1  0.00000105  0.00000000  0.00000000  1
  Li  Li3  1  0.74999895  0.50000000  0.00000000  1
  Se  Se4  1  0.25112426  -0.00000889  0.49775662  1
  Se  Se5  1  0.74886310  1.00000889  0.50224338  1
  Se  Se6  1  0.49887574  0.50000889  0.50224338  1
  Se  Se7  1  0.00113690  0.49999111  0.49775662  1
