# generated using pymatgen
data_Ca(NdS2)2
_symmetry_space_group_name_H-M   'P 1'
_cell_length_a   7.43120317
_cell_length_b   7.43120264
_cell_length_c   7.43120299
_cell_angle_alpha   109.64327499
_cell_angle_beta   109.64327396
_cell_angle_gamma   109.12766169
_symmetry_Int_Tables_number   1
_chemical_formula_structural   Ca(NdS2)2
_chemical_formula_sum   'Ca2 Nd4 S8'
_cell_volume   315.89572713
_cell_formula_units_Z   2
loop_
 _symmetry_equiv_pos_site_id
 _symmetry_equiv_pos_as_xyz
  1  'x, y, z'
loop_
 _atom_site_type_symbol
 _atom_site_label
 _atom_site_symmetry_multiplicity
 _atom_site_fract_x
 _atom_site_fract_y
 _atom_site_fract_z
 _atom_site_occupancy
  Ca  Ca0  1  0.62500000  0.37500000  0.25000000  1
  Ca  Ca1  1  0.87500000  0.12500000  0.75000000  1
  Nd  Nd2  1  0.12115107  0.75000000  0.87115107  1
  Nd  Nd3  1  0.25000000  0.62115107  0.37115107  1
  Nd  Nd4  1  0.37884893  0.25000000  0.62884893  1
  Nd  Nd5  1  0.75000000  0.87884893  0.12884893  1
  S  S6  1  0.00321239  0.85762076  0.50213080  1
  S  S7  1  0.00108159  0.35548996  0.49786920  1
  S  S8  1  0.14237924  0.14451004  0.14559163  1
  S  S9  1  0.35762076  0.50321239  0.00213080  1
  S  S10  1  0.49678761  0.99891841  0.85440837  1
  S  S11  1  0.64451004  0.64237924  0.64559163  1
  S  S12  1  0.49891841  0.99678761  0.35440837  1
  S  S13  1  0.85548996  0.50108159  0.99786920  1
