# generated using pymatgen
data_Eu2SiO4
_symmetry_space_group_name_H-M   'P 1'
_cell_length_a   5.64239989
_cell_length_b   7.12392558
_cell_length_c   9.87319094
_cell_angle_alpha   90.00000000
_cell_angle_beta   90.00000000
_cell_angle_gamma   90.00000000
_symmetry_Int_Tables_number   1
_chemical_formula_structural   Eu2SiO4
_chemical_formula_sum   'Eu8 Si4 O16'
_cell_volume   396.86314743
_cell_formula_units_Z   4
loop_
 _symmetry_equiv_pos_site_id
 _symmetry_equiv_pos_as_xyz
  1  'x, y, z'
loop_
 _atom_site_type_symbol
 _atom_site_label
 _atom_site_symmetry_multiplicity
 _atom_site_fract_x
 _atom_site_fract_y
 _atom_site_fract_z
 _atom_site_occupancy
  Eu  Eu0  1  0.75000000  0.34148435  0.57109281  1
  Eu  Eu1  1  0.25000000  0.65851565  0.42890719  1
  Eu  Eu2  1  0.75000000  0.84148435  0.92890719  1
  Eu  Eu3  1  0.25000000  0.15851565  0.07109281  1
  Eu  Eu4  1  0.75000000  -0.00017638  0.30282137  1
  Eu  Eu5  1  0.25000000  1.00017638  0.69717863  1
  Eu  Eu6  1  0.75000000  0.49982362  0.19717863  1
  Eu  Eu7  1  0.25000000  0.50017638  0.80282137  1
  Si  Si8  1  0.75000000  0.77991500  0.58166742  1
  Si  Si9  1  0.25000000  0.22008500  0.41833258  1
  Si  Si10  1  0.75000000  0.27991500  0.91833258  1
  Si  Si11  1  0.25000000  0.72008500  0.08166742  1
  O  O12  1  0.75000000  0.00881752  0.56969262  1
  O  O13  1  0.25000000  0.99118248  0.43030738  1
  O  O14  1  0.75000000  0.50881752  0.93030738  1
  O  O15  1  0.25000000  0.49118248  0.06969262  1
  O  O16  1  0.75000000  0.67949801  0.42907246  1
  O  O17  1  0.25000000  0.32050199  0.57092754  1
  O  O18  1  0.75000000  0.17949801  0.07092754  1
  O  O19  1  0.25000000  0.82050199  0.92907246  1
  O  O20  1  0.98952834  0.70392169  0.65913917  1
  O  O21  1  0.48952834  0.29607831  0.34086083  1
  O  O22  1  0.51047166  0.20392169  0.84086083  1
  O  O23  1  0.01047166  0.79607831  0.15913917  1
  O  O24  1  0.01047166  0.29607831  0.34086083  1
  O  O25  1  0.51047166  0.70392169  0.65913917  1
  O  O26  1  0.48952834  0.79607831  0.15913917  1
  O  O27  1  0.98952834  0.20392169  0.84086083  1
