# generated using pymatgen
data_LiV(PO3)5
_symmetry_space_group_name_H-M   'P 1'
_cell_length_a   10.50075591
_cell_length_b   13.66640957
_cell_length_c   9.01779547
_cell_angle_alpha   90.00034787
_cell_angle_beta   98.90289028
_cell_angle_gamma   89.99997229
_symmetry_Int_Tables_number   1
_chemical_formula_structural   LiV(PO3)5
_chemical_formula_sum   'Li4 V4 P20 O60'
_cell_volume   1278.53095563
_cell_formula_units_Z   4
loop_
 _symmetry_equiv_pos_site_id
 _symmetry_equiv_pos_as_xyz
  1  'x, y, z'
loop_
 _atom_site_type_symbol
 _atom_site_label
 _atom_site_symmetry_multiplicity
 _atom_site_fract_x
 _atom_site_fract_y
 _atom_site_fract_z
 _atom_site_occupancy
  Li  Li0  1  0.01628223  0.37728940  0.07000254  1
  Li  Li1  1  0.48371429  0.62270992  0.92999281  1
  Li  Li2  1  0.51628139  0.12271577  0.07000196  1
  Li  Li3  1  0.98371464  0.87728936  0.92999514  1
  O  O4  1  0.04133137  0.13625382  0.69112506  1
  O  O5  1  0.07798090  0.00071043  0.89019291  1
  O  O6  1  0.02419280  0.24887634  0.46788509  1
  O  O7  1  0.06165502  0.35101130  0.69914545  1
  O  O8  1  0.11369976  0.77558987  0.90520772  1
  O  O9  1  0.11618854  0.46146074  0.92496710  1
  O  O10  1  0.08880198  0.07620436  0.43754128  1
  O  O11  1  0.08810672  0.42313858  0.44554036  1
  O  O12  1  0.13767873  0.87876648  0.49629629  1
  O  O13  1  0.14324226  0.61896786  0.52307211  1
  O  O14  1  0.23354423  0.14732801  0.89151327  1
  O  O15  1  0.24663141  0.46867792  0.70179046  1
  O  O16  1  0.23132036  0.02245674  0.69777140  1
  O  O17  1  0.14127984  0.26972394  0.06803839  1
  O  O18  1  0.27531773  0.32454630  0.86880223  1
  O  O19  1  0.22468087  0.67546072  0.13118548  1
  O  O20  1  0.35872767  0.73027313  0.93192958  1
  O  O21  1  0.26868483  0.97753607  0.30223039  1
  O  O22  1  0.25337404  0.53132401  0.29818799  1
  O  O23  1  0.26646139  0.85267171  0.10847571  1
  O  O24  1  0.35675279  0.38102713  0.47692861  1
  O  O25  1  0.36232173  0.12123351  0.50372195  1
  O  O26  1  0.41188970  0.57685903  0.55446317  1
  O  O27  1  0.41120126  0.92379156  0.56247012  1
  O  O28  1  0.38381920  0.53854349  0.07502528  1
  O  O29  1  0.38628579  0.22441289  0.09478341  1
  O  O30  1  0.43834412  0.64898581  0.30085224  1
  O  O31  1  0.47580450  0.75112319  0.53212275  1
  O  O32  1  0.42202324  0.99929255  0.10981162  1
  O  O33  1  0.45866316  0.86374740  0.30886942  1
  O  O34  1  0.54132956  0.36374810  0.69112516  1
  O  O35  1  0.57798248  0.49928769  0.89019617  1
  O  O36  1  0.52419733  0.25112239  0.46788447  1
  O  O37  1  0.56166004  0.14899223  0.69914913  1
  O  O38  1  0.61369801  0.72440919  0.90520647  1
  O  O39  1  0.61618561  0.03854324  0.92496999  1
  O  O40  1  0.58879829  0.42379506  0.43753992  1
  O  O41  1  0.58810931  0.07685762  0.44554479  1
  O  O42  1  0.63767636  0.62123467  0.49629988  1
  O  O43  1  0.64324376  0.88102771  0.52307558  1
  O  O44  1  0.73354440  0.35267112  0.89150752  1
  O  O45  1  0.74663157  0.03131979  0.70179720  1
  O  O46  1  0.73131911  0.47754491  0.69776863  1
  O  O47  1  0.64127835  0.23027951  0.06804367  1
  O  O48  1  0.77532144  0.17545262  0.86880926  1
  O  O49  1  0.72467927  0.82454096  0.13118591  1
  O  O50  1  0.85872674  0.76972512  0.93193290  1
  O  O51  1  0.76868020  0.52246483  0.30222970  1
  O  O52  1  0.75337320  0.96867337  0.29819456  1
  O  O53  1  0.76645586  0.64732936  0.10847854  1
  O  O54  1  0.85675307  0.11896844  0.47693511  1
  O  O55  1  0.86231692  0.37876774  0.50371720  1
  O  O56  1  0.91189366  0.92313926  0.55446725  1
  O  O57  1  0.91119670  0.57620885  0.56247223  1
  O  O58  1  0.88382004  0.96145712  0.07503020  1
  O  O59  1  0.88628260  0.27559128  0.09477961  1
  O  O60  1  0.93834108  0.85101123  0.30085485  1
  O  O61  1  0.97581057  0.74887611  0.53212562  1
  O  O62  1  0.92201716  0.50070792  0.10981219  1
  O  O63  1  0.95866084  0.63625330  0.30887212  1
  P  P64  1  0.99981581  0.13888561  0.51414827  1
  P  P65  1  0.00488519  0.35723305  0.52641914  1
  P  P66  1  0.14434211  0.06978872  0.80389337  1
  P  P67  1  0.17641939  0.40869257  0.81190456  1
  P  P68  1  0.24123805  0.75654719  0.99448344  1
  P  P69  1  0.25875548  0.24345607  0.00550102  1
  P  P70  1  0.32358934  0.59130273  0.18809446  1
  P  P71  1  0.35565484  0.93021323  0.19612160  1
  P  P72  1  0.49982221  0.36111491  0.51414814  1
  P  P73  1  0.49511566  0.64276764  0.47358675  1
  P  P74  1  0.50488629  0.14276746  0.52642254  1
  P  P75  1  0.50018027  0.86111313  0.48585544  1
  P  P76  1  0.64434420  0.43021284  0.80389393  1
  P  P77  1  0.67642072  0.09130815  0.81190938  1
  P  P78  1  0.74123833  0.74345114  0.99448577  1
  P  P79  1  0.75876505  0.25654914  0.00550352  1
  P  P80  1  0.82358688  0.90869456  0.18810129  1
  P  P81  1  0.85565174  0.56978710  0.19612149  1
  P  P82  1  0.99511731  0.85723060  0.47358686  1
  P  P83  1  0.00018661  0.63888634  0.48585660  1
  V  V84  1  0.25000104  0.00000105  0.50000326  1
  V  V85  1  0.25000033  0.49999630  0.49999685  1
  V  V86  1  0.74999975  -0.00000039  0.50000727  1
  V  V87  1  0.74999739  0.50000179  0.50000792  1
