# generated using pymatgen
data_K4Ta2S11
_symmetry_space_group_name_H-M   'P 1'
_cell_length_a   7.56644954
_cell_length_b   13.52463224
_cell_length_c   18.43248766
_cell_angle_alpha   90.00000000
_cell_angle_beta   90.00000000
_cell_angle_gamma   90.00000000
_symmetry_Int_Tables_number   1
_chemical_formula_structural   K4Ta2S11
_chemical_formula_sum   'K16 Ta8 S44'
_cell_volume   1886.26000624
_cell_formula_units_Z   4
loop_
 _symmetry_equiv_pos_site_id
 _symmetry_equiv_pos_as_xyz
  1  'x, y, z'
loop_
 _atom_site_type_symbol
 _atom_site_label
 _atom_site_symmetry_multiplicity
 _atom_site_fract_x
 _atom_site_fract_y
 _atom_site_fract_z
 _atom_site_occupancy
  S  S0  1  0.26013923  0.17074641  0.01980408  1
  S  S1  1  0.73986077  0.82925359  0.51980408  1
  S  S2  1  0.73986077  0.67074641  0.01980408  1
  S  S3  1  0.26013923  0.32925359  0.51980408  1
  S  S4  1  0.24580381  0.95628882  0.67237358  1
  S  S5  1  0.75419619  0.04371118  0.17237358  1
  S  S6  1  0.75419619  0.45628882  0.67237358  1
  S  S7  1  0.24580381  0.54371118  0.17237358  1
  S  S8  1  0.02951387  0.48532934  0.31977032  1
  S  S9  1  0.97048613  0.51467066  0.81977032  1
  S  S10  1  0.97048613  0.98532934  0.31977032  1
  S  S11  1  0.02951387  0.01467066  0.81977032  1
  S  S12  1  0.22131129  0.26507601  0.33521389  1
  S  S13  1  0.77868871  0.73492399  0.83521389  1
  S  S14  1  0.77868871  0.76507601  0.33521389  1
  S  S15  1  0.22131129  0.23492399  0.83521389  1
  S  S16  1  0.96682084  0.31691247  0.17040754  1
  S  S17  1  0.60778326  0.57076596  0.62528157  1
  S  S18  1  0.03317916  0.81691247  0.17040754  1
  S  S19  1  0.96682084  0.18308753  0.67040754  1
  S  S20  1  0.46429121  0.48239761  0.31058488  1
  S  S21  1  0.53570879  0.51760239  0.81058488  1
  S  S22  1  0.53570879  0.98239761  0.31058488  1
  S  S23  1  0.46429121  0.01760239  0.81058488  1
  S  S24  1  0.25462318  0.58862557  0.47329382  1
  S  S25  1  0.74537682  0.41137443  0.97329382  1
  S  S26  1  0.74537682  0.08862557  0.47329382  1
  S  S27  1  0.25462318  0.91137443  0.97329382  1
  S  S28  1  0.39221674  0.42923404  0.12528157  1
  S  S29  1  0.01765592  0.15225946  0.96766425  1
  S  S30  1  0.60778326  0.92923404  0.12528157  1
  S  S31  1  0.39221674  0.07076596  0.62528157  1
  S  S32  1  0.57546712  0.40611115  0.39791487  1
  S  S33  1  0.42453288  0.59388885  0.89791487  1
  S  S34  1  0.42453288  0.90611115  0.39791487  1
  S  S35  1  0.57546712  0.09388885  0.89791487  1
  S  S36  1  0.39519083  0.23986974  0.24899337  1
  S  S37  1  0.60480917  0.76013026  0.74899337  1
  S  S38  1  0.60480917  0.73986974  0.24899337  1
  S  S39  1  0.39519083  0.26013026  0.74899337  1
  S  S40  1  0.01765592  0.34774054  0.46766425  1
  S  S41  1  0.98234408  0.65225946  0.96766425  1
  S  S42  1  0.98234408  0.84774054  0.46766425  1
  S  S43  1  0.03317916  0.68308753  0.67040754  1
  K  K44  1  0.32848854  0.77231198  0.56761992  1
  K  K45  1  0.67151146  0.22768802  0.06761992  1
  K  K46  1  0.67151146  0.27231198  0.56761992  1
  K  K47  1  0.32848854  0.72768802  0.06761992  1
  K  K48  1  0.20817971  0.71583062  0.32019931  1
  K  K49  1  0.79182029  0.28416938  0.82019931  1
  K  K50  1  0.79182029  0.21583062  0.32019931  1
  K  K51  1  0.21848234  0.46302190  0.67152453  1
  K  K52  1  0.18502172  0.09197712  0.46884489  1
  K  K53  1  0.81497828  0.90802288  0.96884489  1
  K  K54  1  0.81497828  0.59197712  0.46884489  1
  K  K55  1  0.18502172  0.40802288  0.96884489  1
  K  K56  1  0.20817971  0.78416938  0.82019931  1
  K  K57  1  0.78151766  0.96302190  0.67152453  1
  K  K58  1  0.78151766  0.53697810  0.17152453  1
  K  K59  1  0.21848234  0.03697810  0.17152453  1
  Ta  Ta60  1  0.25912989  0.05593707  0.91222207  1
  Ta  Ta61  1  0.74087011  0.94406293  0.41222207  1
  Ta  Ta62  1  0.74087011  0.55593707  0.91222207  1
  Ta  Ta63  1  0.25912989  0.44406293  0.41222207  1
  Ta  Ta64  1  0.19847381  0.11737961  0.73071710  1
  Ta  Ta65  1  0.80152619  0.88262039  0.23071710  1
  Ta  Ta66  1  0.80152619  0.61737961  0.73071710  1
  Ta  Ta67  1  0.19847381  0.38262039  0.23071710  1
