# generated using pymatgen
data_K2TbF6
_symmetry_space_group_name_H-M   'P 1'
_cell_length_a   6.72964474
_cell_length_b   6.72964474
_cell_length_c   7.42427721
_cell_angle_alpha   90.32519155
_cell_angle_beta   90.32519148
_cell_angle_gamma   117.35504414
_symmetry_Int_Tables_number   1
_chemical_formula_structural   K2TbF6
_chemical_formula_sum   'K4 Tb2 F12'
_cell_volume   298.61505603
_cell_formula_units_Z   2
loop_
 _symmetry_equiv_pos_site_id
 _symmetry_equiv_pos_as_xyz
  1  'x, y, z'
loop_
 _atom_site_type_symbol
 _atom_site_label
 _atom_site_symmetry_multiplicity
 _atom_site_fract_x
 _atom_site_fract_y
 _atom_site_fract_z
 _atom_site_occupancy
  F  F0  1  0.15060235  0.93865361  0.95644502  1
  F  F1  1  0.06134639  0.84939765  0.54355498  1
  F  F2  1  0.84939765  0.06134639  0.04355498  1
  F  F3  1  0.93865361  0.15060235  0.45644502  1
  F  F4  1  0.98879285  0.60177918  0.22419747  1
  F  F5  1  0.39822082  0.01120715  0.27580253  1
  F  F6  1  0.70707153  0.67685944  0.79061528  1
  F  F7  1  0.32314056  0.29292847  0.70938472  1
  F  F8  1  0.29292847  0.32314056  0.20938472  1
  F  F9  1  0.67685944  0.70707153  0.29061528  1
  F  F10  1  0.60177918  0.98879285  0.72419747  1
  F  F11  1  0.01120715  0.39822082  0.77580253  1
  K  K12  1  0.63662086  0.31373593  0.99852242  1
  K  K13  1  0.68626407  0.36337914  0.50147758  1
  K  K14  1  0.31373593  0.63662086  0.49852242  1
  K  K15  1  0.36337914  0.68626407  0.00147758  1
  Tb  Tb16  1  0.96158017  0.03841983  0.75000000  1
  Tb  Tb17  1  0.03841983  0.96158017  0.25000000  1
