# generated using pymatgen
data_Ca3Ti2AlSi3O14F
_symmetry_space_group_name_H-M   'P 1'
_cell_length_a   5.46296699
_cell_length_b   16.41341547
_cell_length_c   7.09777726
_cell_angle_alpha   104.50045871
_cell_angle_beta   104.41802882
_cell_angle_gamma   105.64447770
_symmetry_Int_Tables_number   1
_chemical_formula_structural   Ca3Ti2AlSi3O14F
_chemical_formula_sum   'Ca6 Ti4 Al2 Si6 O28 F2'
_cell_volume   558.08762499
_cell_formula_units_Z   2
loop_
 _symmetry_equiv_pos_site_id
 _symmetry_equiv_pos_as_xyz
  1  'x, y, z'
loop_
 _atom_site_type_symbol
 _atom_site_label
 _atom_site_symmetry_multiplicity
 _atom_site_fract_x
 _atom_site_fract_y
 _atom_site_fract_z
 _atom_site_occupancy
  Al  Al0  1  0.50000000  0.83333300  0.50000000  1
  Al  Al1  1  0.50000000  0.83333300  0.00000000  1
  Ca  Ca2  1  0.16207151  0.94291100  0.74789924  1
  Ca  Ca3  1  0.17307880  0.61335818  0.75326375  1
  Ca  Ca4  1  0.16897287  0.27536288  0.74973349  1
  Ca  Ca5  1  0.83792849  0.72375600  0.25210076  1
  Ca  Ca6  1  0.83102713  0.39130412  0.25026651  1
  Ca  Ca7  1  0.82692120  0.05330782  0.24673625  1
  F  F8  1  0.43582402  0.85725672  0.75118320  1
  F  F9  1  0.56417598  0.80941028  0.24881680  1
  O  O10  1  0.13304208  0.75574108  0.90451379  1
  O  O11  1  0.19829004  0.86788939  0.38704566  1
  O  O12  1  0.12233904  0.41738451  0.91306353  1
  O  O13  1  0.26055082  0.71345114  0.41169694  1
  O  O14  1  0.38775286  0.93161782  0.10992735  1
  O  O15  1  0.18869664  0.54073022  0.38752213  1
  O  O16  1  0.61224714  0.73504818  0.89007265  1
  O  O17  1  0.73944918  0.95321486  0.58830306  1
  O  O18  1  0.42844461  0.52436481  0.75259052  1
  O  O19  1  0.11624438  0.08054155  0.90602705  1
  O  O20  1  0.25037445  0.37424249  0.40972338  1
  O  O21  1  0.39571781  0.60813015  0.12163687  1
  O  O22  1  0.18409404  0.20241132  0.38041131  1
  O  O23  1  0.80170996  0.79877761  0.61295434  1
  O  O24  1  0.61087648  0.39581511  0.88395401  1
  O  O25  1  0.74849850  0.62947665  0.59783967  1
  O  O26  1  0.42719732  0.18782955  0.74650845  1
  O  O27  1  0.86695792  0.91092492  0.09548621  1
  O  O28  1  0.57280268  0.47883645  0.25349155  1
  O  O29  1  0.25150150  0.03719035  0.40216033  1
  O  O30  1  0.38912352  0.27085189  0.11604599  1
  O  O31  1  0.81590596  0.46425468  0.61958869  1
  O  O32  1  0.60428219  0.05853685  0.87836313  1
  O  O33  1  0.74962555  0.29242451  0.59027662  1
  O  O34  1  0.88375562  0.58612545  0.09397295  1
  O  O35  1  0.57155539  0.14230219  0.24740948  1
  O  O36  1  0.81130336  0.12593678  0.61247787  1
  O  O37  1  0.87766096  0.24928249  0.08693647  1
  Si  Si38  1  0.17914948  0.93390858  0.24451857  1
  Si  Si39  1  0.18947091  0.61086129  0.25629636  1
  Si  Si40  1  0.18137438  0.27264236  0.24979689  1
  Si  Si41  1  0.82085052  0.73275842  0.75548143  1
  Si  Si42  1  0.81862562  0.39402464  0.75020311  1
  Si  Si43  1  0.81052909  0.05580471  0.74370364  1
  Ti  Ti44  1  0.50347986  0.50296202  0.50340639  1
  Ti  Ti45  1  0.50083067  0.50106970  0.00102782  1
  Ti  Ti46  1  0.49652014  0.16370498  0.49659361  1
  Ti  Ti47  1  0.49916933  0.16559730  0.99897218  1
