# generated using pymatgen
data_Li9Mn2Co5O16
_symmetry_space_group_name_H-M   'P 1'
_cell_length_a   2.90242679
_cell_length_b   5.13568730
_cell_length_c   19.47581609
_cell_angle_alpha   99.97386365
_cell_angle_beta   90.00000000
_cell_angle_gamma   90.00000000
_symmetry_Int_Tables_number   1
_chemical_formula_structural   Li9Mn2Co5O16
_chemical_formula_sum   'Li9 Mn2 Co5 O16'
_cell_volume   285.91823601
_cell_formula_units_Z   1
loop_
 _symmetry_equiv_pos_site_id
 _symmetry_equiv_pos_as_xyz
  1  'x, y, z'
loop_
 _atom_site_type_symbol
 _atom_site_label
 _atom_site_symmetry_multiplicity
 _atom_site_fract_x
 _atom_site_fract_y
 _atom_site_fract_z
 _atom_site_occupancy
  Li  Li0  1  0.50000000  0.27388509  0.13230332  1
  Li  Li1  1  0.50000000  0.72611491  0.36769668  1
  Li  Li2  1  0.50000000  0.25329631  0.62300542  1
  Li  Li3  1  0.50000000  0.74670369  0.87699458  1
  Li  Li4  1  0.00000000  0.77240356  0.13412349  1
  Li  Li5  1  0.00000000  0.22759644  0.36587651  1
  Li  Li6  1  0.00000000  0.73970600  0.62653091  1
  Li  Li7  1  0.00000000  0.26029400  0.87346909  1
  Li  Li8  1  0.00000000  0.50000000  0.25000000  1
  Mn  Mn9  1  -0.00000000  0.00871325  0.00128504  1
  Mn  Mn10  1  0.00000000  0.99128675  0.49871496  1
  Co  Co11  1  0.00000000  0.50000000  0.75000000  1
  Co  Co12  1  0.50000000  0.50836453  0.00273175  1
  Co  Co13  1  0.50000000  0.00000000  0.25000000  1
  Co  Co14  1  0.50000000  0.49163547  0.49726825  1
  Co  Co15  1  0.50000000  0.00000000  0.75000000  1
  O  O16  1  0.50000000  0.90530369  0.05736351  1
  O  O17  1  0.50000000  0.32085578  0.30606617  1
  O  O18  1  0.50000000  0.88767551  0.55628758  1
  O  O19  1  0.50000000  0.39168183  0.80999671  1
  O  O20  1  0.00000000  0.35794124  0.05808570  1
  O  O21  1  0.00000000  0.87884976  0.30497089  1
  O  O22  1  0.00000000  0.34519187  0.55478884  1
  O  O23  1  0.00000000  0.88637598  0.80442737  1
  O  O24  1  0.50000000  0.67914422  0.19393383  1
  O  O25  1  0.50000000  0.09469631  0.44263649  1
  O  O26  1  0.50000000  0.60831817  0.69000329  1
  O  O27  1  0.50000000  0.11232449  0.94371242  1
  O  O28  1  0.00000000  0.12115024  0.19502911  1
  O  O29  1  0.00000000  0.64205876  0.44191430  1
  O  O30  1  0.00000000  0.11362402  0.69557263  1
  O  O31  1  0.00000000  0.65480813  0.94521116  1
