# generated using pymatgen
data_In5(BiS4)3
_symmetry_space_group_name_H-M   'P 1'
_cell_length_a   3.92123008
_cell_length_b   14.56597532
_cell_length_c   16.87288990
_cell_angle_alpha   90.57303007
_cell_angle_beta   96.67279065
_cell_angle_gamma   90.00000128
_symmetry_Int_Tables_number   1
_chemical_formula_structural   In5(BiS4)3
_chemical_formula_sum   'In10 Bi6 S24'
_cell_volume   957.14427365
_cell_formula_units_Z   2
loop_
 _symmetry_equiv_pos_site_id
 _symmetry_equiv_pos_as_xyz
  1  'x, y, z'
loop_
 _atom_site_type_symbol
 _atom_site_label
 _atom_site_symmetry_multiplicity
 _atom_site_fract_x
 _atom_site_fract_y
 _atom_site_fract_z
 _atom_site_occupancy
  Bi  Bi0  1  0.86503935  0.01466630  0.73007870  1
  Bi  Bi1  1  0.13496065  0.98533370  0.26992130  1
  Bi  Bi2  1  0.68020399  0.73280185  0.36040799  1
  Bi  Bi3  1  0.31979601  0.26719815  0.63959201  1
  Bi  Bi4  1  0.44714885  0.79006514  0.89429770  1
  Bi  Bi5  1  0.55285115  0.20993486  0.10570230  1
  In  In6  1  0.00000000  0.00000000  0.00000000  1
  In  In7  1  0.00000000  0.50000000  0.00000000  1
  In  In8  1  0.78322809  0.58224834  0.56645617  1
  In  In9  1  0.21677191  0.41775166  0.43354383  1
  In  In10  1  0.59763631  0.49645455  0.19527262  1
  In  In11  1  0.40236369  0.50354545  0.80472738  1
  In  In12  1  0.32657827  0.78028199  0.65315654  1
  In  In13  1  0.67342173  0.21971801  0.34684346  1
  In  In14  1  0.07161776  0.72183843  0.14323551  1
  In  In15  1  0.92838224  0.27816157  0.85676449  1
  S  S16  1  0.00597630  0.81835936  0.01195260  1
  S  S17  1  0.99402370  0.18164064  0.98804740  1
  S  S18  1  0.93788560  0.59858426  0.87577120  1
  S  S19  1  0.06211440  0.40141574  0.12422880  1
  S  S20  1  0.88558817  0.81911898  0.77117634  1
  S  S21  1  0.11441183  0.18088102  0.22882366  1
  S  S22  1  0.77790679  0.76091960  0.55581358  1
  S  S23  1  0.22209321  0.23908040  0.44418642  1
  S  S24  1  0.60498863  0.81289928  0.20997726  1
  S  S25  1  0.39501137  0.18710072  0.79002274  1
  S  S26  1  0.53456655  0.60634618  0.06913309  1
  S  S27  1  0.46543345  0.39365382  0.93086691  1
  S  S28  1  0.44686660  0.97290468  0.89373321  1
  S  S29  1  0.55313340  0.02709532  0.10626679  1
  S  S30  1  0.33804768  0.60180926  0.67609536  1
  S  S31  1  0.66195232  0.39819074  0.32390464  1
  S  S32  1  0.19532589  0.85224331  0.39065178  1
  S  S33  1  0.80467411  0.14775669  0.60934822  1
  S  S34  1  0.12674143  0.60447979  0.25348285  1
  S  S35  1  0.87325857  0.39552021  0.74651715  1
  S  S36  1  0.22798740  0.59115700  0.45597480  1
  S  S37  1  0.77201260  0.40884300  0.54402520  1
  S  S38  1  0.31739206  0.95844410  0.63478412  1
  S  S39  1  0.68260794  0.04155590  0.36521588  1
