# generated using pymatgen
data_NaEuTiNbO6F
_symmetry_space_group_name_H-M   'P 1'
_cell_length_a   7.36989688
_cell_length_b   14.76767483
_cell_length_c   12.79300084
_cell_angle_alpha   29.93572583
_cell_angle_beta   54.82412453
_cell_angle_gamma   60.06243423
_symmetry_Int_Tables_number   1
_chemical_formula_structural   NaEuTiNbO6F
_chemical_formula_sum   'Na4 Eu4 Ti4 Nb4 O24 F4'
_cell_volume   567.93548391
_cell_formula_units_Z   4
loop_
 _symmetry_equiv_pos_site_id
 _symmetry_equiv_pos_as_xyz
  1  'x, y, z'
loop_
 _atom_site_type_symbol
 _atom_site_label
 _atom_site_symmetry_multiplicity
 _atom_site_fract_x
 _atom_site_fract_y
 _atom_site_fract_z
 _atom_site_occupancy
  Eu  Eu0  1  1.00002033  0.01263414  0.98735637  1
  Eu  Eu1  1  0.50000135  0.48736586  0.01264363  1
  Eu  Eu2  1  0.98736226  0.75000000  0.00000000  1
  Eu  Eu3  1  0.01259556  0.75000000  0.50000000  1
  F  F4  1  0.13307752  0.00807768  0.11690950  1
  F  F5  1  0.11696074  0.49201666  0.13297609  1
  F  F6  1  0.86694624  0.00798334  0.86702391  1
  F  F7  1  0.88305188  0.49192232  0.88309050  1
  Na  Na8  1  0.49998634  0.01427794  0.98587799  1
  Na  Na9  1  0.00029820  0.48572206  0.01412201  1
  Na  Na10  1  0.01396214  0.25000000  0.00000000  1
  Na  Na11  1  0.98595136  0.25000000  0.50000000  1
  Nb  Nb12  1  0.49343744  0.25000000  0.50000000  1
  Nb  Nb13  1  0.49981179  0.50706513  0.49300307  1
  Nb  Nb14  1  -0.00005182  0.99293487  0.50699693  1
  Nb  Nb15  1  0.50679634  0.25000000  0.00000000  1
  O  O16  1  0.18766502  0.18739959  0.18758605  1
  O  O17  1  0.56692494  0.19245699  0.18920363  1
  O  O18  1  0.16967749  0.30742219  0.57429685  1
  O  O19  1  0.43311557  0.19257781  0.42570315  1
  O  O20  1  0.16664612  0.70833162  0.16664797  1
  O  O21  1  0.17711991  0.52172639  0.54901311  1
  O  O22  1  0.54886035  0.50213215  0.17715674  1
  O  O23  1  0.81859892  0.97827361  0.45098689  1
  O  O24  1  0.57416716  0.69852104  0.16976124  1
  O  O25  1  0.56228389  0.31266141  0.56238250  1
  O  O26  1  0.81237171  0.18733859  0.43761750  1
  O  O27  1  0.18916469  0.80140186  0.56691144  1
  O  O28  1  0.42579128  0.69859814  0.43308856  1
  O  O29  1  0.43763629  0.31260041  0.81241395  1
  O  O30  1  0.18144876  0.97811136  0.59253524  1
  O  O31  1  0.59248554  0.99790922  0.18143815  1
  O  O32  1  0.82274194  0.52188864  0.40746476  1
  O  O33  1  0.45118029  0.50209078  0.81856185  1
  O  O34  1  0.58345081  0.79145498  0.58357140  1
  O  O35  1  0.83024618  0.30754301  0.81079637  1
  O  O36  1  0.83350356  0.70854502  0.41642860  1
  O  O37  1  0.41660531  0.79166838  0.83335203  1
  O  O38  1  0.40743812  0.99786785  0.82284326  1
  O  O39  1  0.81073171  0.80147896  0.83023876  1
  Ti  Ti40  1  0.49990486  0.99098538  0.50907010  1
  Ti  Ti41  1  0.00001582  0.50901462  0.49092990  1
  Ti  Ti42  1  0.50935841  0.75000000  0.50000000  1
  Ti  Ti43  1  0.49065767  0.75000000  0.00000000  1
