# generated using pymatgen
data_NaNbO3
_symmetry_space_group_name_H-M   'P 1'
_cell_length_a   5.69807972
_cell_length_b   5.62103339
_cell_length_c   7.84340435
_cell_angle_alpha   90.00000000
_cell_angle_beta   90.00000000
_cell_angle_gamma   90.00000000
_symmetry_Int_Tables_number   1
_chemical_formula_structural   NaNbO3
_chemical_formula_sum   'Na4 Nb4 O12'
_cell_volume   251.21715376
_cell_formula_units_Z   4
loop_
 _symmetry_equiv_pos_site_id
 _symmetry_equiv_pos_as_xyz
  1  'x, y, z'
loop_
 _atom_site_type_symbol
 _atom_site_label
 _atom_site_symmetry_multiplicity
 _atom_site_fract_x
 _atom_site_fract_y
 _atom_site_fract_z
 _atom_site_occupancy
  O  O0  1  0.48267290  0.04076243  0.28272478  1
  O  O1  1  0.98267290  0.95923757  0.71727522  1
  O  O2  1  0.98267290  0.95923757  0.28272478  1
  O  O3  1  0.48267290  0.04076243  0.71727522  1
  O  O4  1  0.90805868  0.46106467  0.21955526  1
  O  O5  1  0.40805868  0.53893533  0.78044474  1
  O  O6  1  0.40805868  0.53893533  0.21955526  1
  O  O7  1  0.90805868  0.46106467  0.78044474  1
  O  O8  1  0.69591169  0.81185948  0.00000000  1
  O  O9  1  0.19591169  0.18814052  0.00000000  1
  O  O10  1  0.67602943  0.68740969  0.50000000  1
  O  O11  1  0.17602943  0.31259031  0.50000000  1
  Na  Na12  1  0.74934723  0.24069469  0.50000000  1
  Na  Na13  1  0.24934723  0.75930531  0.50000000  1
  Na  Na14  1  0.72863547  0.23455294  0.00000000  1
  Na  Na15  1  0.22863547  0.76544706  0.00000000  1
  Nb  Nb16  1  0.23130651  0.25693892  0.74946980  1
  Nb  Nb17  1  0.73130651  0.74306108  0.25053020  1
  Nb  Nb18  1  0.73130651  0.74306108  0.74946980  1
  Nb  Nb19  1  0.23130651  0.25693892  0.25053020  1
