# generated using pymatgen
data_Hg19(As5Br9)2
_symmetry_space_group_name_H-M   'P 1'
_cell_length_a   11.61944150
_cell_length_b   11.65408130
_cell_length_c   12.73847195
_cell_angle_alpha   106.12585209
_cell_angle_beta   106.24761225
_cell_angle_gamma   108.32467343
_symmetry_Int_Tables_number   1
_chemical_formula_structural   Hg19(As5Br9)2
_chemical_formula_sum   'Hg19 As10 Br18'
_cell_volume   1439.97101989
_cell_formula_units_Z   1
loop_
 _symmetry_equiv_pos_site_id
 _symmetry_equiv_pos_as_xyz
  1  'x, y, z'
loop_
 _atom_site_type_symbol
 _atom_site_label
 _atom_site_symmetry_multiplicity
 _atom_site_fract_x
 _atom_site_fract_y
 _atom_site_fract_z
 _atom_site_occupancy
  Hg  Hg0  1  0.00000000  0.50000000  0.00000000  1
  Hg  Hg1  1  0.30800666  0.69201334  0.89770063  1
  Hg  Hg2  1  0.69199334  0.30798666  0.10229937  1
  Hg  Hg3  1  0.30722232  0.00518606  0.78156584  1
  Hg  Hg4  1  0.69277768  0.99481394  0.21843416  1
  Hg  Hg5  1  0.63116297  0.89203711  0.82291040  1
  Hg  Hg6  1  0.36883703  0.10796289  0.17708960  1
  Hg  Hg7  1  0.32489014  0.38692017  0.00620143  1
  Hg  Hg8  1  0.67510986  0.61307983  0.99379857  1
  Hg  Hg9  1  0.92836568  0.08385273  0.72162299  1
  Hg  Hg10  1  0.07163432  0.91614727  0.27837701  1
  Hg  Hg11  1  0.87610558  0.37569054  0.59516746  1
  Hg  Hg12  1  0.12389442  0.62430946  0.40483254  1
  Hg  Hg13  1  0.20226849  0.29468404  0.58935652  1
  Hg  Hg14  1  0.79773151  0.70531596  0.41064348  1
  Hg  Hg15  1  0.07182193  0.24202244  0.18532995  1
  Hg  Hg16  1  0.92817807  0.75797756  0.81467005  1
  Hg  Hg17  1  0.48496139  0.20384558  0.57614849  1
  Hg  Hg18  1  0.51503861  0.79615442  0.42385151  1
  Br  Br19  1  0.49982430  0.40995984  0.20319506  1
  Br  Br20  1  0.50017570  0.59004016  0.79680494  1
  Br  Br21  1  0.17008702  0.09839054  0.93101364  1
  Br  Br22  1  0.82991298  0.90160946  0.06898636  1
  Br  Br23  1  0.88436960  0.20089316  0.98071701  1
  Br  Br24  1  0.11563040  0.79910684  0.01928299  1
  Br  Br25  1  0.78188233  0.48775648  0.77534414  1
  Br  Br26  1  0.21811767  0.51224352  0.22465586  1
  Br  Br27  1  0.46281437  0.28704001  0.86526935  1
  Br  Br28  1  0.53718563  0.71295999  0.13473065  1
  Br  Br29  1  0.96468679  0.34416207  0.34436274  1
  Br  Br30  1  0.03531321  0.65583793  0.65563726  1
  Br  Br31  1  0.85728878  0.01301002  0.41511684  1
  Br  Br32  1  0.14271122  0.98698998  0.58488316  1
  Br  Br33  1  0.61785373  0.09374202  0.67098940  1
  Br  Br34  1  0.38214627  0.90625798  0.32901060  1
  Br  Br35  1  0.66376644  0.32014964  0.41943905  1
  Br  Br36  1  0.33623356  0.67985036  0.58056095  1
  As  As37  1  0.44825619  0.91538975  0.89702305  1
  As  As38  1  0.55174381  0.08461025  0.10297695  1
  As  As39  1  0.16694960  0.47199179  0.90245727  1
  As  As40  1  0.83305040  0.52800821  0.09754273  1
  As  As41  1  0.21649386  0.14217386  0.28611707  1
  As  As42  1  0.78350614  0.85782614  0.71388293  1
  As  As43  1  0.04304871  0.30069551  0.69832069  1
  As  As44  1  0.95695129  0.69930449  0.30167931  1
  As  As45  1  0.36417275  0.32348333  0.48604080  1
  As  As46  1  0.63582725  0.67651667  0.51395920  1
