# generated using pymatgen
data_Li9Mn2Co5O16
_symmetry_space_group_name_H-M   'P 1'
_cell_length_a   2.94805138
_cell_length_b   19.39034393
_cell_length_c   5.07385944
_cell_angle_alpha   93.98341592
_cell_angle_beta   90.00139633
_cell_angle_gamma   85.51701009
_symmetry_Int_Tables_number   1
_chemical_formula_structural   Li9Mn2Co5O16
_chemical_formula_sum   'Li9 Mn2 Co5 O16'
_cell_volume   288.45057858
_cell_formula_units_Z   1
loop_
 _symmetry_equiv_pos_site_id
 _symmetry_equiv_pos_as_xyz
  1  'x, y, z'
loop_
 _atom_site_type_symbol
 _atom_site_label
 _atom_site_symmetry_multiplicity
 _atom_site_fract_x
 _atom_site_fract_y
 _atom_site_fract_z
 _atom_site_occupancy
  Li  Li0  1  0.93031059  0.13286059  0.68714398  1
  Li  Li1  1  0.31674940  0.36853949  0.54763967  1
  Li  Li2  1  0.68537970  0.62582602  0.43384734  1
  Li  Li3  1  0.06462030  0.87417398  0.31615266  1
  Li  Li4  1  0.43325060  0.13146051  0.20236033  1
  Li  Li5  1  0.81968941  0.36713941  0.06285602  1
  Li  Li6  1  0.18580282  0.62473019  0.94374705  1
  Li  Li7  1  0.56419718  0.87526981  0.80625295  1
  Li  Li8  1  0.87500000  0.25000000  0.37500000  1
  Mn  Mn9  1  0.99863754  0.00105724  0.00212411  1
  Mn  Mn10  1  0.75136246  0.49894276  0.74787589  1
  Co  Co11  1  0.37500000  0.25000000  0.87500000  1
  Co  Co12  1  0.12479830  0.75013995  0.62575857  1
  Co  Co13  1  0.49826565  0.00177150  0.50160782  1
  Co  Co14  1  0.25173435  0.49822850  0.24839218  1
  Co  Co15  1  0.62520170  0.74986005  0.12424143  1
  O  O16  1  0.46994783  0.05606439  0.87276515  1
  O  O17  1  0.84846000  0.30477909  0.73306362  1
  O  O18  1  0.22167230  0.55513972  0.61661263  1
  O  O19  1  0.59672621  0.80864013  0.45480245  1
  O  O20  1  0.96712463  0.05883294  0.33021290  1
  O  O21  1  0.34825700  0.30603158  0.17513314  1
  O  O22  1  0.72004795  0.55609937  0.07888993  1
  O  O23  1  0.09708433  0.80785494  0.95736266  1
  O  O24  1  0.40174300  0.19396842  0.57486686  1
  O  O25  1  0.78287537  0.44116706  0.41978710  1
  O  O26  1  0.15327379  0.69135987  0.29519755  1
  O  O27  1  0.52832770  0.94486028  0.13338737  1
  O  O28  1  0.90154000  0.19522091  0.01693638  1
  O  O29  1  0.28005217  0.44393561  0.87723485  1
  O  O30  1  0.65291567  0.69214506  0.79263734  1
  O  O31  1  0.02995205  0.94390063  0.67111007  1
