# generated using pymatgen
data_Hf2Ni2Sn
_symmetry_space_group_name_H-M   'P 1'
_cell_length_a   6.78695195
_cell_length_b   7.06883109
_cell_length_c   7.06883109
_cell_angle_alpha   90.00000000
_cell_angle_beta   90.00000000
_cell_angle_gamma   90.00000000
_symmetry_Int_Tables_number   1
_chemical_formula_structural   Hf2Ni2Sn
_chemical_formula_sum   'Hf8 Ni8 Sn4'
_cell_volume   339.13294643
_cell_formula_units_Z   4
loop_
 _symmetry_equiv_pos_site_id
 _symmetry_equiv_pos_as_xyz
  1  'x, y, z'
loop_
 _atom_site_type_symbol
 _atom_site_label
 _atom_site_symmetry_multiplicity
 _atom_site_fract_x
 _atom_site_fract_y
 _atom_site_fract_z
 _atom_site_occupancy
  Hf  Hf0  1  0.00000000  0.18086540  0.18086540  1
  Hf  Hf1  1  0.50000000  0.31913460  0.68086540  1
  Hf  Hf2  1  0.50000000  0.68086540  0.31913460  1
  Hf  Hf3  1  0.00000000  0.81913460  0.81913460  1
  Hf  Hf4  1  0.00000000  0.34767732  0.65232268  1
  Hf  Hf5  1  0.50000000  0.84767732  0.84767732  1
  Hf  Hf6  1  0.50000000  0.15232268  0.15232268  1
  Hf  Hf7  1  0.00000000  0.65232268  0.34767732  1
  Ni  Ni8  1  0.28440076  0.37373828  0.37373828  1
  Ni  Ni9  1  0.78440076  0.12626172  0.87373828  1
  Ni  Ni10  1  0.78440076  0.87373828  0.12626172  1
  Ni  Ni11  1  0.28440076  0.62626172  0.62626172  1
  Ni  Ni12  1  0.21559924  0.87373828  0.12626172  1
  Ni  Ni13  1  0.21559924  0.12626172  0.87373828  1
  Ni  Ni14  1  0.71559924  0.37373828  0.37373828  1
  Ni  Ni15  1  0.71559924  0.62626172  0.62626172  1
  Sn  Sn16  1  0.25000000  0.00000000  0.50000000  1
  Sn  Sn17  1  0.75000000  0.00000000  0.50000000  1
  Sn  Sn18  1  0.25000000  0.50000000  0.00000000  1
  Sn  Sn19  1  0.75000000  0.50000000  0.00000000  1
