# generated using pymatgen
data_V2Cu2O7
_symmetry_space_group_name_H-M   'P 1'
_cell_length_a   5.49998302
_cell_length_b   5.49998303
_cell_length_c   10.85599964
_cell_angle_alpha   99.98335971
_cell_angle_beta   99.98335974
_cell_angle_gamma   108.39867942
_symmetry_Int_Tables_number   1
_chemical_formula_structural   V2Cu2O7
_chemical_formula_sum   'V4 Cu4 O14'
_cell_volume   297.60694821
_cell_formula_units_Z   2
loop_
 _symmetry_equiv_pos_site_id
 _symmetry_equiv_pos_as_xyz
  1  'x, y, z'
loop_
 _atom_site_type_symbol
 _atom_site_label
 _atom_site_symmetry_multiplicity
 _atom_site_fract_x
 _atom_site_fract_y
 _atom_site_fract_z
 _atom_site_occupancy
  O  O0  1  0.09960874  0.09960874  0.00000000  1
  O  O1  1  0.84960874  0.34960874  0.50000000  1
  O  O2  1  0.77981462  0.97834042  0.17647708  1
  O  O3  1  0.80186334  0.60333753  0.82352292  1
  O  O4  1  0.72834042  0.02981462  0.67647708  1
  O  O5  1  0.35333753  0.05186334  0.32352292  1
  O  O6  1  0.13070036  0.51622265  0.21559929  1
  O  O7  1  0.30062336  0.91510108  0.78440071  1
  O  O8  1  0.42488065  0.52557254  0.50096246  1
  O  O9  1  0.02461008  0.92391819  0.49903754  1
  O  O10  1  0.27557254  0.67488065  0.00096246  1
  O  O11  1  0.67391819  0.27461008  0.99903754  1
  O  O12  1  0.66510108  0.55062336  0.28440071  1
  O  O13  1  0.26622265  0.38070036  0.71559929  1
  V  V14  1  0.91192066  0.21825917  0.09912063  1
  V  V15  1  0.11913854  0.81280003  0.90087937  1
  V  V16  1  0.96825917  0.16192066  0.59912063  1
  V  V17  1  0.56280003  0.36913854  0.40087937  1
  Cu  Cu18  1  0.45949170  0.70274498  0.17279704  1
  Cu  Cu19  1  0.52994795  0.28669466  0.82720296  1
  Cu  Cu20  1  0.45274498  0.70949170  0.67279704  1
  Cu  Cu21  1  0.03669466  0.77994795  0.32720296  1
