# generated using pymatgen
data_CeTa3O9
_symmetry_space_group_name_H-M   'P 1'
_cell_length_a   6.61783757
_cell_length_b   7.37260200
_cell_length_c   7.37260208
_cell_angle_alpha   62.94240480
_cell_angle_beta   86.70973545
_cell_angle_gamma   86.70973224
_symmetry_Int_Tables_number   1
_chemical_formula_structural   CeTa3O9
_chemical_formula_sum   'Ce2 Ta6 O18'
_cell_volume   319.61731727
_cell_formula_units_Z   2
loop_
 _symmetry_equiv_pos_site_id
 _symmetry_equiv_pos_as_xyz
  1  'x, y, z'
loop_
 _atom_site_type_symbol
 _atom_site_label
 _atom_site_symmetry_multiplicity
 _atom_site_fract_x
 _atom_site_fract_y
 _atom_site_fract_z
 _atom_site_occupancy
  Ce  Ce0  1  0.94994577  0.73695420  0.73695420  1
  Ce  Ce1  1  0.05005423  0.26304580  0.26304580  1
  Ta  Ta2  1  0.76251064  0.21811382  0.71603573  1
  Ta  Ta3  1  0.23748936  0.28396427  0.78188618  1
  Ta  Ta4  1  0.23748936  0.78188618  0.28396427  1
  Ta  Ta5  1  0.76251064  0.71603573  0.21811382  1
  Ta  Ta6  1  0.50000000  0.50000000  0.00000000  1
  Ta  Ta7  1  0.50000000  0.00000000  0.50000000  1
  O  O8  1  0.77994210  0.07842098  0.50754895  1
  O  O9  1  0.22005790  0.49245105  0.92157902  1
  O  O10  1  0.22005790  0.92157902  0.49245105  1
  O  O11  1  0.77994210  0.50754895  0.07842098  1
  O  O12  1  0.45269193  0.68925345  0.12737723  1
  O  O13  1  0.54730807  0.87262277  0.31074655  1
  O  O14  1  0.54730807  0.31074655  0.87262277  1
  O  O15  1  0.45269193  0.12737723  0.68925345  1
  O  O16  1  0.93323807  0.36164356  0.82045508  1
  O  O17  1  0.06676193  0.17954492  0.63835644  1
  O  O18  1  0.06676193  0.63835644  0.17954492  1
  O  O19  1  0.93323807  0.82045508  0.36164356  1
  O  O20  1  0.79546041  0.93150963  0.93150963  1
  O  O21  1  0.20453959  0.06849037  0.06849037  1
  O  O22  1  0.27147094  0.53898179  0.53898179  1
  O  O23  1  0.72852906  0.46101821  0.46101821  1
  O  O24  1  0.57531404  0.73249198  0.73249198  1
  O  O25  1  0.42468596  0.26750802  0.26750802  1
