# generated using pymatgen
data_NaV2O5
_symmetry_space_group_name_H-M   'P 1'
_cell_length_a   3.64602249
_cell_length_b   5.09999589
_cell_length_c   11.48526259
_cell_angle_alpha   90.00000000
_cell_angle_beta   90.00000000
_cell_angle_gamma   90.00000000
_symmetry_Int_Tables_number   1
_chemical_formula_structural   NaV2O5
_chemical_formula_sum   'Na2 V4 O10'
_cell_volume   213.56500900
_cell_formula_units_Z   2
loop_
 _symmetry_equiv_pos_site_id
 _symmetry_equiv_pos_as_xyz
  1  'x, y, z'
loop_
 _atom_site_type_symbol
 _atom_site_label
 _atom_site_symmetry_multiplicity
 _atom_site_fract_x
 _atom_site_fract_y
 _atom_site_fract_z
 _atom_site_occupancy
  O  O0  1  0.49999900  0.57420485  0.38029322  1
  O  O1  1  0.00000000  0.42579315  0.88029222  1
  O  O2  1  0.49999900  0.98810299  0.18699629  1
  O  O3  1  0.00000000  0.01189701  0.68699529  1
  O  O4  1  0.49999900  0.03840943  0.51574205  1
  O  O5  1  0.00000000  0.96159057  0.01574205  1
  O  O6  1  0.00000000  0.41324762  0.13980310  1
  O  O7  1  0.49999900  0.58675238  0.63980310  1
  O  O8  1  0.00000000  0.02440309  0.32957032  1
  O  O9  1  0.49999900  0.97559691  0.82957032  1
  Na  Na10  1  0.00000000  0.37270946  0.50309503  1
  Na  Na11  1  0.49999900  0.62729154  0.00309603  1
  V  V12  1  0.00000000  0.09452069  0.15889820  1
  V  V13  1  0.49999900  0.90547931  0.65889920  1
  V  V14  1  0.00000000  0.10500553  0.85756178  1
  V  V15  1  0.49999900  0.89499247  0.35756178  1
