# generated using pymatgen
data_BaMo3O10
_symmetry_space_group_name_H-M   'P 1'
_cell_length_a   7.32193435
_cell_length_b   7.69798933
_cell_length_c   15.03658624
_cell_angle_alpha   90.00000000
_cell_angle_beta   101.07905580
_cell_angle_gamma   90.00000000
_symmetry_Int_Tables_number   1
_chemical_formula_structural   BaMo3O10
_chemical_formula_sum   'Ba4 Mo12 O40'
_cell_volume   831.72939966
_cell_formula_units_Z   4
loop_
 _symmetry_equiv_pos_site_id
 _symmetry_equiv_pos_as_xyz
  1  'x, y, z'
loop_
 _atom_site_type_symbol
 _atom_site_label
 _atom_site_symmetry_multiplicity
 _atom_site_fract_x
 _atom_site_fract_y
 _atom_site_fract_z
 _atom_site_occupancy
  O  O0  1  0.62629498  0.00909417  0.44115291  1
  O  O1  1  0.37370502  0.50909417  0.55884709  1
  O  O2  1  0.87412504  0.23522797  0.05873705  1
  O  O3  1  0.12587496  0.73522797  0.94126295  1
  O  O4  1  0.53756607  0.48351457  0.74236007  1
  O  O5  1  0.46243393  0.98351457  0.25763993  1
  O  O6  1  0.25071961  0.50830296  0.82092631  1
  O  O7  1  0.74928039  0.00830296  0.17907369  1
  O  O8  1  0.79228487  0.51357645  0.91402890  1
  O  O9  1  0.20771513  0.01357645  0.08597110  1
  O  O10  1  0.73117061  0.48472971  0.16138254  1
  O  O11  1  0.26882939  0.98472971  0.83861746  1
  O  O12  1  0.41687941  0.49351266  0.25966283  1
  O  O13  1  0.58312059  0.99351266  0.74033717  1
  O  O14  1  0.20443328  0.47034248  0.08799927  1
  O  O15  1  0.79556672  0.97034248  0.91200073  1
  O  O16  1  0.97177765  0.00834646  0.62874954  1
  O  O17  1  0.02822235  0.50834646  0.37125046  1
  O  O18  1  0.99103864  0.00348503  0.36460761  1
  O  O19  1  0.00896136  0.50348503  0.63539239  1
  O  O20  1  0.01469809  0.75881030  0.50753017  1
  O  O21  1  0.98530191  0.25881030  0.49246983  1
  O  O22  1  0.70481279  0.27512311  0.58743588  1
  O  O23  1  0.29518721  0.77512311  0.41256412  1
  O  O24  1  0.91571675  0.25136253  0.75952836  1
  O  O25  1  0.08428325  0.75136253  0.24047164  1
  O  O26  1  0.23079929  0.26044672  0.66188877  1
  O  O27  1  0.76920071  0.76044672  0.33811123  1
  O  O28  1  0.70680928  0.73155217  0.58659854  1
  O  O29  1  0.29319072  0.23155217  0.41340146  1
  O  O30  1  0.24880030  0.73702695  0.67882074  1
  O  O31  1  0.75119970  0.23702695  0.32117926  1
  O  O32  1  0.96212494  0.76167716  0.75778364  1
  O  O33  1  0.03787506  0.26167716  0.24221636  1
  O  O34  1  0.52785826  0.23654068  0.87121831  1
  O  O35  1  0.47214174  0.73654068  0.12878169  1
  O  O36  1  0.49073438  0.74162289  0.86473846  1
  O  O37  1  0.50926562  0.24162289  0.13526154  1
  O  O38  1  0.48314598  0.48552664  0.99222697  1
  O  O39  1  0.51685402  0.98552664  0.00777303  1
  Mo  Mo40  1  0.31344418  0.49517240  0.66517283  1
  Mo  Mo41  1  0.68655582  0.99517240  0.33482717  1
  Mo  Mo42  1  0.81387156  0.25014954  0.16502491  1
  Mo  Mo43  1  0.18612844  0.75014954  0.83497509  1
  Mo  Mo44  1  0.44955082  0.97980827  0.11536736  1
  Mo  Mo45  1  0.55044918  0.47980827  0.88463264  1
  Mo  Mo46  1  0.56256355  0.98923055  0.85358381  1
  Mo  Mo47  1  0.43743645  0.48923055  0.14641619  1
  Mo  Mo48  1  0.05123226  0.26498499  0.38459329  1
  Mo  Mo49  1  0.94876774  0.76498499  0.61540671  1
  Mo  Mo50  1  0.93739493  0.25560564  0.64643115  1
  Mo  Mo51  1  0.06260507  0.75560564  0.35356885  1
  Ba  Ba52  1  0.39892743  0.99191433  0.56815355  1
  Ba  Ba53  1  0.60107257  0.49191433  0.43184645  1
  Ba  Ba54  1  0.89918390  0.75431270  0.06826243  1
  Ba  Ba55  1  0.10081610  0.25431270  0.93173757  1
