# generated using pymatgen
data_Ag3AsSe3
_symmetry_space_group_name_H-M   'P 1'
_cell_length_a   7.30856494
_cell_length_b   7.30856494
_cell_length_c   7.30856494
_cell_angle_alpha   103.28571913
_cell_angle_beta   103.28571911
_cell_angle_gamma   103.28571911
_symmetry_Int_Tables_number   1
_chemical_formula_structural   Ag3AsSe3
_chemical_formula_sum   'Ag6 As2 Se6'
_cell_volume   352.92730544
_cell_formula_units_Z   2
loop_
 _symmetry_equiv_pos_site_id
 _symmetry_equiv_pos_as_xyz
  1  'x, y, z'
loop_
 _atom_site_type_symbol
 _atom_site_label
 _atom_site_symmetry_multiplicity
 _atom_site_fract_x
 _atom_site_fract_y
 _atom_site_fract_z
 _atom_site_occupancy
  As  As0  1  0.50305482  0.50305482  0.50305482  1
  As  As1  1  0.00305482  0.00305482  0.00305482  1
  Se  Se2  1  0.77633732  0.75765740  0.09234239  1
  Se  Se3  1  0.75765740  0.09234239  0.77633732  1
  Se  Se4  1  0.27633732  0.59234239  0.25765740  1
  Se  Se5  1  0.59234239  0.25765740  0.27633732  1
  Se  Se6  1  0.25765740  0.27633732  0.59234239  1
  Se  Se7  1  0.09234239  0.77633732  0.75765740  1
  Ag  Ag8  1  0.98082817  0.41367978  0.75990012  1
  Ag  Ag9  1  0.41367978  0.75990012  0.98082817  1
  Ag  Ag10  1  0.75990012  0.98082817  0.41367978  1
  Ag  Ag11  1  0.25990012  0.91367978  0.48082817  1
  Ag  Ag12  1  0.91367978  0.48082817  0.25990012  1
  Ag  Ag13  1  0.48082817  0.25990012  0.91367978  1
