# generated using pymatgen
data_Tl9SbSe6
_symmetry_space_group_name_H-M   'P 1'
_cell_length_a   16.78266016
_cell_length_b   11.86713280
_cell_length_c   14.44381246
_cell_angle_alpha   90.00000000
_cell_angle_beta   90.00000000
_cell_angle_gamma   45.00000000
_symmetry_Int_Tables_number   1
_chemical_formula_structural   Tl9SbSe6
_chemical_formula_sum   'Tl36 Sb4 Se24'
_cell_volume   2034.10536777
_cell_formula_units_Z   4
loop_
 _symmetry_equiv_pos_site_id
 _symmetry_equiv_pos_as_xyz
  1  'x, y, z'
loop_
 _atom_site_type_symbol
 _atom_site_label
 _atom_site_symmetry_multiplicity
 _atom_site_fract_x
 _atom_site_fract_y
 _atom_site_fract_z
 _atom_site_occupancy
  Tl  Tl0  1  0.00135838  0.14914046  0.60733718  1
  Tl  Tl1  1  0.03500149  0.32690101  0.11434667  1
  Tl  Tl2  1  0.15010529  0.32953262  0.59631223  1
  Tl  Tl3  1  0.02231340  0.61015931  0.39947933  1
  Tl  Tl4  1  0.15966979  0.34558814  0.89614169  1
  Tl  Tl5  1  0.34305778  0.14572465  0.10571469  1
  Tl  Tl6  1  0.36752729  0.15478611  0.39947933  1
  Tl  Tl7  1  0.00525792  0.83507329  0.89614169  1
  Tl  Tl8  1  0.25000000  0.50000000  0.68798381  1
  Tl  Tl9  1  0.49474208  0.16492671  0.89614169  1
  Tl  Tl10  1  0.13247271  0.84521389  0.39947933  1
  Tl  Tl11  1  0.52036209  0.12974220  0.59631223  1
  Tl  Tl12  1  0.15694222  0.85427535  0.10571469  1
  Tl  Tl13  1  0.34033021  0.65441186  0.89614169  1
  Tl  Tl14  1  0.47768660  0.38984069  0.39947933  1
  Tl  Tl15  1  0.34989471  0.67046738  0.59631223  1
  Tl  Tl16  1  0.51121758  0.33184120  0.10571469  1
  Tl  Tl17  1  0.25000000  -0.00000000  0.33098961  1
  Tl  Tl18  1  0.46499851  0.67309899  0.11434667  1
  Tl  Tl19  1  0.65049884  0.34814277  0.60733718  1
  Tl  Tl20  1  0.53555033  0.62399075  0.37980406  1
  Tl  Tl21  1  0.63803168  0.35525566  0.90508909  1
  Tl  Tl22  1  0.86190350  0.10309501  0.11434667  1
  Tl  Tl23  1  0.49864162  0.85085954  0.60733718  1
  Tl  Tl24  1  0.84045892  0.19509141  0.37980406  1
  Tl  Tl25  1  0.49328734  0.86868098  0.90508909  1
  Tl  Tl26  1  0.75000000  0.50000000  0.16966959  1
  Tl  Tl27  1  0.00671266  0.13131902  0.90508909  1
  Tl  Tl28  1  0.65954108  0.80490859  0.37980406  1
  Tl  Tl29  1  0.63809650  0.89690499  0.11434667  1
  Tl  Tl30  1  0.86196832  0.64474434  0.90508909  1
  Tl  Tl31  1  0.96444967  0.37600925  0.37980406  1
  Tl  Tl32  1  0.84950116  0.65185723  0.60733718  1
  Tl  Tl33  1  0.75000000  -0.00000000  0.33098961  1
  Tl  Tl34  1  0.98878242  0.66815880  0.10571469  1
  Tl  Tl35  1  0.97963791  0.87025780  0.59631223  1
  Sb  Sb36  1  0.25000000  -0.00000000  0.75909218  1
  Sb  Sb37  1  0.25000000  0.50000000  0.23865879  1
  Sb  Sb38  1  0.75000000  -0.00000000  0.75909218  1
  Sb  Sb39  1  0.75000000  0.50000000  0.76921853  1
  Se  Se40  1  0.99957676  0.32685222  0.76132225  1
  Se  Se41  1  0.25000000  -0.00000000  0.95137316  1
  Se  Se42  1  0.17339724  0.34213475  0.25734614  1
  Se  Se43  1  0.33123579  0.14999263  0.74693801  1
  Se  Se44  1  0.01553100  0.81107176  0.25734614  1
  Se  Se45  1  0.25000000  0.50000000  0.47235449  1
  Se  Se46  1  0.25000000  0.50000000  0.05460589  1
  Se  Se47  1  0.48446900  0.18892824  0.25734614  1
  Se  Se48  1  0.16876421  0.85000737  0.74693801  1
  Se  Se49  1  0.32660276  0.65786525  0.25734614  1
  Se  Se50  1  0.51877158  0.31246521  0.74693801  1
  Se  Se51  1  0.75000000  -0.00000000  0.95137316  1
  Se  Se52  1  0.25000000  -0.00000000  0.55110604  1
  Se  Se53  1  0.50042324  0.67314778  0.76132225  1
  Se  Se54  1  0.65875881  0.34636401  0.23307680  1
  Se  Se55  1  0.82642899  0.17399525  0.76132225  1
  Se  Se56  1  0.50512282  0.83611838  0.23307680  1
  Se  Se57  1  0.75000000  0.50000000  0.46669404  1
  Se  Se58  1  0.75000000  0.50000000  0.94406127  1
  Se  Se59  1  0.99487718  0.16388162  0.23307680  1
  Se  Se60  1  0.67357101  0.82600475  0.76132225  1
  Se  Se61  1  0.84124119  0.65363599  0.23307680  1
  Se  Se62  1  0.75000000  -0.00000000  0.55110604  1
  Se  Se63  1  0.98122842  0.68753479  0.74693801  1
