# generated using pymatgen
data_Na4Sn3O8
_symmetry_space_group_name_H-M   'P 1'
_cell_length_a   9.35391867
_cell_length_b   9.35391867
_cell_length_c   9.35391867
_cell_angle_alpha   90.00000000
_cell_angle_beta   90.00000000
_cell_angle_gamma   90.00000000
_symmetry_Int_Tables_number   1
_chemical_formula_structural   Na4Sn3O8
_chemical_formula_sum   'Na16 Sn12 O32'
_cell_volume   818.42854558
_cell_formula_units_Z   4
loop_
 _symmetry_equiv_pos_site_id
 _symmetry_equiv_pos_as_xyz
  1  'x, y, z'
loop_
 _atom_site_type_symbol
 _atom_site_label
 _atom_site_symmetry_multiplicity
 _atom_site_fract_x
 _atom_site_fract_y
 _atom_site_fract_z
 _atom_site_occupancy
  Na  Na0  1  0.10589020  0.87500000  0.64410980  1
  Na  Na1  1  0.12500000  0.14410980  0.39410980  1
  Na  Na2  1  0.12500000  0.37500000  0.62500000  1
  Na  Na3  1  0.14410980  0.39410980  0.12500000  1
  Na  Na4  1  0.35589020  0.60589020  0.62500000  1
  Na  Na5  1  0.37500000  0.62500000  0.12500000  1
  Na  Na6  1  0.37500000  0.85589020  0.89410980  1
  Na  Na7  1  0.39410980  0.12500000  0.14410980  1
  Na  Na8  1  0.60589020  0.62500000  0.35589020  1
  Na  Na9  1  0.62500000  0.12500000  0.37500000  1
  Na  Na10  1  0.62500000  0.35589020  0.60589020  1
  Na  Na11  1  0.64410980  0.10589020  0.87500000  1
  Na  Na12  1  0.85589020  0.89410980  0.37500000  1
  Na  Na13  1  0.87500000  0.64410980  0.10589020  1
  Na  Na14  1  0.87500000  0.87500000  0.87500000  1
  Na  Na15  1  0.89410980  0.37500000  0.85589020  1
  O  O16  1  0.09084699  0.63415452  0.59595605  1
  O  O17  1  0.09595605  0.40915301  0.36584548  1
  O  O18  1  0.11584548  0.65915301  0.15404395  1
  O  O19  1  0.11938709  0.11938709  0.11938709  1
  O  O20  1  0.13061291  0.86938709  0.36938709  1
  O  O21  1  0.13415452  0.90404395  0.90915301  1
  O  O22  1  0.15404395  0.11584548  0.65915301  1
  O  O23  1  0.15915301  0.34595605  0.88415452  1
  O  O24  1  0.34084699  0.65404395  0.38415452  1
  O  O25  1  0.34595605  0.88415452  0.15915301  1
  O  O26  1  0.36584548  0.09595605  0.40915301  1
  O  O27  1  0.36938709  0.13061291  0.86938709  1
  O  O28  1  0.38061291  0.88061291  0.61938709  1
  O  O29  1  0.38415452  0.34084699  0.65404395  1
  O  O30  1  0.40404395  0.59084699  0.86584548  1
  O  O31  1  0.40915301  0.36584548  0.09595605  1
  O  O32  1  0.59084699  0.86584548  0.40404395  1
  O  O33  1  0.59595605  0.09084699  0.63415452  1
  O  O34  1  0.61584548  0.84084699  0.84595605  1
  O  O35  1  0.61938709  0.38061291  0.88061291  1
  O  O36  1  0.63061291  0.63061291  0.63061291  1
  O  O37  1  0.63415452  0.59595605  0.09084699  1
  O  O38  1  0.65404395  0.38415452  0.34084699  1
  O  O39  1  0.65915301  0.15404395  0.11584548  1
  O  O40  1  0.84084699  0.84595605  0.61584548  1
  O  O41  1  0.84595605  0.61584548  0.84084699  1
  O  O42  1  0.86584548  0.40404395  0.59084699  1
  O  O43  1  0.86938709  0.36938709  0.13061291  1
  O  O44  1  0.88061291  0.61938709  0.38061291  1
  O  O45  1  0.88415452  0.15915301  0.34595605  1
  O  O46  1  0.90404395  0.90915301  0.13415452  1
  O  O47  1  0.90915301  0.13415452  0.90404395  1
  Sn  Sn48  1  0.11752808  0.63247192  0.37500000  1
  Sn  Sn49  1  0.12500000  0.88247192  0.13247192  1
  Sn  Sn50  1  0.13247192  0.12500000  0.88247192  1
  Sn  Sn51  1  0.36752808  0.87500000  0.38247192  1
  Sn  Sn52  1  0.37500000  0.11752808  0.63247192  1
  Sn  Sn53  1  0.38247192  0.36752808  0.87500000  1
  Sn  Sn54  1  0.61752808  0.86752808  0.62500000  1
  Sn  Sn55  1  0.62500000  0.61752808  0.86752808  1
  Sn  Sn56  1  0.63247192  0.37500000  0.11752808  1
  Sn  Sn57  1  0.86752808  0.62500000  0.61752808  1
  Sn  Sn58  1  0.87500000  0.38247192  0.36752808  1
  Sn  Sn59  1  0.88247192  0.13247192  0.12500000  1
