# generated using pymatgen
data_Sr2PrGaCu2O7
_symmetry_space_group_name_H-M   'P 1'
_cell_length_a   5.47978628
_cell_length_b   5.60804074
_cell_length_c   12.30198514
_cell_angle_alpha   103.17488624
_cell_angle_beta   102.86914160
_cell_angle_gamma   89.99916654
_symmetry_Int_Tables_number   1
_chemical_formula_structural   Sr2PrGaCu2O7
_chemical_formula_sum   'Sr4 Pr2 Ga2 Cu4 O14'
_cell_volume   358.34048253
_cell_formula_units_Z   2
loop_
 _symmetry_equiv_pos_site_id
 _symmetry_equiv_pos_as_xyz
  1  'x, y, z'
loop_
 _atom_site_type_symbol
 _atom_site_label
 _atom_site_symmetry_multiplicity
 _atom_site_fract_x
 _atom_site_fract_y
 _atom_site_fract_z
 _atom_site_occupancy
  Pr  Pr0  1  0.50082701  0.50006491  0.99999874  1
  Pr  Pr1  1  0.00079693  1.00007309  1.00000606  1
  Sr  Sr2  1  0.34507012  0.36662114  0.69413279  1
  Sr  Sr3  1  0.65094032  0.63338661  0.30590335  1
  Sr  Sr4  1  0.84504391  0.82743355  0.69414855  1
  Sr  Sr5  1  0.15095459  0.17259111  0.30591204  1
  Cu  Cu6  1  0.92534356  0.42248104  0.84774237  1
  Cu  Cu7  1  0.07750346  0.57740219  0.15203652  1
  Cu  Cu8  1  0.42533171  0.92507148  0.84779006  1
  Cu  Cu9  1  0.57764589  0.07497651  0.15235317  1
  Ga  Ga10  1  0.71489735  0.17924714  0.50001824  1
  Ga  Ga11  1  0.21492830  0.82074837  0.50005229  1
  O  O12  1  0.86693576  0.87131752  0.50003741  1
  O  O13  1  0.36694758  0.12873922  0.50004063  1
  O  O14  1  0.18211778  0.18024490  0.86205355  1
  O  O15  1  0.32001086  0.81969041  0.13788574  1
  O  O16  1  0.68199369  0.18153885  0.86204680  1
  O  O17  1  0.81996580  0.81835677  0.13790078  1
  O  O18  1  0.68478268  0.68281738  0.86831000  1
  O  O19  1  0.81653552  0.31723258  0.13163681  1
  O  O20  1  0.18480544  0.68545005  0.86831587  1
  O  O21  1  0.31650943  0.31460213  0.13162864  1
  O  O22  1  0.35331173  0.77403202  0.64461598  1
  O  O23  1  0.70863781  0.22586944  0.35538221  1
  O  O24  1  0.85336406  0.37057800  0.64455279  1
  O  O25  1  0.20879871  0.62943361  0.35549863  1
