# generated using pymatgen
data_Hg9(AsO4)4
_symmetry_space_group_name_H-M   'P 1'
_cell_length_a   10.57428545
_cell_length_b   10.57428548
_cell_length_c   10.57428523
_cell_angle_alpha   108.37493958
_cell_angle_beta   108.37493967
_cell_angle_gamma   108.37494455
_symmetry_Int_Tables_number   1
_chemical_formula_structural   Hg9(AsO4)4
_chemical_formula_sum   'Hg18 As8 O32'
_cell_volume   945.32714346
_cell_formula_units_Z   2
loop_
 _symmetry_equiv_pos_site_id
 _symmetry_equiv_pos_as_xyz
  1  'x, y, z'
loop_
 _atom_site_type_symbol
 _atom_site_label
 _atom_site_symmetry_multiplicity
 _atom_site_fract_x
 _atom_site_fract_y
 _atom_site_fract_z
 _atom_site_occupancy
  Hg  Hg0  1  0.40255631  0.45196367  0.18136856  1
  Hg  Hg1  1  0.18136856  0.40255631  0.45196367  1
  Hg  Hg2  1  0.45196367  0.18136856  0.40255631  1
  Hg  Hg3  1  0.95196367  0.90255631  0.68136856  1
  Hg  Hg4  1  0.68136856  0.95196367  0.90255631  1
  Hg  Hg5  1  0.90255631  0.68136856  0.95196367  1
  Hg  Hg6  1  0.19684163  0.27384136  0.64103449  1
  Hg  Hg7  1  0.64103449  0.19684163  0.27384136  1
  Hg  Hg8  1  0.27384136  0.64103449  0.19684163  1
  Hg  Hg9  1  0.77384136  0.69684163  0.14103449  1
  Hg  Hg10  1  0.14103449  0.77384136  0.69684163  1
  Hg  Hg11  1  0.69684163  0.14103449  0.77384136  1
  Hg  Hg12  1  0.35145849  0.96617085  0.10851309  1
  Hg  Hg13  1  0.10851309  0.35145849  0.96617085  1
  Hg  Hg14  1  0.96617085  0.10851309  0.35145849  1
  Hg  Hg15  1  0.46617085  0.85145849  0.60851309  1
  Hg  Hg16  1  0.60851309  0.46617085  0.85145849  1
  Hg  Hg17  1  0.85145849  0.60851309  0.46617085  1
  As  As18  1  0.38276900  0.16487426  0.88485498  1
  As  As19  1  0.88485498  0.38276900  0.16487426  1
  As  As20  1  0.16487426  0.88485498  0.38276900  1
  As  As21  1  0.66487426  0.88276900  0.38485498  1
  As  As22  1  0.38485498  0.66487426  0.88276900  1
  As  As23  1  0.88276900  0.38485498  0.66487426  1
  As  As24  1  0.06255688  0.06255688  0.06255688  1
  As  As25  1  0.56255688  0.56255688  0.56255688  1
  O  O26  1  0.09619624  0.90921193  0.99407754  1
  O  O27  1  0.99407754  0.09619624  0.90921193  1
  O  O28  1  0.90921193  0.99407754  0.09619624  1
  O  O29  1  0.40921193  0.59619624  0.49407754  1
  O  O30  1  0.49407754  0.40921193  0.59619624  1
  O  O31  1  0.59619624  0.49407754  0.40921193  1
  O  O32  1  0.20905183  0.15104329  0.78243115  1
  O  O33  1  0.78243115  0.20905183  0.15104329  1
  O  O34  1  0.15104329  0.78243115  0.20905183  1
  O  O35  1  0.65104329  0.70905183  0.28243115  1
  O  O36  1  0.28243115  0.65104329  0.70905183  1
  O  O37  1  0.70905183  0.28243115  0.65104329  1
  O  O38  1  0.46340863  0.28094413  0.07455381  1
  O  O39  1  0.07455381  0.46340863  0.28094413  1
  O  O40  1  0.28094413  0.07455381  0.46340863  1
  O  O41  1  0.78094413  0.96340863  0.57455381  1
  O  O42  1  0.57455381  0.78094413  0.96340863  1
  O  O43  1  0.96340863  0.57455381  0.78094413  1
  O  O44  1  0.36181222  0.99143045  0.87503088  1
  O  O45  1  0.87503088  0.36181222  0.99143045  1
  O  O46  1  0.99143045  0.87503088  0.36181222  1
  O  O47  1  0.49143045  0.86181222  0.37503088  1
  O  O48  1  0.37503088  0.49143045  0.86181222  1
  O  O49  1  0.86181222  0.37503088  0.49143045  1
  O  O50  1  0.31081725  0.72478528  1.00037455  1
  O  O51  1  1.00037455  0.31081725  0.72478528  1
  O  O52  1  0.72478528  1.00037455  0.31081725  1
  O  O53  1  0.22478528  0.81081725  0.50037455  1
  O  O54  1  0.50037455  0.22478528  0.81081725  1
  O  O55  1  0.81081725  0.50037455  0.22478528  1
  O  O56  1  0.21480727  0.21480727  0.21480727  1
  O  O57  1  0.71480727  0.71480727  0.71480727  1
