# generated using pymatgen
data_Cu4Sn7S16
_symmetry_space_group_name_H-M   'P 1'
_cell_length_a   12.97221892
_cell_length_b   12.97221912
_cell_length_c   38.92708594
_cell_angle_alpha   33.30176542
_cell_angle_beta   33.30176407
_cell_angle_gamma   33.29464870
_symmetry_Int_Tables_number   1
_chemical_formula_structural   Cu4Sn7S16
_chemical_formula_sum   'Cu12 Sn21 S48'
_cell_volume   1757.95023119
_cell_formula_units_Z   3
loop_
 _symmetry_equiv_pos_site_id
 _symmetry_equiv_pos_as_xyz
  1  'x, y, z'
loop_
 _atom_site_type_symbol
 _atom_site_label
 _atom_site_symmetry_multiplicity
 _atom_site_fract_x
 _atom_site_fract_y
 _atom_site_fract_z
 _atom_site_occupancy
  Cu  Cu0  1  0.99828642  0.99828642  0.00121923  1
  Cu  Cu1  1  0.18794964  0.18794964  0.06284401  1
  Cu  Cu2  1  0.30094601  0.30094601  0.10015802  1
  Cu  Cu3  1  0.99978380  0.99978380  0.33320185  1
  Cu  Cu4  1  0.18828802  0.18828802  0.39598326  1
  Cu  Cu5  1  0.30057030  0.30057030  0.43376138  1
  Cu  Cu6  1  0.00201148  0.00201148  0.66567599  1
  Cu  Cu7  1  0.70905205  0.70905205  0.23649071  1
  Cu  Cu8  1  0.18824646  0.18824646  0.72939836  1
  Cu  Cu9  1  0.29170247  0.29170247  0.76368564  1
  Cu  Cu10  1  0.70910972  0.70910972  0.56974125  1
  Cu  Cu11  1  0.70917457  0.70917457  0.90287336  1
  S  S12  1  0.12463753  0.12463753  0.04148382  1
  S  S13  1  0.11866829  0.11866829  0.21346499  1
  S  S14  1  0.11857795  0.64147737  0.03937803  1
  S  S15  1  0.64147737  0.11857795  0.03937803  1
  S  S16  1  0.37457897  0.37457897  0.12487856  1
  S  S17  1  0.12457571  0.12457571  0.37484284  1
  S  S18  1  0.13249331  0.61988534  0.20660741  1
  S  S19  1  0.61984670  0.61984670  0.04413461  1
  S  S20  1  0.61988534  0.13249331  0.20660741  1
  S  S21  1  0.37986169  0.86586442  0.12670128  1
  S  S22  1  0.37999669  0.37999669  0.28860058  1
  S  S23  1  0.86586442  0.37986169  0.12670128  1
  S  S24  1  0.11814958  0.11814958  0.54734102  1
  S  S25  1  0.11862397  0.64060519  0.37289329  1
  S  S26  1  0.62324166  0.62324166  0.20768137  1
  S  S27  1  0.64060519  0.11862397  0.37289329  1
  S  S28  1  0.36011330  0.88336692  0.29455988  1
  S  S29  1  0.37454888  0.37454888  0.45822376  1
  S  S30  1  0.88336692  0.36011330  0.29455988  1
  S  S31  1  0.88324663  0.88324663  0.12031990  1
  S  S32  1  0.12456303  0.12456303  0.70823846  1
  S  S33  1  0.13229435  0.61990263  0.53995032  1
  S  S34  1  0.61990263  0.13229435  0.53995032  1
  S  S35  1  0.61980036  0.61980036  0.37752824  1
  S  S36  1  0.38031281  0.86611298  0.45974102  1
  S  S37  1  0.38010230  0.38010230  0.62175293  1
  S  S38  1  0.86611298  0.38031281  0.45974102  1
  S  S39  1  0.87688011  0.87688011  0.29234758  1
  S  S40  1  0.11862081  0.11862081  0.87914930  1
  S  S41  1  0.11819554  0.63868436  0.70603464  1
  S  S42  1  0.62287635  0.62287635  0.54114901  1
  S  S43  1  0.63868436  0.11819554  0.70603464  1
  S  S44  1  0.36012203  0.88311912  0.62800409  1
  S  S45  1  0.37546623  0.37546623  0.79185156  1
  S  S46  1  0.88311912  0.36012203  0.62800409  1
  S  S47  1  0.88334301  0.88334301  0.45351212  1
  S  S48  1  0.13191269  0.62038871  0.87350487  1
  S  S49  1  0.62038871  0.13191269  0.87350487  1
  S  S50  1  0.62043557  0.62043557  0.71062786  1
  S  S51  1  0.37958756  0.86541109  0.79342957  1
  S  S52  1  0.37959959  0.37959959  0.95545827  1
  S  S53  1  0.86541109  0.37958756  0.79342957  1
  S  S54  1  0.87716702  0.87716702  0.62506559  1
  S  S55  1  0.62324764  0.62324764  0.87415932  1
  S  S56  1  0.35984365  0.88393857  0.96108937  1
  S  S57  1  0.88393857  0.35984365  0.96108937  1
  S  S58  1  0.88381537  0.88381537  0.78645526  1
  S  S59  1  0.87608902  0.87608902  0.95936209  1
  Sn  Sn60  1  0.25005453  0.74786569  0.08325970  1
  Sn  Sn61  1  0.25004201  0.25004201  0.24920252  1
  Sn  Sn62  1  0.74786569  0.25005453  0.08325970  1
  Sn  Sn63  1  0.49757004  0.49757004  0.16585156  1
  Sn  Sn64  1  0.24539542  0.75459171  0.25155061  1
  Sn  Sn65  1  0.75457728  0.75457728  0.08180363  1
  Sn  Sn66  1  0.75459171  0.24539542  0.25155061  1
  Sn  Sn67  1  0.24979721  0.24979721  0.58271320  1
  Sn  Sn68  1  0.24989493  0.74759386  0.41672553  1
  Sn  Sn69  1  0.74759386  0.24989493  0.41672553  1
  Sn  Sn70  1  0.49738802  0.49738802  0.49926446  1
  Sn  Sn71  1  0.24500938  0.75544744  0.58448569  1
  Sn  Sn72  1  0.75462032  0.75462032  0.41517104  1
  Sn  Sn73  1  0.75544744  0.24500938  0.58448569  1
  Sn  Sn74  1  0.25068359  0.25068359  0.91554473  1
  Sn  Sn75  1  0.25042945  0.74695779  0.75023629  1
  Sn  Sn76  1  0.74695779  0.25042945  0.75023629  1
  Sn  Sn77  1  0.49763099  0.49763099  0.83239427  1
  Sn  Sn78  1  0.24515227  0.75358428  0.91845317  1
  Sn  Sn79  1  0.75438025  0.75438025  0.74817602  1
  Sn  Sn80  1  0.75358428  0.24515227  0.91845317  1
