# generated using pymatgen
data_LiMn(PO3)4
_symmetry_space_group_name_H-M   'P 1'
_cell_length_a   7.23291715
_cell_length_b   7.23269926
_cell_length_c   10.12318685
_cell_angle_alpha   81.95635568
_cell_angle_beta   69.66344765
_cell_angle_gamma   108.52669577
_symmetry_Int_Tables_number   1
_chemical_formula_structural   LiMn(PO3)4
_chemical_formula_sum   'Li2 Mn2 P8 O24'
_cell_volume   451.78250675
_cell_formula_units_Z   2
loop_
 _symmetry_equiv_pos_site_id
 _symmetry_equiv_pos_as_xyz
  1  'x, y, z'
loop_
 _atom_site_type_symbol
 _atom_site_label
 _atom_site_symmetry_multiplicity
 _atom_site_fract_x
 _atom_site_fract_y
 _atom_site_fract_z
 _atom_site_occupancy
  Li  Li0  1  0.22445745  0.97444017  0.74998808  1
  Li  Li1  1  0.77555991  0.02556400  0.25000910  1
  O  O2  1  0.57795927  0.78764745  0.93029165  1
  O  O3  1  0.88782254  0.19098543  0.43390989  1
  O  O4  1  0.03125583  0.66644336  0.16003473  1
  O  O5  1  0.11218311  0.80902051  0.56609191  1
  O  O6  1  0.18736370  0.66616760  0.34631716  1
  O  O7  1  0.50105872  0.84620098  0.40519149  1
  O  O8  1  0.28382379  0.69608316  0.84373846  1
  O  O9  1  0.12488587  0.32170625  0.06608850  1
  O  O10  1  0.21791018  0.50820833  0.56969623  1
  O  O11  1  0.75138071  0.90627485  0.09481948  1
  O  O12  1  0.96875139  0.33354995  0.83995688  1
  O  O13  1  0.67355845  0.80871411  0.66004835  1
  O  O14  1  0.51247159  0.53369412  0.15367109  1
  O  O15  1  0.03985983  0.12754702  0.65624762  1
  O  O16  1  0.96014415  0.87245725  0.34375815  1
  O  O17  1  0.48754636  0.46631222  0.84632341  1
  O  O18  1  0.81264983  0.33383974  0.65368022  1
  O  O19  1  0.42206511  0.21236478  0.06970087  1
  O  O20  1  0.24863692  0.09373404  0.90517216  1
  O  O21  1  0.78210258  0.49179803  0.43030360  1
  O  O22  1  0.87511249  0.67829661  0.93390379  1
  O  O23  1  0.71616186  0.30390302  0.15626636  1
  O  O24  1  0.49895331  0.15380397  0.59480861  1
  O  O25  1  0.32643866  0.19128264  0.33995877  1
  P  P26  1  0.73114296  0.27202676  0.52908191  1
  P  P27  1  0.99237427  0.68159133  0.31109797  1
  P  P28  1  0.26886433  0.72798938  0.47091189  1
  P  P29  1  0.00764292  0.31842486  0.68888789  1
  P  P30  1  0.69890590  0.73980559  0.02909370  1
  P  P31  1  0.30109355  0.26019734  0.97090376  1
  P  P32  1  0.49263958  0.30347042  0.18889418  1
  P  P33  1  0.50734280  0.69652479  0.81111233  1
  Mn  Mn34  1  0.99993386  0.49995389  0.99999557  1
  Mn  Mn35  1  0.99995021  0.99998203  0.50004524  1
