# generated using pymatgen
data_K2Zn6O7
_symmetry_space_group_name_H-M   'P 1'
_cell_length_a   3.37145057
_cell_length_b   11.03669482
_cell_length_c   11.03669482
_cell_angle_alpha   90.00000000
_cell_angle_beta   90.00000000
_cell_angle_gamma   90.00000000
_symmetry_Int_Tables_number   1
_chemical_formula_structural   K2Zn6O7
_chemical_formula_sum   'K4 Zn12 O14'
_cell_volume   410.67178364
_cell_formula_units_Z   2
loop_
 _symmetry_equiv_pos_site_id
 _symmetry_equiv_pos_as_xyz
  1  'x, y, z'
loop_
 _atom_site_type_symbol
 _atom_site_label
 _atom_site_symmetry_multiplicity
 _atom_site_fract_x
 _atom_site_fract_y
 _atom_site_fract_z
 _atom_site_occupancy
  K  K0  1  0.62942175  0.35965328  0.35965328  1
  K  K1  1  0.12942175  0.14034672  0.85965328  1
  K  K2  1  0.12942175  0.85965328  0.14034672  1
  K  K3  1  0.62942175  0.64034672  0.64034672  1
  Zn  Zn4  1  0.13754517  0.34834711  0.08744996  1
  Zn  Zn5  1  0.63754517  0.41255004  0.84834711  1
  Zn  Zn6  1  0.63754517  0.58744996  0.15165289  1
  Zn  Zn7  1  0.13754517  0.65165289  0.91255004  1
  Zn  Zn8  1  0.63754517  0.15165289  0.58744996  1
  Zn  Zn9  1  0.63754517  0.84834711  0.41255004  1
  Zn  Zn10  1  0.13754517  0.91255004  0.65165289  1
  Zn  Zn11  1  0.13754517  0.08744996  0.34834711  1
  Zn  Zn12  1  0.63708818  0.12118555  0.12118555  1
  Zn  Zn13  1  0.13708818  0.37881445  0.62118555  1
  Zn  Zn14  1  0.13708818  0.62118555  0.37881445  1
  Zn  Zn15  1  0.63708818  0.87881445  0.87881445  1
  O  O16  1  0.63758159  0.31256218  0.99617852  1
  O  O17  1  0.13758159  0.50382148  0.81256218  1
  O  O18  1  0.13758159  0.49617852  0.18743782  1
  O  O19  1  0.63758159  0.68743782  0.00382148  1
  O  O20  1  0.13758159  0.18743782  0.49617852  1
  O  O21  1  0.13758159  0.81256218  0.50382148  1
  O  O22  1  0.63758159  0.00382148  0.68743782  1
  O  O23  1  0.63758159  0.99617852  0.31256218  1
  O  O24  1  0.13592882  0.19181460  0.19181460  1
  O  O25  1  0.63592882  0.30818540  0.69181460  1
  O  O26  1  0.63592882  0.69181460  0.30818540  1
  O  O27  1  0.13592882  0.80818540  0.80818540  1
  O  O28  1  0.62061547  0.00000000  0.00000000  1
  O  O29  1  0.12061547  0.50000000  0.50000000  1
