# generated using pymatgen
data_Li9Mn2Co5O16
_symmetry_space_group_name_H-M   'P 1'
_cell_length_a   2.91951223
_cell_length_b   8.37166539
_cell_length_c   11.91581700
_cell_angle_alpha   89.70516806
_cell_angle_beta   90.00000000
_cell_angle_gamma   90.00000000
_symmetry_Int_Tables_number   1
_chemical_formula_structural   Li9Mn2Co5O16
_chemical_formula_sum   'Li9 Mn2 Co5 O16'
_cell_volume   291.23276622
_cell_formula_units_Z   1
loop_
 _symmetry_equiv_pos_site_id
 _symmetry_equiv_pos_as_xyz
  1  'x, y, z'
loop_
 _atom_site_type_symbol
 _atom_site_label
 _atom_site_symmetry_multiplicity
 _atom_site_fract_x
 _atom_site_fract_y
 _atom_site_fract_z
 _atom_site_occupancy
  Li  Li0  1  0.50000000  0.25295766  0.13254374  1
  Li  Li1  1  0.50000000  0.75000000  0.37500000  1
  Li  Li2  1  0.50000000  0.24704234  0.61745626  1
  Li  Li3  1  0.00000000  0.50275922  0.00919751  1
  Li  Li4  1  -0.00000000  0.01144277  0.26300138  1
  Li  Li5  1  0.00000000  0.48855723  0.48699862  1
  Li  Li6  1  0.50000000  0.75000000  0.87500000  1
  Li  Li7  1  -0.00000000  0.99724078  0.74080249  1
  Li  Li8  1  0.50000000  0.25000000  0.37500000  1
  Mn  Mn9  1  -0.00000000  0.99820879  -0.00044782  1
  Mn  Mn10  1  0.00000000  0.50179121  0.75044782  1
  Co  Co11  1  0.00000000  0.47377163  0.25489721  1
  Co  Co12  1  -0.00000000  0.02622837  0.49510279  1
  Co  Co13  1  0.50000000  0.25000000  0.87500000  1
  Co  Co14  1  0.50000000  0.74278360  0.13229635  1
  Co  Co15  1  0.50000000  0.75721640  0.61770365  1
  O  O16  1  0.50000000  0.00116020  0.10741572  1
  O  O17  1  0.50000000  0.50302887  0.36384783  1
  O  O18  1  0.50000000  0.99291107  0.62070357  1
  O  O19  1  0.00000000  0.23056598  0.98990019  1
  O  O20  1  -0.00000000  0.75225927  0.23824995  1
  O  O21  1  -0.00000000  0.23976212  0.50367139  1
  O  O22  1  0.50000000  0.50727017  0.86159300  1
  O  O23  1  0.00000000  0.73473455  0.74108210  1
  O  O24  1  0.50000000  0.50708893  0.12929643  1
  O  O25  1  0.50000000  -0.00302887  0.38615217  1
  O  O26  1  0.50000000  0.49883980  0.64258428  1
  O  O27  1  -0.00000000  0.76526545  0.00891790  1
  O  O28  1  0.00000000  0.26023788  0.24632861  1
  O  O29  1  0.00000000  0.74774073  0.51175005  1
  O  O30  1  0.50000000  -0.00727017  0.88840700  1
  O  O31  1  -0.00000000  0.26943402  0.76009981  1
