# generated using pymatgen
data_LaTa3O9
_symmetry_space_group_name_H-M   'P 1'
_cell_length_a   6.62099896
_cell_length_b   7.75428761
_cell_length_c   12.67823496
_cell_angle_alpha   90.00000000
_cell_angle_beta   90.00000000
_cell_angle_gamma   90.00000000
_symmetry_Int_Tables_number   1
_chemical_formula_structural   LaTa3O9
_chemical_formula_sum   'La4 Ta12 O36'
_cell_volume   650.91491180
_cell_formula_units_Z   4
loop_
 _symmetry_equiv_pos_site_id
 _symmetry_equiv_pos_as_xyz
  1  'x, y, z'
loop_
 _atom_site_type_symbol
 _atom_site_label
 _atom_site_symmetry_multiplicity
 _atom_site_fract_x
 _atom_site_fract_y
 _atom_site_fract_z
 _atom_site_occupancy
  O  O0  1  0.20651685  0.75000000  0.70156983  1
  O  O1  1  0.70651685  0.75000000  0.79843017  1
  O  O2  1  0.79348315  0.25000000  0.29843017  1
  O  O3  1  0.29348315  0.25000000  0.20156983  1
  O  O4  1  0.80982785  0.75000000  0.31805426  1
  O  O5  1  0.30982785  0.75000000  0.18194574  1
  O  O6  1  0.19017215  0.25000000  0.68194574  1
  O  O7  1  0.69017215  0.25000000  0.81805426  1
  O  O8  1  0.56288743  0.75000000  0.51960910  1
  O  O9  1  0.06288743  0.75000000  0.98039090  1
  O  O10  1  0.43711257  0.25000000  0.48039090  1
  O  O11  1  0.93711257  0.25000000  0.01960910  1
  O  O12  1  0.09131664  0.47952201  0.33307930  1
  O  O13  1  0.59131664  0.02047799  0.16692070  1
  O  O14  1  0.90868336  0.97952201  0.66692070  1
  O  O15  1  0.40868336  0.52047799  0.83307930  1
  O  O16  1  0.28586776  0.47312628  0.04183130  1
  O  O17  1  0.78586776  0.02687372  0.45816870  1
  O  O18  1  0.71413224  0.97312628  0.95816870  1
  O  O19  1  0.21413224  0.52687372  0.54183130  1
  O  O20  1  0.71413224  0.52687372  0.95816870  1
  O  O21  1  0.21413224  0.97312628  0.54183130  1
  O  O22  1  0.28586776  0.02687372  0.04183130  1
  O  O23  1  0.78586776  0.47312628  0.45816870  1
  O  O24  1  0.02632619  0.46868286  0.84371864  1
  O  O25  1  0.52632619  0.03131714  0.65628136  1
  O  O26  1  0.97367381  0.96868286  0.15628136  1
  O  O27  1  0.47367381  0.53131714  0.34371864  1
  O  O28  1  0.97367381  0.53131714  0.15628136  1
  O  O29  1  0.47367381  0.96868286  0.34371864  1
  O  O30  1  0.02632619  0.03131714  0.84371864  1
  O  O31  1  0.52632619  0.46868286  0.65628136  1
  O  O32  1  0.59131664  0.47952201  0.16692070  1
  O  O33  1  0.09131664  0.02047799  0.33307930  1
  O  O34  1  0.40868336  0.97952201  0.83307930  1
  O  O35  1  0.90868336  0.52047799  0.66692070  1
  La  La36  1  0.05072133  0.25000000  0.47323344  1
  La  La37  1  0.55072133  0.25000000  0.02676656  1
  La  La38  1  0.94927867  0.75000000  0.52676656  1
  La  La39  1  0.44927867  0.75000000  0.97323344  1
  Ta  Ta40  1  0.78329086  0.50206454  0.28453755  1
  Ta  Ta41  1  0.28329086  0.99793546  0.21546245  1
  Ta  Ta42  1  0.21670914  0.00206454  0.71546245  1
  Ta  Ta43  1  0.71670914  0.49793546  0.78453755  1
  Ta  Ta44  1  0.21670914  0.49793546  0.71546245  1
  Ta  Ta45  1  0.71670914  0.00206454  0.78453755  1
  Ta  Ta46  1  0.78329086  0.99793546  0.28453755  1
  Ta  Ta47  1  0.28329086  0.50206454  0.21546245  1
  Ta  Ta48  1  0.00000000  0.50000000  0.00000000  1
  Ta  Ta49  1  0.50000000  0.00000000  0.50000000  1
  Ta  Ta50  1  0.00000000  0.00000000  0.00000000  1
  Ta  Ta51  1  0.50000000  0.50000000  0.50000000  1
