# generated using pymatgen
data_Li14Ti21O48
_symmetry_space_group_name_H-M   'P 1'
_cell_length_a   5.97534065
_cell_length_b   5.97534095
_cell_length_c   35.80169277
_cell_angle_alpha   60.01329320
_cell_angle_beta   60.01329157
_cell_angle_gamma   60.01493887
_symmetry_Int_Tables_number   1
_chemical_formula_structural   Li14Ti21O48
_chemical_formula_sum   'Li14 Ti21 O48'
_cell_volume   904.17017718
_cell_formula_units_Z   1
loop_
 _symmetry_equiv_pos_site_id
 _symmetry_equiv_pos_as_xyz
  1  'x, y, z'
loop_
 _atom_site_type_symbol
 _atom_site_label
 _atom_site_symmetry_multiplicity
 _atom_site_fract_x
 _atom_site_fract_y
 _atom_site_fract_z
 _atom_site_occupancy
  Li  Li0  1  0.00345367  0.00345367  0.16514364  1
  Li  Li1  1  0.24776078  0.24776078  0.04251841  1
  Li  Li2  1  0.00249750  0.00249750  0.33216349  1
  Li  Li3  1  0.24835681  0.24835681  0.20904218  1
  Li  Li4  1  0.62555402  0.62555402  0.18718848  1
  Li  Li5  1  0.24756849  0.24756849  0.37614931  1
  Li  Li6  1  0.00263613  0.00263613  0.49880303  1
  Li  Li7  1  0.00161237  0.00161237  0.66770187  1
  Li  Li8  1  0.24427742  0.24427742  0.54375321  1
  Li  Li9  1  0.24585555  0.24585555  0.70922888  1
  Li  Li10  1  0.62485877  0.62485877  0.52144933  1
  Li  Li11  1  0.00430955  0.00430955  0.83221287  1
  Li  Li12  1  0.24974013  0.24974013  0.87368248  1
  Li  Li13  1  0.62523763  0.62523763  0.77063163  1
  Ti  Ti14  1  0.11251621  0.62577352  0.10615285  1
  Ti  Ti15  1  0.62577352  0.11251621  0.10615285  1
  Ti  Ti16  1  0.62174503  0.62174503  0.02126917  1
  Ti  Ti17  1  0.62536536  0.62536536  0.10599298  1
  Ti  Ti18  1  0.13616289  0.62575346  0.26872101  1
  Ti  Ti19  1  0.62575346  0.13616289  0.26872101  1
  Ti  Ti20  1  0.11377674  0.62436717  0.43958421  1
  Ti  Ti21  1  0.62581487  0.62581487  0.26870301  1
  Ti  Ti22  1  0.62436718  0.11377674  0.43958421  1
  Ti  Ti23  1  0.62494896  0.62494896  0.35419137  1
  Ti  Ti24  1  0.13606007  0.62593594  0.60148892  1
  Ti  Ti25  1  0.62425560  0.62425560  0.43962772  1
  Ti  Ti26  1  0.62593594  0.13606007  0.60148892  1
  Ti  Ti27  1  0.62394003  0.62394003  0.60367731  1
  Ti  Ti28  1  0.12696799  0.62578096  0.77032690  1
  Ti  Ti29  1  0.62578096  0.12696799  0.77032690  1
  Ti  Ti30  1  0.63305109  0.63305109  0.68983953  1
  Ti  Ti31  1  0.12205627  0.62620845  0.93860234  1
  Ti  Ti32  1  0.62620845  0.12205627  0.93860234  1
  Ti  Ti33  1  0.62117181  0.62117181  0.85015131  1
  Ti  Ti34  1  0.62607692  0.62607692  0.93698488  1
  O  O35  1  0.38961684  0.38961684  0.06468899  1
  O  O36  1  0.38971262  0.83125929  0.06479329  1
  O  O37  1  0.38609680  0.38609680  0.14031241  1
  O  O38  1  0.83125929  0.38971262  0.06479329  1
  O  O39  1  0.37503695  0.37503695  0.23513776  1
  O  O40  1  0.40929809  0.87534752  0.14008639  1
  O  O41  1  0.87534752  0.40929809  0.14008639  1
  O  O42  1  0.38744547  0.38744547  0.30628894  1
  O  O43  1  0.37515267  0.83873565  0.23509262  1
  O  O44  1  0.85838661  0.85838661  0.07082814  1
  O  O45  1  0.83873565  0.37515267  0.23509262  1
  O  O46  1  0.87522173  0.87522173  0.14017328  1
  O  O47  1  0.39039081  0.39039081  0.39774665  1
  O  O48  1  0.41741087  0.85961624  0.31055195  1
  O  O49  1  0.85961624  0.41741087  0.31055195  1
  O  O50  1  0.38621703  0.38621703  0.47359185  1
  O  O51  1  0.86357717  0.86357717  0.23485991  1
  O  O52  1  0.39039090  0.83259182  0.39777834  1
  O  O53  1  0.85964501  0.85964501  0.31058045  1
  O  O54  1  0.83259182  0.39039090  0.39777834  1
  O  O55  1  0.37561088  0.37561088  0.56809139  1
  O  O56  1  0.41108411  0.87497087  0.47324607  1
  O  O57  1  0.87497087  0.41108411  0.47324607  1
  O  O58  1  0.86252045  0.86252045  0.40206413  1
  O  O59  1  0.37386008  0.83743116  0.56869529  1
  O  O60  1  0.38726764  0.38726764  0.63923146  1
  O  O61  1  0.83743116  0.37386008  0.56869529  1
  O  O62  1  0.87506991  0.87506991  0.47321495  1
  O  O63  1  0.38882339  0.38882339  0.73028008  1
  O  O64  1  0.42284114  0.86255765  0.64201691  1
  O  O65  1  0.86255765  0.42284114  0.64201691  1
  O  O66  1  0.37761938  0.37761938  0.80521349  1
  O  O67  1  0.37915504  0.83992942  0.72826960  1
  O  O68  1  0.86590881  0.86590881  0.56738013  1
  O  O69  1  0.83992942  0.37915504  0.72826960  1
  O  O70  1  0.86252079  0.86252079  0.64333352  1
  O  O71  1  0.41008582  0.87043838  0.81302858  1
  O  O72  1  0.38693573  0.38693573  0.89835084  1
  O  O73  1  0.87043838  0.41008582  0.81302858  1
  O  O74  1  0.38647544  0.38647544  0.97327310  1
  O  O75  1  0.87255571  0.87255571  0.73624234  1
  O  O76  1  0.38536903  0.83201549  0.89956710  1
  O  O77  1  0.83201549  0.38536903  0.89956710  1
  O  O78  1  0.86020649  0.86020649  0.81144370  1
  O  O79  1  0.42389392  0.85930630  0.97651853  1
  O  O80  1  0.85930630  0.42389392  0.97651853  1
  O  O81  1  0.86322729  0.86322729  0.90196380  1
  O  O82  1  0.85972143  0.85972143  0.97656083  1
