# generated using pymatgen
data_Li9Mn2Co5O16
_symmetry_space_group_name_H-M   'P 1'
_cell_length_a   2.90570475
_cell_length_b   9.90544203
_cell_length_c   10.28144780
_cell_angle_alpha   83.92675483
_cell_angle_beta   89.99999963
_cell_angle_gamma   81.56588231
_symmetry_Int_Tables_number   1
_chemical_formula_structural   Li9Mn2Co5O16
_chemical_formula_sum   'Li9 Mn2 Co5 O16'
_cell_volume   291.04410125
_cell_formula_units_Z   1
loop_
 _symmetry_equiv_pos_site_id
 _symmetry_equiv_pos_as_xyz
  1  'x, y, z'
loop_
 _atom_site_type_symbol
 _atom_site_label
 _atom_site_symmetry_multiplicity
 _atom_site_fract_x
 _atom_site_fract_y
 _atom_site_fract_z
 _atom_site_occupancy
  Li  Li0  1  0.36565110  0.26869780  0.05603396  1
  Li  Li1  1  0.13434890  0.73130220  0.19396604  1
  Li  Li2  1  0.87019713  0.25960574  0.32327663  1
  Li  Li3  1  0.62738434  0.74523132  0.45528618  1
  Li  Li4  1  0.36633385  0.26733230  0.57171864  1
  Li  Li5  1  0.13366615  0.73266770  0.67828136  1
  Li  Li6  1  0.87261566  0.25476868  0.79471382  1
  Li  Li7  1  0.62980287  0.74039426  0.92672337  1
  Li  Li8  1  0.75000000  0.50000000  0.62500000  1
  Mn  Mn9  1  0.00101265  0.99797470  0.99858143  1
  Mn  Mn10  1  0.49898735  0.00202530  0.25141857  1
  Co  Co11  1  0.75000000  0.50000000  0.12500000  1
  Co  Co12  1  0.24626796  0.50746407  0.39194444  1
  Co  Co13  1  0.99906920  0.00186160  0.50581905  1
  Co  Co14  1  0.50093080  0.99813840  0.74418095  1
  Co  Co15  1  0.25373204  0.49253593  0.85805556  1
  O  O16  1  0.44579355  0.10841290  0.92161343  1
  O  O17  1  0.19677025  0.60645949  0.04236077  1
  O  O18  1  0.94668036  0.10663928  0.15657535  1
  O  O19  1  0.69647212  0.60705576  0.26970248  1
  O  O20  1  0.44315771  0.11368458  0.38886922  1
  O  O21  1  0.18854740  0.62290519  0.51650020  1
  O  O22  1  0.94068369  0.11863262  0.65682416  1
  O  O23  1  0.69101426  0.61797148  0.78990140  1
  O  O24  1  0.30322975  0.39354051  0.20763923  1
  O  O25  1  0.05420645  0.89158710  0.32838657  1
  O  O26  1  0.80898574  0.38202852  0.46009860  1
  O  O27  1  0.55931631  0.88136738  0.59317584  1
  O  O28  1  0.31145260  0.37709481  0.73349980  1
  O  O29  1  0.05684229  0.88631542  0.86113078  1
  O  O30  1  0.80352788  0.39294424  0.98029752  1
  O  O31  1  0.55331964  0.89336072  0.09342465  1
