# generated using pymatgen
data_ZnS
_symmetry_space_group_name_H-M   'P 1'
_cell_length_a   22.15738050
_cell_length_b   22.15738044
_cell_length_c   22.15738086
_cell_angle_alpha   9.99203065
_cell_angle_beta   9.99203147
_cell_angle_gamma   9.99203139
_symmetry_Int_Tables_number   1
_chemical_formula_structural   ZnS
_chemical_formula_sum   'Zn7 S7'
_cell_volume   284.34148341
_cell_formula_units_Z   7
loop_
 _symmetry_equiv_pos_site_id
 _symmetry_equiv_pos_as_xyz
  1  'x, y, z'
loop_
 _atom_site_type_symbol
 _atom_site_label
 _atom_site_symmetry_multiplicity
 _atom_site_fract_x
 _atom_site_fract_y
 _atom_site_fract_z
 _atom_site_occupancy
  Zn  Zn0  1  0.00001795  0.00001795  0.00001795  1
  Zn  Zn1  1  0.71428302  0.71428302  0.71428302  1
  Zn  Zn2  1  0.42856525  0.42856525  0.42856525  1
  Zn  Zn3  1  0.80953410  0.80953410  0.80953410  1
  Zn  Zn4  1  0.52382672  0.52382672  0.52382672  1
  Zn  Zn5  1  0.90477760  0.90477760  0.90477760  1
  Zn  Zn6  1  0.28571925  0.28571925  0.28571925  1
  S  S7  1  0.03570448  0.03570448  0.03570448  1
  S  S8  1  0.74996175  0.74996175  0.74996175  1
  S  S9  1  0.46427737  0.46427737  0.46427737  1
  S  S10  1  0.84523051  0.84523051  0.84523051  1
  S  S11  1  0.55954507  0.55954507  0.55954507  1
  S  S12  1  0.94044348  0.94044348  0.94044348  1
  S  S13  1  0.32144745  0.32144745  0.32144745  1
