# generated using pymatgen
data_Sm3Re2O9
_symmetry_space_group_name_H-M   'P 1'
_cell_length_a   5.56107532
_cell_length_b   6.88128722
_cell_length_c   10.94235550
_cell_angle_alpha   76.75367684
_cell_angle_beta   75.48355382
_cell_angle_gamma   68.71730608
_symmetry_Int_Tables_number   1
_chemical_formula_structural   Sm3Re2O9
_chemical_formula_sum   'Sm6 Re4 O18'
_cell_volume   373.26507134
_cell_formula_units_Z   2
loop_
 _symmetry_equiv_pos_site_id
 _symmetry_equiv_pos_as_xyz
  1  'x, y, z'
loop_
 _atom_site_type_symbol
 _atom_site_label
 _atom_site_symmetry_multiplicity
 _atom_site_fract_x
 _atom_site_fract_y
 _atom_site_fract_z
 _atom_site_occupancy
  Sm  Sm0  1  0.01347957  0.20989453  0.26903058  1
  Sm  Sm1  1  0.98652043  0.79010547  0.73096942  1
  Sm  Sm2  1  0.23326970  0.15225994  0.88427049  1
  Sm  Sm3  1  0.76673030  0.84774006  0.11572951  1
  Sm  Sm4  1  0.29996101  0.60526493  0.36971867  1
  Sm  Sm5  1  0.70003899  0.39473507  0.63028133  1
  Re  Re6  1  0.34547360  0.12690327  0.56774921  1
  Re  Re7  1  0.65452640  0.87309673  0.43225079  1
  Re  Re8  1  0.52002888  0.38674009  0.09329068  1
  Re  Re9  1  0.47997112  0.61325991  0.90670932  1
  O  O10  1  0.05760922  0.11677687  0.72104223  1
  O  O11  1  0.94239078  0.88322313  0.27895777  1
  O  O12  1  0.07196706  0.20794806  0.47435126  1
  O  O13  1  0.92803294  0.79205194  0.52564874  1
  O  O14  1  0.18679472  0.49313538  0.20201765  1
  O  O15  1  0.81320528  0.50686462  0.79798235  1
  O  O16  1  0.29019346  0.42216858  0.57664623  1
  O  O17  1  0.70980654  0.57783142  0.42335377  1
  O  O18  1  0.39455013  0.16713914  0.07276252  1
  O  O19  1  0.60544987  0.83286086  0.92723748  1
  O  O20  1  0.58646258  0.07664993  0.68806388  1
  O  O21  1  0.41353742  0.92335007  0.31193612  1
  O  O22  1  0.59625308  0.18967838  0.40173518  1
  O  O23  1  0.40374692  0.81032162  0.59826482  1
  O  O24  1  0.65865701  0.52721253  0.18121270  1
  O  O25  1  0.34134299  0.47278747  0.81878730  1
  O  O26  1  0.87200791  0.18763838  0.05976152  1
  O  O27  1  0.12799209  0.81236162  0.94023848  1
