# generated using pymatgen
data_AlPO4
_symmetry_space_group_name_H-M   'P 1'
_cell_length_a   9.46890537
_cell_length_b   9.46890477
_cell_length_c   18.78603322
_cell_angle_alpha   90.17848310
_cell_angle_beta   90.17848310
_cell_angle_gamma   85.55349324
_symmetry_Int_Tables_number   1
_chemical_formula_structural   AlPO4
_chemical_formula_sum   'Al12 P12 O48'
_cell_volume   1679.27401551
_cell_formula_units_Z   12
loop_
 _symmetry_equiv_pos_site_id
 _symmetry_equiv_pos_as_xyz
  1  'x, y, z'
loop_
 _atom_site_type_symbol
 _atom_site_label
 _atom_site_symmetry_multiplicity
 _atom_site_fract_x
 _atom_site_fract_y
 _atom_site_fract_z
 _atom_site_occupancy
  Al  Al0  1  0.14966695  0.07197875  0.83407644  1
  Al  Al1  1  0.92802125  0.85033305  0.66592356  1
  Al  Al2  1  0.85033305  0.92802125  0.16592356  1
  Al  Al3  1  0.07197875  0.14966695  0.33407644  1
  Al  Al4  1  0.89103635  0.34315173  0.06162757  1
  Al  Al5  1  0.65684827  0.10896365  0.43837243  1
  Al  Al6  1  0.10896365  0.65684827  0.93837243  1
  Al  Al7  1  0.34315173  0.89103635  0.56162757  1
  Al  Al8  1  0.67550892  0.86631670  0.94970770  1
  Al  Al9  1  0.13368330  0.32449108  0.55029230  1
  Al  Al10  1  0.32449108  0.13368330  0.05029230  1
  Al  Al11  1  0.86631670  0.67550892  0.44970770  1
  P  P12  1  0.13218464  0.32605701  0.94594735  1
  P  P13  1  0.67394299  0.86781536  0.55405265  1
  P  P14  1  0.86781536  0.67394299  0.05405265  1
  P  P15  1  0.32605701  0.13218464  0.44594735  1
  P  P16  1  0.65879320  0.11914097  0.06267611  1
  P  P17  1  0.88085903  0.34120680  0.43732389  1
  P  P18  1  0.34120680  0.88085903  0.93732389  1
  P  P19  1  0.11914097  0.65879320  0.56267611  1
  P  P20  1  0.91530082  0.85149893  0.83450577  1
  P  P21  1  0.14850107  0.08469918  0.66549423  1
  P  P22  1  0.08469918  0.14850107  0.16549423  1
  P  P23  1  0.85149893  0.91530082  0.33450577  1
  O  O24  1  0.76922815  0.87298776  0.86985332  1
  O  O25  1  0.12701224  0.23077185  0.63014668  1
  O  O26  1  0.23077185  0.12701224  0.13014668  1
  O  O27  1  0.87298776  0.76922815  0.36985332  1
  O  O28  1  0.68805686  0.02623515  0.99598222  1
  O  O29  1  0.97376485  0.31194314  0.50401778  1
  O  O30  1  0.31194314  0.97376485  0.00401778  1
  O  O31  1  0.02623515  0.68805686  0.49598222  1
  O  O32  1  0.73682555  0.25425069  0.05510842  1
  O  O33  1  0.74574931  0.26317445  0.44489158  1
  O  O34  1  0.26317445  0.74574931  0.94489158  1
  O  O35  1  0.25425069  0.73682555  0.55510842  1
  O  O36  1  0.98641821  0.32095244  0.98187054  1
  O  O37  1  0.67904756  0.01358179  0.51812946  1
  O  O38  1  0.01358179  0.67904756  0.01812946  1
  O  O39  1  0.32095244  0.98641821  0.48187054  1
  O  O40  1  0.13520679  0.23330617  0.87899701  1
  O  O41  1  0.76669383  0.86479321  0.62100299  1
  O  O42  1  0.86479321  0.76669383  0.12100299  1
  O  O43  1  0.23330617  0.13520679  0.37899701  1
  O  O44  1  0.99220809  0.98796410  0.84435789  1
  O  O45  1  0.01203590  0.00779191  0.65564211  1
  O  O46  1  0.00779191  0.01203590  0.15564211  1
  O  O47  1  0.98796410  0.99220809  0.34435789  1
  O  O48  1  0.00280882  0.72462345  0.86792622  1
  O  O49  1  0.27537655  0.99719118  0.63207378  1
  O  O50  1  0.99719118  0.27537655  0.13207378  1
  O  O51  1  0.72462345  0.00280882  0.36792622  1
  O  O52  1  0.49986235  0.83797439  0.93028922  1
  O  O53  1  0.16202561  0.50013765  0.56971078  1
  O  O54  1  0.50013765  0.16202561  0.06971078  1
  O  O55  1  0.83797439  0.49986235  0.43028922  1
  O  O56  1  0.18049108  0.10567235  0.74462907  1
  O  O57  1  0.89432765  0.81950892  0.75537093  1
  O  O58  1  0.81950892  0.89432765  0.25537093  1
  O  O59  1  0.10567235  0.18049108  0.24462907  1
  O  O60  1  0.84365415  0.52235533  0.07679819  1
  O  O61  1  0.47764467  0.15634585  0.42320181  1
  O  O62  1  0.15634585  0.47764467  0.92320181  1
  O  O63  1  0.52235533  0.84365415  0.57679819  1
  O  O64  1  0.70939767  0.03760962  0.13022326  1
  O  O65  1  0.96239038  0.29060233  0.36977674  1
  O  O66  1  0.29060233  0.96239038  0.86977674  1
  O  O67  1  0.03760962  0.70939767  0.63022326  1
  O  O68  1  0.74865432  0.72616949  0.00225247  1
  O  O69  1  0.27383051  0.25134568  0.49774753  1
  O  O70  1  0.25134568  0.27383051  0.99774753  1
  O  O71  1  0.72616949  0.74865432  0.50225247  1
