# generated using pymatgen
data_Li3(CuO2)2
_symmetry_space_group_name_H-M   'P 1'
_cell_length_a   2.79445170
_cell_length_b   5.19758530
_cell_length_c   6.78266181
_cell_angle_alpha   73.42098575
_cell_angle_beta   78.11198479
_cell_angle_gamma   74.40581754
_symmetry_Int_Tables_number   1
_chemical_formula_structural   Li3(CuO2)2
_chemical_formula_sum   'Li3 Cu2 O4'
_cell_volume   90.04662439
_cell_formula_units_Z   1
loop_
 _symmetry_equiv_pos_site_id
 _symmetry_equiv_pos_as_xyz
  1  'x, y, z'
loop_
 _atom_site_type_symbol
 _atom_site_label
 _atom_site_symmetry_multiplicity
 _atom_site_fract_x
 _atom_site_fract_y
 _atom_site_fract_z
 _atom_site_occupancy
  Li  Li0  1  0.63846933  0.59512382  0.12793752  1
  Cu  Cu1  1  0.15855110  0.95221100  0.73068680  1
  O  O2  1  0.25615592  0.30849135  0.17919680  1
  Li  Li3  1  0.99995388  0.50003172  0.50006051  1
  O  O4  1  0.74395514  0.69129763  0.82079210  1
  O  O5  1  0.56495116  0.21494292  0.65515475  1
  O  O6  1  0.43508679  0.78490881  0.34491760  1
  Li  Li7  1  0.36149004  0.40482216  0.87219776  1
  Cu  Cu8  1  0.84138663  0.04817060  0.26905615  1
