# generated using pymatgen
data_SrHfO3
_symmetry_space_group_name_H-M   'P 1'
_cell_length_a   4.17304567
_cell_length_b   5.77705328
_cell_length_c   5.77704948
_cell_angle_alpha   90.00001755
_cell_angle_beta   90.00000000
_cell_angle_gamma   90.00000000
_symmetry_Int_Tables_number   1
_chemical_formula_structural   SrHfO3
_chemical_formula_sum   'Sr2 Hf2 O6'
_cell_volume   139.27257261
_cell_formula_units_Z   2
loop_
 _symmetry_equiv_pos_site_id
 _symmetry_equiv_pos_as_xyz
  1  'x, y, z'
loop_
 _atom_site_type_symbol
 _atom_site_label
 _atom_site_symmetry_multiplicity
 _atom_site_fract_x
 _atom_site_fract_y
 _atom_site_fract_z
 _atom_site_occupancy
  O  O0  1  0.50000000  0.80261166  0.30261167  1
  O  O1  1  0.50000000  0.69738859  0.80261159  1
  Hf  Hf2  1  0.50000000  0.49999995  0.49999994  1
  O  O3  1  0.00000000  0.50000000  0.49999991  1
  O  O4  1  0.00000000  0.00000008  0.00000004  1
  O  O5  1  0.50000000  0.30261164  0.19738834  1
  O  O6  1  0.50000000  0.19738843  0.69738843  1
  Hf  Hf7  1  0.50000000  -0.00000007  0.00000002  1
  Sr  Sr8  1  0.00000000  0.49999983  0.00000001  1
  Sr  Sr9  1  0.00000000  0.99999989  0.50000005  1
