# generated using pymatgen
data_KY(PO3)4
_symmetry_space_group_name_H-M   'P 1'
_cell_length_a   7.41751734
_cell_length_b   7.41751726
_cell_length_c   10.55999127
_cell_angle_alpha   101.03168493
_cell_angle_beta   101.03168481
_cell_angle_gamma   115.35559425
_symmetry_Int_Tables_number   1
_chemical_formula_structural   KY(PO3)4
_chemical_formula_sum   'K2 Y2 P8 O24'
_cell_volume   490.26166762
_cell_formula_units_Z   2
loop_
 _symmetry_equiv_pos_site_id
 _symmetry_equiv_pos_as_xyz
  1  'x, y, z'
loop_
 _atom_site_type_symbol
 _atom_site_label
 _atom_site_symmetry_multiplicity
 _atom_site_fract_x
 _atom_site_fract_y
 _atom_site_fract_z
 _atom_site_occupancy
  Y  Y0  1  0.87990895  0.12009105  0.75000000  1
  Y  Y1  1  0.12009105  0.87990895  0.25000000  1
  K  K2  1  0.81534412  0.18465588  0.25000000  1
  K  K3  1  0.18465588  0.81534412  0.75000000  1
  P  P4  1  0.69689151  0.74469319  0.94290520  1
  P  P5  1  0.25530681  0.30310849  0.55709480  1
  P  P6  1  0.30310849  0.25530681  0.05709480  1
  P  P7  1  0.74469319  0.69689151  0.44290520  1
  P  P8  1  0.37345134  0.71381739  0.49658260  1
  P  P9  1  0.28618261  0.62654866  0.00341740  1
  P  P10  1  0.62654866  0.28618261  0.50341740  1
  P  P11  1  0.71381739  0.37345134  0.99658260  1
  O  O12  1  0.75289735  0.81456526  0.82612595  1
  O  O13  1  0.18543474  0.24710265  0.67387405  1
  O  O14  1  0.24710265  0.18543474  0.17387405  1
  O  O15  1  0.81456526  0.75289735  0.32612595  1
  O  O16  1  0.84277816  0.86418233  0.08530819  1
  O  O17  1  0.13581767  0.15722184  0.41469181  1
  O  O18  1  0.15722184  0.13581767  0.91469181  1
  O  O19  1  0.86418233  0.84277816  0.58530819  1
  O  O20  1  0.47083088  0.72794429  0.93595185  1
  O  O21  1  0.27205571  0.52916912  0.56404815  1
  O  O22  1  0.52916912  0.27205571  0.06404815  1
  O  O23  1  0.72794429  0.47083088  0.43595185  1
  O  O24  1  0.50065309  0.64146119  0.41079748  1
  O  O25  1  0.35853881  0.49934691  0.08920252  1
  O  O26  1  0.49934691  0.35853881  0.58920252  1
  O  O27  1  0.64146119  0.50065309  0.91079748  1
  O  O28  1  0.51251183  0.90928631  0.61442366  1
  O  O29  1  0.09071369  0.48748817  0.88557634  1
  O  O30  1  0.48748817  0.09071369  0.38557634  1
  O  O31  1  0.90928631  0.51251183  0.11442366  1
  O  O32  1  0.19096422  0.70223192  0.39747215  1
  O  O33  1  0.29776808  0.80903578  0.10252785  1
  O  O34  1  0.80903578  0.29776808  0.60252785  1
  O  O35  1  0.70223192  0.19096422  0.89747215  1
