# generated using pymatgen
data_Sr2Cu3O5
_symmetry_space_group_name_H-M   'P 1'
_cell_length_a   3.51031586
_cell_length_b   3.94489424
_cell_length_c   9.99031607
_cell_angle_alpha   101.38706140
_cell_angle_beta   90.00000000
_cell_angle_gamma   90.00000000
_symmetry_Int_Tables_number   1
_chemical_formula_structural   Sr2Cu3O5
_chemical_formula_sum   'Sr2 Cu3 O5'
_cell_volume   135.62095086
_cell_formula_units_Z   1
loop_
 _symmetry_equiv_pos_site_id
 _symmetry_equiv_pos_as_xyz
  1  'x, y, z'
loop_
 _atom_site_type_symbol
 _atom_site_label
 _atom_site_symmetry_multiplicity
 _atom_site_fract_x
 _atom_site_fract_y
 _atom_site_fract_z
 _atom_site_occupancy
  Cu  Cu0  1  0.00000000  0.19904695  0.39809391  1
  Sr  Sr1  1  0.50000000  0.60097734  0.20195469  1
  O  O2  1  0.00000000  0.70311382  0.40622765  1
  Sr  Sr3  1  0.50000000  0.39901786  0.79803572  1
  O  O4  1  0.00000000  0.29685566  0.59371132  1
  Cu  Cu5  1  0.00000000  0.80095280  0.60190560  1
  Cu  Cu6  1  0.00000000  1.00000866  1.00001731  1
  O  O7  1  0.00000000  0.89836735  0.79673470  1
  O  O8  1  0.00000000  0.10165967  0.20331934  1
  O  O9  1  0.00000000  0.49999988  0.99999976  1
