# generated using pymatgen
data_Y2H16S3O20
_symmetry_space_group_name_H-M   'P 1'
_cell_length_a   6.75530265
_cell_length_b   7.56117512
_cell_length_c   18.35007666
_cell_angle_alpha   101.15357543
_cell_angle_beta   90.00000000
_cell_angle_gamma   116.53278575
_symmetry_Int_Tables_number   1
_chemical_formula_structural   Y2H16S3O20
_chemical_formula_sum   'Y4 H32 S6 O40'
_cell_volume   818.73474876
_cell_formula_units_Z   2
loop_
 _symmetry_equiv_pos_site_id
 _symmetry_equiv_pos_as_xyz
  1  'x, y, z'
loop_
 _atom_site_type_symbol
 _atom_site_label
 _atom_site_symmetry_multiplicity
 _atom_site_fract_x
 _atom_site_fract_y
 _atom_site_fract_z
 _atom_site_occupancy
  Y  Y0  1  0.31060483  0.66511467  0.10723894  1
  Y  Y1  1  0.64549016  0.33488533  0.39276106  1
  Y  Y2  1  0.68939517  0.33488533  0.89276106  1
  Y  Y3  1  0.35450984  0.66511467  0.60723894  1
  S  S4  1  0.68932697  0.43650236  0.09054026  1
  S  S5  1  0.25282460  0.56349764  0.40945974  1
  S  S6  1  0.31067303  0.56349764  0.90945974  1
  S  S7  1  0.74717540  0.43650236  0.59054026  1
  S  S8  1  0.17257249  0.00000000  0.25000000  1
  S  S9  1  0.82742751  0.00000000  0.75000000  1
  O  O10  1  0.62956138  0.32541729  0.15158276  1
  O  O11  1  0.30414409  0.67458271  0.34841724  1
  O  O12  1  0.37043862  0.67458271  0.84841724  1
  O  O13  1  0.69585591  0.32541729  0.65158276  1
  O  O14  1  0.92942635  0.51991359  0.08167493  1
  O  O15  1  0.40951276  0.48008641  0.41832507  1
  O  O16  1  0.07057365  0.48008641  0.91832507  1
  O  O17  1  0.59048724  0.51991359  0.58167493  1
  O  O18  1  0.62415496  0.60228567  0.10397661  1
  O  O19  1  0.02186929  0.39771433  0.39602339  1
  O  O20  1  0.37584504  0.39771433  0.89602339  1
  O  O21  1  0.97813071  0.60228567  0.60397661  1
  O  O22  1  0.56566413  0.28947070  0.01774427  1
  O  O23  1  0.27619343  0.71052930  0.48225573  1
  O  O24  1  0.43433587  0.71052930  0.98225573  1
  O  O25  1  0.72380657  0.28947070  0.51774427  1
  O  O26  1  0.21506476  0.82996818  0.21222623  1
  O  O27  1  0.38509658  0.17003182  0.28777377  1
  O  O28  1  0.78493524  0.17003182  0.78777377  1
  O  O29  1  0.61490342  0.82996818  0.71222623  1
  O  O30  1  0.08098684  0.06857103  0.19299936  1
  O  O31  1  0.01241581  0.93142897  0.30700064  1
  O  O32  1  0.91901316  0.93142897  0.80700064  1
  O  O33  1  0.98758419  0.06857103  0.69299936  1
  O  O34  1  0.64185843  0.97157944  0.13973547  1
  O  O35  1  0.67027899  0.02842056  0.36026453  1
  O  O36  1  0.35814157  0.02842056  0.86026453  1
  O  O37  1  0.32972101  0.97157944  0.63973547  1
  O  O38  1  0.21459931  0.91500612  0.06317022  1
  O  O39  1  0.29959319  0.08499388  0.43682978  1
  O  O40  1  0.78540069  0.08499388  0.93682978  1
  O  O41  1  0.70040681  0.91500612  0.56317022  1
  O  O42  1  0.24895315  0.48610253  0.20139886  1
  O  O43  1  0.76285062  0.51389747  0.29860114  1
  O  O44  1  0.75104685  0.51389747  0.79860114  1
  O  O45  1  0.23714938  0.48610253  0.70139886  1
  O  O46  1  0.17625143  0.31770362  0.04276032  1
  O  O47  1  0.85854782  0.68229638  0.45723968  1
  O  O48  1  0.82374857  0.68229638  0.95723968  1
  O  O49  1  0.14145218  0.31770362  0.54276032  1
  H  H50  1  0.78703211  0.98816578  0.15891708  1
  H  H51  1  0.79886633  0.01183422  0.34108292  1
  H  H52  1  0.21296789  0.01183422  0.84108292  1
  H  H53  1  0.20113367  0.98816578  0.65891708  1
  H  H54  1  0.64837887  0.10834401  0.14761135  1
  H  H55  1  0.54003486  0.89165599  0.35238865  1
  H  H56  1  0.35162113  0.89165599  0.85238865  1
  H  H57  1  0.45996514  0.10834401  0.64761135  1
  H  H58  1  0.16449703  0.98426421  0.10562474  1
  H  H59  1  0.18023282  0.01573579  0.39437526  1
  H  H60  1  0.83550297  0.01573579  0.89437526  1
  H  H61  1  0.81976718  0.98426421  0.60562474  1
  H  H62  1  0.33361886  0.02383038  0.04399547  1
  H  H63  1  0.30978848  0.97616962  0.45600453  1
  H  H64  1  0.66638114  0.97616962  0.95600453  1
  H  H65  1  0.69021152  0.02383038  0.54399547  1
  H  H66  1  0.25394327  0.54750467  0.25469830  1
  H  H67  1  0.70643860  0.45249533  0.24530170  1
  H  H68  1  0.74605673  0.45249533  0.74530170  1
  H  H69  1  0.29356140  0.54750467  0.75469830  1
  H  H70  1  0.20793610  0.34144862  0.19701531  1
  H  H71  1  0.86648748  0.65855138  0.30298469  1
  H  H72  1  0.79206390  0.65855138  0.80298469  1
  H  H73  1  0.13351252  0.34144862  0.69701531  1
  H  H74  1  0.03900284  0.24804897  0.00809449  1
  H  H75  1  0.79095387  0.75195103  0.49190551  1
  H  H76  1  0.96099716  0.75195103  0.99190551  1
  H  H77  1  0.20904613  0.24804897  0.50809449  1
  H  H78  1  0.29142434  0.29007060  0.01737837  1
  H  H79  1  1.00135374  0.70992940  0.48262163  1
  H  H80  1  0.70857566  0.70992940  0.98262163  1
  H  H81  1  -0.00135374  0.29007060  0.51737837  1
