# generated using pymatgen
data_Zr11Sb18
_symmetry_space_group_name_H-M   'P 1'
_cell_length_a   6.83833557
_cell_length_b   6.83833544
_cell_length_c   30.66115680
_cell_angle_alpha   96.40263224
_cell_angle_beta   96.40263212
_cell_angle_gamma   90.00000034
_symmetry_Int_Tables_number   1
_chemical_formula_structural   Zr11Sb18
_chemical_formula_sum   'Zr22 Sb36'
_cell_volume   1415.86022075
_cell_formula_units_Z   2
loop_
 _symmetry_equiv_pos_site_id
 _symmetry_equiv_pos_as_xyz
  1  'x, y, z'
loop_
 _atom_site_type_symbol
 _atom_site_label
 _atom_site_symmetry_multiplicity
 _atom_site_fract_x
 _atom_site_fract_y
 _atom_site_fract_z
 _atom_site_occupancy
  Sb  Sb0  1  0.11513419  0.77639267  0.91539265  1
  Sb  Sb1  1  0.86100002  0.88486581  0.08460735  1
  Sb  Sb2  1  0.22360733  0.19974154  0.08460735  1
  Sb  Sb3  1  0.94974154  0.47360733  0.58460735  1
  Sb  Sb4  1  0.63486581  0.11100002  0.58460735  1
  Sb  Sb5  1  0.80025846  0.13899998  0.91539265  1
  Sb  Sb6  1  0.88899998  0.05025846  0.41539265  1
  Sb  Sb7  1  0.52639267  0.36513419  0.41539265  1
  Sb  Sb8  1  0.90036778  0.40833485  0.13868356  1
  Sb  Sb9  1  0.26965129  0.09963222  0.86131644  1
  Sb  Sb10  1  0.59166515  0.76168422  0.86131644  1
  Sb  Sb11  1  0.51168422  0.84166515  0.36131644  1
  Sb  Sb12  1  0.84963222  0.51965129  0.36131644  1
  Sb  Sb13  1  0.23831578  0.73034871  0.13868356  1
  Sb  Sb14  1  0.48034871  0.48831578  0.63868356  1
  Sb  Sb15  1  0.15833485  0.15036778  0.63868356  1
  Sb  Sb16  1  0.19891057  0.55719124  0.80734185  1
  Sb  Sb17  1  0.74984939  0.80108943  0.19265815  1
  Sb  Sb18  1  0.44280876  0.39156872  0.19265815  1
  Sb  Sb19  1  0.14156872  0.69280876  0.69265815  1
  Sb  Sb20  1  0.55108943  -0.00015061  0.69265815  1
  Sb  Sb21  1  0.60843128  0.25015061  0.80734185  1
  Sb  Sb22  1  1.00015061  0.85843128  0.30734185  1
  Sb  Sb23  1  0.30719124  0.44891057  0.30734185  1
  Sb  Sb24  1  0.66957721  0.23946803  0.03001841  1
  Sb  Sb25  1  0.20944962  0.33042279  0.96998159  1
  Sb  Sb26  1  0.76053197  0.63955879  0.96998159  1
  Sb  Sb27  1  0.38955879  0.01053197  0.46998159  1
  Sb  Sb28  1  0.08042279  0.45944962  0.46998159  1
  Sb  Sb29  1  0.36044121  0.79055038  0.03001841  1
  Sb  Sb30  1  0.54055038  0.61044121  0.53001841  1
  Sb  Sb31  1  0.98946803  0.91957721  0.53001841  1
  Sb  Sb32  1  0.87500000  0.28238058  0.25000000  1
  Sb  Sb33  1  0.03238058  0.12500000  0.75000000  1
  Sb  Sb34  1  0.71761942  0.62500000  0.75000000  1
  Sb  Sb35  1  0.37500000  0.96761942  0.25000000  1
  Zr  Zr36  1  0.36291270  0.36291270  0.72582540  1
  Zr  Zr37  1  0.63708730  0.63708730  0.27417460  1
  Zr  Zr38  1  0.38708730  0.88708730  0.77417460  1
  Zr  Zr39  1  0.11291270  0.61291270  0.22582540  1
  Zr  Zr40  1  0.08893918  0.08893918  0.17787836  1
  Zr  Zr41  1  0.91106082  0.91106082  0.82212164  1
  Zr  Zr42  1  0.66106082  0.16106082  0.32212164  1
  Zr  Zr43  1  0.83893918  0.33893918  0.67787836  1
  Zr  Zr44  1  0.00000000  0.00000000  0.00000000  1
  Zr  Zr45  1  0.75000000  0.25000000  0.50000000  1
  Zr  Zr46  1  0.45217251  0.45217251  0.90434502  1
  Zr  Zr47  1  0.54782749  0.54782749  0.09565498  1
  Zr  Zr48  1  0.29782749  0.79782749  0.59565498  1
  Zr  Zr49  1  0.20217251  0.70217251  0.40434502  1
  Zr  Zr50  1  0.56675140  0.06675140  0.13350280  1
  Zr  Zr51  1  0.93324860  0.43324860  0.86649720  1
  Zr  Zr52  1  0.18324860  0.18324860  0.36649720  1
  Zr  Zr53  1  0.81675140  0.81675140  0.63350280  1
  Zr  Zr54  1  0.27398064  0.27398064  0.54796128  1
  Zr  Zr55  1  0.72601936  0.72601936  0.45203872  1
  Zr  Zr56  1  0.47601936  0.97601936  0.95203872  1
  Zr  Zr57  1  0.02398064  0.52398064  0.04796128  1
