# generated using pymatgen
data_Li9Mn2Co5O16
_symmetry_space_group_name_H-M   'P 1'
_cell_length_a   2.90085868
_cell_length_b   5.11867758
_cell_length_c   20.78998889
_cell_angle_alpha   98.18526948
_cell_angle_beta   89.99999952
_cell_angle_gamma   73.53915391
_symmetry_Int_Tables_number   1
_chemical_formula_structural   Li9Mn2Co5O16
_chemical_formula_sum   'Li9 Mn2 Co5 O16'
_cell_volume   292.76818483
_cell_formula_units_Z   1
loop_
 _symmetry_equiv_pos_site_id
 _symmetry_equiv_pos_as_xyz
  1  'x, y, z'
loop_
 _atom_site_type_symbol
 _atom_site_label
 _atom_site_symmetry_multiplicity
 _atom_site_fract_x
 _atom_site_fract_y
 _atom_site_fract_z
 _atom_site_occupancy
  Li  Li0  1  0.25619899  0.48760202  0.06110552  1
  Li  Li1  1  0.74380101  0.51239798  0.18889448  1
  Li  Li2  1  0.25193200  0.49613600  0.31896143  1
  Li  Li3  1  0.73954616  0.52090769  0.44592149  1
  Li  Li4  1  0.23940165  0.52119671  0.56890211  1
  Li  Li5  1  0.76059835  0.47880329  0.68109789  1
  Li  Li6  1  0.26045384  0.47909231  0.80407851  1
  Li  Li7  1  0.74806800  0.50386400  0.93103857  1
  Li  Li8  1  0.50000000  0.00000000  0.62500000  1
  Mn  Mn9  1  0.00110601  0.99778798  0.99903166  1
  Mn  Mn10  1  0.99889399  0.00221202  0.25096834  1
  Co  Co11  1  0.50000000  0.00000000  0.12500000  1
  Co  Co12  1  0.49952527  0.00094945  0.38107605  1
  Co  Co13  1  0.98361289  0.03277421  0.51273573  1
  Co  Co14  1  0.01638711  0.96722579  0.73726427  1
  Co  Co15  1  0.50047473  0.99905055  0.86892395  1
  O  O16  1  0.39124592  0.21750817  0.97074109  1
  O  O17  1  0.88765457  0.22469086  0.08489393  1
  O  O18  1  0.38521334  0.22957332  0.22451628  1
  O  O19  1  0.89034313  0.21931374  0.33893021  1
  O  O20  1  0.38439900  0.23120199  0.46746048  1
  O  O21  1  0.87439911  0.25120177  0.58926812  1
  O  O22  1  0.39279529  0.21440943  0.72178380  1
  O  O23  1  0.88541080  0.22917839  0.84737751  1
  O  O24  1  0.11234543  0.77530914  0.16510607  1
  O  O25  1  0.60875408  0.78249183  0.27925891  1
  O  O26  1  0.11458920  0.77082161  0.40262249  1
  O  O27  1  0.60720471  0.78559057  0.52821620  1
  O  O28  1  0.12560089  0.74879823  0.66073188  1
  O  O29  1  0.61560100  0.76879801  0.78253952  1
  O  O30  1  0.10965687  0.78068626  0.91106979  1
  O  O31  1  0.61478666  0.77042668  0.02548372  1
