# generated using pymatgen
data_AlPO4
_symmetry_space_group_name_H-M   'P 1'
_cell_length_a   8.68817828
_cell_length_b   9.95573644
_cell_length_c   19.64401501
_cell_angle_alpha   90.00000000
_cell_angle_beta   90.00000000
_cell_angle_gamma   90.00000000
_symmetry_Int_Tables_number   1
_chemical_formula_structural   AlPO4
_chemical_formula_sum   'Al16 P16 O64'
_cell_volume   1699.15255245
_cell_formula_units_Z   16
loop_
 _symmetry_equiv_pos_site_id
 _symmetry_equiv_pos_as_xyz
  1  'x, y, z'
loop_
 _atom_site_type_symbol
 _atom_site_label
 _atom_site_symmetry_multiplicity
 _atom_site_fract_x
 _atom_site_fract_y
 _atom_site_fract_z
 _atom_site_occupancy
  Al  Al0  1  0.92147985  0.12931281  0.03317418  1
  Al  Al1  1  0.07852015  0.62931281  0.96682582  1
  Al  Al2  1  0.41778849  0.87875439  0.42388848  1
  Al  Al3  1  0.07886792  0.33001393  0.72213342  1
  Al  Al4  1  0.41778849  0.37875439  0.07611152  1
  Al  Al5  1  0.92113208  0.83001393  0.27786658  1
  Al  Al6  1  0.42646777  0.52681472  0.32081479  1
  Al  Al7  1  0.58221151  0.37875439  0.57611152  1
  Al  Al8  1  0.07886792  0.83001393  0.77786658  1
  Al  Al9  1  0.07852015  0.12931281  0.53317418  1
  Al  Al10  1  0.57353223  0.52681472  0.82081479  1
  Al  Al11  1  0.92113208  0.33001393  0.22213342  1
  Al  Al12  1  0.58221151  0.87875439  0.92388848  1
  Al  Al13  1  0.92147985  0.62931281  0.46682582  1
  Al  Al14  1  0.42646777  0.02681472  0.17918521  1
  Al  Al15  1  0.57353223  0.02681472  0.67918521  1
  P  P16  1  0.05592211  0.04704822  0.17813296  1
  P  P17  1  0.05592211  0.54704822  0.32186704  1
  P  P18  1  0.55361848  0.30771708  0.22366617  1
  P  P19  1  0.95252935  0.40921836  0.57640955  1
  P  P20  1  0.44638152  0.80771708  0.77633383  1
  P  P21  1  0.04747065  0.90921836  0.42359045  1
  P  P22  1  0.45161354  0.10092284  0.53333035  1
  P  P23  1  0.55361848  0.80771708  0.27633383  1
  P  P24  1  0.95252935  0.90921836  0.92359045  1
  P  P25  1  0.45161354  0.60092284  0.96666965  1
  P  P26  1  0.94407789  0.54704822  0.82186704  1
  P  P27  1  0.04747065  0.40921836  0.07640955  1
  P  P28  1  0.54838646  0.60092284  0.46666965  1
  P  P29  1  0.54838646  0.10092284  0.03333035  1
  P  P30  1  0.94407789  0.04704822  0.67813296  1
  P  P31  1  0.44638152  0.30771708  0.72366617  1
  O  O32  1  0.01735847  0.16240823  0.71911318  1
  O  O33  1  0.98385747  0.41221306  0.78843065  1
  O  O34  1  0.72097231  0.63277941  0.46065661  1
  O  O35  1  0.98955993  0.29485499  0.03002989  1
  O  O36  1  0.98955993  0.79485499  0.46997011  1
  O  O37  1  0.72406982  0.83338376  0.26132574  1
  O  O38  1  0.45639294  0.23263960  0.02891566  1
  O  O39  1  0.27902769  0.13277941  0.53934339  1
  O  O40  1  0.49736787  0.01826427  0.09569161  1
  O  O41  1  0.23102823  0.06572243  0.17705252  1
  O  O42  1  0.98264153  0.66240823  0.28088682  1
  O  O43  1  0.48322395  0.01988364  0.46829144  1
  O  O44  1  0.27902769  0.63277941  0.96065661  1
  O  O45  1  0.01735847  0.66240823  0.78088682  1
  O  O46  1  0.95870212  0.40968429  0.14401299  1
  O  O47  1  0.54381383  0.87313914  0.72001345  1
  O  O48  1  0.21999702  0.38988429  0.09094188  1
  O  O49  1  0.00484298  0.04647615  0.60470414  1
  O  O50  1  0.49736787  0.51826427  0.40430839  1
  O  O51  1  0.01614253  0.41221306  0.28843065  1
  O  O52  1  0.98264153  0.16240823  0.21911318  1
  O  O53  1  0.51677605  0.01988364  0.96829144  1
  O  O54  1  0.76897177  0.56572243  0.82294748  1
  O  O55  1  0.54381383  0.37313914  0.77998655  1
  O  O56  1  0.99515702  0.54647615  0.39529586  1
  O  O57  1  0.54360706  0.73263960  0.97108434  1
  O  O58  1  0.97968359  0.54443559  0.54060165  1
  O  O59  1  0.51237774  0.86978192  0.34574609  1
  O  O60  1  0.27593018  0.83338376  0.76132574  1
  O  O61  1  0.48322395  0.51988364  0.03170856  1
  O  O62  1  0.51237774  0.36978192  0.15425391  1
  O  O63  1  0.78000298  0.88988429  0.90905812  1
  O  O64  1  0.50263213  0.51826427  0.90430839  1
  O  O65  1  0.45639294  0.73263960  0.47108434  1
  O  O66  1  0.04129788  0.90968429  0.85598701  1
  O  O67  1  0.78000298  0.38988429  0.59094188  1
  O  O68  1  0.47804541  0.65564685  0.77640090  1
  O  O69  1  0.52195459  0.65564685  0.27640090  1
  O  O70  1  0.23102823  0.56572243  0.32294748  1
  O  O71  1  0.48762226  0.86978192  0.84574609  1
  O  O72  1  0.04129788  0.40968429  0.64401299  1
  O  O73  1  0.76897177  0.06572243  0.67705252  1
  O  O74  1  0.95870212  0.90968429  0.35598701  1
  O  O75  1  0.01614253  0.91221306  0.21156935  1
  O  O76  1  0.21999702  0.88988429  0.40905812  1
  O  O77  1  0.97968359  0.04443559  0.95939835  1
  O  O78  1  0.02031641  0.54443559  0.04060165  1
  O  O79  1  0.48762226  0.36978192  0.65425391  1
  O  O80  1  0.72097231  0.13277941  0.03934339  1
  O  O81  1  0.52195459  0.15564685  0.22359910  1
  O  O82  1  0.01044007  0.29485499  0.53002989  1
  O  O83  1  0.45618617  0.37313914  0.27998655  1
  O  O84  1  0.02031641  0.04443559  0.45939835  1
  O  O85  1  0.01044007  0.79485499  0.96997011  1
  O  O86  1  0.72406982  0.33338376  0.23867426  1
  O  O87  1  0.00484298  0.54647615  0.89529586  1
  O  O88  1  0.50263213  0.01826427  0.59569161  1
  O  O89  1  0.47804541  0.15564685  0.72359910  1
  O  O90  1  0.98385747  0.91221306  0.71156935  1
  O  O91  1  0.27593018  0.33338376  0.73867426  1
  O  O92  1  0.54360706  0.23263960  0.52891566  1
  O  O93  1  0.99515702  0.04647615  0.10470414  1
  O  O94  1  0.51677605  0.51988364  0.53170856  1
  O  O95  1  0.45618617  0.87313914  0.22001345  1
