# generated using pymatgen
data_TlV3(CrS4)2
_symmetry_space_group_name_H-M   'P 1'
_cell_length_a   3.35365016
_cell_length_b   8.78428370
_cell_length_c   8.81732932
_cell_angle_alpha   102.68963485
_cell_angle_beta   100.95706765
_cell_angle_gamma   90.00170945
_symmetry_Int_Tables_number   1
_chemical_formula_structural   TlV3(CrS4)2
_chemical_formula_sum   'Tl1 V3 Cr2 S8'
_cell_volume   248.55218216
_cell_formula_units_Z   1
loop_
 _symmetry_equiv_pos_site_id
 _symmetry_equiv_pos_as_xyz
  1  'x, y, z'
loop_
 _atom_site_type_symbol
 _atom_site_label
 _atom_site_symmetry_multiplicity
 _atom_site_fract_x
 _atom_site_fract_y
 _atom_site_fract_z
 _atom_site_occupancy
  Tl  Tl0  1  0.00000000  0.00000000  0.00000000  1
  V  V1  1  0.14630501  0.48683050  0.29260230  1
  V  V2  1  0.85369499  0.51316950  0.70739770  1
  V  V3  1  0.50000000  0.50000000  0.00000000  1
  Cr  Cr4  1  0.20451525  0.83097848  0.40905973  1
  Cr  Cr5  1  0.79548475  0.16902152  0.59094027  1
  S  S6  1  0.07156113  0.67047705  0.14309978  1
  S  S7  1  0.33006133  0.00832932  0.66017905  1
  S  S8  1  0.26209020  0.35142255  0.52401751  1
  S  S9  1  0.41414714  0.68156975  0.82828809  1
  S  S10  1  0.58585286  0.31843025  0.17171191  1
  S  S11  1  0.92843887  0.32952295  0.85690022  1
  S  S12  1  0.73790980  0.64857745  0.47598249  1
  S  S13  1  0.66993867  0.99167068  0.33982095  1
