# generated using pymatgen
data_SiO2
_symmetry_space_group_name_H-M   'P 1'
_cell_length_a   8.40102352
_cell_length_b   8.40102016
_cell_length_c   8.40102397
_cell_angle_alpha   105.24633081
_cell_angle_beta   105.24633697
_cell_angle_gamma   118.29824439
_symmetry_Int_Tables_number   1
_chemical_formula_structural   SiO2
_chemical_formula_sum   'Si8 O16'
_cell_volume   448.19242700
_cell_formula_units_Z   8
loop_
 _symmetry_equiv_pos_site_id
 _symmetry_equiv_pos_as_xyz
  1  'x, y, z'
loop_
 _atom_site_type_symbol
 _atom_site_label
 _atom_site_symmetry_multiplicity
 _atom_site_fract_x
 _atom_site_fract_y
 _atom_site_fract_z
 _atom_site_occupancy
  Si  Si0  1  0.91800135  0.20751817  0.00047670  1
  Si  Si1  1  0.70704147  0.70751817  0.28951682  1
  Si  Si2  1  0.29248208  0.58199896  0.99952344  1
  Si  Si3  1  0.79248202  0.79295841  0.71048311  1
  Si  Si4  1  0.58247530  0.29295841  0.00047639  1
  Si  Si5  1  0.20704139  0.91752445  0.99952355  1
  Si  Si6  1  0.41800090  0.41752445  0.71048306  1
  Si  Si7  1  0.08247551  0.08199896  0.28951688  1
  O  O8  1  0.50079502  0.31468900  0.81473577  1
  O  O9  1  0.99995323  0.81468900  0.81389398  1
  O  O10  1  0.60620391  0.60620385  0.71240736  1
  O  O11  1  0.75059471  0.25059478  0.00118959  1
  O  O12  1  0.49995336  0.68605906  0.18526447  1
  O  O13  1  0.25059488  0.24940533  0.50000013  1
  O  O14  1  0.89379609  0.89379609  0.28759271  1
  O  O15  1  0.68531114  0.50004676  0.18610591  1
  O  O16  1  0.74940519  0.75059478  0.50000007  1
  O  O17  1  0.81394085  0.00004676  0.81473562  1
  O  O18  1  0.18531096  0.99920516  0.18526416  1
  O  O19  1  0.39379649  0.10620385  -0.00000006  1
  O  O20  1  0.00079459  0.18605906  0.18610570  1
  O  O21  1  0.31394099  0.49920516  0.81389419  1
  O  O22  1  0.10620338  0.39379609  1.00000000  1
  O  O23  1  0.24940520  0.74940533  0.99881045  1
