# generated using pymatgen
data_KNa9In2O8
_symmetry_space_group_name_H-M   'P 1'
_cell_length_a   7.36590340
_cell_length_b   9.20003544
_cell_length_c   18.22382348
_cell_angle_alpha   90.00000000
_cell_angle_beta   90.00000000
_cell_angle_gamma   90.00000000
_symmetry_Int_Tables_number   1
_chemical_formula_structural   KNa9In2O8
_chemical_formula_sum   'K4 Na36 In8 O32'
_cell_volume   1234.96605194
_cell_formula_units_Z   4
loop_
 _symmetry_equiv_pos_site_id
 _symmetry_equiv_pos_as_xyz
  1  'x, y, z'
loop_
 _atom_site_type_symbol
 _atom_site_label
 _atom_site_symmetry_multiplicity
 _atom_site_fract_x
 _atom_site_fract_y
 _atom_site_fract_z
 _atom_site_occupancy
  K  K0  1  0.75000000  0.85886998  0.03234375  1
  K  K1  1  0.25000000  0.35886998  0.46765625  1
  K  K2  1  0.25000000  0.14113002  0.96765625  1
  K  K3  1  0.75000000  0.64113002  0.53234375  1
  Na  Na4  1  0.25000000  0.15328647  0.61383394  1
  Na  Na5  1  0.75000000  0.17728110  0.80308467  1
  Na  Na6  1  0.75000000  0.65328647  0.88616606  1
  Na  Na7  1  0.75000000  0.17645719  0.64655259  1
  Na  Na8  1  0.25000000  0.34671353  0.11383394  1
  Na  Na9  1  0.99565856  0.90074442  0.88153020  1
  Na  Na10  1  0.75000000  0.84671353  0.38616606  1
  Na  Na11  1  0.75000000  0.32271890  0.30308467  1
  Na  Na12  1  0.25000000  0.67645719  0.85344741  1
  Na  Na13  1  0.49565856  0.40074442  0.61846980  1
  Na  Na14  1  0.03687102  0.04470303  0.42909843  1
  Na  Na15  1  0.75000000  0.32354281  0.14655259  1
  Na  Na16  1  0.50434144  0.90074442  0.88153020  1
  Na  Na17  1  0.49565856  0.09925558  0.11846980  1
  Na  Na18  1  0.45770158  0.95076243  0.72505981  1
  Na  Na19  1  0.25000000  0.82354281  0.35344741  1
  Na  Na20  1  0.54229842  0.04923757  0.27494019  1
  Na  Na21  1  0.96312898  0.54470303  0.07090157  1
  Na  Na22  1  0.95770158  0.04923757  0.27494019  1
  Na  Na23  1  0.53687102  0.95529697  0.57090157  1
  Na  Na24  1  0.54229842  0.45076243  0.77494019  1
  Na  Na25  1  0.03687102  0.45529697  0.92909843  1
  Na  Na26  1  0.46312898  0.04470303  0.42909843  1
  Na  Na27  1  0.25000000  0.67728110  0.69691533  1
  Na  Na28  1  0.96312898  0.95529697  0.57090157  1
  Na  Na29  1  0.04229842  0.95076243  0.72505981  1
  Na  Na30  1  0.99565856  0.59925558  0.38153020  1
  Na  Na31  1  0.50434144  0.59925558  0.38153020  1
  Na  Na32  1  0.46312898  0.45529697  0.92909843  1
  Na  Na33  1  0.53687102  0.54470303  0.07090157  1
  Na  Na34  1  0.25000000  0.82271890  0.19691533  1
  Na  Na35  1  0.45770158  0.54923757  0.22505981  1
  Na  Na36  1  0.00434144  0.40074442  0.61846980  1
  Na  Na37  1  0.04229842  0.54923757  0.22505981  1
  Na  Na38  1  0.00434144  0.09925558  0.11846980  1
  Na  Na39  1  0.95770158  0.45076243  0.77494019  1
  In  In40  1  0.75000000  0.78378006  0.21569159  1
  In  In41  1  0.25000000  0.21621994  0.78430841  1
  In  In42  1  0.75000000  0.25732642  0.46709642  1
  In  In43  1  0.75000000  0.71621994  0.71569159  1
  In  In44  1  0.25000000  0.75732642  0.03290358  1
  In  In45  1  0.75000000  0.24267358  0.96709642  1
  In  In46  1  0.25000000  0.28378006  0.28430841  1
  In  In47  1  0.25000000  0.74267358  0.53290358  1
  O  O48  1  0.51670747  0.78335751  0.28308542  1
  O  O49  1  0.25000000  0.41269868  0.84223421  1
  O  O50  1  0.01670747  0.21664249  0.71691458  1
  O  O51  1  0.75000000  0.51049905  0.66676247  1
  O  O52  1  0.75000000  0.98950095  0.16676247  1
  O  O53  1  0.02267888  0.70121273  0.96768584  1
  O  O54  1  0.25000000  0.89618710  0.62250861  1
  O  O55  1  0.47732112  0.70121273  0.96768584  1
  O  O56  1  0.48329253  0.21664249  0.71691458  1
  O  O57  1  0.75000000  0.04086303  0.91502657  1
  O  O58  1  0.98329253  0.71664249  0.78308542  1
  O  O59  1  0.02267888  0.79878727  0.46768584  1
  O  O60  1  0.25000000  0.48950095  0.33323753  1
  O  O61  1  0.52267888  0.20121273  0.53231416  1
  O  O62  1  0.25000000  0.01049905  0.83323753  1
  O  O63  1  0.75000000  0.58730132  0.15776579  1
  O  O64  1  0.48329253  0.28335751  0.21691458  1
  O  O65  1  0.75000000  0.39618710  0.87749139  1
  O  O66  1  0.52267888  0.29878727  0.03231416  1
  O  O67  1  0.97732112  0.20121273  0.53231416  1
  O  O68  1  0.25000000  0.95913697  0.08497343  1
  O  O69  1  0.75000000  0.10381290  0.37749139  1
  O  O70  1  0.25000000  0.08730132  0.34223421  1
  O  O71  1  0.75000000  0.91269868  0.65776579  1
  O  O72  1  0.98329253  0.78335751  0.28308542  1
  O  O73  1  0.75000000  0.45913697  0.41502657  1
  O  O74  1  0.25000000  0.60381290  0.12250861  1
  O  O75  1  0.25000000  0.54086303  0.58497343  1
  O  O76  1  0.01670747  0.28335751  0.21691458  1
  O  O77  1  0.97732112  0.29878727  0.03231416  1
  O  O78  1  0.47732112  0.79878727  0.46768584  1
  O  O79  1  0.51670747  0.71664249  0.78308542  1
