# generated using pymatgen
data_SbS2NCl8
_symmetry_space_group_name_H-M   'P 1'
_cell_length_a   7.79509733
_cell_length_b   11.71574301
_cell_length_c   16.63242437
_cell_angle_alpha   90.00000000
_cell_angle_beta   98.38082534
_cell_angle_gamma   90.00000000
_symmetry_Int_Tables_number   1
_chemical_formula_structural   SbS2NCl8
_chemical_formula_sum   'Sb4 S8 N4 Cl32'
_cell_volume   1502.74135016
_cell_formula_units_Z   4
loop_
 _symmetry_equiv_pos_site_id
 _symmetry_equiv_pos_as_xyz
  1  'x, y, z'
loop_
 _atom_site_type_symbol
 _atom_site_label
 _atom_site_symmetry_multiplicity
 _atom_site_fract_x
 _atom_site_fract_y
 _atom_site_fract_z
 _atom_site_occupancy
  Sb  Sb0  1  0.24607482  0.19968949  0.84695289  1
  Sb  Sb1  1  0.24607482  0.30031051  0.34695289  1
  Sb  Sb2  1  0.75392518  0.80031051  0.15304711  1
  Sb  Sb3  1  0.75392518  0.69968949  0.65304711  1
  S  S4  1  0.79952117  0.27897664  0.98216088  1
  S  S5  1  0.20047883  0.72102336  0.01783912  1
  S  S6  1  0.28305159  0.78426807  0.85286350  1
  S  S7  1  0.20047883  0.77897664  0.51783912  1
  S  S8  1  0.79952117  0.22102336  0.48216088  1
  S  S9  1  0.71694841  0.21573193  0.14713650  1
  S  S10  1  0.28305159  0.71573193  0.35286350  1
  S  S11  1  0.71694841  0.28426807  0.64713650  1
  N  N12  1  0.23478675  0.78126166  0.93941675  1
  N  N13  1  0.76521325  0.21873834  0.06058325  1
  N  N14  1  0.76521325  0.28126166  0.56058325  1
  N  N15  1  0.23478675  0.71873834  0.43941675  1
  Cl  Cl16  1  0.02424544  0.15447221  0.32210045  1
  Cl  Cl17  1  0.54145852  0.66340589  0.18652869  1
  Cl  Cl18  1  0.22923091  0.54988535  0.00877796  1
  Cl  Cl19  1  0.02424544  0.34552779  0.82210045  1
  Cl  Cl20  1  0.96523838  0.56600141  0.61801519  1
  Cl  Cl21  1  0.22923091  0.95011465  0.50877796  1
  Cl  Cl22  1  0.32610577  0.62611022  0.81335982  1
  Cl  Cl23  1  0.52838977  0.94139257  0.12505644  1
  Cl  Cl24  1  0.97575456  0.84552779  0.67789955  1
  Cl  Cl25  1  0.18796287  0.35782497  0.20701927  1
  Cl  Cl26  1  0.03476162  0.06600141  0.88198481  1
  Cl  Cl27  1  0.96523838  0.93399859  0.11801519  1
  Cl  Cl28  1  0.77076909  0.04988535  0.49122204  1
  Cl  Cl29  1  0.67389423  0.37388978  0.18664018  1
  Cl  Cl30  1  0.47161023  0.44139257  0.37494356  1
  Cl  Cl31  1  0.30187123  0.23846885  0.48796738  1
  Cl  Cl32  1  0.69812877  0.73846885  0.01203262  1
  Cl  Cl33  1  0.69812877  0.76153115  0.51203262  1
  Cl  Cl34  1  0.03476162  0.43399859  0.38198481  1
  Cl  Cl35  1  0.77076909  0.45011465  0.99122204  1
  Cl  Cl36  1  0.97575456  0.65447221  0.17789955  1
  Cl  Cl37  1  0.45854148  0.33659411  0.81347131  1
  Cl  Cl38  1  0.52838977  0.55860743  0.62505644  1
  Cl  Cl39  1  0.32610577  0.87388978  0.31335982  1
  Cl  Cl40  1  0.54145852  0.83659411  0.68652869  1
  Cl  Cl41  1  0.67389423  0.12611022  0.68664018  1
  Cl  Cl42  1  0.47161023  0.05860743  0.87494356  1
  Cl  Cl43  1  0.81203713  0.85782497  0.29298073  1
  Cl  Cl44  1  0.45854148  0.16340589  0.31347131  1
  Cl  Cl45  1  0.18796287  0.14217503  0.70701927  1
  Cl  Cl46  1  0.81203713  0.64217503  0.79298073  1
  Cl  Cl47  1  0.30187123  0.26153115  0.98796738  1
