# generated using pymatgen
data_P2Pd2O7
_symmetry_space_group_name_H-M   'P 1'
_cell_length_a   5.35234806
_cell_length_b   7.20374315
_cell_length_c   8.21894605
_cell_angle_alpha   97.26152836
_cell_angle_beta   90.00000000
_cell_angle_gamma   111.80801417
_symmetry_Int_Tables_number   1
_chemical_formula_structural   P2Pd2O7
_chemical_formula_sum   'P4 Pd4 O14'
_cell_volume   291.47893836
_cell_formula_units_Z   2
loop_
 _symmetry_equiv_pos_site_id
 _symmetry_equiv_pos_as_xyz
  1  'x, y, z'
loop_
 _atom_site_type_symbol
 _atom_site_label
 _atom_site_symmetry_multiplicity
 _atom_site_fract_x
 _atom_site_fract_y
 _atom_site_fract_z
 _atom_site_occupancy
  P  P0  1  0.48225365  0.21787953  0.26809778  1
  P  P1  1  0.51774635  0.78212047  0.73190222  1
  P  P2  1  0.26437412  0.78212047  0.23190222  1
  P  P3  1  0.73562588  0.21787953  0.76809778  1
  Pd  Pd4  1  0.50000000  0.50000000  0.00000000  1
  Pd  Pd5  1  0.00000000  0.50000000  0.50000000  1
  Pd  Pd6  1  0.00000000  0.00000000  0.50000000  1
  Pd  Pd7  1  0.00000000  0.00000000  0.00000000  1
  O  O8  1  0.51170317  0.00000000  0.25000000  1
  O  O9  1  0.76400180  0.37827685  0.29049806  1
  O  O10  1  0.48829683  0.00000000  0.75000000  1
  O  O11  1  0.93028171  0.22436623  0.90583377  1
  O  O12  1  0.63452999  0.77603979  0.90774532  1
  O  O13  1  0.70591548  0.77563377  0.59416623  1
  O  O14  1  0.06971829  0.77563377  0.09416623  1
  O  O15  1  0.14150980  0.77603979  0.40774532  1
  O  O16  1  0.36547001  0.22396021  0.09225468  1
  O  O17  1  0.61427505  0.37827685  0.79049806  1
  O  O18  1  0.23599820  0.62172315  0.70950194  1
  O  O19  1  0.85849020  0.22396021  0.59225468  1
  O  O20  1  0.38572495  0.62172315  0.20950194  1
  O  O21  1  0.29408452  0.22436623  0.40583377  1
