# generated using pymatgen
data_NbAg2(PS4)2
_symmetry_space_group_name_H-M   'P 1'
_cell_length_a   6.89786806
_cell_length_b   12.51477088
_cell_length_c   26.82600198
_cell_angle_alpha   90.00000000
_cell_angle_beta   90.00000000
_cell_angle_gamma   90.00000000
_symmetry_Int_Tables_number   1
_chemical_formula_structural   NbAg2(PS4)2
_chemical_formula_sum   'Nb8 Ag16 P16 S64'
_cell_volume   2315.76101440
_cell_formula_units_Z   8
loop_
 _symmetry_equiv_pos_site_id
 _symmetry_equiv_pos_as_xyz
  1  'x, y, z'
loop_
 _atom_site_type_symbol
 _atom_site_label
 _atom_site_symmetry_multiplicity
 _atom_site_fract_x
 _atom_site_fract_y
 _atom_site_fract_z
 _atom_site_occupancy
  Nb  Nb0  1  0.46723785  0.36673461  0.19553320  1
  Nb  Nb1  1  0.03276215  0.86673461  0.19553320  1
  Nb  Nb2  1  0.53276215  0.63326539  0.69553320  1
  Nb  Nb3  1  0.53276215  0.63326539  0.80446680  1
  Nb  Nb4  1  0.03276215  0.86673461  0.30446680  1
  Nb  Nb5  1  0.46723785  0.36673461  0.30446680  1
  Nb  Nb6  1  0.96723785  0.13326539  0.69553320  1
  Nb  Nb7  1  0.96723785  0.13326539  0.80446680  1
  Ag  Ag8  1  0.52068886  0.15718794  0.45919593  1
  Ag  Ag9  1  0.52068886  0.15718794  0.04080407  1
  Ag  Ag10  1  0.48528844  0.57972813  0.05580873  1
  Ag  Ag11  1  0.02068886  0.34281206  0.95919593  1
  Ag  Ag12  1  0.01471156  0.07972813  0.44419127  1
  Ag  Ag13  1  0.98528844  0.92027187  0.55580873  1
  Ag  Ag14  1  0.51471156  0.42027187  0.55580873  1
  Ag  Ag15  1  0.48528844  0.57972813  0.44419127  1
  Ag  Ag16  1  0.97931114  0.65718794  0.04080407  1
  Ag  Ag17  1  0.97931114  0.65718794  0.45919593  1
  Ag  Ag18  1  0.47931114  0.84281206  0.54080407  1
  Ag  Ag19  1  0.01471156  0.07972813  0.05580873  1
  Ag  Ag20  1  0.02068886  0.34281206  0.54080407  1
  Ag  Ag21  1  0.47931114  0.84281206  0.95919593  1
  Ag  Ag22  1  0.98528844  0.92027187  0.94419127  1
  Ag  Ag23  1  0.51471156  0.42027187  0.94419127  1
  P  P24  1  0.69178656  0.89304014  0.10639910  1
  P  P25  1  0.80821344  0.39304014  0.39360090  1
  P  P26  1  0.37404353  0.84034770  0.10727799  1
  P  P27  1  0.69178656  0.89304014  0.39360090  1
  P  P28  1  0.19178656  0.60695986  0.89360090  1
  P  P29  1  0.19178656  0.60695986  0.60639910  1
  P  P30  1  0.12595647  0.34034770  0.39272201  1
  P  P31  1  0.12595647  0.34034770  0.10727799  1
  P  P32  1  0.62595647  0.15965230  0.89272201  1
  P  P33  1  0.30821344  0.10695986  0.60639910  1
  P  P34  1  0.80821344  0.39304014  0.10639910  1
  P  P35  1  0.87404353  0.65965230  0.89272201  1
  P  P36  1  0.87404353  0.65965230  0.60727799  1
  P  P37  1  0.30821344  0.10695986  0.89360090  1
  P  P38  1  0.37404353  0.84034770  0.39272201  1
  P  P39  1  0.62595647  0.15965230  0.60727799  1
  S  S40  1  0.67137610  0.24076960  0.95930895  1
  S  S41  1  0.18248279  0.24309634  0.16570007  1
  S  S42  1  0.31751721  0.74309634  0.33429993  1
  S  S43  1  0.20332296  0.43865943  0.25000000  1
  S  S44  1  0.71431514  0.97164560  0.03873997  1
  S  S45  1  0.28568486  0.02835440  0.96126003  1
  S  S46  1  0.81751721  0.75690366  0.66570007  1
  S  S47  1  0.55546068  0.46943500  0.75000000  1
  S  S48  1  0.94453932  0.96943500  0.75000000  1
  S  S49  1  0.64712750  0.25970102  0.37977498  1
  S  S50  1  0.22145289  0.97618514  0.37748875  1
  S  S51  1  0.76599875  0.79578816  0.25000000  1
  S  S52  1  0.35287250  0.74029898  0.62022502  1
  S  S53  1  0.85287250  0.75970102  0.12022502  1
  S  S54  1  0.32862390  0.75923040  0.04069105  1
  S  S55  1  0.35287250  0.74029898  0.87977498  1
  S  S56  1  0.75250194  0.99093277  0.33548891  1
  S  S57  1  0.50563768  0.79716652  0.75000000  1
  S  S58  1  0.71431514  0.97164560  0.46126003  1
  S  S59  1  0.74749806  0.49093277  0.16451109  1
  S  S60  1  0.31751721  0.74309634  0.16570007  1
  S  S61  1  0.18248279  0.24309634  0.33429993  1
  S  S62  1  0.81751721  0.75690366  0.83429993  1
  S  S63  1  0.27854711  0.47618514  0.37748875  1
  S  S64  1  0.79667704  0.56134057  0.75000000  1
  S  S65  1  0.26599875  0.70421184  0.75000000  1
  S  S66  1  0.17137610  0.25923040  0.04069105  1
  S  S67  1  0.67137610  0.24076960  0.54069105  1
  S  S68  1  0.70332296  0.06134057  0.75000000  1
  S  S69  1  0.14712750  0.24029898  0.87977498  1
  S  S70  1  0.75250194  0.99093277  0.16451109  1
  S  S71  1  0.74749806  0.49093277  0.33548891  1
  S  S72  1  0.85287250  0.75970102  0.37977498  1
  S  S73  1  0.78568486  0.47164560  0.46126003  1
  S  S74  1  0.99436232  0.29716652  0.75000000  1
  S  S75  1  0.25250194  0.50906723  0.83548891  1
  S  S76  1  0.21431514  0.52835440  0.53873997  1
  S  S77  1  0.82862390  0.74076960  0.54069105  1
  S  S78  1  0.72145289  0.52381486  0.87748875  1
  S  S79  1  0.77854711  0.02381486  0.87748875  1
  S  S80  1  0.64712750  0.25970102  0.12022502  1
  S  S81  1  0.73400125  0.29578816  0.25000000  1
  S  S82  1  0.24749806  0.00906723  0.83548891  1
  S  S83  1  0.68248279  0.25690366  0.66570007  1
  S  S84  1  0.44453932  0.53056500  0.25000000  1
  S  S85  1  0.29667704  0.93865943  0.25000000  1
  S  S86  1  0.72145289  0.52381486  0.62251125  1
  S  S87  1  0.27854711  0.47618514  0.12251125  1
  S  S88  1  0.78568486  0.47164560  0.03873997  1
  S  S89  1  0.22145289  0.97618514  0.12251125  1
  S  S90  1  0.68248279  0.25690366  0.83429993  1
  S  S91  1  0.24749806  0.00906723  0.66451109  1
  S  S92  1  0.77854711  0.02381486  0.62251125  1
  S  S93  1  0.82862390  0.74076960  0.95930895  1
  S  S94  1  0.21431514  0.52835440  0.96126003  1
  S  S95  1  0.25250194  0.50906723  0.66451109  1
  S  S96  1  0.49436232  0.20283348  0.25000000  1
  S  S97  1  0.05546068  0.03056500  0.25000000  1
  S  S98  1  0.32862390  0.75923040  0.45930895  1
  S  S99  1  0.17137610  0.25923040  0.45930895  1
  S  S100  1  0.23400125  0.20421184  0.75000000  1
  S  S101  1  0.14712750  0.24029898  0.62022502  1
  S  S102  1  0.28568486  0.02835440  0.53873997  1
  S  S103  1  0.00563768  0.70283348  0.25000000  1
