# generated using pymatgen
data_BaVZnP2O9
_symmetry_space_group_name_H-M   'P 1'
_cell_length_a   9.00728171
_cell_length_b   9.19036227
_cell_length_c   18.73567279
_cell_angle_alpha   90.00000000
_cell_angle_beta   90.00000000
_cell_angle_gamma   90.00000000
_symmetry_Int_Tables_number   1
_chemical_formula_structural   BaVZnP2O9
_chemical_formula_sum   'Ba8 V8 Zn8 P16 O72'
_cell_volume   1550.94240313
_cell_formula_units_Z   8
loop_
 _symmetry_equiv_pos_site_id
 _symmetry_equiv_pos_as_xyz
  1  'x, y, z'
loop_
 _atom_site_type_symbol
 _atom_site_label
 _atom_site_symmetry_multiplicity
 _atom_site_fract_x
 _atom_site_fract_y
 _atom_site_fract_z
 _atom_site_occupancy
  Ba  Ba0  1  0.65481761  0.00499502  0.09131039  1
  Ba  Ba1  1  0.15481761  0.49500398  0.90868961  1
  Ba  Ba2  1  0.34518239  0.50499602  0.40868961  1
  Ba  Ba3  1  0.84518239  0.99500398  0.59131039  1
  Ba  Ba4  1  0.34518239  0.99500398  0.90868961  1
  Ba  Ba5  1  0.84518239  0.50499602  0.09131039  1
  Ba  Ba6  1  0.65481761  0.49500398  0.59131039  1
  Ba  Ba7  1  0.15481761  0.00499502  0.40868961  1
  V  V8  1  0.49885465  0.15627740  0.28771529  1
  V  V9  1  0.99885465  0.34372260  0.71228471  1
  V  V10  1  0.50114535  0.65627740  0.21228471  1
  V  V11  1  0.00114535  0.84372260  0.78771529  1
  V  V12  1  0.50114535  0.84372260  0.71228471  1
  V  V13  1  0.00114535  0.65627740  0.28771529  1
  V  V14  1  0.49885465  0.34372260  0.78771529  1
  V  V15  1  0.99885465  0.15627740  0.21228471  1
  Zn  Zn16  1  0.68318617  0.90880182  0.41666459  1
  Zn  Zn17  1  0.18318617  0.59119818  0.58333541  1
  Zn  Zn18  1  0.31681383  0.40880182  0.08333541  1
  Zn  Zn19  1  0.81681383  0.09119818  0.91666459  1
  Zn  Zn20  1  0.31681383  0.09119818  0.58333541  1
  Zn  Zn21  1  0.81681383  0.40880182  0.41666459  1
  Zn  Zn22  1  0.68318617  0.59119818  0.91666459  1
  Zn  Zn23  1  0.18318617  0.90880182  0.08333541  1
  P  P24  1  0.95043165  0.79431140  0.97152920  1
  P  P25  1  0.45043165  0.70568860  0.02847080  1
  P  P26  1  0.04956835  0.29431140  0.52847080  1
  P  P27  1  0.54956835  0.20568860  0.47152920  1
  P  P28  1  0.04956835  0.20568860  0.02847080  1
  P  P29  1  0.54956835  0.29431140  0.97152920  1
  P  P30  1  0.95043165  0.70568860  0.47152920  1
  P  P31  1  0.45043165  0.79431140  0.52847080  1
  P  P32  1  0.75102421  0.40351640  0.26197303  1
  P  P33  1  0.25102421  0.09648360  0.73802697  1
  P  P34  1  0.24897579  0.90351640  0.23802697  1
  P  P35  1  0.74897579  0.59648360  0.76197303  1
  P  P36  1  0.24897579  0.59648360  0.73802697  1
  P  P37  1  0.74897579  0.90351640  0.26197303  1
  P  P38  1  0.75102421  0.09648360  0.76197303  1
  P  P39  1  0.25102421  0.40351640  0.23802697  1
  O  O40  1  0.65551988  0.30697094  0.31077648  1
  O  O41  1  0.15551988  0.19302906  0.68922352  1
  O  O42  1  0.34448012  0.80697094  0.18922352  1
  O  O43  1  0.84448012  0.69302906  0.81077648  1
  O  O44  1  0.34448012  0.69302906  0.68922352  1
  O  O45  1  0.84448012  0.80697094  0.31077648  1
  O  O46  1  0.65551988  0.19302906  0.81077648  1
  O  O47  1  0.15551988  0.30697094  0.18922352  1
  O  O48  1  0.66441501  0.50557775  0.21139966  1
  O  O49  1  0.16441501  0.99442225  0.78860034  1
  O  O50  1  0.33558499  0.00557775  0.28860034  1
  O  O51  1  0.83558499  0.49442225  0.71139966  1
  O  O52  1  0.33558499  0.49442225  0.78860034  1
  O  O53  1  0.83558499  0.00557775  0.21139966  1
  O  O54  1  0.66441501  0.99442225  0.71139966  1
  O  O55  1  0.16441501  0.50557775  0.28860034  1
  O  O56  1  0.02984761  0.77904616  0.04498445  1
  O  O57  1  0.52984761  0.72095384  0.95501555  1
  O  O58  1  0.97015239  0.27904616  0.45501555  1
  O  O59  1  0.47015239  0.22095384  0.54498445  1
  O  O60  1  0.97015239  0.22095384  0.95501555  1
  O  O61  1  0.47015239  0.27904616  0.04498445  1
  O  O62  1  0.02984761  0.72095384  0.54498445  1
  O  O63  1  0.52984761  0.77904616  0.45501555  1
  O  O64  1  0.84903946  0.49189499  0.31722103  1
  O  O65  1  0.34903946  0.00810501  0.68277897  1
  O  O66  1  0.15096054  0.99189499  0.18277897  1
  O  O67  1  0.53103716  0.14770842  0.20123483  1
  O  O68  1  0.65096054  0.50810501  0.81722103  1
  O  O69  1  0.65096054  0.99189499  0.31722103  1
  O  O70  1  0.84903946  0.00810501  0.81722103  1
  O  O71  1  0.34903946  0.49189499  0.18277897  1
  O  O72  1  0.88132202  0.63849312  0.95994795  1
  O  O73  1  0.38132202  0.86150688  0.04005205  1
  O  O74  1  0.11867798  0.13849312  0.54005205  1
  O  O75  1  0.61867798  0.36150688  0.45994795  1
  O  O76  1  0.11867798  0.36150688  0.04005205  1
  O  O77  1  0.61867798  0.13849312  0.95994795  1
  O  O78  1  0.88132202  0.86150688  0.45994795  1
  O  O79  1  0.38132202  0.63849312  0.54005205  1
  O  O80  1  0.05906399  0.67195500  0.40918439  1
  O  O81  1  0.55906399  0.82804500  0.59081561  1
  O  O82  1  0.94093601  0.17195500  0.09081561  1
  O  O83  1  0.44093601  0.32804500  0.90918439  1
  O  O84  1  0.94093601  0.32804500  0.59081561  1
  O  O85  1  0.44093601  0.17195500  0.40918439  1
  O  O86  1  0.05906399  0.82804500  0.90918439  1
  O  O87  1  0.55906399  0.67195500  0.09081561  1
  O  O88  1  0.14993524  0.81700677  0.29022147  1
  O  O89  1  0.64993524  0.68299323  0.70977853  1
  O  O90  1  0.85006476  0.31700677  0.20977853  1
  O  O91  1  0.35006476  0.18299323  0.79022147  1
  O  O92  1  0.85006476  0.18299323  0.70977853  1
  O  O93  1  0.35006476  0.31700677  0.29022147  1
  O  O94  1  0.14993524  0.68299323  0.79022147  1
  O  O95  1  0.64993524  0.81700677  0.20977853  1
  O  O96  1  0.32582136  0.90975435  0.52357868  1
  O  O97  1  0.82582136  0.59024565  0.47642132  1
  O  O98  1  0.67417864  0.40975435  0.97642132  1
  O  O99  1  0.17417864  0.09024565  0.02357868  1
  O  O100  1  0.67417864  0.09024565  0.47642132  1
  O  O101  1  0.17417864  0.40975435  0.52357868  1
  O  O102  1  0.32582136  0.59024565  0.02357868  1
  O  O103  1  0.82582136  0.90975435  0.97642132  1
  O  O104  1  0.03103716  0.14770842  0.29876517  1
  O  O105  1  0.53103716  0.35229158  0.70123483  1
  O  O106  1  0.96896284  0.64770842  0.20123483  1
  O  O107  1  0.46896284  0.85229158  0.79876517  1
  O  O108  1  0.96896284  0.85229158  0.70123483  1
  O  O109  1  0.46896284  0.64770842  0.29876517  1
  O  O110  1  0.03103716  0.35229158  0.79876517  1
  O  O111  1  0.15096054  0.50810501  0.68277897  1
