# generated using pymatgen
data_K2AgSbS4
_symmetry_space_group_name_H-M   'P 1'
_cell_length_a   8.09565201
_cell_length_b   10.46500798
_cell_length_c   10.69716509
_cell_angle_alpha   90.00000000
_cell_angle_beta   90.00000000
_cell_angle_gamma   90.00000000
_symmetry_Int_Tables_number   1
_chemical_formula_structural   K2AgSbS4
_chemical_formula_sum   'K8 Ag4 Sb4 S16'
_cell_volume   906.27519631
_cell_formula_units_Z   4
loop_
 _symmetry_equiv_pos_site_id
 _symmetry_equiv_pos_as_xyz
  1  'x, y, z'
loop_
 _atom_site_type_symbol
 _atom_site_label
 _atom_site_symmetry_multiplicity
 _atom_site_fract_x
 _atom_site_fract_y
 _atom_site_fract_z
 _atom_site_occupancy
  K  K0  1  0.44857035  0.74750348  0.26913532  1
  K  K1  1  0.94857035  0.75249652  0.76913532  1
  K  K2  1  0.75977951  0.00000000  0.50000000  1
  K  K3  1  0.25977951  0.50000000  0.00000000  1
  K  K4  1  0.94857035  0.24750348  0.23086468  1
  K  K5  1  0.94772493  0.50000000  0.50000000  1
  K  K6  1  0.44772493  0.00000000  0.00000000  1
  K  K7  1  0.44857035  0.25249652  0.73086468  1
  Ag  Ag8  1  0.45190523  0.50000000  0.50000000  1
  Ag  Ag9  1  0.72540515  0.50000000  0.00000000  1
  Ag  Ag10  1  0.22540515  0.00000000  0.50000000  1
  Ag  Ag11  1  0.95190523  0.00000000  0.00000000  1
  Sb  Sb12  1  0.44914087  0.72685913  0.72410395  1
  Sb  Sb13  1  0.94914087  0.22685913  0.77589605  1
  Sb  Sb14  1  0.94914087  0.77314087  0.22410395  1
  Sb  Sb15  1  0.44914087  0.27314087  0.27589605  1
  S  S16  1  0.80039190  0.42273789  0.78246590  1
  S  S17  1  0.30039190  0.92273789  0.71753410  1
  S  S18  1  0.58618903  0.71555818  0.91988353  1
  S  S19  1  0.30039190  0.07726211  0.28246590  1
  S  S20  1  0.80039190  0.57726211  0.21753410  1
  S  S21  1  0.76857990  0.95144414  0.20199841  1
  S  S22  1  0.13292053  0.20891146  0.94843729  1
  S  S23  1  0.63292053  0.70891146  0.55156271  1
  S  S24  1  0.26857990  0.54855586  0.70199841  1
  S  S25  1  0.08618903  0.21555818  0.58011647  1
  S  S26  1  0.76857990  0.04855586  0.79800159  1
  S  S27  1  0.63292053  0.29108854  0.44843729  1
  S  S28  1  0.13292053  0.79108854  0.05156271  1
  S  S29  1  0.08618903  0.78444182  0.41988353  1
  S  S30  1  0.58618903  0.28444182  0.08011647  1
  S  S31  1  0.26857990  0.45144414  0.29800159  1
