# generated using pymatgen
data_Li9Mn2Co5O16
_symmetry_space_group_name_H-M   'P 1'
_cell_length_a   2.96917185
_cell_length_b   10.05650062
_cell_length_c   9.94439652
_cell_angle_alpha   101.29142033
_cell_angle_beta   90.00000000
_cell_angle_gamma   90.00000000
_symmetry_Int_Tables_number   1
_chemical_formula_structural   Li9Mn2Co5O16
_chemical_formula_sum   'Li9 Mn2 Co5 O16'
_cell_volume   291.18702728
_cell_formula_units_Z   1
loop_
 _symmetry_equiv_pos_site_id
 _symmetry_equiv_pos_as_xyz
  1  'x, y, z'
loop_
 _atom_site_type_symbol
 _atom_site_label
 _atom_site_symmetry_multiplicity
 _atom_site_fract_x
 _atom_site_fract_y
 _atom_site_fract_z
 _atom_site_occupancy
  Li  Li0  1  0.50000000  0.13853383  0.27167530  1
  Li  Li1  1  0.50000000  0.36113980  0.73273775  1
  Li  Li2  1  0.50000000  0.62211781  0.26412916  1
  Li  Li3  1  -0.00000000  0.38963620  0.26026536  1
  Li  Li4  1  0.00000000  0.61546128  0.73918563  1
  Li  Li5  1  -0.00000000  0.87699465  0.26718876  1
  Li  Li6  1  0.50000000  0.87435526  0.73241196  1
  Li  Li7  1  -0.00000000  0.12678374  0.73624161  1
  Li  Li8  1  -0.00000000  0.24944967  0.50521666  1
  Mn  Mn9  1  -0.00000000  0.00259333  0.00077615  1
  Mn  Mn10  1  0.50000000  0.74548729  0.99668617  1
  Co  Co11  1  0.00000000  0.48555314  0.99768414  1
  Co  Co12  1  -0.00000000  0.75309267  0.49721422  1
  Co  Co13  1  0.50000000  0.49190495  0.50279534  1
  Co  Co14  1  0.50000000  0.01393223  0.49656698  1
  Co  Co15  1  0.50000000  0.25658715  0.00424755  1
  O  O16  1  0.50000000  0.93525022  0.10271081  1
  O  O17  1  0.50000000  0.17085301  0.62234498  1
  O  O18  1  0.50000000  0.44902364  0.12263254  1
  O  O19  1  -0.00000000  0.17563096  0.11317935  1
  O  O20  1  -0.00000000  0.44035814  0.61611218  1
  O  O21  1  -0.00000000  0.69674431  0.10452636  1
  O  O22  1  0.50000000  0.67314205  0.61100474  1
  O  O23  1  -0.00000000  0.92247466  0.61703283  1
  O  O24  1  0.50000000  0.33737806  0.38545045  1
  O  O25  1  0.50000000  0.57172080  0.88874682  1
  O  O26  1  0.50000000  0.81506648  0.38137652  1
  O  O27  1  0.00000000  0.57234223  0.38802579  1
  O  O28  1  -0.00000000  0.81063815  0.89173006  1
  O  O29  1  -0.00000000  0.06082001  0.37821637  1
  O  O30  1  0.50000000  0.04866157  0.89090149  1
  O  O31  1  -0.00000000  0.31627273  0.88098596  1
