# generated using pymatgen
data_ZnS
_symmetry_space_group_name_H-M   'P 1'
_cell_length_a   25.28356787
_cell_length_b   25.28356780
_cell_length_c   25.28356842
_cell_angle_alpha   8.74246979
_cell_angle_beta   8.74247085
_cell_angle_gamma   8.74246997
_symmetry_Int_Tables_number   1
_chemical_formula_structural   ZnS
_chemical_formula_sum   'Zn8 S8'
_cell_volume   323.99439907
_cell_formula_units_Z   8
loop_
 _symmetry_equiv_pos_site_id
 _symmetry_equiv_pos_as_xyz
  1  'x, y, z'
loop_
 _atom_site_type_symbol
 _atom_site_label
 _atom_site_symmetry_multiplicity
 _atom_site_fract_x
 _atom_site_fract_y
 _atom_site_fract_z
 _atom_site_occupancy
  Zn  Zn0  1  0.54167933  0.54167933  0.54167933  1
  Zn  Zn1  1  0.00001903  0.00001903  0.00001903  1
  Zn  Zn2  1  0.45834691  0.45834691  0.45834691  1
  Zn  Zn3  1  0.83335009  0.83335009  0.83335009  1
  Zn  Zn4  1  0.62501970  0.62501970  0.62501970  1
  Zn  Zn5  1  0.91668239  0.91668239  0.91668239  1
  Zn  Zn6  1  0.75000307  0.75000307  0.75000307  1
  Zn  Zn7  1  0.37501075  0.37501075  0.37501075  1
  S  S8  1  0.65626110  0.65626110  0.65626110  1
  S  S9  1  0.57290033  0.57290033  0.57290033  1
  S  S10  1  0.48956923  0.48956923  0.48956923  1
  S  S11  1  0.86457076  0.86457076  0.86457076  1
  S  S12  1  0.78123466  0.78123466  0.78123466  1
  S  S13  1  0.40621654  0.40621654  0.40621654  1
  S  S14  1  0.03123811  0.03123811  0.03123811  1
  S  S15  1  0.94790401  0.94790401  0.94790401  1
