# generated using pymatgen
data_La4Mn5(Si2O11)2
_symmetry_space_group_name_H-M   'P 1'
_cell_length_a   5.67865548
_cell_length_b   7.62772969
_cell_length_c   11.35657380
_cell_angle_alpha   74.08453445
_cell_angle_beta   75.51830419
_cell_angle_gamma   68.14354703
_symmetry_Int_Tables_number   1
_chemical_formula_structural   La4Mn5(Si2O11)2
_chemical_formula_sum   'La4 Mn5 Si4 O22'
_cell_volume   432.97615189
_cell_formula_units_Z   1
loop_
 _symmetry_equiv_pos_site_id
 _symmetry_equiv_pos_as_xyz
  1  'x, y, z'
loop_
 _atom_site_type_symbol
 _atom_site_label
 _atom_site_symmetry_multiplicity
 _atom_site_fract_x
 _atom_site_fract_y
 _atom_site_fract_z
 _atom_site_occupancy
  La  La0  1  0.76188255  0.21483660  0.26137034  1
  La  La1  1  0.23811745  0.78516340  0.73862966  1
  La  La2  1  0.94848165  0.35524454  0.74788971  1
  La  La3  1  0.05151835  0.64475546  0.25211029  1
  Mn  Mn4  1  0.74886115  1.00001646  0.00001102  1
  Mn  Mn5  1  0.25113885  -0.00001646  0.99998898  1
  Mn  Mn6  1  0.73237285  0.53429681  0.00096228  1
  Mn  Mn7  1  0.26762715  0.46570319  0.99903772  1
  Mn  Mn8  1  0.50000000  0.50000000  0.50000000  1
  Si  Si9  1  0.83486018  0.77988051  0.55048512  1
  Si  Si10  1  0.16513982  0.22011949  0.44951488  1
  Si  Si11  1  0.58713833  0.08932261  0.73646695  1
  Si  Si12  1  0.41286167  0.91067739  0.26353305  1
  O  O13  1  0.67146687  0.96694936  0.18156046  1
  O  O14  1  0.81999831  0.03311380  0.81843104  1
  O  O15  1  0.32853313  0.03305064  0.81843954  1
  O  O16  1  0.18000169  0.96688620  0.18156896  1
  O  O17  1  0.45867170  0.45572057  0.12448411  1
  O  O18  1  0.03891175  0.54428464  0.87551649  1
  O  O19  1  0.54132830  0.54427943  0.87551589  1
  O  O20  1  0.96108825  0.45571536  0.12448351  1
  O  O21  1  0.35250184  0.35548252  0.39983578  1
  O  O22  1  0.10794218  0.64456511  0.60013396  1
  O  O23  1  0.64749816  0.64451748  0.60016422  1
  O  O24  1  0.89205782  0.35543489  0.39986604  1
  O  O25  1  0.91209590  0.18871257  0.98705953  1
  O  O26  1  0.08790410  0.81128743  0.01294047  1
  O  O27  1  0.58453314  0.81873386  0.01224100  1
  O  O28  1  0.41546686  0.18126614  0.98775900  1
  O  O29  1  0.50323077  0.31524232  0.67811244  1
  O  O30  1  0.49676923  0.68475768  0.32188756  1
  O  O31  1  0.70800126  0.94988202  0.63423495  1
  O  O32  1  0.29199874  0.05011798  0.36576505  1
  O  O33  1  0.86491110  0.86708060  0.40303782  1
  O  O34  1  0.13508890  0.13291940  0.59696218  1
