# generated using pymatgen
data_AlP3(HO2)6
_symmetry_space_group_name_H-M   'P 1'
_cell_length_a   4.96970521
_cell_length_b   8.10532319
_cell_length_c   11.83902562
_cell_angle_alpha   95.42867521
_cell_angle_beta   90.00000000
_cell_angle_gamma   90.00000000
_symmetry_Int_Tables_number   1
_chemical_formula_structural   AlP3(HO2)6
_chemical_formula_sum   'Al2 P6 H12 O24'
_cell_volume   474.74961382
_cell_formula_units_Z   2
loop_
 _symmetry_equiv_pos_site_id
 _symmetry_equiv_pos_as_xyz
  1  'x, y, z'
loop_
 _atom_site_type_symbol
 _atom_site_label
 _atom_site_symmetry_multiplicity
 _atom_site_fract_x
 _atom_site_fract_y
 _atom_site_fract_z
 _atom_site_occupancy
  Al  Al0  1  0.00000000  0.50000000  0.50000000  1
  Al  Al1  1  0.00000000  0.50000000  0.00000000  1
  P  P2  1  0.76659531  0.50000000  0.25000000  1
  P  P3  1  0.49932698  0.28372357  0.90374773  1
  P  P4  1  0.23340469  0.50000000  0.75000000  1
  P  P5  1  0.49932698  0.71627643  0.59625227  1
  P  P6  1  0.50067302  0.28372357  0.40374773  1
  P  P7  1  0.50067302  0.71627643  0.09625227  1
  H  H8  1  0.35048630  0.02651813  0.37057583  1
  H  H9  1  0.08172616  0.82642424  0.39608573  1
  H  H10  1  0.91827384  0.82642424  0.89608573  1
  H  H11  1  0.64951370  0.02651813  0.87057583  1
  H  H12  1  0.92028364  0.01519091  0.13350161  1
  H  H13  1  0.08172616  0.17357576  0.10391427  1
  H  H14  1  0.92028364  0.98480909  0.36649839  1
  H  H15  1  0.35048630  0.97348187  0.12942417  1
  H  H16  1  0.07971636  0.98480909  0.86649839  1
  H  H17  1  0.91827384  0.17357576  0.60391427  1
  H  H18  1  0.64951370  0.97348187  0.62942417  1
  H  H19  1  0.07971636  0.01519091  0.63350161  1
  O  O20  1  0.46701759  0.09238160  0.87735456  1
  O  O21  1  0.43069850  0.35621643  0.78296017  1
  O  O22  1  0.46701759  0.90761840  0.62264544  1
  O  O23  1  0.53298241  0.90761840  0.12264544  1
  O  O24  1  0.78852520  0.67543550  0.56795506  1
  O  O25  1  0.09580266  0.07041981  0.14014907  1
  O  O26  1  0.09580266  0.92958019  0.35985093  1
  O  O27  1  0.92110751  0.56818788  0.35339084  1
  O  O28  1  0.70788980  0.65032058  0.00966386  1
  O  O29  1  0.70788980  0.34967942  0.49033614  1
  O  O30  1  0.56930150  0.64378357  0.21703983  1
  O  O31  1  0.43069850  0.64378357  0.71703983  1
  O  O32  1  0.21147480  0.32456450  0.43204494  1
  O  O33  1  0.29211020  0.65032058  0.50966386  1
  O  O34  1  0.90419734  0.92958019  0.85985093  1
  O  O35  1  0.90419734  0.07041981  0.64014907  1
  O  O36  1  0.07889249  0.43181212  0.64660916  1
  O  O37  1  0.29211020  0.34967942  0.99033614  1
  O  O38  1  0.78852520  0.32456450  0.93204494  1
  O  O39  1  0.92110751  0.43181212  0.14660916  1
  O  O40  1  0.21147480  0.67543550  0.06795506  1
  O  O41  1  0.53298241  0.09238160  0.37735456  1
  O  O42  1  0.56930150  0.35621643  0.28296017  1
  O  O43  1  0.07889249  0.56818788  0.85339084  1
