# generated using pymatgen
data_Ti3O5
_symmetry_space_group_name_H-M   'P 1'
_cell_length_a   3.79535368
_cell_length_b   5.28914453
_cell_length_c   10.02092038
_cell_angle_alpha   91.10148942
_cell_angle_beta   90.00000000
_cell_angle_gamma   111.02572651
_symmetry_Int_Tables_number   1
_chemical_formula_structural   Ti3O5
_chemical_formula_sum   'Ti6 O10'
_cell_volume   187.72841420
_cell_formula_units_Z   2
loop_
 _symmetry_equiv_pos_site_id
 _symmetry_equiv_pos_as_xyz
  1  'x, y, z'
loop_
 _atom_site_type_symbol
 _atom_site_label
 _atom_site_symmetry_multiplicity
 _atom_site_fract_x
 _atom_site_fract_y
 _atom_site_fract_z
 _atom_site_occupancy
  Ti  Ti0  1  0.19581137  0.39162275  0.75665113  1
  Ti  Ti1  1  0.87093355  0.74186711  0.95018247  1
  Ti  Ti2  1  0.80418863  0.60837725  0.24334887  1
  Ti  Ti3  1  0.12906645  0.25813289  0.04981753  1
  Ti  Ti4  1  0.13432381  0.26864762  0.43540259  1
  Ti  Ti5  1  0.86567619  0.73135238  0.56459741  1
  O  O6  1  0.94867870  0.89735740  0.38497533  1
  O  O7  1  0.67874788  0.35749577  0.06373812  1
  O  O8  1  0.04497048  0.08994095  0.86831596  1
  O  O9  1  0.95502952  0.91005905  0.13168404  1
  O  O10  1  0.32125212  0.64250423  0.93626188  1
  O  O11  1  0.76235205  0.52470411  0.75001830  1
  O  O12  1  0.31213337  0.62426675  0.57356844  1
  O  O13  1  0.23764795  0.47529589  0.24998170  1
  O  O14  1  0.05132130  0.10264260  0.61502467  1
  O  O15  1  0.68786663  0.37573325  0.42643156  1
