# generated using pymatgen
data_Ba2NdAlO5
_symmetry_space_group_name_H-M   'P 1'
_cell_length_a   6.21964054
_cell_length_b   7.43423517
_cell_length_c   7.62085330
_cell_angle_alpha   117.76946421
_cell_angle_beta   90.00000000
_cell_angle_gamma   90.00000000
_symmetry_Int_Tables_number   1
_chemical_formula_structural   Ba2NdAlO5
_chemical_formula_sum   'Ba4 Nd2 Al2 O10'
_cell_volume   311.79183069
_cell_formula_units_Z   2
loop_
 _symmetry_equiv_pos_site_id
 _symmetry_equiv_pos_as_xyz
  1  'x, y, z'
loop_
 _atom_site_type_symbol
 _atom_site_label
 _atom_site_symmetry_multiplicity
 _atom_site_fract_x
 _atom_site_fract_y
 _atom_site_fract_z
 _atom_site_occupancy
  Ba  Ba0  1  0.24018634  0.13591886  0.39599956  1
  Ba  Ba1  1  0.24422897  0.69224668  0.85646620  1
  Ba  Ba2  1  0.74018634  0.86408114  0.60400044  1
  Ba  Ba3  1  0.74422897  0.30775332  0.14353380  1
  Nd  Nd4  1  0.23879739  0.59810387  0.33604843  1
  Nd  Nd5  1  0.73879739  0.40189613  0.66395157  1
  Al  Al6  1  0.72702111  0.83168108  0.16351497  1
  Al  Al7  1  0.22702111  0.16831892  0.83648503  1
  O  O8  1  0.50199898  0.50055668  0.48821271  1
  O  O9  1  0.26032088  0.90683520  0.65570460  1
  O  O10  1  0.42441641  0.30509524  0.77472496  1
  O  O11  1  0.75212572  0.77537302  0.90964174  1
  O  O12  1  0.76032088  0.09316480  0.34429540  1
  O  O13  1  0.96290421  0.23514754  0.79292633  1
  O  O14  1  1.00199898  0.49944332  0.51178729  1
  O  O15  1  0.46290421  0.76485246  0.20707367  1
  O  O16  1  0.25212572  0.22462698  0.09035826  1
  O  O17  1  0.92441641  0.69490476  0.22527504  1
