# generated using pymatgen
data_Ni18Bi3AsS16
_symmetry_space_group_name_H-M   'P 1'
_cell_length_a   9.05732902
_cell_length_b   9.05732912
_cell_length_c   9.05732883
_cell_angle_alpha   106.61173710
_cell_angle_beta   110.91960914
_cell_angle_gamma   110.91960701
_symmetry_Int_Tables_number   1
_chemical_formula_structural   Ni18Bi3AsS16
_chemical_formula_sum   'Ni18 Bi3 As1 S16'
_cell_volume   570.91520783
_cell_formula_units_Z   1
loop_
 _symmetry_equiv_pos_site_id
 _symmetry_equiv_pos_as_xyz
  1  'x, y, z'
loop_
 _atom_site_type_symbol
 _atom_site_label
 _atom_site_symmetry_multiplicity
 _atom_site_fract_x
 _atom_site_fract_y
 _atom_site_fract_z
 _atom_site_occupancy
  Ni  Ni0  1  0.71375016  0.23562530  0.23562530  1
  Ni  Ni1  1  1.00000000  0.23562530  0.52187514  1
  Ni  Ni2  1  0.50000000  0.00000000  0.50000000  1
  Ni  Ni3  1  0.00000000  0.29772602  0.95469000  1
  Ni  Ni4  1  1.00000000  0.04531000  0.70227398  1
  Ni  Ni5  1  0.34303602  0.04531000  0.04531000  1
  Ni  Ni6  1  1.00000000  0.47812486  0.76437470  1
  Ni  Ni7  1  0.65696398  0.95469000  0.95469000  1
  Ni  Ni8  1  0.71375016  0.47812486  0.47812486  1
  Ni  Ni9  1  0.34303602  0.29772602  0.29772602  1
  Ni  Ni10  1  0.00000000  0.95469000  0.29772602  1
  Ni  Ni11  1  0.28624984  0.52187514  0.52187514  1
  Ni  Ni12  1  0.28624984  0.76437470  0.76437470  1
  Ni  Ni13  1  0.00000000  0.52187514  0.23562530  1
  Ni  Ni14  1  0.65696398  0.70227398  0.70227398  1
  Ni  Ni15  1  0.50000000  0.50000000  0.00000000  1
  Ni  Ni16  1  0.00000000  0.76437470  0.47812486  1
  Ni  Ni17  1  1.00000000  0.70227398  0.04531000  1
  Bi  Bi18  1  0.50000000  0.75000000  0.25000000  1
  Bi  Bi19  1  0.50000000  0.25000000  0.75000000  1
  Bi  Bi20  1  0.00000000  0.00000000  0.00000000  1
  As  As21  1  0.00000000  0.50000000  0.50000000  1
  S  S22  1  0.77271218  0.75947584  0.53218802  1
  S  S23  1  0.22728782  0.46781198  0.24052416  1
  S  S24  1  0.51115629  0.16350378  0.34765251  1
  S  S25  1  0.48884371  0.83649622  0.65234749  1
  S  S26  1  0.18414873  0.34765251  0.83649622  1
  S  S27  1  0.18414873  0.83649622  0.34765251  1
  S  S28  1  0.48884371  0.65234749  0.83649622  1
  S  S29  1  0.81585127  0.16350378  0.65234749  1
  S  S30  1  0.77271218  0.24052416  0.01323633  1
  S  S31  1  0.51115629  0.34765251  0.16350378  1
  S  S32  1  0.77271218  0.01323633  0.24052416  1
  S  S33  1  0.22728782  0.24052416  0.46781198  1
  S  S34  1  0.81585127  0.65234749  0.16350378  1
  S  S35  1  0.22728782  0.98676367  0.75947584  1
  S  S36  1  0.22728782  0.75947584  0.98676367  1
  S  S37  1  0.77271218  0.53218802  0.75947584  1
