# generated using pymatgen
data_Ba2Ca3Tl2(CuO3)4
_symmetry_space_group_name_H-M   'P 1'
_cell_length_a   3.91530349
_cell_length_b   3.91530337
_cell_length_c   22.08049957
_cell_angle_alpha   95.08651263
_cell_angle_beta   95.08651226
_cell_angle_gamma   89.99999701
_symmetry_Int_Tables_number   1
_chemical_formula_structural   Ba2Ca3Tl2(CuO3)4
_chemical_formula_sum   'Ba2 Ca3 Tl2 Cu4 O12'
_cell_volume   335.81402212
_cell_formula_units_Z   1
loop_
 _symmetry_equiv_pos_site_id
 _symmetry_equiv_pos_as_xyz
  1  'x, y, z'
loop_
 _atom_site_type_symbol
 _atom_site_label
 _atom_site_symmetry_multiplicity
 _atom_site_fract_x
 _atom_site_fract_y
 _atom_site_fract_z
 _atom_site_occupancy
  Ba  Ba0  1  0.84528969  0.84528969  0.69057938  1
  Ba  Ba1  1  0.15471031  0.15471031  0.30942062  1
  Ca  Ca2  1  0.07414144  0.07414144  0.14828289  1
  Ca  Ca3  1  0.92585856  0.92585856  0.85171711  1
  Ca  Ca4  1  -0.00000000  -0.00000000  0.00000000  1
  Tl  Tl5  1  0.72377509  0.72377509  0.44755018  1
  Tl  Tl6  1  0.27622491  0.27622491  0.55244982  1
  Cu  Cu7  1  0.39117539  0.39117539  0.78234979  1
  Cu  Cu8  1  0.53715134  0.53715134  0.07430167  1
  Cu  Cu9  1  0.60882461  0.60882461  0.21765021  1
  Cu  Cu10  1  0.46284866  0.46284866  0.92569833  1
  O  O11  1  0.46323281  0.96323281  0.92646661  1
  O  O12  1  0.67589589  0.67589589  0.35179179  1
  O  O13  1  0.53676719  0.03676719  0.07353339  1
  O  O14  1  0.96323281  0.46323281  0.92646661  1
  O  O15  1  0.32410411  0.32410411  0.64820821  1
  O  O16  1  0.10964336  0.60964336  0.21928673  1
  O  O17  1  0.75000000  0.25000000  0.50000000  1
  O  O18  1  0.60964336  0.10964336  0.21928673  1
  O  O19  1  0.89035664  0.39035664  0.78071327  1
  O  O20  1  0.03676719  0.53676719  0.07353339  1
  O  O21  1  0.39035664  0.89035664  0.78071327  1
  O  O22  1  0.25000000  0.75000000  0.50000000  1
