# generated using pymatgen
data_Ca3Ge(ClO2)2
_symmetry_space_group_name_H-M   'P 1'
_cell_length_a   5.76546439
_cell_length_b   10.44754603
_cell_length_c   11.78676990
_cell_angle_alpha   90.00000000
_cell_angle_beta   90.00000000
_cell_angle_gamma   90.00000000
_symmetry_Int_Tables_number   1
_chemical_formula_structural   Ca3Ge(ClO2)2
_chemical_formula_sum   'Ca12 Ge4 Cl8 O16'
_cell_volume   709.97554979
_cell_formula_units_Z   4
loop_
 _symmetry_equiv_pos_site_id
 _symmetry_equiv_pos_as_xyz
  1  'x, y, z'
loop_
 _atom_site_type_symbol
 _atom_site_label
 _atom_site_symmetry_multiplicity
 _atom_site_fract_x
 _atom_site_fract_y
 _atom_site_fract_z
 _atom_site_occupancy
  Ca  Ca0  1  0.38275574  0.58029476  0.66331943  1
  Ca  Ca1  1  0.39802549  0.25000000  0.04033050  1
  Ca  Ca2  1  0.61724426  0.41970524  0.33668057  1
  Ca  Ca3  1  0.60197451  0.75000000  0.95966950  1
  Ca  Ca4  1  0.88275574  0.41970524  0.83668057  1
  Ca  Ca5  1  0.10197451  0.25000000  0.54033050  1
  Ca  Ca6  1  0.88275574  0.08029476  0.83668057  1
  Ca  Ca7  1  0.38275574  0.91970524  0.66331943  1
  Ca  Ca8  1  0.11724426  0.91970524  0.16331943  1
  Ca  Ca9  1  0.11724426  0.58029476  0.16331943  1
  Ca  Ca10  1  0.89802549  0.75000000  0.45966950  1
  Ca  Ca11  1  0.61724426  0.08029476  0.33668057  1
  Ge  Ge12  1  0.32178258  0.25000000  0.77859933  1
  Ge  Ge13  1  0.67821742  0.75000000  0.22140067  1
  Ge  Ge14  1  0.17821742  0.25000000  0.27859933  1
  Ge  Ge15  1  0.82178258  0.75000000  0.72140067  1
  Cl  Cl16  1  0.75152543  0.43255110  0.07008892  1
  Cl  Cl17  1  0.24847457  0.93255110  0.92991108  1
  Cl  Cl18  1  0.24847457  0.56744890  0.92991108  1
  Cl  Cl19  1  0.25152543  0.56744890  0.42991108  1
  Cl  Cl20  1  0.74847457  0.43255110  0.57008892  1
  Cl  Cl21  1  0.75152543  0.06744890  0.07008892  1
  Cl  Cl22  1  0.25152543  0.93255110  0.42991108  1
  Cl  Cl23  1  0.74847457  0.06744890  0.57008892  1
  O  O24  1  0.22151583  0.38252997  0.69672922  1
  O  O25  1  0.27848417  0.11747003  0.19672922  1
  O  O26  1  0.87248369  0.75000000  0.10221313  1
  O  O27  1  0.72151583  0.88252997  0.80327078  1
  O  O28  1  0.89412992  0.25000000  0.33547369  1
  O  O29  1  0.39412992  0.75000000  0.16452631  1
  O  O30  1  0.10587008  0.75000000  0.66452631  1
  O  O31  1  0.62751631  0.75000000  0.60221313  1
  O  O32  1  0.72151583  0.61747003  0.80327078  1
  O  O33  1  0.77848417  0.61747003  0.30327078  1
  O  O34  1  0.22151583  0.11747003  0.69672922  1
  O  O35  1  0.77848417  0.88252997  0.30327078  1
  O  O36  1  0.12751631  0.25000000  0.89778687  1
  O  O37  1  0.60587008  0.25000000  0.83547369  1
  O  O38  1  0.27848417  0.38252997  0.19672922  1
  O  O39  1  0.37248369  0.25000000  0.39778687  1
