# generated using pymatgen
data_KCu3S2ClO9
_symmetry_space_group_name_H-M   'P 1'
_cell_length_a   7.21750174
_cell_length_b   9.80940057
_cell_length_c   13.03598799
_cell_angle_alpha   90.00000000
_cell_angle_beta   90.00000000
_cell_angle_gamma   90.00000000
_symmetry_Int_Tables_number   1
_chemical_formula_structural   KCu3S2ClO9
_chemical_formula_sum   'K4 Cu12 S8 Cl4 O36'
_cell_volume   922.93968073
_cell_formula_units_Z   4
loop_
 _symmetry_equiv_pos_site_id
 _symmetry_equiv_pos_as_xyz
  1  'x, y, z'
loop_
 _atom_site_type_symbol
 _atom_site_label
 _atom_site_symmetry_multiplicity
 _atom_site_fract_x
 _atom_site_fract_y
 _atom_site_fract_z
 _atom_site_occupancy
  K  K0  1  0.34525341  0.86437623  0.42468980  1
  K  K1  1  0.84525341  0.63562377  0.92468980  1
  K  K2  1  0.34525341  0.36437623  0.07531020  1
  K  K3  1  0.84525341  0.13562377  0.57531020  1
  Cu  Cu4  1  0.33353496  0.34688468  0.64809516  1
  Cu  Cu5  1  0.83571853  0.72106727  0.59424358  1
  Cu  Cu6  1  0.83353496  0.65311532  0.35190484  1
  Cu  Cu7  1  0.08286029  0.50113368  0.50024279  1
  Cu  Cu8  1  0.33571853  0.77893273  0.09424358  1
  Cu  Cu9  1  0.58286029  0.99886632  0.00024279  1
  Cu  Cu10  1  0.83353496  0.15311532  0.14809516  1
  Cu  Cu11  1  0.08286029  0.00113368  0.99975721  1
  Cu  Cu12  1  0.58286029  0.49886632  0.49975721  1
  Cu  Cu13  1  0.83571853  0.22106727  0.90575642  1
  Cu  Cu14  1  0.33571853  0.27893273  0.40575642  1
  Cu  Cu15  1  0.33353496  0.84688468  0.85190484  1
  S  S16  1  0.83351336  0.83424695  0.14502199  1
  S  S17  1  0.83727129  0.42888633  0.70941346  1
  S  S18  1  0.83727129  0.92888633  0.79058654  1
  S  S19  1  0.33727129  0.57111367  0.29058654  1
  S  S20  1  0.33351336  0.66575305  0.64502199  1
  S  S21  1  0.83351336  0.33424695  0.35497801  1
  S  S22  1  0.33727129  0.07111367  0.20941346  1
  S  S23  1  0.33351336  0.16575305  0.85497801  1
  Cl  Cl24  1  0.33869810  0.14129977  0.55727060  1
  Cl  Cl25  1  0.83869810  0.35870023  0.05727060  1
  Cl  Cl26  1  0.83869810  0.85870023  0.44272940  1
  Cl  Cl27  1  0.33869810  0.64129977  0.94272940  1
  O  O28  1  0.50300111  0.16831155  0.92406487  1
  O  O29  1  0.34018595  0.11312507  0.32074508  1
  O  O30  1  0.00300111  0.83168845  0.07593513  1
  O  O31  1  0.84018595  0.38687493  0.82074508  1
  O  O32  1  0.83228650  0.07705318  0.00909672  1
  O  O33  1  0.50300111  0.66831155  0.57593513  1
  O  O34  1  0.50073446  0.62742332  0.34575679  1
  O  O35  1  0.00073446  0.37257668  0.65424321  1
  O  O36  1  0.66760664  0.87877121  0.84229051  1
  O  O37  1  0.34018595  0.61312507  0.17925492  1
  O  O38  1  0.32964876  0.54317645  0.70961936  1
  O  O39  1  0.84349287  0.08192896  0.78649980  1
  O  O40  1  0.82964876  0.45682355  0.29038064  1
  O  O41  1  0.16676707  0.67217629  0.57450679  1
  O  O42  1  0.16760664  0.62122879  0.34229051  1
  O  O43  1  0.33692671  0.79225242  0.70567733  1
  O  O44  1  0.34349287  0.41807104  0.28649980  1
  O  O45  1  0.83228650  0.57705318  0.49090328  1
  O  O46  1  0.83692671  0.20774758  0.29432267  1
  O  O47  1  0.16676707  0.17217629  0.92549321  1
  O  O48  1  0.32964876  0.04317645  0.79038064  1
  O  O49  1  0.84018595  0.88687493  0.67925492  1
  O  O50  1  0.33228650  0.92294682  0.99090328  1
  O  O51  1  0.66676707  0.82782371  0.07450679  1
  O  O52  1  0.00300111  0.33168845  0.42406487  1
  O  O53  1  0.33692671  0.29225242  0.79432267  1
  O  O54  1  0.34349287  0.91807104  0.21350020  1
  O  O55  1  0.84349287  0.58192896  0.71350020  1
  O  O56  1  0.66760664  0.37877121  0.65770949  1
  O  O57  1  0.00073446  0.87257668  0.84575679  1
  O  O58  1  0.83692671  0.70774758  0.20567733  1
  O  O59  1  0.33228650  0.42294682  0.50909672  1
  O  O60  1  0.16760664  0.12122879  0.15770949  1
  O  O61  1  0.50073446  0.12742332  0.15424321  1
  O  O62  1  0.82964876  0.95682355  0.20961936  1
  O  O63  1  0.66676707  0.32782371  0.42549321  1
