# generated using pymatgen
data_LiY6B3O14
_symmetry_space_group_name_H-M   'P 1'
_cell_length_a   8.43057165
_cell_length_b   8.90843073
_cell_length_c   15.63134411
_cell_angle_alpha   90.00000000
_cell_angle_beta   90.00000000
_cell_angle_gamma   91.85278571
_symmetry_Int_Tables_number   1
_chemical_formula_structural   LiY6B3O14
_chemical_formula_sum   'Li4 Y24 B12 O56'
_cell_volume   1173.34964296
_cell_formula_units_Z   4
loop_
 _symmetry_equiv_pos_site_id
 _symmetry_equiv_pos_as_xyz
  1  'x, y, z'
loop_
 _atom_site_type_symbol
 _atom_site_label
 _atom_site_symmetry_multiplicity
 _atom_site_fract_x
 _atom_site_fract_y
 _atom_site_fract_z
 _atom_site_occupancy
  Li  Li0  1  0.18014586  0.06376492  0.10579470  1
  Li  Li1  1  0.81985414  0.93623508  0.89420530  1
  Li  Li2  1  0.31985414  0.43623508  0.60579470  1
  Li  Li3  1  0.68014586  0.56376492  0.39420530  1
  Y  Y4  1  0.42241781  0.83492022  0.33367590  1
  Y  Y5  1  0.54118736  0.55612910  0.17358725  1
  Y  Y6  1  0.85608914  0.30732065  0.82168564  1
  Y  Y7  1  0.05157196  0.71626173  0.48655579  1
  Y  Y8  1  0.14391086  0.69267935  0.17831436  1
  Y  Y9  1  0.27721004  0.42423407  0.35576063  1
  Y  Y10  1  0.64391086  0.19267935  0.32168564  1
  Y  Y11  1  0.92241781  0.33492022  0.16632410  1
  Y  Y12  1  0.72278996  0.57576593  0.64423937  1
  Y  Y13  1  0.35608914  0.80732065  0.67831436  1
  Y  Y14  1  0.77721004  0.92423407  0.14423937  1
  Y  Y15  1  0.44842804  0.78373827  0.98655579  1
  Y  Y16  1  0.55157196  0.21626173  0.01344421  1
  Y  Y17  1  0.69951317  0.93876506  0.49622686  1
  Y  Y18  1  0.22278996  0.07576593  0.85576063  1
  Y  Y19  1  0.95881264  0.94387090  0.67358725  1
  Y  Y20  1  0.45881264  0.44387090  0.82641275  1
  Y  Y21  1  0.30048683  0.06123494  0.50377314  1
  Y  Y22  1  0.07758219  0.66507978  0.83367590  1
  Y  Y23  1  0.04118736  0.05612910  0.32641275  1
  Y  Y24  1  0.80048683  0.56123494  0.99622686  1
  Y  Y25  1  0.19951317  0.43876506  0.00377314  1
  Y  Y26  1  0.57758219  0.16507978  0.66632410  1
  Y  Y27  1  0.94842804  0.28373827  0.51344421  1
  B  B28  1  0.32186363  0.27777846  0.19194557  1
  B  B29  1  0.92862568  0.47173771  0.32742559  1
  B  B30  1  0.07137432  0.52826229  0.67257441  1
  B  B31  1  0.93448201  0.14561926  0.99986060  1
  B  B32  1  0.42862568  0.97173771  0.17257441  1
  B  B33  1  0.82186363  0.77777846  0.30805443  1
  B  B34  1  0.57137432  0.02826229  0.82742559  1
  B  B35  1  0.43448201  0.64561926  0.50013940  1
  B  B36  1  0.17813637  0.22222154  0.69194557  1
  B  B37  1  0.56551799  0.35438074  0.49986060  1
  B  B38  1  0.06551799  0.85438074  0.00013940  1
  B  B39  1  0.67813637  0.72222154  0.80805443  1
  O  O40  1  0.14821482  0.19948367  0.60582999  1
  O  O41  1  0.53222573  0.38127690  0.41468212  1
  O  O42  1  0.46777427  0.61872310  0.58531788  1
  O  O43  1  0.94849456  0.50460301  0.73078967  1
  O  O44  1  0.05150544  0.49539699  0.26921033  1
  O  O45  1  0.71577911  0.07888094  0.79433471  1
  O  O46  1  0.96025643  0.49215971  0.41303855  1
  O  O47  1  0.20958736  0.90682551  0.96497015  1
  O  O48  1  0.00981426  0.53634564  0.09011414  1
  O  O49  1  0.54185265  0.72300651  0.44903734  1
  O  O50  1  0.30685704  0.60475487  0.90182762  1
  O  O51  1  0.17716777  0.22431922  0.22322877  1
  O  O52  1  0.03974357  0.50784029  0.58696145  1
  O  O53  1  0.46025643  0.99215971  0.08696145  1
  O  O54  1  0.32283223  0.27568078  0.72322877  1
  O  O55  1  0.05899238  0.17797550  0.75016179  1
  O  O56  1  0.94100762  0.82202450  0.24983821  1
  O  O57  1  0.28422089  0.92111906  0.20566529  1
  O  O58  1  0.79041264  0.09317449  0.03502985  1
  O  O59  1  0.50981426  0.03634564  0.40988586  1
  O  O60  1  0.15784676  0.22301574  0.42019877  1
  O  O61  1  0.67716777  0.72431922  0.27677123  1
  O  O62  1  0.21577911  0.57888094  0.70566529  1
  O  O63  1  0.99018574  0.46365436  0.90988586  1
  O  O64  1  0.04185265  0.22300651  0.05096266  1
  O  O65  1  0.44849456  0.00460301  0.76921033  1
  O  O66  1  0.45814735  0.27699349  0.55096266  1
  O  O67  1  0.35178518  0.30051633  0.10582999  1
  O  O68  1  0.65784676  0.72301574  0.07980123  1
  O  O69  1  0.03222573  0.88127690  0.08531788  1
  O  O70  1  0.55899238  0.67797550  0.74983821  1
  O  O71  1  0.84215324  0.77698426  0.57980123  1
  O  O72  1  0.69314296  0.39524513  0.09817238  1
  O  O73  1  0.16122820  0.87513804  0.58500877  1
  O  O74  1  0.83877180  0.12486196  0.41499123  1
  O  O75  1  0.84842766  0.12190421  0.23215325  1
  O  O76  1  0.85178518  0.80051633  0.39417001  1
  O  O77  1  0.19314296  0.89524513  0.40182762  1
  O  O78  1  0.95814735  0.77699349  0.94903734  1
  O  O79  1  0.78422089  0.42111906  0.29433471  1
  O  O80  1  0.44100762  0.32202450  0.25016179  1
  O  O81  1  0.15157234  0.87809579  0.76784675  1
  O  O82  1  0.34842766  0.62190421  0.26784675  1
  O  O83  1  0.65157234  0.37809579  0.73215325  1
  O  O84  1  0.33877180  0.62486196  0.08500877  1
  O  O85  1  0.80685704  0.10475487  0.59817238  1
  O  O86  1  0.64821482  0.69948367  0.89417001  1
  O  O87  1  0.70958736  0.40682551  0.53502985  1
  O  O88  1  0.49018574  0.96365436  0.59011414  1
  O  O89  1  0.29041264  0.59317449  0.46497015  1
  O  O90  1  0.34215324  0.27698426  0.92019877  1
  O  O91  1  0.55150544  0.99539699  0.23078967  1
  O  O92  1  0.96777427  0.11872310  0.91468212  1
  O  O93  1  0.53974357  0.00784029  0.91303855  1
  O  O94  1  0.66122820  0.37513804  0.91499123  1
  O  O95  1  0.82283223  0.77568078  0.77677123  1
