# generated using pymatgen
data_La4Ti5(Si2O11)2
_symmetry_space_group_name_H-M   'P 1'
_cell_length_a   5.70809013
_cell_length_b   7.44965839
_cell_length_c   11.21155506
_cell_angle_alpha   99.78682800
_cell_angle_beta   90.00000000
_cell_angle_gamma   112.52651042
_symmetry_Int_Tables_number   1
_chemical_formula_structural   La4Ti5(Si2O11)2
_chemical_formula_sum   'La4 Ti5 Si4 O22'
_cell_volume   432.85663311
_cell_formula_units_Z   1
loop_
 _symmetry_equiv_pos_site_id
 _symmetry_equiv_pos_as_xyz
  1  'x, y, z'
loop_
 _atom_site_type_symbol
 _atom_site_label
 _atom_site_symmetry_multiplicity
 _atom_site_fract_x
 _atom_site_fract_y
 _atom_site_fract_z
 _atom_site_occupancy
  La  La0  1  0.43084505  0.86169009  0.25220599  1
  La  La1  1  0.14190536  0.28381072  0.25778654  1
  La  La2  1  0.85809464  0.71618928  0.74221346  1
  La  La3  1  0.56915495  0.13830991  0.74779401  1
  Ti  Ti4  1  0.00000000  0.00000000  0.50000000  1
  Ti  Ti5  1  0.50000000  0.00000000  0.00000000  1
  Ti  Ti6  1  0.00000000  0.00000000  0.00000000  1
  Ti  Ti7  1  0.00000000  0.50000000  0.00000000  1
  Ti  Ti8  1  0.50000000  0.50000000  0.00000000  1
  Si  Si9  1  0.63857672  0.27715344  0.45647044  1
  Si  Si10  1  0.20426953  0.40853905  0.72952535  1
  Si  Si11  1  0.36142328  0.72284656  0.54352956  1
  Si  Si12  1  0.79573047  0.59146095  0.27047465  1
  O  O13  1  0.31124786  0.62249572  0.40257500  1
  O  O14  1  0.09165981  0.18331962  0.65654375  1
  O  O15  1  0.46036837  0.44839629  0.81385028  1
  O  O16  1  0.28378286  0.56756572  0.63912773  1
  O  O17  1  0.27168561  0.04214669  0.13255658  1
  O  O18  1  0.71621714  0.43243428  0.36087227  1
  O  O19  1  0.33587406  0.14032597  0.41305623  1
  O  O20  1  0.14978489  0.29956979  0.01755583  1
  O  O21  1  0.72831439  0.95785331  0.86744342  1
  O  O22  1  0.85021511  0.70043021  0.98244417  1
  O  O23  1  0.01197207  0.55160371  0.18614972  1
  O  O24  1  0.98802793  0.44839629  0.81385028  1
  O  O25  1  0.35627688  0.71255376  0.02195851  1
  O  O26  1  0.22953892  0.95785331  0.86744342  1
  O  O27  1  0.77046108  0.04214669  0.13255658  1
  O  O28  1  0.80445191  0.14032597  0.41305623  1
  O  O29  1  0.90834019  0.81668038  0.34345625  1
  O  O30  1  0.64372312  0.28744624  0.97804149  1
  O  O31  1  0.68875214  0.37750428  0.59742500  1
  O  O32  1  0.19554809  0.85967403  0.58694377  1
  O  O33  1  0.53963163  0.55160371  0.18614972  1
  O  O34  1  0.66412594  0.85967403  0.58694377  1
