# generated using pymatgen
data_TbCu(MoO4)2
_symmetry_space_group_name_H-M   'P 1'
_cell_length_a   9.90519118
_cell_length_b   10.30957984
_cell_length_c   14.75352025
_cell_angle_alpha   90.00000000
_cell_angle_beta   90.00000000
_cell_angle_gamma   90.00000000
_symmetry_Int_Tables_number   1
_chemical_formula_structural   TbCu(MoO4)2
_chemical_formula_sum   'Tb8 Cu8 Mo16 O64'
_cell_volume   1506.60528184
_cell_formula_units_Z   8
loop_
 _symmetry_equiv_pos_site_id
 _symmetry_equiv_pos_as_xyz
  1  'x, y, z'
loop_
 _atom_site_type_symbol
 _atom_site_label
 _atom_site_symmetry_multiplicity
 _atom_site_fract_x
 _atom_site_fract_y
 _atom_site_fract_z
 _atom_site_occupancy
  Tb  Tb0  1  0.77848008  0.03448705  0.10390485  1
  Tb  Tb1  1  0.77848008  0.53448705  0.39609515  1
  Tb  Tb2  1  0.27848008  0.46551295  0.10390485  1
  Tb  Tb3  1  0.72151992  0.03448705  0.60390485  1
  Tb  Tb4  1  0.22151992  0.96551295  0.89609515  1
  Tb  Tb5  1  0.22151992  0.46551295  0.60390485  1
  Tb  Tb6  1  0.72151992  0.53448705  0.89609515  1
  Tb  Tb7  1  0.27848008  0.96551295  0.39609515  1
  Cu  Cu8  1  0.18883771  0.31688091  0.80281718  1
  Cu  Cu9  1  0.68883771  0.68311909  0.69718282  1
  Cu  Cu10  1  0.31116229  0.81688091  0.19718282  1
  Cu  Cu11  1  0.81116229  0.18311909  0.30281718  1
  Cu  Cu12  1  0.81116229  0.68311909  0.19718282  1
  Cu  Cu13  1  0.31116229  0.31688091  0.30281718  1
  Cu  Cu14  1  0.68883771  0.18311909  0.80281718  1
  Cu  Cu15  1  0.18883771  0.81688091  0.69718282  1
  Mo  Mo16  1  0.66801718  0.89715414  0.34693292  1
  Mo  Mo17  1  0.00092548  0.78079575  0.55697176  1
  Mo  Mo18  1  0.50092548  0.21920425  0.94302824  1
  Mo  Mo19  1  0.49907452  0.28079575  0.44302824  1
  Mo  Mo20  1  0.99907452  0.71920425  0.05697176  1
  Mo  Mo21  1  0.99907452  0.21920425  0.44302824  1
  Mo  Mo22  1  0.49907452  0.78079575  0.05697176  1
  Mo  Mo23  1  0.50092548  0.71920425  0.55697176  1
  Mo  Mo24  1  0.00092548  0.28079575  0.94302824  1
  Mo  Mo25  1  0.16801718  0.10284586  0.15306708  1
  Mo  Mo26  1  0.83198282  0.39715414  0.65306708  1
  Mo  Mo27  1  0.33198282  0.60284586  0.84693292  1
  Mo  Mo28  1  0.66801718  0.39715414  0.15306708  1
  Mo  Mo29  1  0.83198282  0.89715414  0.84693292  1
  Mo  Mo30  1  0.16801718  0.60284586  0.34693292  1
  Mo  Mo31  1  0.33198282  0.10284586  0.65306708  1
  O  O32  1  0.10684302  0.32910975  0.50208750  1
  O  O33  1  0.60684302  0.67089025  0.99791250  1
  O  O34  1  0.39315698  0.82910975  0.49791250  1
  O  O35  1  0.89315698  0.17089025  0.00208750  1
  O  O36  1  0.89315698  0.67089025  0.49791250  1
  O  O37  1  0.39315698  0.32910975  0.00208750  1
  O  O38  1  0.60684302  0.17089025  0.50208750  1
  O  O39  1  0.10684302  0.82910975  0.99791250  1
  O  O40  1  0.24372750  0.98878101  0.72825127  1
  O  O41  1  0.74372750  0.01121899  0.77174873  1
  O  O42  1  0.25627250  0.48878101  0.27174873  1
  O  O43  1  0.75627250  0.51121899  0.22825127  1
  O  O44  1  0.75627250  0.01121899  0.27174873  1
  O  O45  1  0.25627250  0.98878101  0.22825127  1
  O  O46  1  0.74372750  0.51121899  0.72825127  1
  O  O47  1  0.24372750  0.48878101  0.77174873  1
  O  O48  1  0.22446130  0.76595274  0.31999090  1
  O  O49  1  0.72446130  0.23404726  0.18000910  1
  O  O50  1  0.27553870  0.26595274  0.68000910  1
  O  O51  1  0.77553870  0.73404726  0.81999090  1
  O  O52  1  0.77553870  0.23404726  0.68000910  1
  O  O53  1  0.27553870  0.76595274  0.81999090  1
  O  O54  1  0.72446130  0.73404726  0.31999090  1
  O  O55  1  0.89077938  0.32041869  0.36747507  1
  O  O56  1  0.22446130  0.26595274  0.18000910  1
  O  O57  1  0.29318512  0.57308964  0.96267613  1
  O  O58  1  0.70681488  0.92691036  0.46267613  1
  O  O59  1  0.20681488  0.07308964  0.03732387  1
  O  O60  1  0.20681488  0.57308964  0.46267613  1
  O  O61  1  0.70681488  0.42691036  0.03732387  1
  O  O62  1  0.29318512  0.07308964  0.53732387  1
  O  O63  1  0.79318512  0.92691036  0.96267613  1
  O  O64  1  0.90105013  0.62958458  0.97741242  1
  O  O65  1  0.40105013  0.37041542  0.52258758  1
  O  O66  1  0.59894987  0.12958458  0.02258758  1
  O  O67  1  0.09894987  0.87041542  0.47741242  1
  O  O68  1  0.09894987  0.37041542  0.02258758  1
  O  O69  1  0.59894987  0.62958458  0.47741242  1
  O  O70  1  0.40105013  0.87041542  0.97741242  1
  O  O71  1  0.90105013  0.12958458  0.52258758  1
  O  O72  1  0.89690157  0.38786215  0.87675239  1
  O  O73  1  0.39690157  0.61213785  0.62324761  1
  O  O74  1  0.60309843  0.88786215  0.12324761  1
  O  O75  1  0.10309843  0.11213785  0.37675239  1
  O  O76  1  0.10309843  0.61213785  0.12324761  1
  O  O77  1  0.60309843  0.38786215  0.37675239  1
  O  O78  1  0.39690157  0.11213785  0.87675239  1
  O  O79  1  0.89690157  0.88786215  0.62324761  1
  O  O80  1  0.99026611  0.08809862  0.16824118  1
  O  O81  1  0.49026511  0.91190138  0.33175882  1
  O  O82  1  0.50973389  0.58809862  0.83175882  1
  O  O83  1  0.00973489  0.41190138  0.66824118  1
  O  O84  1  0.00973489  0.91190138  0.83175882  1
  O  O85  1  0.50973389  0.08809862  0.66824118  1
  O  O86  1  0.49026511  0.41190138  0.16824118  1
  O  O87  1  0.99026611  0.58809862  0.33175882  1
  O  O88  1  0.89077938  0.82041869  0.13252493  1
  O  O89  1  0.39077938  0.17958131  0.36747507  1
  O  O90  1  0.60922062  0.32041869  0.86747507  1
  O  O91  1  0.10922062  0.67958131  0.63252493  1
  O  O92  1  0.10922062  0.17958131  0.86747507  1
  O  O93  1  0.60922062  0.82041869  0.63252493  1
  O  O94  1  0.39077938  0.67958131  0.13252493  1
  O  O95  1  0.79318512  0.42691036  0.53732387  1
