# generated using pymatgen
data_SiO2
_symmetry_space_group_name_H-M   'P 1'
_cell_length_a   9.00393472
_cell_length_b   9.27309354
_cell_length_c   9.27309405
_cell_angle_alpha   110.96464648
_cell_angle_beta   98.72707165
_cell_angle_gamma   98.72706844
_symmetry_Int_Tables_number   1
_chemical_formula_structural   SiO2
_chemical_formula_sum   'Si12 O24'
_cell_volume   696.59709571
_cell_formula_units_Z   12
loop_
 _symmetry_equiv_pos_site_id
 _symmetry_equiv_pos_as_xyz
  1  'x, y, z'
loop_
 _atom_site_type_symbol
 _atom_site_label
 _atom_site_symmetry_multiplicity
 _atom_site_fract_x
 _atom_site_fract_y
 _atom_site_fract_z
 _atom_site_occupancy
  Si  Si0  1  0.10541724  0.40422867  0.89193606  1
  Si  Si1  1  0.31046342  0.99759257  0.20042141  1
  Si  Si2  1  0.68953658  0.00240743  0.79957859  1
  Si  Si3  1  0.89458276  0.59577133  0.10806394  1
  Si  Si4  1  0.68953658  0.79957859  0.00240743  1
  Si  Si5  1  0.32942568  0.90546840  0.70242376  1
  Si  Si6  1  0.10541724  0.89193606  0.40422867  1
  Si  Si7  1  0.32942568  0.70242376  0.90546840  1
  Si  Si8  1  0.89458276  0.10806394  0.59577133  1
  Si  Si9  1  0.67057432  0.09453160  0.29757624  1
  Si  Si10  1  0.31046342  0.20042141  0.99759257  1
  Si  Si11  1  0.67057432  0.29757624  0.09453160  1
  O  O12  1  0.71501054  0.93754722  0.17850327  1
  O  O13  1  0.00000000  0.50000000  0.00000000  1
  O  O14  1  1.00000000  0.27538997  0.72461003  1
  O  O15  1  0.73170705  0.87786138  0.87786138  1
  O  O16  1  0.19670845  0.99053392  0.31793758  1
  O  O17  1  0.28498946  0.06245278  0.82149673  1
  O  O18  1  0.22818575  0.52516786  0.85325816  1
  O  O19  1  0.71501054  0.17850327  0.93754722  1
  O  O20  1  0.70807177  0.23978707  0.23978707  1
  O  O21  1  0.51137157  0.94336463  0.69966684  1
  O  O22  1  0.77181425  0.14674184  0.47483214  1
  O  O23  1  0.48862843  0.05663537  0.30033316  1
  O  O24  1  0.22818575  0.85325816  0.52516786  1
  O  O25  1  0.80329155  0.00946608  0.68206242  1
  O  O26  1  0.26829295  0.12213862  0.12213862  1
  O  O27  1  0.77181425  0.47483214  0.14674184  1
  O  O28  1  0.00000000  0.72461003  0.27538997  1
  O  O29  1  0.28498946  0.82149673  0.06245278  1
  O  O30  1  0.00000000  0.00000000  0.50000000  1
  O  O31  1  0.48862843  0.30033316  0.05663537  1
  O  O32  1  0.80329155  0.68206242  0.00946608  1
  O  O33  1  0.29192823  0.76021293  0.76021293  1
  O  O34  1  0.51137157  0.69966684  0.94336463  1
  O  O35  1  0.19670845  0.31793758  0.99053392  1
