# generated using pymatgen
data_TlPO3
_symmetry_space_group_name_H-M   'P 1'
_cell_length_a   11.09321951
_cell_length_b   11.26069361
_cell_length_c   16.27215147
_cell_angle_alpha   90.00000000
_cell_angle_beta   90.00000000
_cell_angle_gamma   90.00000000
_symmetry_Int_Tables_number   1
_chemical_formula_structural   TlPO3
_chemical_formula_sum   'Tl24 P24 O72'
_cell_volume   2032.67397617
_cell_formula_units_Z   24
loop_
 _symmetry_equiv_pos_site_id
 _symmetry_equiv_pos_as_xyz
  1  'x, y, z'
loop_
 _atom_site_type_symbol
 _atom_site_label
 _atom_site_symmetry_multiplicity
 _atom_site_fract_x
 _atom_site_fract_y
 _atom_site_fract_z
 _atom_site_occupancy
  Tl  Tl0  1  1.00083552  0.92515197  0.23640496  1
  Tl  Tl1  1  0.44936491  0.65389045  0.41701128  1
  Tl  Tl2  1  -0.00083552  0.42515197  0.23640496  1
  Tl  Tl3  1  0.41507468  0.17874458  0.11050189  1
  Tl  Tl4  1  1.00083552  0.57484803  0.76359504  1
  Tl  Tl5  1  0.05063509  0.34610955  0.91701128  1
  Tl  Tl6  1  0.91507468  0.17874458  0.38949811  1
  Tl  Tl7  1  0.50083552  0.92515197  0.26359504  1
  Tl  Tl8  1  0.50083552  0.57484803  0.73640496  1
  Tl  Tl9  1  0.44936491  0.84610955  0.58298872  1
  Tl  Tl10  1  0.58492532  0.82125542  0.88949811  1
  Tl  Tl11  1  0.49916448  0.07484803  0.73640496  1
  Tl  Tl12  1  0.58492532  0.67874458  0.11050189  1
  Tl  Tl13  1  0.08492532  0.67874458  0.38949811  1
  Tl  Tl14  1  0.94936491  0.84610955  0.91701128  1
  Tl  Tl15  1  0.08492532  0.82125542  0.61050189  1
  Tl  Tl16  1  0.55063509  0.34610955  0.58298872  1
  Tl  Tl17  1  0.94936491  0.65389045  0.08298872  1
  Tl  Tl18  1  0.55063509  0.15389045  0.41701128  1
  Tl  Tl19  1  0.91507468  0.32125542  0.61050189  1
  Tl  Tl20  1  0.41507468  0.32125542  0.88949811  1
  Tl  Tl21  1  -0.00083552  0.07484803  0.76359504  1
  Tl  Tl22  1  0.49916448  0.42515197  0.26359504  1
  Tl  Tl23  1  0.05063509  0.15389045  0.08298872  1
  P  P24  1  0.76832537  0.40623278  0.08113870  1
  P  P25  1  0.23167463  0.59376722  0.91886130  1
  P  P26  1  0.20736871  0.51692317  0.57762017  1
  P  P27  1  0.73167463  0.59376722  0.58113870  1
  P  P28  1  0.22921661  0.30389631  0.68610006  1
  P  P29  1  0.29263129  0.01692317  0.92237983  1
  P  P30  1  0.77078339  0.80389631  0.68610006  1
  P  P31  1  0.23167463  0.90623278  0.08113870  1
  P  P32  1  0.70736871  0.98307683  0.07762017  1
  P  P33  1  0.72921661  0.19610369  0.18610006  1
  P  P34  1  0.27078339  0.80389631  0.81389994  1
  P  P35  1  0.72921661  0.30389631  0.81389994  1
  P  P36  1  0.73167463  0.90623278  0.41886130  1
  P  P37  1  0.77078339  0.69610369  0.31389994  1
  P  P38  1  0.76832537  0.09376722  0.91886130  1
  P  P39  1  0.26832537  0.40623278  0.41886130  1
  P  P40  1  0.26832537  0.09376722  0.58113870  1
  P  P41  1  0.79263129  0.48307683  0.42237983  1
  P  P42  1  0.29263129  0.48307683  0.07762017  1
  P  P43  1  0.22921661  0.19610369  0.31389994  1
  P  P44  1  0.27078339  0.69610369  0.18610006  1
  P  P45  1  0.70736871  0.51692317  0.92237983  1
  P  P46  1  0.79263129  0.01692317  0.57762017  1
  P  P47  1  0.20736871  0.98307683  0.42237983  1
  O  O48  1  0.89193362  0.67839700  0.27409072  1
  O  O49  1  0.10190990  0.61230031  0.94338294  1
  O  O50  1  0.83493922  0.26019623  0.76475963  1
  O  O51  1  0.70415113  0.11331397  0.55725730  1
  O  O52  1  0.60806638  0.17839700  0.22590928  1
  O  O53  1  0.29584887  0.88668603  0.44274270  1
  O  O54  1  0.25631433  0.50126927  0.85379744  1
  O  O55  1  0.25631433  0.99873073  0.14620256  1
  O  O56  1  0.74368567  0.00126927  0.85379744  1
  O  O57  1  0.81687079  0.93221729  0.49815243  1
  O  O58  1  0.58488494  0.95160378  0.11072279  1
  O  O59  1  0.24368567  0.49873073  0.35379744  1
  O  O60  1  0.39809010  0.11230031  0.55661706  1
  O  O61  1  0.89193362  0.82160300  0.72590928  1
  O  O62  1  0.39809010  0.38769969  0.44338294  1
  O  O63  1  0.16506078  0.73980377  0.23524037  1
  O  O64  1  0.79584887  0.88668603  0.05725730  1
  O  O65  1  0.39193362  0.67839700  0.22590928  1
  O  O66  1  0.60806638  0.32160300  0.77409072  1
  O  O67  1  0.60190990  0.88769969  0.44338294  1
  O  O68  1  0.20415113  0.11331397  0.94274270  1
  O  O69  1  0.33493922  0.26019623  0.73524037  1
  O  O70  1  0.70547636  0.28167583  0.10677654  1
  O  O71  1  0.10190990  0.88769969  0.05661706  1
  O  O72  1  0.77536166  0.42489659  0.85952463  1
  O  O73  1  0.81687079  0.56778271  0.50184757  1
  O  O74  1  0.60190990  0.61230031  0.55661706  1
  O  O75  1  0.79584887  0.61331397  0.94274270  1
  O  O76  1  0.41511506  0.04839622  0.88927721  1
  O  O77  1  0.75631433  0.50126927  0.64620256  1
  O  O78  1  0.75631433  0.99873073  0.35379744  1
  O  O79  1  0.22463834  0.57510341  0.14047537  1
  O  O80  1  0.24368567  0.00126927  0.64620256  1
  O  O81  1  0.72463834  0.92489659  0.64047537  1
  O  O82  1  0.27536166  0.42489659  0.64047537  1
  O  O83  1  0.20547636  0.28167583  0.39322346  1
  O  O84  1  0.66506078  0.73980377  0.26475963  1
  O  O85  1  0.58488494  0.54839622  0.88927721  1
  O  O86  1  0.29584887  0.61331397  0.55725730  1
  O  O87  1  0.74368567  0.49873073  0.14620256  1
  O  O88  1  0.77536166  0.07510341  0.14047537  1
  O  O89  1  0.16506078  0.76019623  0.76475963  1
  O  O90  1  0.68312921  0.06778271  0.99815243  1
  O  O91  1  0.08488494  0.54839622  0.61072279  1
  O  O92  1  0.29452364  0.78167583  0.10677654  1
  O  O93  1  0.89809010  0.38769969  0.05661706  1
  O  O94  1  0.41511506  0.45160378  0.11072279  1
  O  O95  1  0.79452364  0.78167583  0.39322346  1
  O  O96  1  0.22463834  0.92489659  0.85952463  1
  O  O97  1  0.29452364  0.71832417  0.89322346  1
  O  O98  1  0.91511506  0.04839622  0.61072279  1
  O  O99  1  0.72463834  0.57510341  0.35952463  1
  O  O100  1  0.10806638  0.17839700  0.27409072  1
  O  O101  1  0.91511506  0.45160378  0.38927721  1
  O  O102  1  0.83493922  0.23980377  0.23524037  1
  O  O103  1  0.10806638  0.32160300  0.72590928  1
  O  O104  1  0.70415113  0.38668603  0.44274270  1
  O  O105  1  0.68312921  0.43221729  0.00184757  1
  O  O106  1  0.31687079  0.56778271  0.99815243  1
  O  O107  1  0.70547636  0.21832417  0.89322346  1
  O  O108  1  0.18312921  0.43221729  0.49815243  1
  O  O109  1  0.20547636  0.21832417  0.60677654  1
  O  O110  1  0.66506078  0.76019623  0.73524037  1
  O  O111  1  0.89809010  0.11230031  0.94338294  1
  O  O112  1  0.08488494  0.95160378  0.38927721  1
  O  O113  1  0.33493922  0.23980377  0.26475963  1
  O  O114  1  0.27536166  0.07510341  0.35952463  1
  O  O115  1  0.39193362  0.82160300  0.77409072  1
  O  O116  1  0.20415113  0.38668603  0.05725730  1
  O  O117  1  0.31687079  0.93221729  0.00184757  1
  O  O118  1  0.79452364  0.71832417  0.60677654  1
  O  O119  1  0.18312921  0.06778271  0.50184757  1
