# generated using pymatgen
data_Li6ZrBeF12
_symmetry_space_group_name_H-M   'P 1'
_cell_length_a   6.68071783
_cell_length_b   6.68071791
_cell_length_c   10.53301989
_cell_angle_alpha   108.48957643
_cell_angle_beta   108.48957669
_cell_angle_gamma   90.00000024
_symmetry_Int_Tables_number   1
_chemical_formula_structural   Li6ZrBeF12
_chemical_formula_sum   'Li12 Zr2 Be2 F24'
_cell_volume   420.17769104
_cell_formula_units_Z   2
loop_
 _symmetry_equiv_pos_site_id
 _symmetry_equiv_pos_as_xyz
  1  'x, y, z'
loop_
 _atom_site_type_symbol
 _atom_site_label
 _atom_site_symmetry_multiplicity
 _atom_site_fract_x
 _atom_site_fract_y
 _atom_site_fract_z
 _atom_site_occupancy
  Li  Li0  1  0.85315162  0.10315162  0.20630324  1
  Li  Li1  1  0.73358495  1.00000000  0.50000000  1
  Li  Li2  1  0.39684838  0.64684838  0.29369676  1
  Li  Li3  1  0.26641505  0.50000000  0.50000000  1
  Li  Li4  1  0.50000000  0.76641505  0.00000000  1
  Li  Li5  1  0.73358495  0.50000000  0.50000000  1
  Li  Li6  1  0.00000000  0.76641505  0.00000000  1
  Li  Li7  1  1.00000000  0.23358495  1.00000000  1
  Li  Li8  1  0.26641505  0.00000000  0.50000000  1
  Li  Li9  1  0.50000000  0.23358495  1.00000000  1
  Li  Li10  1  0.60315162  0.35315162  0.70630324  1
  Li  Li11  1  0.14684838  0.89684838  0.79369676  1
  Zr  Zr12  1  0.12500000  0.37500000  0.75000000  1
  Zr  Zr13  1  0.87500000  0.62500000  0.25000000  1
  Be  Be14  1  0.37500000  0.12500000  0.25000000  1
  Be  Be15  1  0.62500000  0.87500000  0.75000000  1
  F  F16  1  0.13418618  0.07472375  0.14944749  1
  F  F17  1  0.42527625  0.36581382  0.35055251  1
  F  F18  1  0.57472375  0.01526131  0.64944749  1
  F  F19  1  0.54370675  0.57794115  0.15588230  1
  F  F20  1  0.79055672  0.77002403  0.08111343  1
  F  F21  1  0.20944328  0.68891060  0.91888657  1
  F  F22  1  0.18891060  0.70944328  0.41888657  1
  F  F23  1  0.81108940  0.29055672  0.58111343  1
  F  F24  1  0.72997597  0.70944328  0.41888657  1
  F  F25  1  0.45629325  0.42205885  0.84411770  1
  F  F26  1  0.27002403  0.29055672  0.58111343  1
  F  F27  1  0.11217555  0.57794115  0.15588230  1
  F  F28  1  0.42527625  0.98473869  0.35055251  1
  F  F29  1  0.48473869  0.92527625  0.85055251  1
  F  F30  1  0.88782445  0.42205885  0.84411770  1
  F  F31  1  0.57472375  0.63418618  0.64944749  1
  F  F32  1  0.86581382  0.92527625  0.85055251  1
  F  F33  1  0.51526131  0.07472375  0.14944749  1
  F  F34  1  0.79055672  0.31108940  0.08111343  1
  F  F35  1  0.20944328  0.22997597  0.91888657  1
  F  F36  1  0.92205885  0.95629325  0.34411770  1
  F  F37  1  0.92205885  0.38782445  0.34411770  1
  F  F38  1  0.07794115  0.61217555  0.65588230  1
  F  F39  1  0.07794115  0.04370675  0.65588230  1
