# generated using pymatgen
data_LiUAsO6
_symmetry_space_group_name_H-M   'P 1'
_cell_length_a   5.23643578
_cell_length_b   10.39839227
_cell_length_c   11.23741299
_cell_angle_alpha   64.67304419
_cell_angle_beta   76.24271833
_cell_angle_gamma   74.20544287
_symmetry_Int_Tables_number   1
_chemical_formula_structural   LiUAsO6
_chemical_formula_sum   'Li4 U4 As4 O24'
_cell_volume   526.98058474
_cell_formula_units_Z   4
loop_
 _symmetry_equiv_pos_site_id
 _symmetry_equiv_pos_as_xyz
  1  'x, y, z'
loop_
 _atom_site_type_symbol
 _atom_site_label
 _atom_site_symmetry_multiplicity
 _atom_site_fract_x
 _atom_site_fract_y
 _atom_site_fract_z
 _atom_site_occupancy
  Li  Li0  1  0.69132515  0.62321997  0.23123144  1
  Li  Li1  1  0.30867485  0.37678003  0.76876856  1
  Li  Li2  1  0.84545022  0.90749132  0.70530920  1
  Li  Li3  1  0.15454978  0.09250868  0.29469080  1
  U  U4  1  0.25843575  0.71961539  0.52069198  1
  U  U5  1  0.76223558  0.20202020  0.01772585  1
  U  U6  1  0.74156425  0.28038461  0.47930802  1
  U  U7  1  0.23776442  0.79797980  0.98227415  1
  As  As8  1  0.77062643  0.89171514  0.27153006  1
  As  As9  1  0.30408971  0.41797288  0.21653635  1
  As  As10  1  0.69591029  0.58202712  0.78346365  1
  As  As11  1  0.22937357  0.10828486  0.72846994  1
  O  O12  1  0.70097422  0.12155086  0.46132493  1
  O  O13  1  0.11956620  0.28792125  0.32489829  1
  O  O14  1  0.99046088  0.82003472  0.88116351  1
  O  O15  1  0.88043380  0.71207875  0.67510171  1
  O  O16  1  0.79365462  0.43655853  0.49540581  1
  O  O17  1  0.91825148  0.90399991  0.11353918  1
  O  O18  1  0.20634538  0.56344147  0.50459419  1
  O  O19  1  0.45770107  0.94812066  0.76977051  1
  O  O20  1  0.48231674  0.77273588  0.08646982  1
  O  O21  1  0.47343179  0.56070311  0.70436580  1
  O  O22  1  0.54229893  0.05187934  0.23022949  1
  O  O23  1  0.99595811  0.11293873  0.64091476  1
  O  O24  1  0.52769455  0.64240895  0.90588664  1
  O  O25  1  0.47230545  0.35759105  0.09411336  1
  O  O26  1  0.37819331  0.25775231  0.64929518  1
  O  O27  1  0.08174852  0.09600009  0.88646082  1
  O  O28  1  0.09401848  0.58311823  0.15060760  1
  O  O29  1  0.62180669  0.74224769  0.35070482  1
  O  O30  1  0.51768326  0.22726412  0.91353018  1
  O  O31  1  0.52656821  0.43929689  0.29563420  1
  O  O32  1  0.00404189  0.88706127  0.35908524  1
  O  O33  1  0.90598152  0.41688177  0.84939240  1
  O  O34  1  0.00953912  0.17996528  0.11883649  1
  O  O35  1  0.29902578  0.87844914  0.53867507  1
