# generated using pymatgen
data_V3(Bi4O11)2
_symmetry_space_group_name_H-M   'P 1'
_cell_length_a   5.61994577
_cell_length_b   8.54042848
_cell_length_c   10.98179439
_cell_angle_alpha   88.85145066
_cell_angle_beta   87.11835099
_cell_angle_gamma   113.40154006
_symmetry_Int_Tables_number   1
_chemical_formula_structural   V3(Bi4O11)2
_chemical_formula_sum   'V3 Bi8 O22'
_cell_volume   482.66179796
_cell_formula_units_Z   1
loop_
 _symmetry_equiv_pos_site_id
 _symmetry_equiv_pos_as_xyz
  1  'x, y, z'
loop_
 _atom_site_type_symbol
 _atom_site_label
 _atom_site_symmetry_multiplicity
 _atom_site_fract_x
 _atom_site_fract_y
 _atom_site_fract_z
 _atom_site_occupancy
  V  V0  1  0.11678795  0.96958565  0.26064838  1
  V  V1  1  0.50000000  -0.00000000  -0.00000000  1
  V  V2  1  0.88321205  0.03041435  0.73935162  1
  Bi  Bi3  1  0.13414154  0.31631273  0.02380611  1
  Bi  Bi4  1  0.08562157  0.32115309  0.47728529  1
  Bi  Bi5  1  0.33311230  0.63757463  0.75535830  1
  Bi  Bi6  1  0.40380122  0.68639967  0.24578660  1
  Bi  Bi7  1  0.59619878  0.31360033  0.75421340  1
  Bi  Bi8  1  0.66688770  0.36242537  0.24464170  1
  Bi  Bi9  1  0.86585846  0.68368727  0.97619389  1
  Bi  Bi10  1  0.91437843  0.67884691  0.52271471  1
  O  O11  1  0.02872758  0.51328062  0.13322391  1
  O  O12  1  0.05724827  0.54859273  0.38211478  1
  O  O13  1  0.23227454  0.19843061  0.24019827  1
  O  O14  1  0.27749977  0.78194964  0.61778900  1
  O  O15  1  0.31124322  0.83166034  0.88830197  1
  O  O16  1  0.19865491  0.12799037  0.68505006  1
  O  O17  1  0.19012250  0.88497808  0.12043116  1
  O  O18  1  0.27558452  0.90950872  0.36649245  1
  O  O19  1  0.64677865  0.85748496  0.05569053  1
  O  O20  1  0.48595206  0.49620460  0.63618563  1
  O  O21  1  0.46096621  0.49373441  0.88327697  1
  O  O22  1  0.53903379  0.50626559  0.11672303  1
  O  O23  1  0.51404794  0.50379540  0.36381437  1
  O  O24  1  0.35322135  0.14251504  0.94430947  1
  O  O25  1  0.80987750  0.11502192  0.87956884  1
  O  O26  1  0.80134509  0.87200963  0.31494994  1
  O  O27  1  0.68875678  0.16833966  0.11169803  1
  O  O28  1  0.72250023  0.21805036  0.38221100  1
  O  O29  1  0.76772546  0.80156939  0.75980173  1
  O  O30  1  0.72441548  0.09049128  0.63350755  1
  O  O31  1  0.94275173  0.45140727  0.61788522  1
  O  O32  1  0.97127242  0.48671938  0.86677609  1
