# generated using pymatgen
data_CrBiO3
_symmetry_space_group_name_H-M   'P 1'
_cell_length_a   5.62901013
_cell_length_b   5.62901262
_cell_length_c   5.62900680
_cell_angle_alpha   59.72941155
_cell_angle_beta   59.72938944
_cell_angle_gamma   59.72938667
_symmetry_Int_Tables_number   1
_chemical_formula_structural   CrBiO3
_chemical_formula_sum   'Cr2 Bi2 O6'
_cell_volume   125.34406620
_cell_formula_units_Z   2
loop_
 _symmetry_equiv_pos_site_id
 _symmetry_equiv_pos_as_xyz
  1  'x, y, z'
loop_
 _atom_site_type_symbol
 _atom_site_label
 _atom_site_symmetry_multiplicity
 _atom_site_fract_x
 _atom_site_fract_y
 _atom_site_fract_z
 _atom_site_occupancy
  O  O0  1  0.40085823  0.55043847  0.94813951  1
  O  O1  1  0.05043686  0.90085947  0.44813509  1
  O  O2  1  0.90085829  0.44813631  0.05043860  1
  Bi  Bi3  1  0.50549157  0.50549039  0.50548563  1
  O  O4  1  0.44813538  0.05044062  0.90086056  1
  O  O5  1  0.94813882  0.40085795  0.55043803  1
  Cr  Cr6  1  0.22806910  0.22807942  0.22808564  1
  Cr  Cr7  1  0.72808453  0.72807671  0.72806987  1
  Bi  Bi8  1  0.00548649  0.00548577  0.00548855  1
  O  O9  1  0.55044074  0.94813489  0.40085853  1
