# generated using pymatgen
data_SiO2
_symmetry_space_group_name_H-M   'P 1'
_cell_length_a   7.59365112
_cell_length_b   7.59365112
_cell_length_c   8.77770185
_cell_angle_alpha   90.00000000
_cell_angle_beta   90.00000000
_cell_angle_gamma   90.00000000
_symmetry_Int_Tables_number   1
_chemical_formula_structural   SiO2
_chemical_formula_sum   'Si12 O24'
_cell_volume   506.15333832
_cell_formula_units_Z   12
loop_
 _symmetry_equiv_pos_site_id
 _symmetry_equiv_pos_as_xyz
  1  'x, y, z'
loop_
 _atom_site_type_symbol
 _atom_site_label
 _atom_site_symmetry_multiplicity
 _atom_site_fract_x
 _atom_site_fract_y
 _atom_site_fract_z
 _atom_site_occupancy
  Si  Si0  1  0.91564476  0.08435524  0.25000000  1
  Si  Si1  1  0.38030119  0.82581599  0.99587727  1
  Si  Si2  1  0.82581599  0.38030119  0.00412273  1
  Si  Si3  1  0.11969881  0.32581599  0.75412273  1
  Si  Si4  1  0.88030119  0.67418401  0.25412273  1
  Si  Si5  1  0.58435524  0.58435524  0.50000000  1
  Si  Si6  1  0.67418401  0.88030119  0.74587727  1
  Si  Si7  1  0.41564476  0.41564476  0.00000000  1
  Si  Si8  1  0.17418401  0.61969881  0.50412273  1
  Si  Si9  1  0.32581599  0.11969881  0.24587727  1
  Si  Si10  1  0.61969881  0.17418401  0.49587727  1
  Si  Si11  1  0.08435524  0.91564476  0.75000000  1
  O  O12  1  0.37594511  0.94397764  0.14958375  1
  O  O13  1  0.37976248  0.61597003  0.45406956  1
  O  O14  1  0.79630351  0.13721564  0.39623591  1
  O  O15  1  0.87976248  0.88402997  0.79593044  1
  O  O16  1  0.62405489  0.05602236  0.64958375  1
  O  O17  1  0.88402997  0.87976248  0.20406956  1
  O  O18  1  0.20369649  0.86278436  0.89623591  1
  O  O19  1  0.94397764  0.37594511  0.85041625  1
  O  O20  1  0.87594511  0.55602236  0.10041625  1
  O  O21  1  0.05602236  0.62405489  0.35041625  1
  O  O22  1  0.12023752  0.11597003  0.29593044  1
  O  O23  1  0.29630351  0.36278436  0.85376409  1
  O  O24  1  0.12405489  0.44397764  0.60041625  1
  O  O25  1  0.61597003  0.37976248  0.54593044  1
  O  O26  1  0.44397764  0.12405489  0.39958375  1
  O  O27  1  0.13721564  0.79630351  0.60376409  1
  O  O28  1  0.63721564  0.70369649  0.64623591  1
  O  O29  1  0.55602236  0.87594511  0.89958375  1
  O  O30  1  0.11597003  0.12023752  0.70406956  1
  O  O31  1  0.62023752  0.38402997  0.95406956  1
  O  O32  1  0.70369649  0.63721564  0.35376409  1
  O  O33  1  0.38402997  0.62023752  0.04593044  1
  O  O34  1  0.36278436  0.29630351  0.14623591  1
  O  O35  1  0.86278436  0.20369649  0.10376409  1
