# generated using pymatgen
data_Na5Lu(WO4)4
_symmetry_space_group_name_H-M   'P 1'
_cell_length_a   9.96691573
_cell_length_b   9.96691961
_cell_length_c   9.96690162
_cell_angle_alpha   109.05145163
_cell_angle_beta   109.05213606
_cell_angle_gamma   110.31344036
_symmetry_Int_Tables_number   1
_chemical_formula_structural   Na5Lu(WO4)4
_chemical_formula_sum   'Na10 Lu2 W8 O32'
_cell_volume   762.05997079
_cell_formula_units_Z   2
loop_
 _symmetry_equiv_pos_site_id
 _symmetry_equiv_pos_as_xyz
  1  'x, y, z'
loop_
 _atom_site_type_symbol
 _atom_site_label
 _atom_site_symmetry_multiplicity
 _atom_site_fract_x
 _atom_site_fract_y
 _atom_site_fract_z
 _atom_site_occupancy
  Na  Na0  1  0.87500374  0.62500330  0.25000040  1
  Na  Na1  1  0.12499626  0.37499670  0.74999960  1
  Na  Na2  1  0.38934245  0.46428256  0.16246685  1
  Na  Na3  1  0.96428115  0.30181472  0.07493800  1
  Na  Na4  1  0.72687671  0.88934346  0.42506188  1
  Na  Na5  1  0.80181511  0.22687574  0.33753363  1
  Na  Na6  1  0.61065755  0.53571744  0.83753315  1
  Na  Na7  1  0.03571885  0.69818528  0.92506200  1
  Na  Na8  1  0.27312329  0.11065654  0.57493812  1
  Na  Na9  1  0.19818489  0.77312426  0.66246637  1
  Lu  Lu10  1  0.37499991  0.12499947  0.24999956  1
  Lu  Lu11  1  0.62500009  0.87500053  0.75000044  1
  W  W12  1  0.72369047  0.56601000  0.52411316  1
  W  W13  1  0.06601166  0.04189783  0.84231739  1
  W  W14  1  0.69958072  0.22369416  0.65768288  1
  W  W15  1  0.54189690  0.19957831  0.97588730  1
  W  W16  1  0.27630953  0.43399000  0.47588684  1
  W  W17  1  0.93398834  0.95810217  0.15768261  1
  W  W18  1  0.30041928  0.77630584  0.34231712  1
  W  W19  1  0.45810310  0.80042169  0.02411270  1
  O  O20  1  0.94242559  0.65831476  0.64673624  1
  O  O21  1  0.15831414  0.01157722  0.71588357  1
  O  O22  1  0.79569431  0.44243099  0.78411698  1
  O  O23  1  0.51157919  0.29568955  0.85326475  1
  O  O24  1  0.05757441  0.34168524  0.35326376  1
  O  O25  1  0.84168586  0.98842278  0.28411643  1
  O  O26  1  0.20430569  0.55756901  0.21588302  1
  O  O27  1  0.48842081  0.70431045  0.14673525  1
  O  O28  1  0.69411643  0.62235843  0.36543062  1
  O  O29  1  0.12236019  0.25692725  0.92823735  1
  O  O30  1  0.82868884  0.19412205  0.57176269  1
  O  O31  1  0.75692662  0.32868595  0.13456906  1
  O  O32  1  0.30588357  0.37764157  0.63456938  1
  O  O33  1  0.87763981  0.74307275  0.07176265  1
  O  O34  1  0.17131116  0.80587795  0.42823731  1
  O  O35  1  0.24307338  0.67131405  0.86543094  1
  O  O36  1  0.64575542  0.34373572  0.42184394  1
  O  O37  1  0.84373638  0.92188903  0.69797598  1
  O  O38  1  0.72391440  0.14576071  0.80202417  1
  O  O39  1  0.42189116  0.22391139  0.07815567  1
  O  O40  1  0.35424458  0.65626428  0.57815606  1
  O  O41  1  0.15626362  0.07811097  0.30202402  1
  O  O42  1  0.27608560  0.85423929  0.19797483  1
  O  O43  1  0.57810884  0.77608861  0.92184433  1
  O  O44  1  0.63625244  0.63301425  0.65392687  1
  O  O45  1  0.13301984  0.97908814  0.99675766  1
  O  O46  1  0.48232999  0.13626089  0.50324210  1
  O  O47  1  0.47908670  0.98232569  0.84607275  1
  O  O48  1  0.36374756  0.36698575  0.34607313  1
  O  O49  1  0.86698016  0.02091186  0.00324234  1
  O  O50  1  0.51767001  0.86373911  0.49675790  1
  O  O51  1  0.52091330  0.01767431  0.15392725  1
