# generated using pymatgen
data_Na2MnCrF7
_symmetry_space_group_name_H-M   'P 1'
_cell_length_a   7.55295178
_cell_length_b   7.55295178
_cell_length_c   18.48571495
_cell_angle_alpha   90.00000000
_cell_angle_beta   90.00000000
_cell_angle_gamma   119.99999998
_symmetry_Int_Tables_number   1
_chemical_formula_structural   Na2MnCrF7
_chemical_formula_sum   'Na12 Mn6 Cr6 F42'
_cell_volume   913.27234749
_cell_formula_units_Z   6
loop_
 _symmetry_equiv_pos_site_id
 _symmetry_equiv_pos_as_xyz
  1  'x, y, z'
loop_
 _atom_site_type_symbol
 _atom_site_label
 _atom_site_symmetry_multiplicity
 _atom_site_fract_x
 _atom_site_fract_y
 _atom_site_fract_z
 _atom_site_occupancy
  F  F0  1  0.43168312  0.04739248  0.12315883  1
  F  F1  1  0.95260752  0.38429063  0.45649217  1
  F  F2  1  0.61570937  0.56831688  0.78982550  1
  F  F3  1  0.38429063  0.95260752  0.54350783  1
  F  F4  1  0.56831688  0.61570937  0.21017450  1
  F  F5  1  0.04739248  0.43168312  0.87684117  1
  F  F6  1  0.23633841  0.18882660  0.86048297  1
  F  F7  1  0.81117340  0.04751181  0.19381631  1
  F  F8  1  0.95248819  0.76366159  0.52714964  1
  F  F9  1  0.04751181  0.81117340  0.80618369  1
  F  F10  1  0.76366159  0.95248819  0.47285036  1
  F  F11  1  0.18882660  0.23633841  0.13951703  1
  F  F12  1  0.36914433  0.07038423  0.72973055  1
  F  F13  1  0.92961577  0.29876009  0.06306389  1
  F  F14  1  0.70123991  0.63085567  0.39639722  1
  F  F15  1  0.29876009  0.92961577  0.93693611  1
  F  F16  1  0.63085567  0.70123991  0.60360278  1
  F  F17  1  0.07038423  0.36914433  0.27026945  1
  F  F18  1  0.42997808  0.81116363  0.80975972  1
  F  F19  1  0.18883637  0.61881445  0.14309305  1
  F  F20  1  0.38118555  0.57002192  0.47642639  1
  F  F21  1  0.61881445  0.18883637  0.85690695  1
  F  F22  1  0.57002192  0.38118555  0.52357361  1
  F  F23  1  0.81116363  0.42997808  0.19024028  1
  F  F24  1  0.76860646  0.19741108  0.60179908  1
  F  F25  1  0.80258892  0.57119538  0.93513241  1
  F  F26  1  0.42880462  0.23139354  0.26846575  1
  F  F27  1  0.57119538  0.80258892  0.06486759  1
  F  F28  1  0.23139354  0.42880462  0.73153425  1
  F  F29  1  0.19741108  0.76860646  0.39820092  1
  F  F30  1  0.80057518  0.94555439  0.94934772  1
  F  F31  1  0.05444561  0.85502079  0.28268105  1
  F  F32  1  0.14497921  0.19942482  0.61601438  1
  F  F33  1  0.85502079  0.05444561  0.71731895  1
  F  F34  1  0.19942482  0.14497921  0.38398562  1
  F  F35  1  0.94555439  0.80057518  0.05065228  1
  F  F36  1  0.56633179  0.42235492  0.05121504  1
  F  F37  1  0.57764508  0.14397688  0.38454837  1
  F  F38  1  0.85602312  0.43366821  0.71788170  1
  F  F39  1  0.14397688  0.57764508  0.61545163  1
  F  F40  1  0.43366821  0.85602312  0.28211830  1
  F  F41  1  0.42235492  0.56633179  0.94878496  1
  Na  Na42  1  0.50587190  0.88974201  0.66264025  1
  Na  Na43  1  0.11025799  0.61612989  0.99597358  1
  Na  Na44  1  0.38387011  0.49412810  0.32930691  1
  Na  Na45  1  0.61612989  0.11025799  0.00402642  1
  Na  Na46  1  0.49412810  0.38387011  0.67069309  1
  Na  Na47  1  0.88974201  0.50587190  0.33735975  1
  Na  Na48  1  0.86383443  0.00000000  0.33333333  1
  Na  Na49  1  0.00000000  0.86383443  0.66666667  1
  Na  Na50  1  0.13616557  0.13616557  0.00000000  1
  Na  Na51  1  0.82644887  0.00000000  0.83333333  1
  Na  Na52  1  0.00000000  0.82644887  0.16666667  1
  Na  Na53  1  0.17355113  0.17355113  0.50000000  1
  Cr  Cr54  1  0.66753975  0.66753975  0.50000000  1
  Cr  Cr55  1  0.00000000  0.33246025  0.16666667  1
  Cr  Cr56  1  0.33246025  0.00000000  0.83333333  1
  Cr  Cr57  1  0.68456210  0.68456210  0.00000000  1
  Cr  Cr58  1  0.00000000  0.31543790  0.66666667  1
  Cr  Cr59  1  0.31543790  0.00000000  0.33333333  1
  Mn  Mn60  1  0.83409381  0.49644286  0.82822676  1
  Mn  Mn61  1  0.50355714  0.33765095  0.16156009  1
  Mn  Mn62  1  0.66234905  0.16590619  0.49489342  1
  Mn  Mn63  1  0.33765095  0.50355714  0.83843991  1
  Mn  Mn64  1  0.16590619  0.66234905  0.50510658  1
  Mn  Mn65  1  0.49644286  0.83409381  0.17177324  1
