# generated using pymatgen
data_TiFe(BiO3)2
_symmetry_space_group_name_H-M   'P 1'
_cell_length_a   5.73439008
_cell_length_b   5.72981401
_cell_length_c   5.72951092
_cell_angle_alpha   59.68216485
_cell_angle_beta   59.63217786
_cell_angle_gamma   59.64241212
_symmetry_Int_Tables_number   1
_chemical_formula_structural   TiFe(BiO3)2
_chemical_formula_sum   'Ti1 Fe1 Bi2 O6'
_cell_volume   132.06415796
_cell_formula_units_Z   1
loop_
 _symmetry_equiv_pos_site_id
 _symmetry_equiv_pos_as_xyz
  1  'x, y, z'
loop_
 _atom_site_type_symbol
 _atom_site_label
 _atom_site_symmetry_multiplicity
 _atom_site_fract_x
 _atom_site_fract_y
 _atom_site_fract_z
 _atom_site_occupancy
  Ti  Ti0  1  0.72945258  0.72957868  0.72959410  1
  Fe  Fe1  1  0.23064766  0.23095012  0.23114794  1
  Bi  Bi2  1  0.50877494  0.50912657  0.50880590  1
  Bi  Bi3  1  0.00588968  0.00586035  0.00610016  1
  O  O4  1  0.57110674  0.92340391  0.38534365  1
  O  O5  1  0.88222481  0.46023055  0.03138083  1
  O  O6  1  0.38573153  0.57088312  0.92348716  1
  O  O7  1  0.92367100  0.38524775  0.57048228  1
  O  O8  1  0.45990245  0.03171290  0.88257344  1
  O  O9  1  0.03159762  0.88200705  0.46008353  1
