# generated using pymatgen
data_SiO2
_symmetry_space_group_name_H-M   'P 1'
_cell_length_a   8.58189222
_cell_length_b   15.78795916
_cell_length_c   15.78795937
_cell_angle_alpha   75.36387297
_cell_angle_beta   74.22942832
_cell_angle_gamma   74.22942635
_symmetry_Int_Tables_number   1
_chemical_formula_structural   SiO2
_chemical_formula_sum   'Si32 O64'
_cell_volume   1943.83178152
_cell_formula_units_Z   32
loop_
 _symmetry_equiv_pos_site_id
 _symmetry_equiv_pos_as_xyz
  1  'x, y, z'
loop_
 _atom_site_type_symbol
 _atom_site_label
 _atom_site_symmetry_multiplicity
 _atom_site_fract_x
 _atom_site_fract_y
 _atom_site_fract_z
 _atom_site_occupancy
  Si  Si0  1  0.29034825  0.12763090  0.42447251  1
  Si  Si1  1  0.34245165  0.87236910  0.57552749  1
  Si  Si2  1  0.68221103  0.88356037  0.88356037  1
  Si  Si3  1  0.81270460  0.25376334  0.25376334  1
  Si  Si4  1  0.94933176  0.11643963  0.11643963  1
  Si  Si5  1  0.50156584  0.07872594  0.79232316  1
  Si  Si6  1  0.87261494  0.20767684  0.92127406  1
  Si  Si7  1  0.12738506  0.07872594  0.79232316  1
  Si  Si8  1  0.31778897  0.11643963  0.11643963  1
  Si  Si9  1  0.29034825  0.42447251  0.12763090  1
  Si  Si10  1  0.26657235  0.39090814  0.94355850  1
  Si  Si11  1  0.65754835  0.12763090  0.42447251  1
  Si  Si12  1  0.73342765  0.05644150  0.60909186  1
  Si  Si13  1  0.89896102  0.94355850  0.39090814  1
  Si  Si14  1  0.34245165  0.57552749  0.87236910  1
  Si  Si15  1  0.49843416  0.20767684  0.92127406  1
  Si  Si16  1  0.87261494  0.92127406  0.20767684  1
  Si  Si17  1  0.70965175  0.57552749  0.87236910  1
  Si  Si18  1  0.49843416  0.92127406  0.20767684  1
  Si  Si19  1  0.50156584  0.79232316  0.07872594  1
  Si  Si20  1  0.10103898  0.05644150  0.60909186  1
  Si  Si21  1  0.82023128  0.74623666  0.74623666  1
  Si  Si22  1  0.18729540  0.74623666  0.74623666  1
  Si  Si23  1  0.12738506  0.79232316  0.07872594  1
  Si  Si24  1  0.89896102  0.39090814  0.94355850  1
  Si  Si25  1  0.65754835  0.42447251  0.12763090  1
  Si  Si26  1  0.10103898  0.60909186  0.05644150  1
  Si  Si27  1  0.05066824  0.88356037  0.88356037  1
  Si  Si28  1  0.70965175  0.87236910  0.57552749  1
  Si  Si29  1  0.26657235  0.94355850  0.39090814  1
  Si  Si30  1  0.17976872  0.25376334  0.25376334  1
  Si  Si31  1  0.73342765  0.60909186  0.05644150  1
  O  O32  1  0.07267412  0.38423387  0.97041789  1
  O  O33  1  0.10731269  0.84241657  0.97789915  1
  O  O34  1  0.72904652  0.81495085  0.81495085  1
  O  O35  1  0.85527813  0.87261829  0.48418771  1
  O  O36  1  0.85527813  0.48418771  0.87261829  1
  O  O37  1  0.50000000  0.84923179  0.15076821  1
  O  O38  1  0.32413781  0.03479000  0.38799542  1
  O  O39  1  0.42762841  0.02210085  0.15758343  1
  O  O40  1  0.57237159  0.97789915  0.84241657  1
  O  O41  1  0.02002869  0.72997131  0.72997131  1
  O  O42  1  0.50000000  0.15076821  0.84923179  1
  O  O43  1  0.38045768  0.89834142  0.30665755  1
  O  O44  1  0.70312300  0.34908169  0.21330686  1
  O  O45  1  0.89268731  0.02210085  0.15758343  1
  O  O46  1  0.57237159  0.84241657  0.97789915  1
  O  O47  1  0.76551155  0.78669314  0.65091831  1
  O  O48  1  0.92732588  0.61576613  0.02958211  1
  O  O49  1  0.14472187  0.12738171  0.51581229  1
  O  O50  1  0.76551155  0.65091831  0.78669314  1
  O  O51  1  0.29687700  0.78669314  0.65091831  1
  O  O52  1  0.42762841  0.15758343  0.02210085  1
  O  O53  1  0.45901593  0.44706771  0.13490044  1
  O  O54  1  0.91454334  0.89834142  0.30665755  1
  O  O55  1  0.14472187  0.51581229  0.12738171  1
  O  O56  1  0.27095348  0.18504915  0.18504915  1
  O  O57  1  0.54098407  0.55293229  0.86509956  1
  O  O58  1  0.45901593  0.13490044  0.44706771  1
  O  O59  1  0.23448845  0.21330686  0.34908169  1
  O  O60  1  0.68435394  0.91329742  0.21799469  1
  O  O61  1  0.71208413  0.12738171  0.51581229  1
  O  O62  1  0.28791587  0.87261829  0.48418771  1
  O  O63  1  0.75307677  0.38799542  0.03479000  1
  O  O64  1  0.91454334  0.30665755  0.89834142  1
  O  O65  1  0.00000000  0.15076821  0.84923179  1
  O  O66  1  0.32413781  0.38799542  0.03479000  1
  O  O67  1  0.31564606  0.78200531  0.08670258  1
  O  O68  1  0.67586219  0.96521000  0.61200458  1
  O  O69  1  0.31564606  0.08670258  0.78200531  1
  O  O70  1  0.67586219  0.61200458  0.96521000  1
  O  O71  1  0.71208413  0.51581229  0.12738171  1
  O  O72  1  0.28791587  0.48418771  0.87261829  1
  O  O73  1  0.24692323  0.96521000  0.61200458  1
  O  O74  1  0.68435394  0.21799469  0.91329742  1
  O  O75  1  0.84987162  0.90012838  0.90012838  1
  O  O76  1  0.24692323  0.61200458  0.96521000  1
  O  O77  1  0.14105177  0.81495085  0.81495085  1
  O  O78  1  0.85894823  0.18504915  0.18504915  1
  O  O79  1  0.08545666  0.10165858  0.69334245  1
  O  O80  1  0.08545666  0.69334245  0.10165858  1
  O  O81  1  0.15012838  0.09987162  0.09987162  1
  O  O82  1  0.61954232  0.69334245  0.10165858  1
  O  O83  1  0.07267412  0.97041789  0.38423387  1
  O  O84  1  0.10731269  0.97789915  0.84241657  1
  O  O85  1  0.70312300  0.21330686  0.34908169  1
  O  O86  1  1.00000000  0.84923179  0.15076821  1
  O  O87  1  0.29687700  0.65091831  0.78669314  1
  O  O88  1  0.23448845  0.34908169  0.21330686  1
  O  O89  1  0.38045768  0.30665755  0.89834142  1
  O  O90  1  0.89268731  0.15758343  0.02210085  1
  O  O91  1  0.75307677  0.03479000  0.38799542  1
  O  O92  1  0.54098407  0.86509956  0.55293229  1
  O  O93  1  0.61954232  0.10165858  0.69334245  1
  O  O94  1  0.97997131  0.27002869  0.27002869  1
  O  O95  1  0.92732588  0.02958211  0.61576613  1
