# generated using pymatgen
data_AgPb4ClO4
_symmetry_space_group_name_H-M   'P 1'
_cell_length_a   6.55146704
_cell_length_b   8.45607803
_cell_length_c   8.45607803
_cell_angle_alpha   90.00000000
_cell_angle_beta   90.00000000
_cell_angle_gamma   90.00000000
_symmetry_Int_Tables_number   1
_chemical_formula_structural   AgPb4ClO4
_chemical_formula_sum   'Ag2 Pb8 Cl2 O8'
_cell_volume   468.46432557
_cell_formula_units_Z   2
loop_
 _symmetry_equiv_pos_site_id
 _symmetry_equiv_pos_as_xyz
  1  'x, y, z'
loop_
 _atom_site_type_symbol
 _atom_site_label
 _atom_site_symmetry_multiplicity
 _atom_site_fract_x
 _atom_site_fract_y
 _atom_site_fract_z
 _atom_site_occupancy
  Ag  Ag0  1  0.90411202  0.75000000  0.75000000  1
  Ag  Ag1  1  0.09588798  0.25000000  0.25000000  1
  Pb  Pb2  1  0.22386607  0.89390091  0.44560038  1
  Pb  Pb3  1  0.22386607  0.44560038  0.60609909  1
  Pb  Pb4  1  0.22386607  0.05439962  0.89390091  1
  Pb  Pb5  1  0.77613393  0.10609909  0.55439962  1
  Pb  Pb6  1  0.77613393  0.55439962  0.39390091  1
  Pb  Pb7  1  0.77613393  0.94560038  0.10609909  1
  Pb  Pb8  1  0.22386607  0.60609909  0.05439962  1
  Pb  Pb9  1  0.77613393  0.39390091  0.94560038  1
  Cl  Cl10  1  0.48691589  0.25000000  0.25000000  1
  Cl  Cl11  1  0.51308411  0.75000000  0.75000000  1
  O  O12  1  0.07131902  0.83967181  0.00283901  1
  O  O13  1  0.07131902  0.00283901  0.66032819  1
  O  O14  1  0.07131902  0.66032819  0.49716099  1
  O  O15  1  0.07131902  0.49716099  0.83967181  1
  O  O16  1  0.92868098  0.50283901  0.16032819  1
  O  O17  1  0.92868098  0.33967181  0.50283901  1
  O  O18  1  0.92868098  0.99716099  0.33967181  1
  O  O19  1  0.92868098  0.16032819  0.99716099  1
