# generated using pymatgen
data_V3P4O15
_symmetry_space_group_name_H-M   'P 1'
_cell_length_a   5.33264480
_cell_length_b   12.39867783
_cell_length_c   17.77899852
_cell_angle_alpha   90.00000000
_cell_angle_beta   90.00000000
_cell_angle_gamma   90.00000000
_symmetry_Int_Tables_number   1
_chemical_formula_structural   V3P4O15
_chemical_formula_sum   'V12 P16 O60'
_cell_volume   1175.50728796
_cell_formula_units_Z   4
loop_
 _symmetry_equiv_pos_site_id
 _symmetry_equiv_pos_as_xyz
  1  'x, y, z'
loop_
 _atom_site_type_symbol
 _atom_site_label
 _atom_site_symmetry_multiplicity
 _atom_site_fract_x
 _atom_site_fract_y
 _atom_site_fract_z
 _atom_site_occupancy
  O  O0  1  0.73079415  0.75000000  0.16670127  1
  O  O1  1  0.23079415  0.25000000  0.33329873  1
  O  O2  1  0.26920585  0.25000000  0.83329873  1
  O  O3  1  0.76920585  0.75000000  0.66670127  1
  O  O4  1  0.23918193  0.75000000  0.27848276  1
  O  O5  1  0.73918193  0.25000000  0.22151724  1
  O  O6  1  0.76081807  0.25000000  0.72151724  1
  O  O7  1  0.26081807  0.75000000  0.77848276  1
  O  O8  1  0.24653126  0.75000000  0.00186398  1
  O  O9  1  0.74653126  0.25000000  0.49813602  1
  O  O10  1  0.75346874  0.25000000  0.99813602  1
  O  O11  1  0.25346874  0.75000000  0.50186398  1
  O  O12  1  0.72037614  0.44700479  0.97452567  1
  O  O13  1  0.22037614  0.55299521  0.52547433  1
  O  O14  1  0.27962386  0.94700479  0.02547433  1
  O  O15  1  0.77962386  0.05299521  0.47452567  1
  O  O16  1  0.27962386  0.55299521  0.02547433  1
  O  O17  1  0.77962386  0.44700479  0.47452567  1
  O  O18  1  0.72037614  0.05299521  0.97452567  1
  O  O19  1  0.22037614  0.94700479  0.52547433  1
  O  O20  1  0.50657385  0.42608024  0.82524149  1
  O  O21  1  0.49396518  0.37481052  0.58003190  1
  O  O22  1  0.00657385  0.57391976  0.67475851  1
  O  O23  1  0.99342615  0.07391976  0.32524149  1
  O  O24  1  0.49342615  0.57391976  0.17475851  1
  O  O25  1  0.99342615  0.42608024  0.32524149  1
  O  O26  1  0.50657385  0.07391976  0.82524149  1
  O  O27  1  0.00657385  0.92608024  0.67475851  1
  O  O28  1  0.53527144  0.92481651  0.65829300  1
  O  O29  1  0.03527144  0.07518349  0.84170700  1
  O  O30  1  0.46472856  0.42481651  0.34170700  1
  O  O31  1  0.96472856  0.57518349  0.15829300  1
  O  O32  1  0.46472856  0.07518349  0.34170700  1
  O  O33  1  0.96472856  0.92481651  0.15829300  1
  O  O34  1  0.53527144  0.57518349  0.65829300  1
  O  O35  1  0.03527144  0.42481651  0.84170700  1
  O  O36  1  0.46668262  0.86741351  0.90697481  1
  O  O37  1  0.96668262  0.13258649  0.59302519  1
  O  O38  1  0.53331738  0.36741351  0.09302519  1
  O  O39  1  0.03331738  0.63258649  0.40697481  1
  O  O40  1  0.53331738  0.13258649  0.09302519  1
  O  O41  1  0.03331738  0.86741351  0.40697481  1
  O  O42  1  0.46668262  0.63258649  0.90697481  1
  O  O43  1  0.96668262  0.36741351  0.59302519  1
  O  O44  1  0.73071438  0.86677434  0.78273612  1
  O  O45  1  0.23071438  0.13322566  0.71726388  1
  O  O46  1  0.26928562  0.36677434  0.21726388  1
  O  O47  1  0.76928562  0.63322566  0.28273612  1
  O  O48  1  0.26928562  0.13322566  0.21726388  1
  O  O49  1  0.76928562  0.86677434  0.28273612  1
  O  O50  1  0.73071438  0.63322566  0.78273612  1
  O  O51  1  0.23071438  0.36677434  0.71726388  1
  O  O52  1  0.99396518  0.87481052  0.91996810  1
  O  O53  1  0.49396518  0.12518948  0.58003190  1
  O  O54  1  0.00603482  0.37481052  0.08003190  1
  O  O55  1  0.50603482  0.62518948  0.41996810  1
  O  O56  1  0.00603482  0.12518948  0.08003190  1
  O  O57  1  0.50603482  0.87481052  0.41996810  1
  O  O58  1  0.99396518  0.62518948  0.91996810  1
  O  O59  1  0.49342615  0.92608024  0.17475851  1
  P  P60  1  0.26036924  0.37364712  0.80526577  1
  P  P61  1  0.76036924  0.62635288  0.69473423  1
  P  P62  1  0.73963076  0.87364712  0.19473423  1
  P  P63  1  0.23963076  0.12635288  0.30526577  1
  P  P64  1  0.73963076  0.62635288  0.19473423  1
  P  P65  1  0.23963076  0.37364712  0.30526577  1
  P  P66  1  0.26036924  0.12635288  0.80526577  1
  P  P67  1  0.76036924  0.87364712  0.69473423  1
  P  P68  1  0.73843790  0.36762723  0.53650119  1
  P  P69  1  0.23843790  0.63237277  0.96349881  1
  P  P70  1  0.26156210  0.86762723  0.46349881  1
  P  P71  1  0.76156210  0.13237277  0.03650119  1
  P  P72  1  0.26156210  0.63237277  0.46349881  1
  P  P73  1  0.76156210  0.36762723  0.03650119  1
  P  P74  1  0.73843790  0.13237277  0.53650119  1
  P  P75  1  0.23843790  0.86762723  0.96349881  1
  V  V76  1  0.25450662  0.47978660  0.62446766  1
  V  V77  1  0.75450662  0.52021340  0.87553234  1
  V  V78  1  0.74549338  0.97978660  0.37553234  1
  V  V79  1  0.24549338  0.02021340  0.12446766  1
  V  V80  1  0.74549338  0.52021340  0.37553234  1
  V  V81  1  0.24549338  0.47978660  0.12446766  1
  V  V82  1  0.25450662  0.02021340  0.62446766  1
  V  V83  1  0.75450662  0.97978660  0.87553234  1
  V  V84  1  0.98810080  0.75000000  0.32835175  1
  V  V85  1  0.48810080  0.25000000  0.17164825  1
  V  V86  1  0.01189920  0.25000000  0.67164825  1
  V  V87  1  0.51189920  0.75000000  0.82835175  1
