# generated using pymatgen
data_V17Pb3O32
_symmetry_space_group_name_H-M   'P 1'
_cell_length_a   3.42727041
_cell_length_b   12.11865043
_cell_length_c   18.09614247
_cell_angle_alpha   64.83413189
_cell_angle_beta   73.28497648
_cell_angle_gamma   73.63290277
_symmetry_Int_Tables_number   1
_chemical_formula_structural   V17Pb3O32
_chemical_formula_sum   'V17 Pb3 O32'
_cell_volume   640.39622885
_cell_formula_units_Z   1
loop_
 _symmetry_equiv_pos_site_id
 _symmetry_equiv_pos_as_xyz
  1  'x, y, z'
loop_
 _atom_site_type_symbol
 _atom_site_label
 _atom_site_symmetry_multiplicity
 _atom_site_fract_x
 _atom_site_fract_y
 _atom_site_fract_z
 _atom_site_occupancy
  V  V0  1  0.11610199  0.44004910  0.30201307  1
  V  V1  1  0.33525509  0.09809307  0.38245364  1
  V  V2  1  0.14965339  0.23090370  0.75311027  1
  V  V3  1  0.13622886  0.96156360  0.27683446  1
  V  V4  1  0.67931610  0.14232297  0.12813179  1
  V  V5  1  0.34902612  0.54230136  0.41190161  1
  V  V6  1  0.11044095  0.71232860  0.79047040  1
  V  V7  1  0.67061578  0.62016659  0.14788121  1
  V  V8  1  0.36652557  0.35743033  0.85594395  1
  V  V9  1  0.90215105  0.27763118  0.22109018  1
  V  V10  1  0.69604662  0.50823006  0.57860694  1
  V  V11  1  0.33477533  0.86726539  0.87050836  1
  V  V12  1  0.91040677  0.03140838  0.71302647  1
  V  V13  1  0.88455569  0.75911867  0.24512451  1
  V  V14  1  0.68979301  0.87624537  0.62982243  1
  V  V15  1  0.89470118  0.54959291  0.71197794  1
  V  V16  1  0.02579347  0.80498036  0.44410776  1
  Pb  Pb17  1  0.52372218  0.49016410  0.99770978  1
  Pb  Pb18  1  0.50494037  0.96068025  0.02973176  1
  Pb  Pb19  1  0.46197992  0.24463775  0.53997974  1
  O  O20  1  0.21407225  0.36177485  0.95585783  1
  O  O21  1  0.11314434  0.13225509  0.17869205  1
  O  O22  1  0.17514498  0.12713593  0.47061712  1
  O  O23  1  0.18130062  0.87470011  0.96911888  1
  O  O24  1  0.09923877  0.61449318  0.19888273  1
  O  O25  1  0.30202369  0.26428126  0.29549692  1
  O  O26  1  0.50348218  0.30626393  0.13622423  1
  O  O27  1  0.11093421  0.62825184  0.49495875  1
  O  O28  1  0.13724784  0.42573444  0.64279626  1
  O  O29  1  0.29153646  0.03902706  0.78591164  1
  O  O30  1  0.24645130  0.78165442  0.32018568  1
  O  O31  1  0.52042977  0.03862720  0.63562578  1
  O  O32  1  0.48444524  0.78596819  0.16183095  1
  O  O33  1  0.11710932  0.87292340  0.68038352  1
  O  O34  1  0.28732725  0.53575482  0.79017401  1
  O  O35  1  0.53702895  0.40001325  0.37918262  1
  O  O36  1  0.44810588  0.61102886  0.63249416  1
  O  O37  1  0.72886141  0.44785417  0.22300289  1
  O  O38  1  0.92031027  0.09275004  0.32991431  1
  O  O39  1  0.55269925  0.21153520  0.82924916  1
  O  O40  1  0.50748811  0.90752348  0.39193184  1
  O  O41  1  0.78665030  0.21333469  0.67542615  1
  O  O42  1  0.73608134  0.95935855  0.21186355  1
  O  O43  1  0.90016602  0.59407371  0.34228139  1
  O  O44  1  0.79857006  0.44655325  0.49707445  1
  O  O45  1  0.50309693  0.69645050  0.87150378  1
  O  O46  1  0.71453341  0.71454015  0.72041057  1
  O  O47  1  0.93402404  0.37343544  0.80056271  1
  O  O48  1  0.83364397  0.12517015  0.03501225  1
  O  O49  1  0.83907284  0.86713932  0.53257471  1
  O  O50  1  0.90647963  0.86875898  0.82207634  1
  O  O51  1  0.82086990  0.61387079  0.05095650  1
