# generated using pymatgen
data_In2Ag2GeS6
_symmetry_space_group_name_H-M   'P 1'
_cell_length_a   7.22913159
_cell_length_b   7.22913209
_cell_length_c   12.41255399
_cell_angle_alpha   73.26717465
_cell_angle_beta   73.26717345
_cell_angle_gamma   61.47300316
_symmetry_Int_Tables_number   1
_chemical_formula_structural   In2Ag2GeS6
_chemical_formula_sum   'In4 Ag4 Ge2 S12'
_cell_volume   537.00506707
_cell_formula_units_Z   2
loop_
 _symmetry_equiv_pos_site_id
 _symmetry_equiv_pos_as_xyz
  1  'x, y, z'
loop_
 _atom_site_type_symbol
 _atom_site_label
 _atom_site_symmetry_multiplicity
 _atom_site_fract_x
 _atom_site_fract_y
 _atom_site_fract_z
 _atom_site_occupancy
  In  In0  1  0.32239358  0.50740742  0.43960624  1
  In  In1  1  0.17423573  0.29724358  0.24537566  1
  In  In2  1  0.29724358  0.17423573  0.74537566  1
  In  In3  1  0.50740742  0.32239358  0.93960624  1
  Ag  Ag4  1  0.81290661  0.98170801  0.24283747  1
  Ag  Ag5  1  0.80890509  0.39043902  0.58798012  1
  Ag  Ag6  1  0.39043902  0.80890509  0.08798012  1
  Ag  Ag7  1  0.98170801  0.81290661  0.74283747  1
  Ge  Ge8  1  0.93716427  0.40062240  0.00068996  1
  Ge  Ge9  1  0.40062240  0.93716427  0.50068996  1
  S  S10  1  0.51381514  0.06602473  0.12799180  1
  S  S11  1  0.59719355  0.11877242  0.44529238  1
  S  S12  1  0.17040025  0.64239408  0.25832944  1
  S  S13  1  0.84327199  0.34920759  0.18988759  1
  S  S14  1  0.59603058  0.63882506  0.42545949  1
  S  S15  1  0.63882506  0.59603058  0.92545949  1
  S  S16  1  0.11877242  0.59719355  0.94529238  1
  S  S17  1  0.34920759  0.84327199  0.68988759  1
  S  S18  1  0.64239408  0.17040025  0.75832944  1
  S  S19  1  0.06602473  0.51381514  0.62799180  1
  S  S20  1  0.08665559  0.10338330  0.44374985  1
  S  S21  1  0.10338330  0.08665559  0.94374985  1
