# generated using pymatgen
data_Y(IO3)3
_symmetry_space_group_name_H-M   'P 1'
_cell_length_a   7.21740249
_cell_length_b   8.63082663
_cell_length_c   13.56806982
_cell_angle_alpha   90.00000000
_cell_angle_beta   100.19484467
_cell_angle_gamma   90.00000000
_symmetry_Int_Tables_number   1
_chemical_formula_structural   Y(IO3)3
_chemical_formula_sum   'Y4 I12 O36'
_cell_volume   831.84007626
_cell_formula_units_Z   4
loop_
 _symmetry_equiv_pos_site_id
 _symmetry_equiv_pos_as_xyz
  1  'x, y, z'
loop_
 _atom_site_type_symbol
 _atom_site_label
 _atom_site_symmetry_multiplicity
 _atom_site_fract_x
 _atom_site_fract_y
 _atom_site_fract_z
 _atom_site_occupancy
  Y  Y0  1  0.82898089  0.75455810  0.85375077  1
  Y  Y1  1  0.17101911  0.25455810  0.64624923  1
  Y  Y2  1  0.82898089  0.74544190  0.35375077  1
  Y  Y3  1  0.17101911  0.24544190  0.14624923  1
  I  I4  1  0.66691825  0.45617227  0.14423590  1
  I  I5  1  0.26677071  0.47885863  0.38995949  1
  I  I6  1  0.26677071  0.02114137  0.88995949  1
  I  I7  1  0.33308175  0.95617227  0.35576410  1
  I  I8  1  0.73322929  0.97885863  0.11004051  1
  I  I9  1  0.83560065  0.20519528  0.39063875  1
  I  I10  1  0.16439935  0.70519528  0.10936125  1
  I  I11  1  0.33308175  0.54382773  0.85576410  1
  I  I12  1  0.73322929  0.52114137  0.61004051  1
  I  I13  1  0.66691825  0.04382773  0.64423590  1
  I  I14  1  0.83560065  0.29480472  0.89063875  1
  I  I15  1  0.16439935  0.79480472  0.60936125  1
  O  O16  1  0.33814642  0.46691628  0.73030883  1
  O  O17  1  0.32231799  0.41956711  0.52040064  1
  O  O18  1  0.85067894  0.30819072  0.17754602  1
  O  O19  1  0.63804033  0.16501023  0.45452383  1
  O  O20  1  0.85067894  0.19180928  0.67754602  1
  O  O21  1  0.46845644  0.32607599  0.13946529  1
  O  O22  1  0.15569788  0.97367961  0.68136686  1
  O  O23  1  0.66185358  0.53308372  0.26969117  1
  O  O24  1  0.67768201  0.58043289  0.47959936  1
  O  O25  1  0.84430212  0.47367961  0.81863314  1
  O  O26  1  0.32231799  0.08043289  0.02040064  1
  O  O27  1  0.03526743  0.16755504  0.49090272  1
  O  O28  1  0.77471873  0.70864745  0.67624892  1
  O  O29  1  0.98002055  0.02956280  0.11236995  1
  O  O30  1  0.33814642  0.03308372  0.23030883  1
  O  O31  1  0.01997945  0.97043720  0.88763005  1
  O  O32  1  0.67768201  0.91956711  0.97959936  1
  O  O33  1  0.46845644  0.17392401  0.63946529  1
  O  O34  1  0.22528127  0.20864745  0.82375108  1
  O  O35  1  0.98002055  0.47043720  0.61236995  1
  O  O36  1  0.14932106  0.80819072  0.32245398  1
  O  O37  1  0.84430212  0.02632039  0.31863314  1
  O  O38  1  0.14932106  0.69180928  0.82245398  1
  O  O39  1  0.96473257  0.66755504  0.00909728  1
  O  O40  1  0.01997945  0.52956280  0.38763005  1
  O  O41  1  0.22528127  0.29135255  0.32375108  1
  O  O42  1  0.66185358  0.96691628  0.76969117  1
  O  O43  1  0.15569788  0.52632039  0.18136686  1
  O  O44  1  0.03526743  0.33244496  0.99090272  1
  O  O45  1  0.53154356  0.67392401  0.86053471  1
  O  O46  1  0.63804033  0.33498977  0.95452383  1
  O  O47  1  0.53154356  0.82607599  0.36053471  1
  O  O48  1  0.96473257  0.83244496  0.50909728  1
  O  O49  1  0.36195967  0.66501023  0.04547617  1
  O  O50  1  0.77471873  0.79135255  0.17624892  1
  O  O51  1  0.36195967  0.83498977  0.54547617  1
