# generated using pymatgen
data_LiFeP4O13
_symmetry_space_group_name_H-M   'P 1'
_cell_length_a   8.87966082
_cell_length_b   10.27112204
_cell_length_c   13.75646798
_cell_angle_alpha   79.44721445
_cell_angle_beta   95.57555850
_cell_angle_gamma   113.29539461
_symmetry_Int_Tables_number   1
_chemical_formula_structural   LiFeP4O13
_chemical_formula_sum   'Li4 Fe4 P16 O52'
_cell_volume   1132.44954922
_cell_formula_units_Z   4
loop_
 _symmetry_equiv_pos_site_id
 _symmetry_equiv_pos_as_xyz
  1  'x, y, z'
loop_
 _atom_site_type_symbol
 _atom_site_label
 _atom_site_symmetry_multiplicity
 _atom_site_fract_x
 _atom_site_fract_y
 _atom_site_fract_z
 _atom_site_occupancy
  Li  Li0  1  0.86027272  0.19392445  0.00261023  1
  Li  Li1  1  0.64093729  0.30451204  0.99588266  1
  Li  Li2  1  0.17907977  0.80233969  0.00775263  1
  Li  Li3  1  0.50977841  0.96948377  0.49869963  1
  Fe  Fe4  1  0.18512544  0.23875981  0.25663609  1
  Fe  Fe5  1  0.30891618  0.25548158  0.73863256  1
  Fe  Fe6  1  0.68789715  0.74427630  0.24980784  1
  Fe  Fe7  1  0.81415876  0.75496638  0.74948403  1
  P  P8  1  0.61254345  0.03687252  0.17716675  1
  P  P9  1  0.67737156  0.00685992  0.69969349  1
  P  P10  1  0.83026017  0.03547299  0.35572793  1
  P  P11  1  0.10205411  0.52614872  0.18191117  1
  P  P12  1  0.18455562  0.51712602  0.70522852  1
  P  P13  1  0.54432323  0.44680860  0.15466327  1
  P  P14  1  0.33330137  0.53749034  0.35559770  1
  P  P15  1  0.95151086  0.05457476  0.84129954  1
  P  P16  1  0.05316285  0.94450924  0.15368137  1
  P  P17  1  0.66632473  0.46196867  0.64254803  1
  P  P18  1  0.45419702  0.54877498  0.85020542  1
  P  P19  1  0.80720952  0.47846485  0.30289207  1
  P  P20  1  0.88744623  0.46137819  0.81975501  1
  P  P21  1  0.16787979  0.95854195  0.63939886  1
  P  P22  1  0.32433313  0.98809728  0.29668409  1
  P  P23  1  0.39170495  0.97164317  0.81696675  1
  O  O24  1  0.06311112  0.09335812  0.16529232  1
  O  O25  1  0.00508907  0.14573215  0.35541857  1
  O  O26  1  0.30309646  0.11817406  0.32098203  1
  O  O27  1  0.44470122  0.04559769  0.20207668  1
  O  O28  1  0.18800809  0.11121335  0.64882971  1
  O  O29  1  0.12631214  0.16955209  0.83162986  1
  O  O30  1  0.08018007  0.37130613  0.18534758  1
  O  O31  1  0.66968974  0.14016292  0.08281019  1
  O  O32  1  0.41873388  0.12940842  0.80812987  1
  O  O33  1  0.36681274  0.33727193  0.15838328  1
  O  O34  1  0.73677366  0.10159048  0.26508840  1
  O  O35  1  0.61785146  0.08404636  0.61215970  1
  O  O36  1  0.31324815  0.38691299  0.34331138  1
  O  O37  1  0.05680058  0.45465329  0.79508769  1
  O  O38  1  0.20384498  0.38932168  0.67503686  1
  O  O39  1  0.14327284  0.62500665  0.08653440  1
  O  O40  1  0.26899574  0.53524313  0.45568161  1
  O  O41  1  0.49130532  0.35201616  0.64467181  1
  O  O42  1  0.23016886  0.59521276  0.26720126  1
  O  O43  1  0.84821817  0.10569951  0.74683485  1
  O  O44  1  0.88484953  0.06137717  0.93606507  1
  O  O45  1  0.61656552  0.43948824  0.06142249  1
  O  O46  1  0.63853620  0.38770799  0.24937936  1
  O  O47  1  0.13869950  0.61446953  0.62442640  1
  O  O48  1  0.44155494  0.39938804  0.83582527  1
  O  O49  1  0.56116794  0.59690756  0.16633086  1
  O  O50  1  0.85201655  0.38506570  0.38731805  1
  O  O51  1  0.36793698  0.52603484  0.94700015  1
  O  O52  1  0.35241298  0.60679371  0.76026703  1
  O  O53  1  0.12328976  0.93926168  0.05902506  1
  O  O54  1  0.15546649  0.89097786  0.24699159  1
  O  O55  1  0.76555933  0.39775580  0.73041098  1
  O  O56  1  0.50801582  0.64997930  0.35024337  1
  O  O57  1  0.74382230  0.48542209  0.54263152  1
  O  O58  1  0.82901555  0.35709263  0.91343685  1
  O  O59  1  0.93255486  0.52542018  0.21395007  1
  O  O60  1  0.79563521  0.61431336  0.32362323  1
  O  O61  1  0.68499229  0.61066708  0.65928273  1
  O  O62  1  0.38474107  0.90304491  0.37816542  1
  O  O63  1  0.26895179  0.90229849  0.73015769  1
  O  O64  1  0.62706933  0.66136838  0.84754923  1
  O  O65  1  0.59002806  0.88247948  0.17952287  1
  O  O66  1  0.24491015  0.96614101  0.54283390  1
  O  O67  1  0.33797042  0.87911091  0.91342946  1
  O  O68  1  0.91086329  0.61552889  0.81867087  1
  O  O69  1  0.87825964  0.82984659  0.16010405  1
  O  O70  1  0.81668535  0.88769643  0.33813257  1
  O  O71  1  0.69299384  0.87123867  0.68117436  1
  O  O72  1  0.55998172  0.96227686  0.79314410  1
  O  O73  1  0.74093563  0.00730459  0.45133826  1
  O  O74  1  0.99205014  0.84983486  0.64732752  1
  O  O75  1  0.94060019  0.90490311  0.83167091  1
