# generated using pymatgen
data_OsOF4
_symmetry_space_group_name_H-M   'P 1'
_cell_length_a   5.64538813
_cell_length_b   5.71582849
_cell_length_c   13.07616450
_cell_angle_alpha   90.00000000
_cell_angle_beta   90.00000000
_cell_angle_gamma   117.41542628
_symmetry_Int_Tables_number   1
_chemical_formula_structural   OsOF4
_chemical_formula_sum   'Os4 O4 F16'
_cell_volume   374.55483415
_cell_formula_units_Z   4
loop_
 _symmetry_equiv_pos_site_id
 _symmetry_equiv_pos_as_xyz
  1  'x, y, z'
loop_
 _atom_site_type_symbol
 _atom_site_label
 _atom_site_symmetry_multiplicity
 _atom_site_fract_x
 _atom_site_fract_y
 _atom_site_fract_z
 _atom_site_occupancy
  Os  Os0  1  0.61864612  0.33203176  0.64771691  1
  Os  Os1  1  0.38135388  0.66796824  0.35228309  1
  Os  Os2  1  0.61864612  0.83203176  0.85228309  1
  Os  Os3  1  0.38135388  0.16796824  0.14771691  1
  O  O4  1  0.71126009  0.81011992  0.37350928  1
  O  O5  1  0.71126009  0.31011992  0.12649072  1
  O  O6  1  0.28873991  0.68988008  0.87350928  1
  O  O7  1  0.28873991  0.18988008  0.62649072  1
  F  F8  1  0.26105189  0.77182531  0.47004707  1
  F  F9  1  0.73894811  0.72817469  0.97004707  1
  F  F10  1  0.73181674  0.66437237  0.58606022  1
  F  F11  1  0.55671313  0.47257293  0.78640281  1
  F  F12  1  0.04250261  0.55953415  0.29327409  1
  F  F13  1  0.26818326  0.83562763  0.08606022  1
  F  F14  1  0.26105189  0.27182531  0.02995293  1
  F  F15  1  0.44328687  0.52742707  0.21359719  1
  F  F16  1  0.95749739  0.44046585  0.70672591  1
  F  F17  1  0.95749739  0.94046585  0.79327409  1
  F  F18  1  0.04250261  0.05953415  0.20672591  1
  F  F19  1  0.26818326  0.33562763  0.41393978  1
  F  F20  1  0.73181674  0.16437237  0.91393978  1
  F  F21  1  0.44328687  0.02742707  0.28640281  1
  F  F22  1  0.73894811  0.22817469  0.52995293  1
  F  F23  1  0.55671313  0.97257293  0.71359719  1
