# generated using pymatgen
data_CsSb2F7
_symmetry_space_group_name_H-M   'P 1'
_cell_length_a   6.32322726
_cell_length_b   6.59434671
_cell_length_c   10.98849540
_cell_angle_alpha   107.46101667
_cell_angle_beta   86.22926279
_cell_angle_gamma   90.00000040
_symmetry_Int_Tables_number   1
_chemical_formula_structural   CsSb2F7
_chemical_formula_sum   'Cs2 Sb4 F14'
_cell_volume   436.04049746
_cell_formula_units_Z   2
loop_
 _symmetry_equiv_pos_site_id
 _symmetry_equiv_pos_as_xyz
  1  'x, y, z'
loop_
 _atom_site_type_symbol
 _atom_site_label
 _atom_site_symmetry_multiplicity
 _atom_site_fract_x
 _atom_site_fract_y
 _atom_site_fract_z
 _atom_site_occupancy
  Cs  Cs0  1  0.75000000  0.26831191  0.00000000  1
  Cs  Cs1  1  0.25000000  0.73168809  1.00000000  1
  Sb  Sb2  1  0.28798056  0.09240293  0.67908513  1
  Sb  Sb3  1  0.78798056  0.58668320  0.67908513  1
  Sb  Sb4  1  0.71201944  0.90759707  0.32091487  1
  Sb  Sb5  1  0.21201944  0.41331680  0.32091487  1
  F  F6  1  0.97003107  0.23043601  0.25484659  1
  F  F7  1  0.06725040  0.67194188  0.30689408  1
  F  F8  1  0.02996893  0.76956399  0.74515341  1
  F  F9  1  0.79310837  0.77234177  0.13258270  1
  F  F10  1  0.20689163  0.22765823  0.86741730  1
  F  F11  1  0.43274960  0.36504880  0.69310592  1
  F  F12  1  0.52996893  0.97558942  0.74515341  1
  F  F13  1  0.70689163  0.63975907  0.86741730  1
  F  F14  1  0.56725040  0.63495120  0.30689408  1
  F  F15  1  0.50000000  0.00000000  0.50000000  1
  F  F16  1  0.29310837  0.36024093  0.13258270  1
  F  F17  1  0.47003107  0.02441058  0.25484659  1
  F  F18  1  0.00000000  0.50000000  0.50000000  1
  F  F19  1  0.93274960  0.32805812  0.69310592  1
