# generated using pymatgen
data_Li3Ga7
_symmetry_space_group_name_H-M   'P 1'
_cell_length_a   7.63591812
_cell_length_b   7.63591887
_cell_length_c   7.63591888
_cell_angle_alpha   68.30289715
_cell_angle_beta   68.30289501
_cell_angle_gamma   68.30289908
_symmetry_Int_Tables_number   1
_chemical_formula_structural   Li3Ga7
_chemical_formula_sum   'Li6 Ga14'
_cell_volume   370.11016406
_cell_formula_units_Z   2
loop_
 _symmetry_equiv_pos_site_id
 _symmetry_equiv_pos_as_xyz
  1  'x, y, z'
loop_
 _atom_site_type_symbol
 _atom_site_label
 _atom_site_symmetry_multiplicity
 _atom_site_fract_x
 _atom_site_fract_y
 _atom_site_fract_z
 _atom_site_occupancy
  Li  Li0  1  0.47077508  0.88120175  0.88120175  1
  Li  Li1  1  0.88120175  0.47077508  0.88120175  1
  Li  Li2  1  0.11879825  0.52922492  0.11879825  1
  Li  Li3  1  0.88120175  0.88120175  0.47077508  1
  Li  Li4  1  0.11879825  0.11879825  0.52922492  1
  Li  Li5  1  0.52922492  0.11879825  0.11879825  1
  Ga  Ga6  1  0.17508897  0.49051758  0.49051758  1
  Ga  Ga7  1  0.17853461  0.70395660  0.70395660  1
  Ga  Ga8  1  0.29604340  0.29604340  0.82146539  1
  Ga  Ga9  1  0.82491103  0.50948242  0.50948242  1
  Ga  Ga10  1  0.70395660  0.70395660  0.17853461  1
  Ga  Ga11  1  0.50948242  0.82491103  0.50948242  1
  Ga  Ga12  1  0.82146539  0.29604340  0.29604340  1
  Ga  Ga13  1  0.07591781  0.07591781  0.07591781  1
  Ga  Ga14  1  0.50948242  0.50948242  0.82491103  1
  Ga  Ga15  1  0.29604340  0.82146539  0.29604340  1
  Ga  Ga16  1  0.49051758  0.17508897  0.49051758  1
  Ga  Ga17  1  0.70395660  0.17853461  0.70395660  1
  Ga  Ga18  1  0.49051758  0.49051758  0.17508897  1
  Ga  Ga19  1  0.92408219  0.92408219  0.92408219  1
