# generated using pymatgen
data_CsU2O6
_symmetry_space_group_name_H-M   'P 1'
_cell_length_a   11.04877315
_cell_length_b   11.04877408
_cell_length_c   11.04877377
_cell_angle_alpha   89.36702862
_cell_angle_beta   89.36702856
_cell_angle_gamma   89.36702864
_symmetry_Int_Tables_number   1
_chemical_formula_structural   CsU2O6
_chemical_formula_sum   'Cs8 U16 O48'
_cell_volume   1348.53834674
_cell_formula_units_Z   8
loop_
 _symmetry_equiv_pos_site_id
 _symmetry_equiv_pos_as_xyz
  1  'x, y, z'
loop_
 _atom_site_type_symbol
 _atom_site_label
 _atom_site_symmetry_multiplicity
 _atom_site_fract_x
 _atom_site_fract_y
 _atom_site_fract_z
 _atom_site_occupancy
  Cs  Cs0  1  0.12508658  0.62642346  0.61336631  1
  Cs  Cs1  1  0.14529769  0.14529769  0.14529769  1
  Cs  Cs2  1  0.87491342  0.37357654  0.38663369  1
  Cs  Cs3  1  0.62642346  0.61336631  0.12508658  1
  Cs  Cs4  1  0.85470231  0.85470231  0.85470231  1
  Cs  Cs5  1  0.37357654  0.38663369  0.87491342  1
  Cs  Cs6  1  0.61336631  0.12508658  0.62642346  1
  Cs  Cs7  1  0.38663369  0.87491342  0.37357654  1
  U  U8  1  0.21537459  0.99721853  0.74580752  1
  U  U9  1  0.76194170  0.74101487  0.49355421  1
  U  U10  1  0.74580752  0.21537459  0.99721853  1
  U  U11  1  0.50644579  0.23805830  0.25898513  1
  U  U12  1  0.74101487  0.49355421  0.76194170  1
  U  U13  1  0.25419248  0.78462541  0.00278147  1
  U  U14  1  0.00000000  0.50000000  0.00000000  1
  U  U15  1  0.23805830  0.25898513  0.50644579  1
  U  U16  1  0.49355421  0.76194170  0.74101487  1
  U  U17  1  0.99721853  0.74580752  0.21537459  1
  U  U18  1  0.00278147  0.25419248  0.78462541  1
  U  U19  1  0.00000000  0.00000000  0.50000000  1
  U  U20  1  0.25898513  0.50644579  0.23805830  1
  U  U21  1  0.78462541  0.00278147  0.25419248  1
  U  U22  1  0.50000000  0.00000000  0.00000000  1
  U  U23  1  0.50000000  0.50000000  0.50000000  1
  O  O24  1  0.85362315  0.57033013  0.89190689  1
  O  O25  1  0.91822272  0.56000807  0.14969944  1
  O  O26  1  0.86611259  0.83184443  0.13529618  1
  O  O27  1  0.11525866  0.32318355  0.62448142  1
  O  O28  1  0.34095326  0.70097565  0.87108798  1
  O  O29  1  0.60375538  0.63332042  0.81481470  1
  O  O30  1  0.12891202  0.65904674  0.29902435  1
  O  O31  1  0.16815557  0.86470382  0.13388741  1
  O  O32  1  0.02006977  0.08202263  0.67795395  1
  O  O33  1  0.42966987  0.10809311  0.14637685  1
  O  O34  1  0.08202263  0.67795395  0.02006977  1
  O  O35  1  0.13529618  0.86611259  0.83184443  1
  O  O36  1  0.81481470  0.60375538  0.63332042  1
  O  O37  1  0.38383151  0.57122461  0.36412305  1
  O  O38  1  0.14969944  0.91822272  0.56000807  1
  O  O39  1  0.18518530  0.39624462  0.36667958  1
  O  O40  1  0.83184443  0.13529618  0.86611259  1
  O  O41  1  0.88474134  0.67681645  0.37551858  1
  O  O42  1  0.89190689  0.85362315  0.57033013  1
  O  O43  1  0.36412305  0.38383151  0.57122461  1
  O  O44  1  0.87108798  0.34095326  0.70097565  1
  O  O45  1  0.08177728  0.43999193  0.85030056  1
  O  O46  1  0.10809311  0.14637685  0.42966987  1
  O  O47  1  0.63587695  0.61616849  0.42877539  1
  O  O48  1  0.61616849  0.42877539  0.63587695  1
  O  O49  1  0.70097565  0.87108798  0.34095326  1
  O  O50  1  0.13388741  0.16815557  0.86470382  1
  O  O51  1  0.39624462  0.36667958  0.18518530  1
  O  O52  1  0.91797737  0.32204605  0.97993023  1
  O  O53  1  0.67795395  0.02006977  0.08202263  1
  O  O54  1  0.86470382  0.13388741  0.16815557  1
  O  O55  1  0.57122461  0.36412305  0.38383151  1
  O  O56  1  0.65904674  0.29902435  0.12891202  1
  O  O57  1  0.37551858  0.88474134  0.67681645  1
  O  O58  1  0.32318355  0.62448142  0.11525866  1
  O  O59  1  0.97993023  0.91797737  0.32204605  1
  O  O60  1  0.85030056  0.08177728  0.43999193  1
  O  O61  1  0.56000807  0.14969944  0.91822272  1
  O  O62  1  0.43999193  0.85030056  0.08177728  1
  O  O63  1  0.62448142  0.11525866  0.32318355  1
  O  O64  1  0.63332042  0.81481470  0.60375538  1
  O  O65  1  0.29902435  0.12891202  0.65904674  1
  O  O66  1  0.14637685  0.42966987  0.10809311  1
  O  O67  1  0.32204605  0.97993023  0.91797737  1
  O  O68  1  0.42877539  0.63587695  0.61616849  1
  O  O69  1  0.36667958  0.18518530  0.39624462  1
  O  O70  1  0.67681645  0.37551858  0.88474134  1
  O  O71  1  0.57033013  0.89190689  0.85362315  1
