# generated using pymatgen
data_Na3V(SO4)3
_symmetry_space_group_name_H-M   'P 1'
_cell_length_a   8.47281906
_cell_length_b   8.47281888
_cell_length_c   8.47281978
_cell_angle_alpha   107.50055742
_cell_angle_beta   107.50055696
_cell_angle_gamma   107.50054968
_symmetry_Int_Tables_number   1
_chemical_formula_structural   Na3V(SO4)3
_chemical_formula_sum   'Na6 V2 S6 O24'
_cell_volume   499.48017080
_cell_formula_units_Z   2
loop_
 _symmetry_equiv_pos_site_id
 _symmetry_equiv_pos_as_xyz
  1  'x, y, z'
loop_
 _atom_site_type_symbol
 _atom_site_label
 _atom_site_symmetry_multiplicity
 _atom_site_fract_x
 _atom_site_fract_y
 _atom_site_fract_z
 _atom_site_occupancy
  Na  Na0  1  0.23563682  0.85577344  0.38481728  1
  Na  Na1  1  0.38481728  0.23563682  0.85577344  1
  Na  Na2  1  0.85577344  0.38481728  0.23563682  1
  Na  Na3  1  0.76436318  0.14422656  0.61518272  1
  Na  Na4  1  0.61518272  0.76436318  0.14422656  1
  Na  Na5  1  0.14422656  0.61518272  0.76436318  1
  V  V6  1  0.00000000  0.00000000  0.00000000  1
  V  V7  1  0.50000000  0.50000000  0.50000000  1
  S  S8  1  0.23592194  0.44780193  0.09824752  1
  S  S9  1  0.09824752  0.23592194  0.44780193  1
  S  S10  1  0.44780193  0.09824752  0.23592194  1
  S  S11  1  0.76407806  0.55219807  0.90175248  1
  S  S12  1  0.90175248  0.76407806  0.55219807  1
  S  S13  1  0.55219807  0.90175248  0.76407806  1
  O  O14  1  0.41359542  0.48128330  0.24331909  1
  O  O15  1  0.24331909  0.41359542  0.48128330  1
  O  O16  1  0.48128330  0.24331909  0.41359542  1
  O  O17  1  0.58640458  0.51871670  0.75668091  1
  O  O18  1  0.75668091  0.58640458  0.51871670  1
  O  O19  1  0.51871670  0.75668091  0.58640458  1
  O  O20  1  0.13244975  0.52812900  0.17859211  1
  O  O21  1  0.17859211  0.13244975  0.52812900  1
  O  O22  1  0.52812900  0.17859211  0.13244975  1
  O  O23  1  0.86755025  0.47187100  0.82140789  1
  O  O24  1  0.82140789  0.86755025  0.47187100  1
  O  O25  1  0.47187100  0.82140789  0.86755025  1
  O  O26  1  0.28915786  0.52049821  0.97490810  1
  O  O27  1  0.97490810  0.28915786  0.52049821  1
  O  O28  1  0.52049821  0.97490810  0.28915786  1
  O  O29  1  0.71084214  0.47950179  0.02509190  1
  O  O30  1  0.02509190  0.71084214  0.47950179  1
  O  O31  1  0.47950179  0.02509190  0.71084214  1
  O  O32  1  0.12803398  0.24152708  0.98770520  1
  O  O33  1  0.98770520  0.12803398  0.24152708  1
  O  O34  1  0.24152708  0.98770520  0.12803398  1
  O  O35  1  0.87196602  0.75847292  0.01229480  1
  O  O36  1  0.01229480  0.87196602  0.75847292  1
  O  O37  1  0.75847292  0.01229480  0.87196602  1
