# generated using pymatgen
data_Na6U(Mo2O9)2
_symmetry_space_group_name_H-M   'P 1'
_cell_length_a   7.18867714
_cell_length_b   9.75490702
_cell_length_c   13.59822337
_cell_angle_alpha   74.21140729
_cell_angle_beta   86.72866293
_cell_angle_gamma   82.99681234
_symmetry_Int_Tables_number   1
_chemical_formula_structural   Na6U(Mo2O9)2
_chemical_formula_sum   'Na12 U2 Mo8 O36'
_cell_volume   910.46666765
_cell_formula_units_Z   2
loop_
 _symmetry_equiv_pos_site_id
 _symmetry_equiv_pos_as_xyz
  1  'x, y, z'
loop_
 _atom_site_type_symbol
 _atom_site_label
 _atom_site_symmetry_multiplicity
 _atom_site_fract_x
 _atom_site_fract_y
 _atom_site_fract_z
 _atom_site_occupancy
  Na  Na0  1  0.18459582  0.03669045  0.07275929  1
  Na  Na1  1  0.81540418  0.96330955  0.92724071  1
  Na  Na2  1  0.78967454  0.32228051  0.16206603  1
  Na  Na3  1  0.72490816  0.79641296  0.71860797  1
  Na  Na4  1  0.43022708  0.33837447  0.96579031  1
  Na  Na5  1  0.56977292  0.66162553  0.03420969  1
  Na  Na6  1  0.27509184  0.20358704  0.28139203  1
  Na  Na7  1  0.97675209  0.41413743  0.38898873  1
  Na  Na8  1  0.39054090  0.24981575  0.56309966  1
  Na  Na9  1  0.21032546  0.67771949  0.83793397  1
  Na  Na10  1  0.60945910  0.75018425  0.43690034  1
  Na  Na11  1  0.02324791  0.58586257  0.61101127  1
  U  U12  1  0.07364273  0.81759274  0.32609801  1
  U  U13  1  0.92635727  0.18240726  0.67390199  1
  Mo  Mo14  1  0.34337339  0.01171941  0.85044829  1
  Mo  Mo15  1  0.65662661  0.98828059  0.14955171  1
  Mo  Mo16  1  0.23862617  0.90770225  0.56753642  1
  Mo  Mo17  1  0.92717250  0.37121718  0.90480591  1
  Mo  Mo18  1  0.47068871  0.50982311  0.32600503  1
  Mo  Mo19  1  0.07282750  0.62878282  0.09519409  1
  Mo  Mo20  1  0.76137383  0.09229775  0.43246358  1
  Mo  Mo21  1  0.52931129  0.49017689  0.67399497  1
  O  O22  1  0.11745861  0.08957743  0.54593841  1
  O  O23  1  0.50625665  0.86038057  0.84166800  1
  O  O24  1  0.84343010  0.05966677  0.06715990  1
  O  O25  1  0.36465965  0.69408247  0.31559148  1
  O  O26  1  0.30923044  0.37971540  0.37951804  1
  O  O27  1  0.53422999  0.09428229  0.38994058  1
  O  O28  1  0.08908730  0.75506536  0.17329977  1
  O  O29  1  0.11536191  0.78620666  0.66411072  1
  O  O30  1  0.63534035  0.30591753  0.68440852  1
  O  O31  1  0.99890992  0.64700909  0.40582078  1
  O  O32  1  0.11871615  0.30415503  0.98859400  1
  O  O33  1  0.88254139  0.91042257  0.45406159  1
  O  O34  1  0.88128385  0.69584497  0.01140600  1
  O  O35  1  0.88463809  0.21379334  0.33588928  1
  O  O36  1  0.13870630  0.99462676  0.25143414  1
  O  O37  1  0.46577001  0.90571771  0.61005942  1
  O  O38  1  0.72375794  0.39661288  0.98333413  1
  O  O39  1  0.44438663  0.51004464  0.79579535  1
  O  O40  1  0.15656990  0.94033323  0.93284010  1
  O  O41  1  0.86129370  0.00537324  0.74856586  1
  O  O42  1  0.66022993  0.48269175  0.40959188  1
  O  O43  1  0.00109008  0.35299091  0.59417922  1
  O  O44  1  0.23932815  0.11707937  0.72705838  1
  O  O45  1  0.54604694  0.87785170  0.09164180  1
  O  O46  1  0.96736330  0.54014938  0.81946732  1
  O  O47  1  0.73140470  0.15402430  0.54822416  1
  O  O48  1  0.33977007  0.51730825  0.59040812  1
  O  O49  1  0.26859530  0.84597570  0.45177584  1
  O  O50  1  0.55561337  0.48995536  0.20420465  1
  O  O51  1  0.03263670  0.45985062  0.18053268  1
  O  O52  1  0.91091270  0.24493464  0.82670023  1
  O  O53  1  0.49374335  0.13961943  0.15833200  1
  O  O54  1  0.76067185  0.88292063  0.27294162  1
  O  O55  1  0.45395306  0.12214830  0.90835820  1
  O  O56  1  0.27624206  0.60338712  0.01666587  1
  O  O57  1  0.69076956  0.62028460  0.62048196  1
