# generated using pymatgen
data_SiO2
_symmetry_space_group_name_H-M   'P 1'
_cell_length_a   5.28304605
_cell_length_b   11.41032974
_cell_length_c   22.08025711
_cell_angle_alpha   90.00000000
_cell_angle_beta   90.00000000
_cell_angle_gamma   90.00000000
_symmetry_Int_Tables_number   1
_chemical_formula_structural   SiO2
_chemical_formula_sum   'Si24 O48'
_cell_volume   1331.02654689
_cell_formula_units_Z   24
loop_
 _symmetry_equiv_pos_site_id
 _symmetry_equiv_pos_as_xyz
  1  'x, y, z'
loop_
 _atom_site_type_symbol
 _atom_site_label
 _atom_site_symmetry_multiplicity
 _atom_site_fract_x
 _atom_site_fract_y
 _atom_site_fract_z
 _atom_site_occupancy
  Si  Si0  1  0.25000000  0.72600099  0.07763530  1
  Si  Si1  1  0.25000000  0.39930004  0.62187478  1
  Si  Si2  1  0.75000000  0.00871294  0.54207413  1
  Si  Si3  1  0.25000000  0.72600099  0.42236470  1
  Si  Si4  1  0.75000000  0.77073838  0.88304165  1
  Si  Si5  1  0.75000000  0.27399901  0.57763530  1
  Si  Si6  1  0.25000000  0.64622436  0.56278888  1
  Si  Si7  1  0.75000000  0.46825048  0.25000000  1
  Si  Si8  1  0.25000000  0.99128706  0.45792587  1
  Si  Si9  1  0.75000000  0.35377564  0.06278888  1
  Si  Si10  1  0.25000000  0.22926162  0.11695835  1
  Si  Si11  1  0.75000000  0.60069996  0.12187478  1
  Si  Si12  1  0.25000000  0.53174952  0.75000000  1
  Si  Si13  1  0.25000000  0.64622436  0.93721112  1
  Si  Si14  1  0.75000000  0.27399901  0.92236470  1
  Si  Si15  1  0.25000000  0.22926162  0.38304165  1
  Si  Si16  1  0.75000000  0.77073838  0.61695835  1
  Si  Si17  1  0.75000000  0.69516250  0.75000000  1
  Si  Si18  1  0.75000000  0.60069996  0.37812522  1
  Si  Si19  1  0.75000000  0.00871294  0.95792587  1
  Si  Si20  1  0.75000000  0.35377564  0.43721112  1
  Si  Si21  1  0.25000000  0.39930004  0.87812522  1
  Si  Si22  1  0.25000000  0.30483750  0.25000000  1
  Si  Si23  1  0.25000000  0.99128706  0.04207413  1
  O  O24  1  1.00036999  0.38687618  0.25000000  1
  O  O25  1  0.49973069  0.31891947  0.61294036  1
  O  O26  1  0.50026931  0.68108053  0.38705964  1
  O  O27  1  0.50000000  0.00000000  0.00000000  1
  O  O28  1  0.75000000  0.49538712  0.07170421  1
  O  O29  1  0.50053348  0.70047261  0.90555727  1
  O  O30  1  0.00026931  0.31891947  0.61294036  1
  O  O31  1  0.75000000  0.32379656  0.99126437  1
  O  O32  1  0.25000000  0.67620344  0.00873563  1
  O  O33  1  0.99973069  0.68108053  0.38705964  1
  O  O34  1  0.25000000  0.22112177  0.19044728  1
  O  O35  1  0.25000000  0.44986389  0.80972744  1
  O  O36  1  0.25000000  0.67620344  0.49126437  1
  O  O37  1  0.25000000  0.50461288  0.92829579  1
  O  O38  1  0.49946652  0.29952739  0.40555727  1
  O  O39  1  0.75000000  0.13181428  0.92141022  1
  O  O40  1  -0.00036999  0.61312382  0.75000000  1
  O  O41  1  0.75000000  0.55013611  0.19027256  1
  O  O42  1  0.49946652  0.29952739  0.09444273  1
  O  O43  1  0.75000000  0.77887823  0.80955272  1
  O  O44  1  0.99946652  0.70047261  0.59444273  1
  O  O45  1  0.49973069  0.31891947  0.88705964  1
  O  O46  1  0.99946652  0.70047261  0.90555727  1
  O  O47  1  0.75000000  0.49538712  0.42829579  1
  O  O48  1  0.75000000  0.77887823  0.69044728  1
  O  O49  1  0.75000000  0.90319735  0.59101039  1
  O  O50  1  0.75000000  0.55013611  0.30972744  1
  O  O51  1  0.25000000  0.44986389  0.69027256  1
  O  O52  1  0.75000000  0.90319735  0.90898961  1
  O  O53  1  0.75000000  0.13181428  0.57858978  1
  O  O54  1  0.50036999  0.61312382  0.75000000  1
  O  O55  1  0.25000000  0.86818572  0.07858978  1
  O  O56  1  0.25000000  0.50461288  0.57170421  1
  O  O57  1  0.50026931  0.68108053  0.11294036  1
  O  O58  1  0.75000000  0.32379656  0.50873563  1
  O  O59  1  0.25000000  0.09680265  0.09101039  1
  O  O60  1  0.25000000  0.86818572  0.42141022  1
  O  O61  1  0.00026931  0.31891947  0.88705964  1
  O  O62  1  0.50053348  0.70047261  0.59444273  1
  O  O63  1  0.49963001  0.38687618  0.25000000  1
  O  O64  1  0.25000000  0.22112177  0.30955272  1
  O  O65  1  0.99973069  0.68108053  0.11294036  1
  O  O66  1  0.50000000  0.00000000  0.50000000  1
  O  O67  1  0.25000000  0.09680265  0.40898961  1
  O  O68  1  0.00053348  0.29952739  0.40555727  1
  O  O69  1  0.00053348  0.29952739  0.09444273  1
  O  O70  1  0.00000000  0.00000000  0.00000000  1
  O  O71  1  0.00000000  0.00000000  0.50000000  1
