# generated using pymatgen
data_Co3(P2O7)2
_symmetry_space_group_name_H-M   'P 1'
_cell_length_a   5.44821550
_cell_length_b   6.93995818
_cell_length_c   7.26962505
_cell_angle_alpha   75.81814008
_cell_angle_beta   80.97019276
_cell_angle_gamma   67.75317721
_symmetry_Int_Tables_number   1
_chemical_formula_structural   Co3(P2O7)2
_chemical_formula_sum   'Co3 P4 O14'
_cell_volume   246.02117436
_cell_formula_units_Z   1
loop_
 _symmetry_equiv_pos_site_id
 _symmetry_equiv_pos_as_xyz
  1  'x, y, z'
loop_
 _atom_site_type_symbol
 _atom_site_label
 _atom_site_symmetry_multiplicity
 _atom_site_fract_x
 _atom_site_fract_y
 _atom_site_fract_z
 _atom_site_occupancy
  Co  Co0  1  0.18649617  0.51151769  0.30982252  1
  Co  Co1  1  -0.00000000  0.00000000  -0.00000000  1
  Co  Co2  1  0.81350383  0.48848231  0.69017748  1
  P  P3  1  0.20952235  0.72599798  0.65720286  1
  P  P4  1  0.79047765  0.27400202  0.34279714  1
  P  P5  1  0.64803079  0.68670519  0.06388038  1
  P  P6  1  0.35196921  0.31329481  0.93611962  1
  O  O7  1  0.35025298  0.76129700  0.13242553  1
  O  O8  1  0.83252803  0.76993239  0.13713743  1
  O  O9  1  0.75611377  0.43692907  0.13930001  1
  O  O10  1  0.05293266  0.65022560  0.54443486  1
  O  O11  1  0.48359837  0.69581607  0.55653357  1
  O  O12  1  0.68737757  0.70933477  0.84815968  1
  O  O13  1  0.16747197  0.23006761  0.86286257  1
  O  O14  1  0.94706734  0.34977440  0.45556514  1
  O  O15  1  0.24388623  0.56307093  0.86069999  1
  O  O16  1  0.94354777  0.06565045  0.27808145  1
  O  O17  1  0.64974702  0.23870300  0.86757447  1
  O  O18  1  0.31262243  0.29066523  0.15184032  1
  O  O19  1  0.05645223  0.93434955  0.72191855  1
  O  O20  1  0.51640163  0.30418393  0.44346643  1
