# generated using pymatgen
data_RbCuCl3
_symmetry_space_group_name_H-M   'P 1'
_cell_length_a   6.99294533
_cell_length_b   7.03708593
_cell_length_c   12.56544245
_cell_angle_alpha   90.53774972
_cell_angle_beta   90.00000000
_cell_angle_gamma   119.79272118
_symmetry_Int_Tables_number   1
_chemical_formula_structural   RbCuCl3
_chemical_formula_sum   'Rb4 Cu4 Cl12'
_cell_volume   536.58598250
_cell_formula_units_Z   4
loop_
 _symmetry_equiv_pos_site_id
 _symmetry_equiv_pos_as_xyz
  1  'x, y, z'
loop_
 _atom_site_type_symbol
 _atom_site_label
 _atom_site_symmetry_multiplicity
 _atom_site_fract_x
 _atom_site_fract_y
 _atom_site_fract_z
 _atom_site_occupancy
  Rb  Rb0  1  0.68475921  0.33305338  0.37476583  1
  Rb  Rb1  1  0.35170583  0.66694662  0.12523417  1
  Rb  Rb2  1  0.31524079  0.66694662  0.62523417  1
  Rb  Rb3  1  0.64829417  0.33305338  0.87476583  1
  Cu  Cu4  1  0.04498550  0.00000000  0.25000000  1
  Cu  Cu5  1  0.00000000  0.00000000  0.00000000  1
  Cu  Cu6  1  0.00000000  0.00000000  0.50000000  1
  Cu  Cu7  1  0.95501450  0.00000000  0.75000000  1
  Cl  Cl8  1  0.12300344  0.85788416  0.86234777  1
  Cl  Cl9  1  0.73488072  0.85788416  0.36234777  1
  Cl  Cl10  1  0.85311590  0.67447576  0.08886971  1
  Cl  Cl11  1  0.26511928  0.14211584  0.63765223  1
  Cl  Cl12  1  0.81194603  0.17334896  0.65043053  1
  Cl  Cl13  1  0.82135986  0.67447576  0.58886971  1
  Cl  Cl14  1  0.18805397  0.82665104  0.34956947  1
  Cl  Cl15  1  0.36140293  0.17334896  0.15043053  1
  Cl  Cl16  1  0.63859707  0.82665104  0.84956947  1
  Cl  Cl17  1  0.87699656  0.14211584  0.13765223  1
  Cl  Cl18  1  0.14688410  0.32552424  0.91113029  1
  Cl  Cl19  1  0.17864014  0.32552424  0.41113029  1
