# generated using pymatgen
data_Bi20(PtBr12)3
_symmetry_space_group_name_H-M   'P 1'
_cell_length_a   11.58888255
_cell_length_b   11.58888198
_cell_length_c   18.74191142
_cell_angle_alpha   74.16927887
_cell_angle_beta   74.16927964
_cell_angle_gamma   86.47863262
_symmetry_Int_Tables_number   1
_chemical_formula_structural   Bi20(PtBr12)3
_chemical_formula_sum   'Bi20 Pt3 Br36'
_cell_volume   2329.53473201
_cell_formula_units_Z   1
loop_
 _symmetry_equiv_pos_site_id
 _symmetry_equiv_pos_as_xyz
  1  'x, y, z'
loop_
 _atom_site_type_symbol
 _atom_site_label
 _atom_site_symmetry_multiplicity
 _atom_site_fract_x
 _atom_site_fract_y
 _atom_site_fract_z
 _atom_site_occupancy
  Bi  Bi0  1  0.27558876  0.52834139  0.23512810  1
  Bi  Bi1  1  0.95896315  0.20907429  0.89654464  1
  Bi  Bi2  1  0.72441124  0.47165861  0.76487190  1
  Bi  Bi3  1  0.34192468  0.34192468  0.83100102  1
  Bi  Bi4  1  0.52834139  0.27558876  0.23512810  1
  Bi  Bi5  1  0.80816430  0.80816430  0.71630463  1
  Bi  Bi6  1  0.19183570  0.19183570  0.28369537  1
  Bi  Bi7  1  0.79092571  0.04103685  0.10345536  1
  Bi  Bi8  1  0.35739308  0.11322942  0.44393398  1
  Bi  Bi9  1  0.55385157  0.55385157  0.59754649  1
  Bi  Bi10  1  0.20907429  0.95896315  0.89654464  1
  Bi  Bi11  1  0.65807532  0.65807532  0.16899898  1
  Bi  Bi12  1  0.87623058  0.87623058  0.93664001  1
  Bi  Bi13  1  0.11322942  0.35739308  0.44393398  1
  Bi  Bi14  1  0.47165861  0.72441124  0.76487190  1
  Bi  Bi15  1  0.04103685  0.79092571  0.10345536  1
  Bi  Bi16  1  0.12376942  0.12376942  0.06335999  1
  Bi  Bi17  1  0.44614843  0.44614843  0.40245351  1
  Bi  Bi18  1  0.88677058  0.64260692  0.55606602  1
  Bi  Bi19  1  0.64260692  0.88677058  0.55606602  1
  Pt  Pt20  1  0.67662350  0.67662350  0.66184729  1
  Pt  Pt21  1  0.00000000  0.00000000  0.00000000  1
  Pt  Pt22  1  0.32337650  0.32337650  0.33815271  1
  Br  Br23  1  0.73965468  0.26034532  0.00000000  1
  Br  Br24  1  0.14561512  0.14561512  0.55964168  1
  Br  Br25  1  0.15185546  0.41443992  0.16205864  1
  Br  Br26  1  0.24389187  0.50473302  0.50843620  1
  Br  Br27  1  0.03254642  0.76930766  0.61389593  1
  Br  Br28  1  0.36599153  0.10959024  0.94694326  1
  Br  Br29  1  0.41443992  0.15185546  0.16205864  1
  Br  Br30  1  0.85438488  0.85438488  0.44035832  1
  Br  Br31  1  0.23069234  0.96745358  0.38610407  1
  Br  Br32  1  0.50473302  0.24389187  0.50843620  1
  Br  Br33  1  0.76930766  0.03254642  0.61389593  1
  Br  Br34  1  0.82863640  0.08854772  0.82620931  1
  Br  Br35  1  0.52834715  0.52834715  0.10707601  1
  Br  Br36  1  0.40870509  0.93282752  0.66516565  1
  Br  Br37  1  0.19650653  0.19650653  0.77585479  1
  Br  Br38  1  0.84814454  0.58556008  0.83794136  1
  Br  Br39  1  0.17136360  0.91145228  0.17379069  1
  Br  Br40  1  0.63400847  0.89040976  0.05305674  1
  Br  Br41  1  0.47165285  0.47165285  0.89292399  1
  Br  Br42  1  0.10959024  0.36599153  0.94694326  1
  Br  Br43  1  0.44494240  0.69960616  0.27514102  1
  Br  Br44  1  0.49526698  0.75610813  0.49156380  1
  Br  Br45  1  0.96745358  0.23069234  0.38610407  1
  Br  Br46  1  0.80349347  0.80349347  0.22414521  1
  Br  Br47  1  0.69960616  0.44494240  0.27514102  1
  Br  Br48  1  0.08854772  0.82863640  0.82620931  1
  Br  Br49  1  0.30039384  0.55505760  0.72485898  1
  Br  Br50  1  0.91145228  0.17136360  0.17379069  1
  Br  Br51  1  0.59129491  0.06717248  0.33483435  1
  Br  Br52  1  0.55505760  0.30039384  0.72485898  1
  Br  Br53  1  0.58556008  0.84814454  0.83794136  1
  Br  Br54  1  0.26034532  0.73965468  1.00000000  1
  Br  Br55  1  0.75610813  0.49526698  0.49156380  1
  Br  Br56  1  0.93282752  0.40870509  0.66516565  1
  Br  Br57  1  0.89040976  0.63400847  0.05305674  1
  Br  Br58  1  0.06717248  0.59129491  0.33483435  1
