# generated using pymatgen
data_P4Se3
_symmetry_space_group_name_H-M   'P 1'
_cell_length_a   10.44851694
_cell_length_b   12.72890655
_cell_length_c   28.44654449
_cell_angle_alpha   90.00000000
_cell_angle_beta   90.00000000
_cell_angle_gamma   90.00000000
_symmetry_Int_Tables_number   1
_chemical_formula_structural   P4Se3
_chemical_formula_sum   'P64 Se48'
_cell_volume   3783.33909151
_cell_formula_units_Z   16
loop_
 _symmetry_equiv_pos_site_id
 _symmetry_equiv_pos_as_xyz
  1  'x, y, z'
loop_
 _atom_site_type_symbol
 _atom_site_label
 _atom_site_symmetry_multiplicity
 _atom_site_fract_x
 _atom_site_fract_y
 _atom_site_fract_z
 _atom_site_occupancy
  P  P0  1  0.85731332  0.50282490  0.24462015  1
  P  P1  1  0.25000000  0.72758895  0.33277763  1
  P  P2  1  0.75000000  0.32147736  0.89893746  1
  P  P3  1  0.14268668  0.49717510  0.75537985  1
  P  P4  1  0.64268668  0.00282490  0.25537985  1
  P  P5  1  0.64244395  0.95962866  0.62995777  1
  P  P6  1  0.75000000  0.82147736  0.60106254  1
  P  P7  1  0.35731332  0.49717510  0.75537985  1
  P  P8  1  0.64268668  0.50282490  0.24462015  1
  P  P9  1  0.25000000  0.97844244  0.48232184  1
  P  P10  1  0.35748719  0.47357196  0.35472015  1
  P  P11  1  0.64249425  0.27916609  0.41264612  1
  P  P12  1  0.35750575  0.22083391  0.91264612  1
  P  P13  1  0.75000000  0.52528577  0.71368660  1
  P  P14  1  0.75000000  0.54273388  0.17861071  1
  P  P15  1  0.75000000  0.40987427  0.37732767  1
  P  P16  1  0.75000000  0.04273388  0.32138929  1
  P  P17  1  0.75000000  0.95299717  0.00158151  1
  P  P18  1  0.75000000  0.27241105  0.66722237  1
  P  P19  1  0.85755605  0.45962866  0.87004223  1
  P  P20  1  0.64244395  0.45962866  0.87004223  1
  P  P21  1  0.35731332  0.99717510  0.74462015  1
  P  P22  1  0.25000000  0.72871701  0.80673164  1
  P  P23  1  0.64251281  0.02642804  0.85472015  1
  P  P24  1  0.25000000  0.47471423  0.28631340  1
  P  P25  1  0.25000000  0.95726612  0.67861071  1
  P  P26  1  0.25000000  0.54700283  0.50158151  1
  P  P27  1  0.25000000  0.22871701  0.69326836  1
  P  P28  1  0.85750575  0.77916609  0.08735388  1
  P  P29  1  0.25000000  0.17852264  0.39893746  1
  P  P30  1  0.25000000  0.22758895  0.16722237  1
  P  P31  1  0.25000000  0.59012573  0.62267233  1
  P  P32  1  0.85731332  0.00282490  0.25537985  1
  P  P33  1  0.75000000  0.77128299  0.30673164  1
  P  P34  1  0.35748719  0.97357196  0.14527985  1
  P  P35  1  0.14249425  0.22083391  0.91264612  1
  P  P36  1  0.14251281  0.97357196  0.14527985  1
  P  P37  1  0.14268668  0.99717510  0.74462015  1
  P  P38  1  0.85748719  0.52642804  0.64527985  1
  P  P39  1  0.64251281  0.52642804  0.64527985  1
  P  P40  1  0.75000000  0.90987427  0.12267233  1
  P  P41  1  0.25000000  0.97471423  0.21368660  1
  P  P42  1  0.75000000  0.52155756  0.98232184  1
  P  P43  1  0.75000000  0.77241105  0.83277763  1
  P  P44  1  0.25000000  0.04700283  0.99841849  1
  P  P45  1  0.14244395  0.04037134  0.37004223  1
  P  P46  1  0.75000000  0.02155756  0.51767816  1
  P  P47  1  0.25000000  0.47844244  0.01767816  1
  P  P48  1  0.85748719  0.02642804  0.85472015  1
  P  P49  1  0.35755605  0.54037134  0.12995777  1
  P  P50  1  0.75000000  0.45299717  0.49841849  1
  P  P51  1  0.25000000  0.09012573  0.87732767  1
  P  P52  1  0.64249425  0.77916609  0.08735388  1
  P  P53  1  0.35750575  0.72083391  0.58735388  1
  P  P54  1  0.14251281  0.47357196  0.35472015  1
  P  P55  1  0.85755605  0.95962866  0.62995777  1
  P  P56  1  0.25000000  0.67852264  0.10106254  1
  P  P57  1  0.75000000  0.02528577  0.78631340  1
  P  P58  1  0.75000000  0.27128299  0.19326836  1
  P  P59  1  0.25000000  0.45726612  0.82138929  1
  P  P60  1  0.35755605  0.04037134  0.37004223  1
  P  P61  1  0.85750575  0.27916609  0.41264612  1
  P  P62  1  0.14249425  0.72083391  0.58735388  1
  P  P63  1  0.14244395  0.54037134  0.12995777  1
  Se  Se64  1  0.58387254  0.33275686  0.23700215  1
  Se  Se65  1  0.58404293  0.34191132  0.48382651  1
  Se  Se66  1  0.91589283  0.35792342  0.63226015  1
  Se  Se67  1  0.25000000  0.60597848  0.86494290  1
  Se  Se68  1  0.41589283  0.14207658  0.13226015  1
  Se  Se69  1  0.41612746  0.66724314  0.76299785  1
  Se  Se70  1  0.75000000  0.84275484  0.52212256  1
  Se  Se71  1  0.91606976  0.55663825  0.93309437  1
  Se  Se72  1  0.08404293  0.65808868  0.51617349  1
  Se  Se73  1  0.91589283  0.85792342  0.86773985  1
  Se  Se74  1  0.41606976  0.94336175  0.43309437  1
  Se  Se75  1  0.08387254  0.66724314  0.76299785  1
  Se  Se76  1  0.91606976  0.05663825  0.56690563  1
  Se  Se77  1  0.75000000  0.39402152  0.13505710  1
  Se  Se78  1  0.25000000  0.10597848  0.63505710  1
  Se  Se79  1  0.08410717  0.14207658  0.13226015  1
  Se  Se80  1  0.41595707  0.65808868  0.51617349  1
  Se  Se81  1  0.41589283  0.64207658  0.36773985  1
  Se  Se82  1  0.58393024  0.55663825  0.93309437  1
  Se  Se83  1  0.75000000  0.85619297  0.76207089  1
  Se  Se84  1  0.58410717  0.85792342  0.86773985  1
  Se  Se85  1  0.58393024  0.05663825  0.56690563  1
  Se  Se86  1  0.75000000  0.89402152  0.36494290  1
  Se  Se87  1  0.58404293  0.84191132  0.01617349  1
  Se  Se88  1  0.08393024  0.44336175  0.06690563  1
  Se  Se89  1  0.08393024  0.94336175  0.43309437  1
  Se  Se90  1  0.25000000  0.65724516  0.02212256  1
  Se  Se91  1  0.75000000  0.34275484  0.97787744  1
  Se  Se92  1  0.58387254  0.83275686  0.26299785  1
  Se  Se93  1  0.75000000  0.35619297  0.73792911  1
  Se  Se94  1  0.75000000  0.04421709  0.07050508  1
  Se  Se95  1  0.91612746  0.83275686  0.26299785  1
  Se  Se96  1  0.25000000  0.15724516  0.47787744  1
  Se  Se97  1  0.25000000  0.64380703  0.26207089  1
  Se  Se98  1  0.41612746  0.16724314  0.73700215  1
  Se  Se99  1  0.75000000  0.54421709  0.42949492  1
  Se  Se100  1  0.91595707  0.34191132  0.48382651  1
  Se  Se101  1  0.91595707  0.84191132  0.01617349  1
  Se  Se102  1  0.08410717  0.64207658  0.36773985  1
  Se  Se103  1  0.08387254  0.16724314  0.73700215  1
  Se  Se104  1  0.91612746  0.33275686  0.23700215  1
  Se  Se105  1  0.25000000  0.14380703  0.23792911  1
  Se  Se106  1  0.58410717  0.35792342  0.63226015  1
  Se  Se107  1  0.25000000  0.95578291  0.92949492  1
  Se  Se108  1  0.25000000  0.45578291  0.57050508  1
  Se  Se109  1  0.08404293  0.15808868  0.98382651  1
  Se  Se110  1  0.41595707  0.15808868  0.98382651  1
  Se  Se111  1  0.41606976  0.44336175  0.06690563  1
