# generated using pymatgen
data_AlPNCl5
_symmetry_space_group_name_H-M   'P 1'
_cell_length_a   7.40830362
_cell_length_b   8.70003723
_cell_length_c   8.80284190
_cell_angle_alpha   64.19086511
_cell_angle_beta   76.73452316
_cell_angle_gamma   67.88175092
_symmetry_Int_Tables_number   1
_chemical_formula_structural   AlPNCl5
_chemical_formula_sum   'Al2 P2 N2 Cl10'
_cell_volume   471.71885062
_cell_formula_units_Z   2
loop_
 _symmetry_equiv_pos_site_id
 _symmetry_equiv_pos_as_xyz
  1  'x, y, z'
loop_
 _atom_site_type_symbol
 _atom_site_label
 _atom_site_symmetry_multiplicity
 _atom_site_fract_x
 _atom_site_fract_y
 _atom_site_fract_z
 _atom_site_occupancy
  Al  Al0  1  0.91799835  0.56617312  0.62645589  1
  Al  Al1  1  0.08200165  0.43382688  0.37354411  1
  P  P2  1  0.28516379  0.21449525  0.72188074  1
  P  P3  1  0.71483621  0.78550475  0.27811926  1
  N  N4  1  0.13159958  0.37006763  0.59953361  1
  N  N5  1  0.86840042  0.62993237  0.40046639  1
  Cl  Cl6  1  0.56194936  0.18464382  0.62465091  1
  Cl  Cl7  1  0.73046998  0.75301159  0.06429155  1
  Cl  Cl8  1  0.99596847  0.24073715  0.34509467  1
  Cl  Cl9  1  0.73848212  0.03071813  0.20323937  1
  Cl  Cl10  1  0.00403153  0.75926285  0.65490533  1
  Cl  Cl11  1  0.26151788  0.96928187  0.79676063  1
  Cl  Cl12  1  0.26953002  0.24698841  0.93570845  1
  Cl  Cl13  1  0.43805064  0.81535618  0.37534909  1
  Cl  Cl14  1  0.30691356  0.50932606  0.18820347  1
  Cl  Cl15  1  0.69308644  0.49067394  0.81179653  1
