# generated using pymatgen
data_NbRh
_symmetry_space_group_name_H-M   'P 1'
_cell_length_a   2.86699598
_cell_length_b   4.90197557
_cell_length_c   20.66240749
_cell_angle_alpha   90.36466947
_cell_angle_beta   90.00000000
_cell_angle_gamma   90.00000000
_symmetry_Int_Tables_number   1
_chemical_formula_structural   NbRh
_chemical_formula_sum   'Nb9 Rh9'
_cell_volume   290.38244155
_cell_formula_units_Z   9
loop_
 _symmetry_equiv_pos_site_id
 _symmetry_equiv_pos_as_xyz
  1  'x, y, z'
loop_
 _atom_site_type_symbol
 _atom_site_label
 _atom_site_symmetry_multiplicity
 _atom_site_fract_x
 _atom_site_fract_y
 _atom_site_fract_z
 _atom_site_occupancy
  Nb  Nb0  1  -0.00000000  0.96842482  0.77764392  1
  Nb  Nb1  1  0.00000000  0.33323299  0.66670335  1
  Nb  Nb2  1  0.00000000  0.03157518  0.22235608  1
  Nb  Nb3  1  0.00000000  0.36506452  0.88895548  1
  Nb  Nb4  1  0.00000000  0.69831823  0.55570832  1
  Nb  Nb5  1  0.00000000  0.00000000  -0.00000000  1
  Nb  Nb6  1  -0.00000000  0.66676701  0.33329665  1
  Nb  Nb7  1  0.00000000  0.63493548  0.11104452  1
  Nb  Nb8  1  0.00000000  0.30168177  0.44429168  1
  Rh  Rh9  1  0.50000000  0.16664637  0.33331707  1
  Rh  Rh10  1  0.50000000  0.81099401  0.44487175  1
  Rh  Rh11  1  0.50000000  0.52227459  0.22177741  1
  Rh  Rh12  1  0.50000000  0.85579786  0.88838337  1
  Rh  Rh13  1  0.50000000  0.83335363  0.66668293  1
  Rh  Rh14  1  0.50000000  0.47772541  0.77822259  1
  Rh  Rh15  1  0.50000000  0.14420214  0.11161663  1
  Rh  Rh16  1  0.50000000  0.18900599  0.55512825  1
  Rh  Rh17  1  0.50000000  0.50000000  -0.00000000  1
