# generated using pymatgen
data_NdCoSb3
_symmetry_space_group_name_H-M   'P 1'
_cell_length_a   6.20255342
_cell_length_b   12.14786514
_cell_length_c   12.75695103
_cell_angle_alpha   90.00000000
_cell_angle_beta   90.00000000
_cell_angle_gamma   90.00000000
_symmetry_Int_Tables_number   1
_chemical_formula_structural   NdCoSb3
_chemical_formula_sum   'Nd8 Co8 Sb24'
_cell_volume   961.20797119
_cell_formula_units_Z   8
loop_
 _symmetry_equiv_pos_site_id
 _symmetry_equiv_pos_as_xyz
  1  'x, y, z'
loop_
 _atom_site_type_symbol
 _atom_site_label
 _atom_site_symmetry_multiplicity
 _atom_site_fract_x
 _atom_site_fract_y
 _atom_site_fract_z
 _atom_site_occupancy
  Nd  Nd0  1  0.22207584  0.25000000  0.30307926  1
  Nd  Nd1  1  0.25000000  0.00000000  0.70049164  1
  Nd  Nd2  1  0.77792416  0.75000000  0.69692074  1
  Nd  Nd3  1  0.27792416  0.75000000  0.30307926  1
  Nd  Nd4  1  0.75000000  0.50000000  0.29950836  1
  Nd  Nd5  1  0.75000000  0.00000000  0.29950836  1
  Nd  Nd6  1  0.72207584  0.25000000  0.69692074  1
  Nd  Nd7  1  0.25000000  0.50000000  0.70049164  1
  Co  Co8  1  0.03844400  0.86394628  0.09810451  1
  Co  Co9  1  0.46155600  0.13605372  0.09810451  1
  Co  Co10  1  0.96155600  0.36394628  0.90189549  1
  Co  Co11  1  0.03844400  0.63605372  0.09810451  1
  Co  Co12  1  0.53844400  0.86394628  0.90189549  1
  Co  Co13  1  0.46155600  0.36394628  0.09810451  1
  Co  Co14  1  0.96155600  0.13605372  0.90189549  1
  Co  Co15  1  0.53844400  0.63605372  0.90189549  1
  Sb  Sb16  1  0.23058012  0.25000000  0.78598922  1
  Sb  Sb17  1  0.61431104  0.25000000  0.94457092  1
  Sb  Sb18  1  0.76941988  0.75000000  0.21401078  1
  Sb  Sb19  1  0.11431104  0.25000000  0.05542908  1
  Sb  Sb20  1  0.25000000  0.00000000  0.21937321  1
  Sb  Sb21  1  0.75000000  0.00000000  0.02785415  1
  Sb  Sb22  1  0.98513873  0.12428467  0.50266913  1
  Sb  Sb23  1  0.25000000  0.50000000  0.21937321  1
  Sb  Sb24  1  0.51486127  0.62428467  0.50266913  1
  Sb  Sb25  1  0.75000000  0.00000000  0.78062679  1
  Sb  Sb26  1  0.75000000  0.50000000  0.02785415  1
  Sb  Sb27  1  0.73058012  0.25000000  0.21401078  1
  Sb  Sb28  1  0.48513873  0.37571533  0.49733087  1
  Sb  Sb29  1  0.88568896  0.75000000  0.94457092  1
  Sb  Sb30  1  0.01486127  0.62428467  0.49733087  1
  Sb  Sb31  1  0.26941988  0.75000000  0.78598922  1
  Sb  Sb32  1  0.98513873  0.37571533  0.50266913  1
  Sb  Sb33  1  0.25000000  0.00000000  0.97214585  1
  Sb  Sb34  1  0.75000000  0.50000000  0.78062679  1
  Sb  Sb35  1  0.51486127  0.87571533  0.50266913  1
  Sb  Sb36  1  0.01486127  0.87571533  0.49733087  1
  Sb  Sb37  1  0.48513873  0.12428467  0.49733087  1
  Sb  Sb38  1  0.38568896  0.75000000  0.05542908  1
  Sb  Sb39  1  0.25000000  0.50000000  0.97214585  1
