# generated using pymatgen
data_Ce3Al
_symmetry_space_group_name_H-M   'P 1'
_cell_length_a   5.20515058
_cell_length_b   6.67881241
_cell_length_c   11.85665674
_cell_angle_alpha   89.00272925
_cell_angle_beta   90.00000000
_cell_angle_gamma   90.00000000
_symmetry_Int_Tables_number   1
_chemical_formula_structural   Ce3Al
_chemical_formula_sum   'Ce12 Al4'
_cell_volume   412.12503843
_cell_formula_units_Z   4
loop_
 _symmetry_equiv_pos_site_id
 _symmetry_equiv_pos_as_xyz
  1  'x, y, z'
loop_
 _atom_site_type_symbol
 _atom_site_label
 _atom_site_symmetry_multiplicity
 _atom_site_fract_x
 _atom_site_fract_y
 _atom_site_fract_z
 _atom_site_occupancy
  Ce  Ce0  1  0.75000000  0.50638159  0.32640304  1
  Ce  Ce1  1  0.25000000  0.74287314  0.39437970  1
  Ce  Ce2  1  0.25000000  0.72430329  0.92863202  1
  Ce  Ce3  1  0.75000000  0.27569671  0.07136798  1
  Ce  Ce4  1  0.75000000  0.25712686  0.60562030  1
  Ce  Ce5  1  0.25000000  0.49361841  0.67359696  1
  Ce  Ce6  1  0.25000000  0.98986633  0.19959813  1
  Ce  Ce7  1  0.25000000  0.28425239  0.92687617  1
  Ce  Ce8  1  0.25000000  0.22113453  0.40231441  1
  Ce  Ce9  1  0.75000000  0.77886547  0.59768559  1
  Ce  Ce10  1  0.75000000  0.71574761  0.07312383  1
  Ce  Ce11  1  0.75000000  0.01013367  0.80040187  1
  Al  Al12  1  0.75000000  0.99625014  0.33915345  1
  Al  Al13  1  0.25000000  0.48801623  0.16952318  1
  Al  Al14  1  0.25000000  0.00374986  0.66084655  1
  Al  Al15  1  0.75000000  0.51198377  0.83047682  1
