# generated using pymatgen
data_AlH3
_symmetry_space_group_name_H-M   'P 1'
_cell_length_a   5.45292738
_cell_length_b   5.79127362
_cell_length_c   7.40960926
_cell_angle_alpha   90.00000000
_cell_angle_beta   90.00000000
_cell_angle_gamma   90.00000000
_symmetry_Int_Tables_number   1
_chemical_formula_structural   AlH3
_chemical_formula_sum   'Al6 H18'
_cell_volume   233.99097382
_cell_formula_units_Z   6
loop_
 _symmetry_equiv_pos_site_id
 _symmetry_equiv_pos_as_xyz
  1  'x, y, z'
loop_
 _atom_site_type_symbol
 _atom_site_label
 _atom_site_symmetry_multiplicity
 _atom_site_fract_x
 _atom_site_fract_y
 _atom_site_fract_z
 _atom_site_occupancy
  Al  Al0  1  0.21171150  0.00000000  0.91547732  1
  Al  Al1  1  0.78828850  0.00000000  0.08452268  1
  Al  Al2  1  0.71171150  0.50000000  0.58452268  1
  Al  Al3  1  0.00000000  0.50000000  0.00000000  1
  Al  Al4  1  0.28828850  0.50000000  0.41547732  1
  Al  Al5  1  0.50000000  0.00000000  0.50000000  1
  H  H6  1  0.79705916  0.70138675  0.08240041  1
  H  H7  1  0.09673944  0.00000000  0.13909675  1
  H  H8  1  0.82716696  0.50000000  0.79945528  1
  H  H9  1  0.20294084  0.70138675  0.91759959  1
  H  H10  1  0.67283304  0.00000000  0.29945528  1
  H  H11  1  0.59673944  0.50000000  0.36090325  1
  H  H12  1  0.70294084  0.79861325  0.58240041  1
  H  H13  1  0.40326056  0.50000000  0.63909675  1
  H  H14  1  0.17283304  0.50000000  0.20054472  1
  H  H15  1  0.50000000  0.00000000  0.00000000  1
  H  H16  1  0.90326056  0.00000000  0.86090325  1
  H  H17  1  0.32716696  0.00000000  0.70054472  1
  H  H18  1  0.29705916  0.79861325  0.41759959  1
  H  H19  1  0.70294084  0.20138675  0.58240041  1
  H  H20  1  0.20294084  0.29861325  0.91759959  1
  H  H21  1  0.29705916  0.20138675  0.41759959  1
  H  H22  1  0.79705916  0.29861325  0.08240041  1
  H  H23  1  0.00000000  0.50000000  0.50000000  1
