# generated using pymatgen
data_InBi2Se4Br
_symmetry_space_group_name_H-M   'P 1'
_cell_length_a   4.17206329
_cell_length_b   10.83216438
_cell_length_c   11.93111200
_cell_angle_alpha   65.50188238
_cell_angle_beta   79.93067582
_cell_angle_gamma   78.89675417
_symmetry_Int_Tables_number   1
_chemical_formula_structural   InBi2Se4Br
_chemical_formula_sum   'In2 Bi4 Se8 Br2'
_cell_volume   478.73934364
_cell_formula_units_Z   2
loop_
 _symmetry_equiv_pos_site_id
 _symmetry_equiv_pos_as_xyz
  1  'x, y, z'
loop_
 _atom_site_type_symbol
 _atom_site_label
 _atom_site_symmetry_multiplicity
 _atom_site_fract_x
 _atom_site_fract_y
 _atom_site_fract_z
 _atom_site_occupancy
  In  In0  1  0.16291037  0.11142804  0.56275121  1
  In  In1  1  0.83708963  0.88857196  0.43724879  1
  Bi  Bi2  1  0.79734087  0.30839627  0.09692198  1
  Bi  Bi3  1  0.20265913  0.69160373  0.90307802  1
  Bi  Bi4  1  0.54950502  0.67212688  0.22886309  1
  Bi  Bi5  1  0.45049498  0.32787312  0.77113691  1
  Se  Se6  1  0.03908105  0.14353870  0.77829919  1
  Se  Se7  1  0.82192764  0.49973659  0.85640813  1
  Se  Se8  1  0.28525867  0.08123636  0.34824630  1
  Se  Se9  1  0.40352361  0.17014589  0.02280690  1
  Se  Se10  1  0.59647639  0.82985411  0.97719310  1
  Se  Se11  1  0.17807236  0.50026341  0.14359187  1
  Se  Se12  1  0.96091895  0.85646130  0.22170081  1
  Se  Se13  1  0.71474133  0.91876364  0.65175370  1
  Br  Br14  1  0.60208799  0.32565760  0.47016641  1
  Br  Br15  1  0.39791201  0.67434240  0.52983359  1
