# generated using pymatgen
data_PrCoSb3
_symmetry_space_group_name_H-M   'P 1'
_cell_length_a   6.21240539
_cell_length_b   12.17022653
_cell_length_c   12.85542867
_cell_angle_alpha   90.00000000
_cell_angle_beta   90.00000000
_cell_angle_gamma   90.00000000
_symmetry_Int_Tables_number   1
_chemical_formula_structural   PrCoSb3
_chemical_formula_sum   'Pr8 Co8 Sb24'
_cell_volume   971.95243656
_cell_formula_units_Z   8
loop_
 _symmetry_equiv_pos_site_id
 _symmetry_equiv_pos_as_xyz
  1  'x, y, z'
loop_
 _atom_site_type_symbol
 _atom_site_label
 _atom_site_symmetry_multiplicity
 _atom_site_fract_x
 _atom_site_fract_y
 _atom_site_fract_z
 _atom_site_occupancy
  Pr  Pr0  1  0.22420235  0.25000000  0.30281277  1
  Pr  Pr1  1  0.25000000  0.50000000  0.70065865  1
  Pr  Pr2  1  0.75000000  0.00000000  0.29934135  1
  Pr  Pr3  1  0.77579765  0.75000000  0.69718723  1
  Pr  Pr4  1  0.72420235  0.25000000  0.69718723  1
  Pr  Pr5  1  0.25000000  0.00000000  0.70065865  1
  Pr  Pr6  1  0.27579765  0.75000000  0.30281277  1
  Pr  Pr7  1  0.75000000  0.50000000  0.29934135  1
  Co  Co8  1  0.03793480  0.63603189  0.09715706  1
  Co  Co9  1  0.53793480  0.63603189  0.90284294  1
  Co  Co10  1  0.53793480  0.86396811  0.90284294  1
  Co  Co11  1  0.03793480  0.86396811  0.09715706  1
  Co  Co12  1  0.46206520  0.36396811  0.09715706  1
  Co  Co13  1  0.46206520  0.13603189  0.09715706  1
  Co  Co14  1  0.96206520  0.13603189  0.90284294  1
  Co  Co15  1  0.96206520  0.36396811  0.90284294  1
  Sb  Sb16  1  0.88453962  0.75000000  0.94502371  1
  Sb  Sb17  1  0.75000000  0.50000000  0.78271938  1
  Sb  Sb18  1  0.61546038  0.25000000  0.94502371  1
  Sb  Sb19  1  0.25000000  0.00000000  0.97241446  1
  Sb  Sb20  1  0.25000000  0.00000000  0.21728062  1
  Sb  Sb21  1  0.48667844  0.12423037  0.49753563  1
  Sb  Sb22  1  0.51332156  0.62423037  0.50246437  1
  Sb  Sb23  1  0.23150952  0.25000000  0.78822700  1
  Sb  Sb24  1  0.75000000  0.50000000  0.02758554  1
  Sb  Sb25  1  0.01332156  0.62423037  0.49753563  1
  Sb  Sb26  1  0.01332156  0.87576963  0.49753563  1
  Sb  Sb27  1  0.11546038  0.25000000  0.05497629  1
  Sb  Sb28  1  0.76849048  0.75000000  0.21177300  1
  Sb  Sb29  1  0.51332156  0.87576963  0.50246437  1
  Sb  Sb30  1  0.75000000  0.00000000  0.78271938  1
  Sb  Sb31  1  0.25000000  0.50000000  0.97241446  1
  Sb  Sb32  1  0.48667844  0.37576963  0.49753563  1
  Sb  Sb33  1  0.98667844  0.37576963  0.50246437  1
  Sb  Sb34  1  0.26849048  0.75000000  0.78822700  1
  Sb  Sb35  1  0.73150952  0.25000000  0.21177300  1
  Sb  Sb36  1  0.25000000  0.50000000  0.21728062  1
  Sb  Sb37  1  0.75000000  0.00000000  0.02758554  1
  Sb  Sb38  1  0.98667844  0.12423037  0.50246437  1
  Sb  Sb39  1  0.38453962  0.75000000  0.05497629  1
