# generated using pymatgen
data_Ga2Pt
_symmetry_space_group_name_H-M   'P 1'
_cell_length_a   8.64187143
_cell_length_b   8.64187722
_cell_length_c   12.70560024
_cell_angle_alpha   109.88046438
_cell_angle_beta   109.88044549
_cell_angle_gamma   89.99353635
_symmetry_Int_Tables_number   1
_chemical_formula_structural   Ga2Pt
_chemical_formula_sum   'Ga32 Pt16'
_cell_volume   831.96020427
_cell_formula_units_Z   16
loop_
 _symmetry_equiv_pos_site_id
 _symmetry_equiv_pos_as_xyz
  1  'x, y, z'
loop_
 _atom_site_type_symbol
 _atom_site_label
 _atom_site_symmetry_multiplicity
 _atom_site_fract_x
 _atom_site_fract_y
 _atom_site_fract_z
 _atom_site_occupancy
  Ga  Ga0  1  0.35381397  0.29050321  0.12441149  1
  Ga  Ga1  1  0.14624114  0.66606820  0.87562264  1
  Ga  Ga2  1  0.58373975  0.51991631  0.12419373  1
  Ga  Ga3  1  0.79042607  0.77063281  0.62437811  1
  Ga  Ga4  1  0.41626025  0.48008369  0.87580627  1
  Ga  Ga5  1  0.85375886  0.33393180  0.12437736  1
  Ga  Ga6  1  0.89566301  0.91633927  0.37582019  1
  Ga  Ga7  1  0.08366088  0.10433703  0.12417976  1
  Ga  Ga8  1  0.04046829  0.60430238  0.12419069  1
  Ga  Ga9  1  0.83393493  0.27064944  0.62441990  1
  Ga  Ga10  1  0.33393184  0.85375895  0.62437745  1
  Ga  Ga11  1  0.45949929  0.98012695  0.87581176  1
  Ga  Ga12  1  0.91633912  0.89566297  0.87582024  1
  Ga  Ga13  1  0.10433699  0.08366073  0.62417981  1
  Ga  Ga14  1  0.27064947  0.83393485  0.12441984  1
  Ga  Ga15  1  0.95953171  0.39569762  0.87580931  1
  Ga  Ga16  1  0.01987312  0.54050095  0.62418830  1
  Ga  Ga17  1  0.66606816  0.14624105  0.37562255  1
  Ga  Ga18  1  0.48008358  0.41626040  0.37580620  1
  Ga  Ga19  1  0.70949681  0.64618594  0.37558844  1
  Ga  Ga20  1  0.54050071  0.01987305  0.12418824  1
  Ga  Ga21  1  0.22936715  0.20957397  0.87562198  1
  Ga  Ga22  1  0.20957393  0.22936719  0.37562189  1
  Ga  Ga23  1  0.16606507  0.72935056  0.37558010  1
  Ga  Ga24  1  0.72935053  0.16606515  0.87558016  1
  Ga  Ga25  1  0.39569762  0.95953151  0.37580924  1
  Ga  Ga26  1  0.51991642  0.58373960  0.62419380  1
  Ga  Ga27  1  0.77063285  0.79042603  0.12437802  1
  Ga  Ga28  1  0.29050319  0.35381406  0.62441156  1
  Ga  Ga29  1  0.64618603  0.70949679  0.87558851  1
  Ga  Ga30  1  0.98012688  0.45949905  0.37581170  1
  Ga  Ga31  1  0.60430238  0.04046849  0.62419076  1
  Pt  Pt32  1  0.51507766  0.26507369  0.53013544  1
  Pt  Pt33  1  0.73492639  0.48492228  0.96986474  1
  Pt  Pt34  1  0.07339916  0.92660092  0.25000004  1
  Pt  Pt35  1  0.67660389  0.32339607  0.25000002  1
  Pt  Pt36  1  0.42649248  0.17650249  0.74998976  1
  Pt  Pt37  1  0.76505419  0.01503785  0.03008482  1
  Pt  Pt38  1  0.26507361  0.51507772  0.03013526  1
  Pt  Pt39  1  0.48492234  0.73492631  0.46986456  1
  Pt  Pt40  1  0.01503801  0.76505447  0.53008520  1
  Pt  Pt41  1  0.92660084  0.07339908  0.74999996  1
  Pt  Pt42  1  0.57350752  0.82349751  0.25001024  1
  Pt  Pt43  1  0.23494581  0.98496215  0.96991518  1
  Pt  Pt44  1  0.82349759  0.57350766  0.75001035  1
  Pt  Pt45  1  0.32339611  0.67660393  0.74999998  1
  Pt  Pt46  1  0.98496199  0.23494553  0.46991480  1
  Pt  Pt47  1  0.17650241  0.42649234  0.24998965  1
