# generated using pymatgen
data_TiHg6As4Br7
_symmetry_space_group_name_H-M   'P 1'
_cell_length_a   12.71642143
_cell_length_b   12.71642143
_cell_length_c   12.71642143
_cell_angle_alpha   90.00000000
_cell_angle_beta   90.00000000
_cell_angle_gamma   90.00000000
_symmetry_Int_Tables_number   1
_chemical_formula_structural   TiHg6As4Br7
_chemical_formula_sum   'Ti4 Hg24 As16 Br28'
_cell_volume   2056.33911594
_cell_formula_units_Z   4
loop_
 _symmetry_equiv_pos_site_id
 _symmetry_equiv_pos_as_xyz
  1  'x, y, z'
loop_
 _atom_site_type_symbol
 _atom_site_label
 _atom_site_symmetry_multiplicity
 _atom_site_fract_x
 _atom_site_fract_y
 _atom_site_fract_z
 _atom_site_occupancy
  Ti  Ti0  1  0.00000000  0.50000000  0.00000000  1
  Ti  Ti1  1  0.50000000  0.50000000  0.50000000  1
  Ti  Ti2  1  0.00000000  0.00000000  0.50000000  1
  Ti  Ti3  1  0.50000000  0.00000000  0.00000000  1
  Hg  Hg4  1  0.04174468  0.69251562  0.30265800  1
  Hg  Hg5  1  0.19251562  0.30265800  0.45825532  1
  Hg  Hg6  1  0.30748438  0.69734200  0.95825532  1
  Hg  Hg7  1  0.80265800  0.04174468  0.80748438  1
  Hg  Hg8  1  0.54174468  0.69251562  0.19734200  1
  Hg  Hg9  1  0.45825532  0.30748438  0.80265800  1
  Hg  Hg10  1  0.95825532  0.19251562  0.19734200  1
  Hg  Hg11  1  0.19734200  0.54174468  0.69251562  1
  Hg  Hg12  1  0.95825532  0.30748438  0.69734200  1
  Hg  Hg13  1  0.04174468  0.80748438  0.80265800  1
  Hg  Hg14  1  0.80748438  0.80265800  0.04174468  1
  Hg  Hg15  1  0.19734200  0.95825532  0.19251562  1
  Hg  Hg16  1  0.69251562  0.30265800  0.04174468  1
  Hg  Hg17  1  0.30265800  0.04174468  0.69251562  1
  Hg  Hg18  1  0.80265800  0.45825532  0.30748438  1
  Hg  Hg19  1  0.30265800  0.45825532  0.19251562  1
  Hg  Hg20  1  0.54174468  0.80748438  0.69734200  1
  Hg  Hg21  1  0.45825532  0.19251562  0.30265800  1
  Hg  Hg22  1  0.19251562  0.19734200  0.95825532  1
  Hg  Hg23  1  0.80748438  0.69734200  0.54174468  1
  Hg  Hg24  1  0.69734200  0.95825532  0.30748438  1
  Hg  Hg25  1  0.69734200  0.54174468  0.80748438  1
  Hg  Hg26  1  0.69251562  0.19734200  0.54174468  1
  Hg  Hg27  1  0.30748438  0.80265800  0.45825532  1
  As  As28  1  0.15595762  0.15595762  0.15595762  1
  As  As29  1  0.34404238  0.65595762  0.15595762  1
  As  As30  1  0.22940128  0.77059872  0.27059872  1
  As  As31  1  0.72940128  0.72940128  0.72940128  1
  As  As32  1  0.84404238  0.65595762  0.34404238  1
  As  As33  1  0.15595762  0.34404238  0.65595762  1
  As  As34  1  0.34404238  0.84404238  0.65595762  1
  As  As35  1  0.65595762  0.34404238  0.84404238  1
  As  As36  1  0.27059872  0.22940128  0.77059872  1
  As  As37  1  0.77059872  0.22940128  0.72940128  1
  As  As38  1  0.77059872  0.27059872  0.22940128  1
  As  As39  1  0.27059872  0.27059872  0.27059872  1
  As  As40  1  0.72940128  0.77059872  0.22940128  1
  As  As41  1  0.84404238  0.84404238  0.84404238  1
  As  As42  1  0.65595762  0.15595762  0.34404238  1
  As  As43  1  0.22940128  0.72940128  0.77059872  1
  Br  Br44  1  0.53889914  0.04512357  0.80779648  1
  Br  Br45  1  0.30779648  0.53889914  0.45487643  1
  Br  Br46  1  0.30779648  0.96110086  0.95487643  1
  Br  Br47  1  0.45487643  0.19220352  0.03889914  1
  Br  Br48  1  0.95487643  0.30779648  0.96110086  1
  Br  Br49  1  0.04512357  0.69220352  0.03889914  1
  Br  Br50  1  0.04512357  0.80779648  0.53889914  1
  Br  Br51  1  0.00000000  0.00000000  0.00000000  1
  Br  Br52  1  0.54512357  0.80779648  0.96110086  1
  Br  Br53  1  0.03889914  0.04512357  0.69220352  1
  Br  Br54  1  0.46110086  0.95487643  0.19220352  1
  Br  Br55  1  0.53889914  0.45487643  0.30779648  1
  Br  Br56  1  0.03889914  0.45487643  0.19220352  1
  Br  Br57  1  0.50000000  0.50000000  0.00000000  1
  Br  Br58  1  0.96110086  0.54512357  0.80779648  1
  Br  Br59  1  0.54512357  0.69220352  0.46110086  1
  Br  Br60  1  0.80779648  0.96110086  0.54512357  1
  Br  Br61  1  0.50000000  0.00000000  0.50000000  1
  Br  Br62  1  0.19220352  0.03889914  0.45487643  1
  Br  Br63  1  0.95487643  0.19220352  0.46110086  1
  Br  Br64  1  0.96110086  0.95487643  0.30779648  1
  Br  Br65  1  0.46110086  0.54512357  0.69220352  1
  Br  Br66  1  0.19220352  0.46110086  0.95487643  1
  Br  Br67  1  0.45487643  0.30779648  0.53889914  1
  Br  Br68  1  0.00000000  0.50000000  0.50000000  1
  Br  Br69  1  0.80779648  0.53889914  0.04512357  1
  Br  Br70  1  0.69220352  0.46110086  0.54512357  1
  Br  Br71  1  0.69220352  0.03889914  0.04512357  1
