# generated using pymatgen
data_LiMn(PO3)4
_symmetry_space_group_name_H-M   'P 1'
_cell_length_a   9.37755404
_cell_length_b   9.30934200
_cell_length_c   9.36618809
_cell_angle_alpha   87.43120299
_cell_angle_beta   90.43527288
_cell_angle_gamma   90.01101469
_symmetry_Int_Tables_number   1
_chemical_formula_structural   LiMn(PO3)4
_chemical_formula_sum   'Li4 Mn4 P16 O48'
_cell_volume   816.81229831
_cell_formula_units_Z   4
loop_
 _symmetry_equiv_pos_site_id
 _symmetry_equiv_pos_as_xyz
  1  'x, y, z'
loop_
 _atom_site_type_symbol
 _atom_site_label
 _atom_site_symmetry_multiplicity
 _atom_site_fract_x
 _atom_site_fract_y
 _atom_site_fract_z
 _atom_site_occupancy
  Li  Li0  1  0.00857103  0.49332392  0.24832994  1
  Li  Li1  1  0.51259968  0.99719298  0.24634632  1
  Li  Li2  1  0.48689138  0.49483412  0.74651668  1
  Li  Li3  1  0.98958984  0.99020172  0.74904543  1
  Mn  Mn4  1  0.26849644  0.24565997  0.25104808  1
  Mn  Mn5  1  0.23078597  0.23367959  0.75017845  1
  Mn  Mn6  1  0.76301370  0.73715208  0.25071695  1
  Mn  Mn7  1  0.73117332  0.74271438  0.75194469  1
  P  P8  1  0.01962840  0.74868103  0.99938366  1
  P  P9  1  0.02688823  0.75379819  0.49902310  1
  P  P10  1  0.24822284  0.97988013  0.00093103  1
  P  P11  1  0.24664348  0.51728543  0.00232656  1
  P  P12  1  0.24758365  0.53078623  0.49839290  1
  P  P13  1  0.24444729  0.97393311  0.49810823  1
  P  P14  1  0.46722679  0.75258488  0.49768949  1
  P  P15  1  0.48048962  0.74989852  0.00292402  1
  P  P16  1  0.51942389  0.24882321  0.50336409  1
  P  P17  1  0.53290209  0.25178121  0.99779429  1
  P  P18  1  0.75290711  0.03036179  0.99907234  1
  P  P19  1  0.75136554  0.47958201  0.50179727  1
  P  P20  1  0.75639169  0.47284189  0.99865919  1
  P  P21  1  0.75334859  0.01690459  0.50300780  1
  P  P22  1  0.97359410  0.25242337  0.99979051  1
  P  P23  1  0.97986075  0.24741482  0.50001070  1
  O  O24  1  0.05167294  0.32232012  0.11796359  1
  O  O25  1  0.04999878  0.17997117  0.87932552  1
  O  O26  1  0.05582413  0.19094751  0.37596318  1
  O  O27  1  0.05942044  0.30887892  0.62501025  1
  O  O28  1  0.13177550  0.62797752  0.06778648  1
  O  O29  1  0.13018543  0.87236116  0.93583326  1
  O  O30  1  0.13495102  0.86863928  0.42180411  1
  O  O31  1  0.13371565  0.63667264  0.57027145  1
  O  O32  1  0.17257298  0.04491401  0.61907508  1
  O  O33  1  0.17619757  0.45646175  0.37916513  1
  O  O34  1  0.18846072  0.44499210  0.87651370  1
  O  O35  1  0.19137832  0.05702019  0.12406902  1
  O  O36  1  0.30994154  0.43194562  0.13079509  1
  O  O37  1  0.31034364  0.06392728  0.87275746  1
  O  O38  1  0.31808576  0.06071992  0.37730517  1
  O  O39  1  0.32070922  0.45017115  0.62046270  1
  O  O40  1  0.36134391  0.86703101  0.56932181  1
  O  O41  1  0.35943662  0.64341835  0.42469165  1
  O  O42  1  0.37185661  0.86976130  0.06172772  1
  O  O43  1  0.37262846  0.62736600  0.94641472  1
  O  O44  1  0.44457676  0.31430188  0.37264579  1
  O  O45  1  0.43613507  0.18752893  0.62779774  1
  O  O46  1  0.45894782  0.17499918  0.12152773  1
  O  O47  1  0.45192393  0.32789890  0.87919620  1
  O  O48  1  0.54712151  0.82839020  0.37945799  1
  O  O49  1  0.54246929  0.67491954  0.62172717  1
  O  O50  1  0.56520279  0.68840665  0.12870922  1
  O  O51  1  0.55486030  0.81384593  0.87315240  1
  O  O52  1  0.62876875  0.36935367  0.56206692  1
  O  O53  1  0.62761035  0.12746778  0.44593248  1
  O  O54  1  0.64013129  0.36629540  0.06921550  1
  O  O55  1  0.64016505  0.14269304  0.92511038  1
  O  O56  1  0.68045102  0.94960634  0.12065237  1
  O  O57  1  0.68107337  0.55918108  0.87690403  1
  O  O58  1  0.69174309  0.93064210  0.63069319  1
  O  O59  1  0.68887573  0.56274310  0.37255150  1
  O  O60  1  0.81099702  0.94596353  0.37727570  1
  O  O61  1  0.80945227  0.55732471  0.62497060  1
  O  O62  1  0.82853882  0.54463574  0.11936899  1
  O  O63  1  0.82324388  0.95630746  0.88017532  1
  O  O64  1  0.86717480  0.13644796  0.07185995  1
  O  O65  1  0.86526414  0.36786622  0.92244764  1
  O  O66  1  0.87000860  0.37247531  0.43856330  1
  O  O67  1  0.86879776  0.12798754  0.57012381  1
  O  O68  1  0.94190645  0.69159379  0.87477740  1
  O  O69  1  0.94304122  0.80887788  0.12412885  1
  O  O70  1  0.94762254  0.68178280  0.37877720  1
  O  O71  1  0.95146676  0.82334015  0.61752983  1
