# generated using pymatgen
data_Sr3Ru2O7
_symmetry_space_group_name_H-M   'P 1'
_cell_length_a   3.99387972
_cell_length_b   3.99387972
_cell_length_c   10.61884503
_cell_angle_alpha   100.83936909
_cell_angle_beta   100.83936911
_cell_angle_gamma   89.99999995
_symmetry_Int_Tables_number   1
_chemical_formula_structural   Sr3Ru2O7
_chemical_formula_sum   'Sr3 Ru2 O7'
_cell_volume   163.28193479
_cell_formula_units_Z   1
loop_
 _symmetry_equiv_pos_site_id
 _symmetry_equiv_pos_as_xyz
  1  'x, y, z'
loop_
 _atom_site_type_symbol
 _atom_site_label
 _atom_site_symmetry_multiplicity
 _atom_site_fract_x
 _atom_site_fract_y
 _atom_site_fract_z
 _atom_site_occupancy
  O  O0  1  0.40331658  0.90331658  0.80663315  1
  O  O1  1  0.90331658  0.40331658  0.80663315  1
  O  O2  1  0.59668342  0.09668342  0.19336685  1
  O  O3  1  0.09668342  0.59668342  0.19336685  1
  O  O4  1  0.80364025  0.80364025  0.60728050  1
  O  O5  1  0.00000000  0.00000000  0.00000000  1
  O  O6  1  0.19635975  0.19635975  0.39271950  1
  Sr  Sr7  1  0.50000000  0.50000000  0.00000000  1
  Sr  Sr8  1  0.68372476  0.68372476  0.36744952  1
  Sr  Sr9  1  0.31627524  0.31627524  0.63255048  1
  Ru  Ru10  1  0.09808162  0.09808162  0.19616324  1
  Ru  Ru11  1  0.90191838  0.90191838  0.80383676  1
