# generated using pymatgen
data_GdCu(MoO4)2
_symmetry_space_group_name_H-M   'P 1'
_cell_length_a   9.93289342
_cell_length_b   10.38201818
_cell_length_c   14.81329487
_cell_angle_alpha   90.00000000
_cell_angle_beta   90.00000000
_cell_angle_gamma   90.00000000
_symmetry_Int_Tables_number   1
_chemical_formula_structural   GdCu(MoO4)2
_chemical_formula_sum   'Gd8 Cu8 Mo16 O64'
_cell_volume   1527.59851824
_cell_formula_units_Z   8
loop_
 _symmetry_equiv_pos_site_id
 _symmetry_equiv_pos_as_xyz
  1  'x, y, z'
loop_
 _atom_site_type_symbol
 _atom_site_label
 _atom_site_symmetry_multiplicity
 _atom_site_fract_x
 _atom_site_fract_y
 _atom_site_fract_z
 _atom_site_occupancy
  Gd  Gd0  1  0.77736881  0.53465913  0.39635371  1
  Gd  Gd1  1  0.22263119  0.96534087  0.89635371  1
  Gd  Gd2  1  0.27736881  0.96534087  0.39635371  1
  Gd  Gd3  1  0.77736881  0.03465913  0.10364629  1
  Gd  Gd4  1  0.22263119  0.46534087  0.60364629  1
  Gd  Gd5  1  0.72263119  0.53465913  0.89635371  1
  Gd  Gd6  1  0.72263119  0.03465913  0.60364629  1
  Gd  Gd7  1  0.27736881  0.46534087  0.10364629  1
  Cu  Cu8  1  0.30877463  0.81809297  0.19530367  1
  Cu  Cu9  1  0.19122537  0.31809297  0.80469633  1
  Cu  Cu10  1  0.30877463  0.31809297  0.30469633  1
  Cu  Cu11  1  0.80877463  0.18190703  0.30469633  1
  Cu  Cu12  1  0.69122537  0.68190703  0.69530367  1
  Cu  Cu13  1  0.69122537  0.18190703  0.80469633  1
  Cu  Cu14  1  0.19122537  0.81809297  0.69530367  1
  Cu  Cu15  1  0.80877463  0.68190703  0.19530367  1
  Mo  Mo16  1  0.83017541  0.89671051  0.84710383  1
  Mo  Mo17  1  0.00021628  0.78015468  0.55723047  1
  Mo  Mo18  1  0.49978372  0.78015468  0.05723047  1
  Mo  Mo19  1  0.66982459  0.89671051  0.34710383  1
  Mo  Mo20  1  0.99978372  0.71984532  0.05723047  1
  Mo  Mo21  1  0.00021628  0.28015468  0.94276953  1
  Mo  Mo22  1  0.16982459  0.60328949  0.34710383  1
  Mo  Mo23  1  0.83017541  0.39671051  0.65289617  1
  Mo  Mo24  1  0.33017541  0.10328949  0.65289617  1
  Mo  Mo25  1  0.49978372  0.28015468  0.44276953  1
  Mo  Mo26  1  0.66982459  0.39671051  0.15289617  1
  Mo  Mo27  1  0.33017541  0.60328949  0.84710383  1
  Mo  Mo28  1  0.50021628  0.21984532  0.94276953  1
  Mo  Mo29  1  0.50021628  0.71984532  0.55723047  1
  Mo  Mo30  1  0.16982459  0.10328949  0.15289617  1
  Mo  Mo31  1  0.99978372  0.21984532  0.44276953  1
  O  O32  1  0.75686300  0.01127595  0.27262248  1
  O  O33  1  0.24313700  0.48872405  0.77262248  1
  O  O34  1  0.24313700  0.98872405  0.72737752  1
  O  O35  1  0.75686300  0.51127595  0.22737752  1
  O  O36  1  0.60850786  0.16896820  0.49876895  1
  O  O37  1  0.89149214  0.66896820  0.50123105  1
  O  O38  1  0.09437122  0.36835333  0.02450093  1
  O  O39  1  0.09437122  0.86835333  0.47549907  1
  O  O40  1  0.90562878  0.63164667  0.97549907  1
  O  O41  1  0.89833394  0.38681206  0.87569549  1
  O  O42  1  0.60166606  0.88681206  0.12430451  1
  O  O43  1  0.89833394  0.88681206  0.62430451  1
  O  O44  1  0.10850786  0.33103180  0.49876895  1
  O  O45  1  0.99227491  0.58757822  0.33400517  1
  O  O46  1  0.00772509  0.41242178  0.66599483  1
  O  O47  1  0.60850786  0.66896820  0.00123105  1
  O  O48  1  0.00772509  0.91242178  0.83400517  1
  O  O49  1  0.50772509  0.58757822  0.83400517  1
  O  O50  1  0.61115981  0.81838153  0.63159768  1
  O  O51  1  0.39833394  0.61318794  0.62430451  1
  O  O52  1  0.49227491  0.41242178  0.16599483  1
  O  O53  1  0.40562878  0.86835333  0.97549907  1
  O  O54  1  0.22505422  0.76487080  0.31830809  1
  O  O55  1  0.11115981  0.68161847  0.63159768  1
  O  O56  1  0.38884019  0.18161847  0.36840232  1
  O  O57  1  0.39149214  0.33103180  0.99876895  1
  O  O58  1  0.27494578  0.26487080  0.68169191  1
  O  O59  1  0.90562878  0.13164667  0.52450093  1
  O  O60  1  0.61115981  0.31838153  0.86840232  1
  O  O61  1  0.21163492  0.57562296  0.46214063  1
  O  O62  1  0.88884019  0.81838153  0.13159768  1
  O  O63  1  0.77494578  0.23512920  0.68169191  1
  O  O64  1  0.74313700  0.01127595  0.77262248  1
  O  O65  1  0.25686300  0.98872405  0.22737752  1
  O  O66  1  0.99227491  0.08757822  0.16599483  1
  O  O67  1  0.72505422  0.73512920  0.31830809  1
  O  O68  1  0.22505422  0.26487080  0.18169191  1
  O  O69  1  0.10166606  0.11318794  0.37569549  1
  O  O70  1  0.21163492  0.07562296  0.03785937  1
  O  O71  1  0.11115981  0.18161847  0.86840232  1
  O  O72  1  0.39149214  0.83103180  0.50123105  1
  O  O73  1  0.39833394  0.11318794  0.87569549  1
  O  O74  1  0.71163492  0.42437704  0.03785937  1
  O  O75  1  0.78836508  0.92437704  0.96214063  1
  O  O76  1  0.59437122  0.13164667  0.02450093  1
  O  O77  1  0.72505422  0.23512920  0.18169191  1
  O  O78  1  0.59437122  0.63164667  0.47549907  1
  O  O79  1  0.60166606  0.38681206  0.37569549  1
  O  O80  1  0.10166606  0.61318794  0.12430451  1
  O  O81  1  0.77494578  0.73512920  0.81830809  1
  O  O82  1  0.78836508  0.42437704  0.53785937  1
  O  O83  1  0.28836508  0.07562296  0.53785937  1
  O  O84  1  0.38884019  0.68161847  0.13159768  1
  O  O85  1  0.89149214  0.16896820  0.99876895  1
  O  O86  1  0.88884019  0.31838153  0.36840232  1
  O  O87  1  0.28836508  0.57562296  0.96214063  1
  O  O88  1  0.49227491  0.91242178  0.33400517  1
  O  O89  1  0.50772509  0.08757822  0.66599483  1
  O  O90  1  0.74313700  0.51127595  0.72737752  1
  O  O91  1  0.40562878  0.36835333  0.52450093  1
  O  O92  1  0.27494578  0.76487080  0.81830809  1
  O  O93  1  0.10850786  0.83103180  0.00123105  1
  O  O94  1  0.25686300  0.48872405  0.27262248  1
  O  O95  1  0.71163492  0.92437704  0.46214063  1
