# generated using pymatgen
data_Mn8Zn14Ga27
_symmetry_space_group_name_H-M   'P 1'
_cell_length_a   9.22444307
_cell_length_b   9.22444393
_cell_length_c   9.22444354
_cell_angle_alpha   94.76591827
_cell_angle_beta   94.76591881
_cell_angle_gamma   94.76591430
_symmetry_Int_Tables_number   1
_chemical_formula_structural   Mn8Zn14Ga27
_chemical_formula_sum   'Mn8 Zn14 Ga27'
_cell_volume   776.28611710
_cell_formula_units_Z   1
loop_
 _symmetry_equiv_pos_site_id
 _symmetry_equiv_pos_as_xyz
  1  'x, y, z'
loop_
 _atom_site_type_symbol
 _atom_site_label
 _atom_site_symmetry_multiplicity
 _atom_site_fract_x
 _atom_site_fract_y
 _atom_site_fract_z
 _atom_site_occupancy
  Mn  Mn0  1  0.61381733  0.28062936  0.90429627  1
  Mn  Mn1  1  0.81448024  0.81448024  0.81448024  1
  Mn  Mn2  1  0.09570373  0.38618267  0.71937064  1
  Mn  Mn3  1  0.38618267  0.71937064  0.09570373  1
  Mn  Mn4  1  0.71937064  0.09570373  0.38618267  1
  Mn  Mn5  1  0.90429627  0.61381733  0.28062936  1
  Mn  Mn6  1  0.28062936  0.90429627  0.61381733  1
  Mn  Mn7  1  0.18551976  0.18551976  0.18551976  1
  Zn  Zn8  1  0.65971351  0.53661262  0.76924263  1
  Zn  Zn9  1  0.61288536  0.62522701  0.26541994  1
  Zn  Zn10  1  0.50000000  0.50000000  0.50000000  1
  Zn  Zn11  1  0.46338738  0.23075737  0.34028649  1
  Zn  Zn12  1  0.37477299  0.73458006  0.38711464  1
  Zn  Zn13  1  0.53661262  0.76924263  0.65971351  1
  Zn  Zn14  1  0.34028649  0.46338738  0.23075737  1
  Zn  Zn15  1  0.62522701  0.26541994  0.61288536  1
  Zn  Zn16  1  0.38711464  0.37477299  0.73458006  1
  Zn  Zn17  1  0.76924263  0.65971351  0.53661262  1
  Zn  Zn18  1  0.23075737  0.34028649  0.46338738  1
  Zn  Zn19  1  0.73458006  0.38711464  0.37477299  1
  Zn  Zn20  1  0.26541994  0.61288536  0.62522701  1
  Zn  Zn21  1  0.00000000  0.00000000  0.00000000  1
  Ga  Ga22  1  0.22609907  0.55342926  0.91391744  1
  Ga  Ga23  1  0.60082995  0.77835779  0.95627749  1
  Ga  Ga24  1  0.87983208  0.73163698  0.05267259  1
  Ga  Ga25  1  0.14227734  0.67203344  0.17671800  1
  Ga  Ga26  1  0.67203344  0.17671800  0.14227734  1
  Ga  Ga27  1  0.94732741  0.12016792  0.26836302  1
  Ga  Ga28  1  0.17671800  0.14227734  0.67203344  1
  Ga  Ga29  1  0.95627749  0.60082995  0.77835779  1
  Ga  Ga30  1  0.32796656  0.82328200  0.85772266  1
  Ga  Ga31  1  0.26836302  0.94732741  0.12016792  1
  Ga  Ga32  1  0.05267259  0.87983208  0.73163698  1
  Ga  Ga33  1  0.08608256  0.77390093  0.44657074  1
  Ga  Ga34  1  0.39917005  0.22164221  0.04372251  1
  Ga  Ga35  1  0.22164221  0.04372251  0.39917005  1
  Ga  Ga36  1  0.44657074  0.08608256  0.77390093  1
  Ga  Ga37  1  0.77390093  0.44657074  0.08608256  1
  Ga  Ga38  1  0.50000000  0.50000000  0.00000000  1
  Ga  Ga39  1  0.73163698  0.05267259  0.87983208  1
  Ga  Ga40  1  0.12016792  0.26836302  0.94732741  1
  Ga  Ga41  1  0.91391744  0.22609907  0.55342926  1
  Ga  Ga42  1  0.04372251  0.39917005  0.22164221  1
  Ga  Ga43  1  0.85772266  0.32796656  0.82328200  1
  Ga  Ga44  1  0.77835779  0.95627749  0.60082995  1
  Ga  Ga45  1  0.82328200  0.85772266  0.32796656  1
  Ga  Ga46  1  0.55342926  0.91391744  0.22609907  1
  Ga  Ga47  1  0.00000000  0.50000000  0.50000000  1
  Ga  Ga48  1  0.50000000  0.00000000  0.50000000  1
