# generated using pymatgen
data_K6Mo10O33
_symmetry_space_group_name_H-M   'P 1'
_cell_length_a   7.85670467
_cell_length_b   12.40418239
_cell_length_c   17.54814237
_cell_angle_alpha   86.52049731
_cell_angle_beta   77.39672397
_cell_angle_gamma   74.37228903
_symmetry_Int_Tables_number   1
_chemical_formula_structural   K6Mo10O33
_chemical_formula_sum   'K12 Mo20 O66'
_cell_volume   1607.26298638
_cell_formula_units_Z   2
loop_
 _symmetry_equiv_pos_site_id
 _symmetry_equiv_pos_as_xyz
  1  'x, y, z'
loop_
 _atom_site_type_symbol
 _atom_site_label
 _atom_site_symmetry_multiplicity
 _atom_site_fract_x
 _atom_site_fract_y
 _atom_site_fract_z
 _atom_site_occupancy
  K  K0  1  0.49301947  0.73758695  0.26788738  1
  K  K1  1  0.49785228  0.27138142  0.72914977  1
  K  K2  1  0.22715130  0.77230222  0.76167432  1
  K  K3  1  0.77290386  0.23622901  0.24028628  1
  K  K4  1  0.65589377  0.76000105  0.98875993  1
  K  K5  1  0.97419322  0.27343369  0.75214712  1
  K  K6  1  0.72871851  0.77166456  0.75509265  1
  K  K7  1  0.88506016  0.73916985  0.47539426  1
  K  K8  1  0.12786875  0.25492691  0.52003853  1
  K  K9  1  0.35226177  0.24349375  0.01693607  1
  K  K10  1  0.02117902  0.73253786  0.24642150  1
  K  K11  1  0.26070158  0.23725166  0.24791125  1
  Mo  Mo12  1  0.67206883  0.48122745  0.57778598  1
  Mo  Mo13  1  0.43878281  0.01000883  0.60738908  1
  Mo  Mo14  1  0.82379297  0.33285626  0.99359154  1
  Mo  Mo15  1  0.77541163  0.47326689  0.39019483  1
  Mo  Mo16  1  0.34626975  0.51570529  0.41238722  1
  Mo  Mo17  1  0.56169267  0.98950148  0.39262812  1
  Mo  Mo18  1  0.67960631  0.16990698  0.49085854  1
  Mo  Mo19  1  0.05963201  0.99405536  0.39402363  1
  Mo  Mo20  1  0.44852140  0.49580833  0.10707770  1
  Mo  Mo21  1  0.17791529  0.67296880  0.00538492  1
  Mo  Mo22  1  0.24758200  0.98310764  0.92092110  1
  Mo  Mo23  1  0.94083126  0.00652334  0.60596180  1
  Mo  Mo24  1  0.94391209  0.50022037  0.10663930  1
  Mo  Mo25  1  0.76480464  0.02420348  0.08783034  1
  Mo  Mo26  1  0.19497691  0.52633002  0.61732075  1
  Mo  Mo27  1  0.32034700  0.83019625  0.50903951  1
  Mo  Mo28  1  0.17536304  0.97577323  0.10895410  1
  Mo  Mo29  1  0.05677131  0.50580277  0.89268506  1
  Mo  Mo30  1  0.55223120  0.50919700  0.89208861  1
  Mo  Mo31  1  0.80718572  0.03252188  0.88312720  1
  O  O32  1  0.54108204  0.49419397  0.48177258  1
  O  O33  1  0.29986792  0.97439421  0.41437645  1
  O  O34  1  0.03087013  0.62049220  0.68164628  1
  O  O35  1  0.03473425  0.39111823  0.98823914  1
  O  O36  1  0.98113992  0.63419256  0.84768998  1
  O  O37  1  0.02611905  0.99862549  0.01700253  1
  O  O38  1  0.54831751  0.62115409  0.82676601  1
  O  O39  1  0.57362191  0.49569978  0.33713871  1
  O  O40  1  0.08730187  0.86722384  0.34834685  1
  O  O41  1  0.27646614  0.52479886  0.91644235  1
  O  O42  1  0.46910701  0.11138798  0.49960033  1
  O  O43  1  0.83708625  0.23647437  0.07076892  1
  O  O44  1  0.91595936  0.13409798  0.64997889  1
  O  O45  1  0.31257347  0.74878546  0.59355157  1
  O  O46  1  0.17779221  0.57175184  0.51549522  1
  O  O47  1  0.11460176  0.75973448  0.08714540  1
  O  O48  1  0.93952048  0.11040943  0.48864969  1
  O  O49  1  0.44969614  0.38360799  0.17195812  1
  O  O50  1  0.58907076  0.39286231  0.83365496  1
  O  O51  1  0.92131213  0.00241841  0.16235434  1
  O  O52  1  0.22085781  0.98908128  0.58265372  1
  O  O53  1  0.61081102  0.26934460  0.56624387  1
  O  O54  1  0.70843178  0.89757477  0.09388395  1
  O  O55  1  0.21329699  0.10426910  0.12394617  1
  O  O56  1  0.93826641  0.90958854  0.68221755  1
  O  O57  1  0.53260692  0.88677590  0.50051374  1
  O  O58  1  0.70699242  0.12235760  0.81591700  1
  O  O59  1  0.71256887  0.61018063  0.58703575  1
  O  O60  1  0.16131513  0.76901840  0.92821503  1
  O  O61  1  0.42019535  0.50810003  0.64153354  1
  O  O62  1  0.72519587  0.47998260  0.08277073  1
  O  O63  1  0.27627845  0.88078180  0.17399257  1
  O  O64  1  0.76878717  0.39500272  0.64789247  1
  O  O65  1  0.06486704  0.09251164  0.31916862  1
  O  O66  1  0.86190415  0.42403994  0.48700863  1
  O  O67  1  0.33556238  0.12544891  0.66896657  1
  O  O68  1  0.68124129  0.25227638  0.40691290  1
  O  O69  1  0.15366536  0.40902669  0.81686775  1
  O  O70  1  0.38604548  0.73216466  0.43294654  1
  O  O71  1  0.21410732  0.60797861  0.35559817  1
  O  O72  1  0.82763658  0.60179942  0.37224774  1
  O  O73  1  0.66400789  0.87398922  0.33103381  1
  O  O74  1  0.78014587  0.01111900  0.41672096  1
  O  O75  1  0.30262234  0.11054775  0.90825282  1
  O  O76  1  0.57998304  0.11918549  0.14355626  1
  O  O77  1  0.50892743  0.10312212  0.33046620  1
  O  O78  1  0.48865042  0.89614985  0.66974115  1
  O  O79  1  0.70021787  0.02562123  0.58680187  1
  O  O80  1  0.96785837  0.61315828  0.01073264  1
  O  O81  1  0.77595334  0.90038362  0.87278764  1
  O  O82  1  0.20873359  0.51770551  0.08629246  1
  O  O83  1  0.05683877  0.01240098  0.85747112  1
  O  O84  1  0.35173245  0.92570511  0.01151724  1
  O  O85  1  0.93807049  0.37443414  0.32763734  1
  O  O86  1  0.43835296  0.61472696  0.99686636  1
  O  O87  1  0.41178434  0.61177840  0.16576993  1
  O  O88  1  0.56265126  0.39201166  0.00197839  1
  O  O89  1  0.40879788  0.89174201  0.85291027  1
  O  O90  1  0.15261775  0.39431055  0.63132429  1
  O  O91  1  0.79259968  0.48845617  0.91251142  1
  O  O92  1  0.02048202  0.37329242  0.15339657  1
  O  O93  1  0.69261727  0.07911891  0.98500013  1
  O  O94  1  0.29578997  0.38857233  0.40907312  1
  O  O95  1  0.88298642  0.24827507  0.91093059  1
  O  O96  1  0.05891910  0.89093833  0.51137672  1
  O  O97  1  0.84691480  0.59964358  0.18046097  1
