# generated using pymatgen
data_Na2FeCuF7
_symmetry_space_group_name_H-M   'P 1'
_cell_length_a   7.32541313
_cell_length_b   7.32541188
_cell_length_c   24.93337594
_cell_angle_alpha   82.18498874
_cell_angle_beta   82.18499009
_cell_angle_gamma   60.96011632
_symmetry_Int_Tables_number   1
_chemical_formula_structural   Na2FeCuF7
_chemical_formula_sum   'Na16 Fe8 Cu8 F56'
_cell_volume   1155.10814649
_cell_formula_units_Z   8
loop_
 _symmetry_equiv_pos_site_id
 _symmetry_equiv_pos_as_xyz
  1  'x, y, z'
loop_
 _atom_site_type_symbol
 _atom_site_label
 _atom_site_symmetry_multiplicity
 _atom_site_fract_x
 _atom_site_fract_y
 _atom_site_fract_z
 _atom_site_occupancy
  Na  Na0  1  0.28973605  0.21744480  0.74701647  1
  Na  Na1  1  0.13248405  0.12054570  0.12300114  1
  Na  Na2  1  0.12054570  0.13248405  0.62300114  1
  Na  Na3  1  0.50000000  0.50000000  0.00000000  1
  Na  Na4  1  0.00000000  0.00000000  0.50000000  1
  Na  Na5  1  0.22096929  0.77903071  0.25000000  1
  Na  Na6  1  0.86751595  0.87945430  0.87699886  1
  Na  Na7  1  0.77903071  0.22096929  0.75000000  1
  Na  Na8  1  0.87945430  0.86751595  0.37699886  1
  Na  Na9  1  0.21744480  0.28973605  0.24701647  1
  Na  Na10  1  0.50000000  0.00000000  0.50000000  1
  Na  Na11  1  0.50000000  0.50000000  0.50000000  1
  Na  Na12  1  0.78255520  0.71026395  0.75298353  1
  Na  Na13  1  0.71026395  0.78255520  0.25298353  1
  Na  Na14  1  0.00000000  0.00000000  0.00000000  1
  Na  Na15  1  0.00000000  0.50000000  0.00000000  1
  Fe  Fe16  1  0.88887722  0.36442745  0.87461637  1
  Fe  Fe17  1  0.74980343  0.25019657  0.25000000  1
  Fe  Fe18  1  0.25019657  0.74980343  0.75000000  1
  Fe  Fe19  1  0.00000000  0.50000000  0.50000000  1
  Fe  Fe20  1  0.50000000  0.00000000  0.00000000  1
  Fe  Fe21  1  0.63557255  0.11112278  0.62538363  1
  Fe  Fe22  1  0.36442745  0.88887722  0.37461637  1
  Fe  Fe23  1  0.11112278  0.63557255  0.12538363  1
  Cu  Cu24  1  0.61448043  0.13367149  0.12567504  1
  Cu  Cu25  1  0.61393612  0.63142690  0.12738381  1
  Cu  Cu26  1  0.13367149  0.61448043  0.62567504  1
  Cu  Cu27  1  0.36857310  0.38606388  0.37261619  1
  Cu  Cu28  1  0.38606388  0.36857310  0.87261619  1
  Cu  Cu29  1  0.86632851  0.38551957  0.37432496  1
  Cu  Cu30  1  0.38551957  0.86632851  0.87432496  1
  Cu  Cu31  1  0.63142690  0.61393612  0.62738381  1
  F  F32  1  0.72800445  0.30737306  0.64197255  1
  F  F33  1  0.46662276  0.36370577  0.28839621  1
  F  F34  1  0.63286265  0.13731292  0.20519346  1
  F  F35  1  0.36370577  0.46662276  0.78839621  1
  F  F36  1  0.79384653  0.86819065  0.96724710  1
  F  F37  1  0.36219123  0.68040762  0.60287257  1
  F  F38  1  0.41924133  0.26337154  0.95571269  1
  F  F39  1  0.53337724  0.63629423  0.71160379  1
  F  F40  1  0.96426223  0.36274521  0.79521095  1
  F  F41  1  0.18196397  0.63654456  0.04568031  1
  F  F42  1  0.02636588  0.14066031  0.21008125  1
  F  F43  1  0.03573777  0.63725479  0.20478905  1
  F  F44  1  0.91715589  0.53971898  0.11020739  1
  F  F45  1  0.63725479  0.03573777  0.70478905  1
  F  F46  1  0.20615347  0.13180935  0.03275290  1
  F  F47  1  0.63629423  0.53337724  0.21160379  1
  F  F48  1  0.13180935  0.20615347  0.53275290  1
  F  F49  1  0.70480053  0.66486068  0.86035242  1
  F  F50  1  0.29519947  0.33513932  0.13964758  1
  F  F51  1  0.13731292  0.63286265  0.70519346  1
  F  F52  1  0.54227576  0.90797916  0.14889202  1
  F  F53  1  0.30737306  0.72800445  0.14197255  1
  F  F54  1  0.36345544  0.81803603  0.45431969  1
  F  F55  1  0.45772424  0.09202084  0.85110798  1
  F  F56  1  0.68040762  0.36219123  0.10287257  1
  F  F57  1  0.93247770  0.93652914  0.11042148  1
  F  F58  1  0.31959238  0.63780877  0.89712743  1
  F  F59  1  0.26337154  0.41924133  0.45571269  1
  F  F60  1  0.58075867  0.73662846  0.04428731  1
  F  F61  1  0.90797916  0.54227576  0.64889202  1
  F  F62  1  0.36713735  0.86268708  0.79480654  1
  F  F63  1  0.53971898  0.91715589  0.61020739  1
  F  F64  1  0.59289483  0.13199291  0.04599933  1
  F  F65  1  0.36274521  0.96426223  0.29521095  1
  F  F66  1  0.66486068  0.70480053  0.36035242  1
  F  F67  1  0.85933969  0.97363412  0.28991875  1
  F  F68  1  0.14066031  0.02636588  0.71008125  1
  F  F69  1  0.69262694  0.27199555  0.85802745  1
  F  F70  1  0.97363412  0.85933969  0.78991875  1
  F  F71  1  0.63780877  0.31959238  0.39712743  1
  F  F72  1  0.86800709  0.40710517  0.45400067  1
  F  F73  1  0.06752230  0.06347086  0.88957852  1
  F  F74  1  0.81803603  0.36345544  0.95431969  1
  F  F75  1  0.27199555  0.69262694  0.35802745  1
  F  F76  1  0.93652914  0.93247770  0.61042148  1
  F  F77  1  0.86268708  0.36713735  0.29480654  1
  F  F78  1  0.73662846  0.58075867  0.54428731  1
  F  F79  1  0.09202084  0.45772424  0.35110798  1
  F  F80  1  0.13199291  0.59289483  0.54599933  1
  F  F81  1  0.40710517  0.86800709  0.95400067  1
  F  F82  1  0.33513932  0.29519947  0.63964758  1
  F  F83  1  0.86819065  0.79384653  0.46724710  1
  F  F84  1  0.46028102  0.08284411  0.38979261  1
  F  F85  1  0.08284411  0.46028102  0.88979261  1
  F  F86  1  0.06347086  0.06752230  0.38957852  1
  F  F87  1  0.63654456  0.18196397  0.54568031  1
