# generated using pymatgen
data_Ba3(PSe4)2
_symmetry_space_group_name_H-M   'P 1'
_cell_length_a   6.99250443
_cell_length_b   12.43256981
_cell_length_c   18.33855189
_cell_angle_alpha   89.96834420
_cell_angle_beta   90.00000000
_cell_angle_gamma   90.00000000
_symmetry_Int_Tables_number   1
_chemical_formula_structural   Ba3(PSe4)2
_chemical_formula_sum   'Ba12 P8 Se32'
_cell_volume   1594.25808753
_cell_formula_units_Z   4
loop_
 _symmetry_equiv_pos_site_id
 _symmetry_equiv_pos_as_xyz
  1  'x, y, z'
loop_
 _atom_site_type_symbol
 _atom_site_label
 _atom_site_symmetry_multiplicity
 _atom_site_fract_x
 _atom_site_fract_y
 _atom_site_fract_z
 _atom_site_occupancy
  Ba  Ba0  1  0.50727922  0.15011817  0.92251958  1
  Ba  Ba1  1  0.00727922  0.34988183  0.07748042  1
  Ba  Ba2  1  0.98443322  0.67315077  0.42345653  1
  Ba  Ba3  1  0.99272078  0.65011817  0.92251958  1
  Ba  Ba4  1  0.43505462  0.52722322  0.25344018  1
  Ba  Ba5  1  0.49272078  0.84988183  0.07748042  1
  Ba  Ba6  1  0.56494538  0.47277678  0.74655982  1
  Ba  Ba7  1  0.51556678  0.17315077  0.42345653  1
  Ba  Ba8  1  0.01556678  0.32684923  0.57654347  1
  Ba  Ba9  1  0.48443322  0.82684923  0.57654347  1
  Ba  Ba10  1  0.06494538  0.02722322  0.25344018  1
  Ba  Ba11  1  0.93505462  0.97277678  0.74655982  1
  P  P12  1  0.02033886  0.33241509  0.36109916  1
  P  P13  1  0.54390970  0.16603421  0.13934154  1
  P  P14  1  0.45609030  0.83396579  0.86065846  1
  P  P15  1  0.97966114  0.66758491  0.63890084  1
  P  P16  1  0.52033886  0.16758491  0.63890084  1
  P  P17  1  0.95609030  0.66603421  0.13934154  1
  P  P18  1  0.04390970  0.33396579  0.86065846  1
  P  P19  1  0.47966114  0.83241509  0.36109916  1
  Se  Se20  1  0.23001834  0.60516390  0.09088040  1
  Se  Se21  1  0.73001834  0.89483610  0.90911960  1
  Se  Se22  1  0.64272274  0.20039780  0.74859330  1
  Se  Se23  1  0.49093582  0.67455140  0.41932477  1
  Se  Se24  1  0.78157223  0.10179864  0.07086166  1
  Se  Se25  1  0.26435075  0.59157038  0.62206903  1
  Se  Se26  1  0.00906418  0.17455140  0.41932477  1
  Se  Se27  1  0.73355435  0.06569211  0.58044837  1
  Se  Se28  1  0.21842777  0.89820136  0.92913834  1
  Se  Se29  1  0.35727726  0.79960220  0.25140670  1
  Se  Se30  1  0.76998166  0.39483610  0.90911960  1
  Se  Se31  1  0.41733602  0.90943566  0.75124500  1
  Se  Se32  1  0.14272274  0.29960220  0.25140670  1
  Se  Se33  1  0.95536524  0.84405862  0.12362362  1
  Se  Se34  1  0.23564925  0.09157038  0.62206903  1
  Se  Se35  1  0.91733602  0.59056434  0.24875500  1
  Se  Se36  1  0.76644565  0.56569211  0.58044837  1
  Se  Se37  1  0.58266398  0.09056434  0.24875500  1
  Se  Se38  1  0.85727726  0.70039780  0.74859330  1
  Se  Se39  1  0.28157223  0.39820136  0.92913834  1
  Se  Se40  1  0.26998166  0.10516390  0.09088040  1
  Se  Se41  1  0.54463476  0.34405862  0.12362362  1
  Se  Se42  1  0.26644565  0.93430789  0.41955163  1
  Se  Se43  1  0.08266398  0.40943566  0.75124500  1
  Se  Se44  1  0.45536524  0.65594138  0.87637638  1
  Se  Se45  1  0.73564925  0.40842962  0.37793097  1
  Se  Se46  1  0.99093582  0.82544860  0.58067523  1
  Se  Se47  1  0.04463476  0.15594138  0.87637638  1
  Se  Se48  1  0.23355435  0.43430789  0.41955163  1
  Se  Se49  1  0.71842777  0.60179864  0.07086166  1
  Se  Se50  1  0.50906418  0.32544860  0.58067523  1
  Se  Se51  1  0.76435075  0.90842962  0.37793097  1
