# generated using pymatgen
data_MoSeCl7O
_symmetry_space_group_name_H-M   'P 1'
_cell_length_a   8.17154395
_cell_length_b   8.57027827
_cell_length_c   9.98508394
_cell_angle_alpha   89.61957856
_cell_angle_beta   113.03358059
_cell_angle_gamma   108.55392170
_symmetry_Int_Tables_number   1
_chemical_formula_structural   MoSeCl7O
_chemical_formula_sum   'Mo2 Se2 Cl14 O2'
_cell_volume   604.48944910
_cell_formula_units_Z   2
loop_
 _symmetry_equiv_pos_site_id
 _symmetry_equiv_pos_as_xyz
  1  'x, y, z'
loop_
 _atom_site_type_symbol
 _atom_site_label
 _atom_site_symmetry_multiplicity
 _atom_site_fract_x
 _atom_site_fract_y
 _atom_site_fract_z
 _atom_site_occupancy
  Mo  Mo0  1  0.17362649  0.34709498  0.38800985  1
  Mo  Mo1  1  0.82637351  0.65290502  0.61199015  1
  Se  Se2  1  0.50422527  0.75584434  0.21957985  1
  Se  Se3  1  0.49577473  0.24415566  0.78042015  1
  Cl  Cl4  1  0.77213463  0.84394693  0.19348386  1
  Cl  Cl5  1  0.12054304  0.23370077  0.15633572  1
  Cl  Cl6  1  0.39113864  0.50898390  0.62696452  1
  Cl  Cl7  1  0.67175046  0.38161728  0.00397159  1
  Cl  Cl8  1  0.56975844  0.01784648  0.81518364  1
  Cl  Cl9  1  0.29684708  0.12874437  0.48138741  1
  Cl  Cl10  1  0.81558830  0.38944978  0.70063066  1
  Cl  Cl11  1  0.43024156  0.98215352  0.18481636  1
  Cl  Cl12  1  0.22786537  0.15605307  0.80651614  1
  Cl  Cl13  1  0.32824954  0.61838272  0.99602841  1
  Cl  Cl14  1  0.70315292  0.87125563  0.51861259  1
  Cl  Cl15  1  0.87945696  0.76629923  0.84366428  1
  Cl  Cl16  1  0.60886136  0.49101610  0.37303548  1
  Cl  Cl17  1  0.18441170  0.61055022  0.29936934  1
  O  O18  1  0.95985762  0.28254596  0.39548776  1
  O  O19  1  0.04014238  0.71745404  0.60451224  1
