# generated using pymatgen
data_SiO2
_symmetry_space_group_name_H-M   'P 1'
_cell_length_a   8.38127437
_cell_length_b   18.87073612
_cell_length_c   13.50457765
_cell_angle_alpha   90.00000000
_cell_angle_beta   90.00000000
_cell_angle_gamma   90.00000000
_symmetry_Int_Tables_number   1
_chemical_formula_structural   SiO2
_chemical_formula_sum   'Si40 O80'
_cell_volume   2135.89503417
_cell_formula_units_Z   40
loop_
 _symmetry_equiv_pos_site_id
 _symmetry_equiv_pos_as_xyz
  1  'x, y, z'
loop_
 _atom_site_type_symbol
 _atom_site_label
 _atom_site_symmetry_multiplicity
 _atom_site_fract_x
 _atom_site_fract_y
 _atom_site_fract_z
 _atom_site_occupancy
  Si  Si0  1  0.81374643  0.03973790  0.14096013  1
  Si  Si1  1  0.81374643  0.96026210  0.85903987  1
  Si  Si2  1  0.18625357  0.53973790  0.85903987  1
  Si  Si3  1  0.18625357  0.46026210  0.14096013  1
  Si  Si4  1  0.18625357  0.96026210  0.85903987  1
  Si  Si5  1  0.18625357  0.03973790  0.14096013  1
  Si  Si6  1  0.81374643  0.46026210  0.14096013  1
  Si  Si7  1  0.81374643  0.53973790  0.85903987  1
  Si  Si8  1  0.31374643  0.53973790  0.64096013  1
  Si  Si9  1  0.31374643  0.46026210  0.35903987  1
  Si  Si10  1  0.68625357  0.03973790  0.35903987  1
  Si  Si11  1  0.68625357  0.96026210  0.64096013  1
  Si  Si12  1  0.68625357  0.46026210  0.35903987  1
  Si  Si13  1  0.68625357  0.53973790  0.64096013  1
  Si  Si14  1  0.31374643  0.96026210  0.64096013  1
  Si  Si15  1  0.31374643  0.03973790  0.35903987  1
  Si  Si16  1  0.31374292  0.09933365  0.94089548  1
  Si  Si17  1  0.31374292  0.90066635  0.05910452  1
  Si  Si18  1  0.68625708  0.59933365  0.05910452  1
  Si  Si19  1  0.68625708  0.40066635  0.94089548  1
  Si  Si20  1  0.68625708  0.90066635  0.05910452  1
  Si  Si21  1  0.68625708  0.09933365  0.94089548  1
  Si  Si22  1  0.31374292  0.40066635  0.94089548  1
  Si  Si23  1  0.31374292  0.59933365  0.05910452  1
  Si  Si24  1  0.81374292  0.59933365  0.44089548  1
  Si  Si25  1  0.81374292  0.40066635  0.55910452  1
  Si  Si26  1  0.18625708  0.09933365  0.55910452  1
  Si  Si27  1  0.18625708  0.90066635  0.44089548  1
  Si  Si28  1  0.18625708  0.40066635  0.55910452  1
  Si  Si29  1  0.18625708  0.59933365  0.44089548  1
  Si  Si30  1  0.81374292  0.90066635  0.44089548  1
  Si  Si31  1  0.81374292  0.09933365  0.55910452  1
  Si  Si32  1  0.80743140  0.25000000  0.86437456  1
  Si  Si33  1  0.80743140  0.75000000  0.13562544  1
  Si  Si34  1  0.19256860  0.75000000  0.13562544  1
  Si  Si35  1  0.19256860  0.25000000  0.86437456  1
  Si  Si36  1  0.30743140  0.75000000  0.36437456  1
  Si  Si37  1  0.30743140  0.25000000  0.63562544  1
  Si  Si38  1  0.69256860  0.25000000  0.63562544  1
  Si  Si39  1  0.69256860  0.75000000  0.36437456  1
  O  O40  1  0.79625629  0.95422588  0.12509378  1
  O  O41  1  0.79625629  0.04577412  0.87490622  1
  O  O42  1  0.20374371  0.45422588  0.87490622  1
  O  O43  1  0.20374371  0.54577412  0.12509378  1
  O  O44  1  0.20374371  0.04577412  0.87490622  1
  O  O45  1  0.20374371  0.95422588  0.12509378  1
  O  O46  1  0.79625629  0.54577412  0.12509378  1
  O  O47  1  0.79625629  0.45422588  0.87490622  1
  O  O48  1  0.29625629  0.45422588  0.62509378  1
  O  O49  1  0.29625629  0.54577412  0.37490622  1
  O  O50  1  0.70374371  0.95422588  0.37490622  1
  O  O51  1  0.70374371  0.04577412  0.62509378  1
  O  O52  1  0.70374371  0.54577412  0.37490622  1
  O  O53  1  0.70374371  0.45422588  0.62509378  1
  O  O54  1  0.29625629  0.04577412  0.62509378  1
  O  O55  1  0.29625629  0.95422588  0.37490622  1
  O  O56  1  0.75000000  0.06152649  0.25000000  1
  O  O57  1  0.75000000  0.93847351  0.75000000  1
  O  O58  1  0.25000000  0.56152649  0.75000000  1
  O  O59  1  0.25000000  0.43847351  0.25000000  1
  O  O60  1  0.25000000  0.93847351  0.75000000  1
  O  O61  1  0.25000000  0.06152649  0.25000000  1
  O  O62  1  0.75000000  0.43847351  0.25000000  1
  O  O63  1  0.75000000  0.56152649  0.75000000  1
  O  O64  1  0.70833582  0.08137275  0.05824926  1
  O  O65  1  0.70833582  0.91862725  0.94175074  1
  O  O66  1  0.29166418  0.58137275  0.94175074  1
  O  O67  1  0.29166418  0.41862725  0.05824926  1
  O  O68  1  0.29166418  0.91862725  0.94175074  1
  O  O69  1  0.29166418  0.08137275  0.05824926  1
  O  O70  1  0.70833582  0.41862725  0.05824926  1
  O  O71  1  0.70833582  0.58137275  0.94175074  1
  O  O72  1  0.20833582  0.58137275  0.55824926  1
  O  O73  1  0.20833582  0.41862725  0.44175074  1
  O  O74  1  0.79166418  0.08137275  0.44175074  1
  O  O75  1  0.79166418  0.91862725  0.55824926  1
  O  O76  1  0.79166418  0.41862725  0.44175074  1
  O  O77  1  0.79166418  0.58137275  0.55824926  1
  O  O78  1  0.20833582  0.91862725  0.55824926  1
  O  O79  1  0.20833582  0.08137275  0.44175074  1
  O  O80  1  0.00000000  0.06220250  0.12956525  1
  O  O81  1  0.00000000  0.93779750  0.87043475  1
  O  O82  1  0.00000000  0.56220250  0.87043475  1
  O  O83  1  0.00000000  0.43779750  0.12956525  1
  O  O84  1  0.50000000  0.56220250  0.62956525  1
  O  O85  1  0.50000000  0.43779750  0.37043475  1
  O  O86  1  0.50000000  0.06220250  0.37043475  1
  O  O87  1  0.50000000  0.93779750  0.62956525  1
  O  O88  1  0.26147541  0.18021091  0.92015584  1
  O  O89  1  0.26147541  0.81978909  0.07984416  1
  O  O90  1  0.73852459  0.68021091  0.07984416  1
  O  O91  1  0.73852459  0.31978909  0.92015584  1
  O  O92  1  0.73852459  0.81978909  0.07984416  1
  O  O93  1  0.73852459  0.18021091  0.92015584  1
  O  O94  1  0.26147541  0.31978909  0.92015584  1
  O  O95  1  0.26147541  0.68021091  0.07984416  1
  O  O96  1  0.76147541  0.68021091  0.42015584  1
  O  O97  1  0.76147541  0.31978909  0.57984416  1
  O  O98  1  0.23852459  0.18021091  0.57984416  1
  O  O99  1  0.23852459  0.81978909  0.42015584  1
  O  O100  1  0.23852459  0.31978909  0.57984416  1
  O  O101  1  0.23852459  0.68021091  0.42015584  1
  O  O102  1  0.76147541  0.81978909  0.42015584  1
  O  O103  1  0.76147541  0.18021091  0.57984416  1
  O  O104  1  0.50000000  0.08785830  0.91030422  1
  O  O105  1  0.50000000  0.91214170  0.08969578  1
  O  O106  1  0.50000000  0.58785830  0.08969578  1
  O  O107  1  0.50000000  0.41214170  0.91030422  1
  O  O108  1  0.00000000  0.58785830  0.41030422  1
  O  O109  1  0.00000000  0.41214170  0.58969578  1
  O  O110  1  0.00000000  0.08785830  0.58969578  1
  O  O111  1  0.00000000  0.91214170  0.41030422  1
  O  O112  1  0.75000000  0.25000000  0.75000000  1
  O  O113  1  0.75000000  0.75000000  0.25000000  1
  O  O114  1  0.25000000  0.75000000  0.25000000  1
  O  O115  1  0.25000000  0.25000000  0.75000000  1
  O  O116  1  0.00000000  0.25000000  0.87035317  1
  O  O117  1  0.00000000  0.75000000  0.12964683  1
  O  O118  1  0.50000000  0.75000000  0.37035317  1
  O  O119  1  0.50000000  0.25000000  0.62964683  1
