# generated using pymatgen
data_Y6Pb8OF32
_symmetry_space_group_name_H-M   'P 1'
_cell_length_a   9.30794886
_cell_length_b   9.30794863
_cell_length_c   9.30794894
_cell_angle_alpha   72.78077196
_cell_angle_beta   72.78077238
_cell_angle_gamma   72.78077169
_symmetry_Int_Tables_number   1
_chemical_formula_structural   Y6Pb8OF32
_chemical_formula_sum   'Y6 Pb8 O1 F32'
_cell_volume   716.30222789
_cell_formula_units_Z   1
loop_
 _symmetry_equiv_pos_site_id
 _symmetry_equiv_pos_as_xyz
  1  'x, y, z'
loop_
 _atom_site_type_symbol
 _atom_site_label
 _atom_site_symmetry_multiplicity
 _atom_site_fract_x
 _atom_site_fract_y
 _atom_site_fract_z
 _atom_site_occupancy
  Y  Y0  1  0.83996554  0.52640569  0.39077034  1
  Y  Y1  1  0.16003446  0.47359431  0.60922966  1
  Y  Y2  1  0.47359431  0.60922966  0.16003446  1
  Y  Y3  1  0.39077034  0.83996554  0.52640569  1
  Y  Y4  1  0.60922966  0.16003446  0.47359431  1
  Y  Y5  1  0.52640569  0.39077034  0.83996554  1
  Pb  Pb6  1  0.04369681  0.90058665  0.29011170  1
  Pb  Pb7  1  0.90058665  0.29011170  0.04369681  1
  Pb  Pb8  1  0.09941335  0.70988830  0.95630319  1
  Pb  Pb9  1  0.95630319  0.09941335  0.70988830  1
  Pb  Pb10  1  0.26263894  0.26263894  0.26263894  1
  Pb  Pb11  1  0.70988830  0.95630319  0.09941335  1
  Pb  Pb12  1  0.73736106  0.73736106  0.73736106  1
  Pb  Pb13  1  0.29011170  0.04369681  0.90058665  1
  O  O14  1  0.00000000  0.00000000  0.00000000  1
  F  F15  1  0.54913159  0.82001668  0.97651369  1
  F  F16  1  0.08037486  0.26184931  0.78559259  1
  F  F17  1  0.78679470  0.30288430  0.40806138  1
  F  F18  1  0.35689002  0.49011059  0.04611853  1
  F  F19  1  0.78559259  0.08037486  0.26184931  1
  F  F20  1  0.35254927  0.26800912  0.54848573  1
  F  F21  1  0.73199088  0.45151427  0.64745073  1
  F  F22  1  0.45151427  0.64745073  0.73199088  1
  F  F23  1  0.54848573  0.35254927  0.26800912  1
  F  F24  1  0.85950136  0.85950136  0.85950136  1
  F  F25  1  0.45086841  0.17998332  0.02348631  1
  F  F26  1  0.40806138  0.78679470  0.30288430  1
  F  F27  1  0.04611853  0.35689002  0.49011059  1
  F  F28  1  0.97651369  0.54913159  0.82001668  1
  F  F29  1  0.59193862  0.21320530  0.69711570  1
  F  F30  1  0.73815069  0.21440741  0.91962514  1
  F  F31  1  0.82001668  0.97651369  0.54913159  1
  F  F32  1  0.49011059  0.04611853  0.35689002  1
  F  F33  1  0.91962514  0.73815069  0.21440741  1
  F  F34  1  0.95388147  0.64310998  0.50988941  1
  F  F35  1  0.30288430  0.40806138  0.78679470  1
  F  F36  1  0.50988941  0.95388147  0.64310998  1
  F  F37  1  0.64310998  0.50988941  0.95388147  1
  F  F38  1  0.64745073  0.73199088  0.45151427  1
  F  F39  1  0.69711570  0.59193862  0.21320530  1
  F  F40  1  0.26800912  0.54848573  0.35254927  1
  F  F41  1  0.02348631  0.45086841  0.17998332  1
  F  F42  1  0.17998332  0.02348631  0.45086841  1
  F  F43  1  0.26184931  0.78559259  0.08037486  1
  F  F44  1  0.14049864  0.14049864  0.14049864  1
  F  F45  1  0.21320530  0.69711570  0.59193862  1
  F  F46  1  0.21440741  0.91962514  0.73815069  1
