# generated using pymatgen
data_Mn5Ge3
_symmetry_space_group_name_H-M   'P 1'
_cell_length_a   7.12726052
_cell_length_b   7.13989803
_cell_length_c   4.98262974
_cell_angle_alpha   89.99681767
_cell_angle_beta   89.99056030
_cell_angle_gamma   119.93578791
_symmetry_Int_Tables_number   1
_chemical_formula_structural   Mn5Ge3
_chemical_formula_sum   'Mn10 Ge6'
_cell_volume   219.72755482
_cell_formula_units_Z   2
loop_
 _symmetry_equiv_pos_site_id
 _symmetry_equiv_pos_as_xyz
  1  'x, y, z'
loop_
 _atom_site_type_symbol
 _atom_site_label
 _atom_site_symmetry_multiplicity
 _atom_site_fract_x
 _atom_site_fract_y
 _atom_site_fract_z
 _atom_site_occupancy
  Mn  Mn0  1  0.24236239  0.24252684  0.74985749  1
  Mn  Mn1  1  -0.00000878  0.75757509  0.75009930  1
  Mn  Mn2  1  0.75916911  0.00035984  0.75016467  1
  Mn  Mn3  1  0.24080453  0.00027816  0.24994951  1
  Mn  Mn4  1  0.33319758  0.66657376  -0.00004362  1
  Mn  Mn5  1  0.75736257  0.75748495  0.24970146  1
  Mn  Mn6  1  0.66658388  0.33299751  0.00001782  1
  Mn  Mn7  1  0.00010778  0.24180026  0.25036645  1
  Mn  Mn8  1  0.33343678  0.66692805  0.50000867  1
  Mn  Mn9  1  0.66676240  0.33312148  0.50005186  1
  Ge  Ge10  1  0.60467237  0.99995864  0.24952351  1
  Ge  Ge11  1  0.60492150  0.60490813  0.75012297  1
  Ge  Ge12  1  0.99987638  0.60469984  0.24971057  1
  Ge  Ge13  1  0.00028783  0.39542492  0.75036723  1
  Ge  Ge14  1  0.39529864  0.39547212  0.24973735  1
  Ge  Ge15  1  0.39516502  0.99989040  0.75036475  1
