# generated using pymatgen
data_CuH12N2(Cl2O)2
_symmetry_space_group_name_H-M   'P 1'
_cell_length_a   7.85264538
_cell_length_b   7.85264538
_cell_length_c   8.04050546
_cell_angle_alpha   90.00000000
_cell_angle_beta   90.00000000
_cell_angle_gamma   90.00000000
_symmetry_Int_Tables_number   1
_chemical_formula_structural   CuH12N2(Cl2O)2
_chemical_formula_sum   'Cu2 H24 N4 Cl8 O4'
_cell_volume   495.81004600
_cell_formula_units_Z   2
loop_
 _symmetry_equiv_pos_site_id
 _symmetry_equiv_pos_as_xyz
  1  'x, y, z'
loop_
 _atom_site_type_symbol
 _atom_site_label
 _atom_site_symmetry_multiplicity
 _atom_site_fract_x
 _atom_site_fract_y
 _atom_site_fract_z
 _atom_site_occupancy
  Cu  Cu0  1  0.50000000  0.50000000  0.00000000  1
  Cu  Cu1  1  0.00000000  0.00000000  0.50000000  1
  H  H2  1  0.42730898  0.57269102  0.31244265  1
  H  H3  1  0.57269102  0.42730898  0.31244265  1
  H  H4  1  0.07269102  0.07269102  0.81244265  1
  H  H5  1  0.92730898  0.92730898  0.81244265  1
  H  H6  1  0.57269102  0.42730898  0.68755735  1
  H  H7  1  0.42730898  0.57269102  0.68755735  1
  H  H8  1  0.92730898  0.92730898  0.18755735  1
  H  H9  1  0.07269102  0.07269102  0.18755735  1
  H  H10  1  0.08351941  0.56828175  0.32400853  1
  H  H11  1  0.91648059  0.43171825  0.32400853  1
  H  H12  1  0.41648059  0.06828175  0.82400853  1
  H  H13  1  0.58351941  0.93171825  0.82400853  1
  H  H14  1  0.91648059  0.43171825  0.67599147  1
  H  H15  1  0.08351941  0.56828175  0.67599147  1
  H  H16  1  0.58351941  0.93171825  0.17599147  1
  H  H17  1  0.41648059  0.06828175  0.17599147  1
  H  H18  1  0.56828175  0.08351941  0.32400853  1
  H  H19  1  0.43171825  0.91648059  0.32400853  1
  H  H20  1  0.06828175  0.41648059  0.82400853  1
  H  H21  1  0.93171825  0.58351941  0.82400853  1
  H  H22  1  0.43171825  0.91648059  0.67599147  1
  H  H23  1  0.56828175  0.08351941  0.67599147  1
  H  H24  1  0.93171825  0.58351941  0.17599147  1
  H  H25  1  0.06828175  0.41648059  0.17599147  1
  N  N26  1  0.00000000  0.50000000  0.25000000  1
  N  N27  1  0.50000000  0.00000000  0.75000000  1
  N  N28  1  0.00000000  0.50000000  0.75000000  1
  N  N29  1  0.50000000  0.00000000  0.25000000  1
  Cl  Cl30  1  0.29642109  0.70357891  0.00000000  1
  Cl  Cl31  1  0.70357891  0.29642109  0.00000000  1
  Cl  Cl32  1  0.20357891  0.20357891  0.50000000  1
  Cl  Cl33  1  0.79642109  0.79642109  0.50000000  1
  Cl  Cl34  1  0.29021076  0.70978924  0.50000000  1
  Cl  Cl35  1  0.70978924  0.29021076  0.50000000  1
  Cl  Cl36  1  0.20978924  0.20978924  0.00000000  1
  Cl  Cl37  1  0.79021076  0.79021076  0.00000000  1
  O  O38  1  0.50000000  0.50000000  0.24113010  1
  O  O39  1  0.00000000  0.00000000  0.74113010  1
  O  O40  1  0.50000000  0.50000000  0.75886990  1
  O  O41  1  0.00000000  0.00000000  0.25886990  1
