# generated using pymatgen
data_SiO2
_symmetry_space_group_name_H-M   'P 1'
_cell_length_a   18.58173488
_cell_length_b   18.58173488
_cell_length_c   9.39174045
_cell_angle_alpha   90.00000000
_cell_angle_beta   90.00000000
_cell_angle_gamma   90.00000000
_symmetry_Int_Tables_number   1
_chemical_formula_structural   SiO2
_chemical_formula_sum   'Si48 O96'
_cell_volume   3242.78832420
_cell_formula_units_Z   48
loop_
 _symmetry_equiv_pos_site_id
 _symmetry_equiv_pos_as_xyz
  1  'x, y, z'
loop_
 _atom_site_type_symbol
 _atom_site_label
 _atom_site_symmetry_multiplicity
 _atom_site_fract_x
 _atom_site_fract_y
 _atom_site_fract_z
 _atom_site_occupancy
  Si  Si0  1  0.06574574  0.55470595  0.33726119  1
  Si  Si1  1  0.94529405  0.06574574  0.33726119  1
  Si  Si2  1  0.55470595  0.43425426  0.33726119  1
  Si  Si3  1  0.56574574  0.44529405  0.66273881  1
  Si  Si4  1  0.93425426  0.05470595  0.66273881  1
  Si  Si5  1  0.43425426  0.94529405  0.33726119  1
  Si  Si6  1  0.05470595  0.56574574  0.66273881  1
  Si  Si7  1  0.44529405  0.93425426  0.66273881  1
  Si  Si8  1  0.93425426  0.44529405  0.66273881  1
  Si  Si9  1  0.05470595  0.93425426  0.66273881  1
  Si  Si10  1  0.44529405  0.56574574  0.66273881  1
  Si  Si11  1  0.43425426  0.55470595  0.33726119  1
  Si  Si12  1  0.06574574  0.94529405  0.33726119  1
  Si  Si13  1  0.56574574  0.05470595  0.66273881  1
  Si  Si14  1  0.94529405  0.43425426  0.33726119  1
  Si  Si15  1  0.55470595  0.06574574  0.33726119  1
  Si  Si16  1  0.95327940  0.66576182  0.83945231  1
  Si  Si17  1  0.83423818  0.95327940  0.83945231  1
  Si  Si18  1  0.66576182  0.54672060  0.83945231  1
  Si  Si19  1  0.45327940  0.33423818  0.16054769  1
  Si  Si20  1  0.04672060  0.16576182  0.16054769  1
  Si  Si21  1  0.54672060  0.83423818  0.83945231  1
  Si  Si22  1  0.16576182  0.45327940  0.16054769  1
  Si  Si23  1  0.33423818  0.04672060  0.16054769  1
  Si  Si24  1  0.04672060  0.33423818  0.16054769  1
  Si  Si25  1  0.16576182  0.04672060  0.16054769  1
  Si  Si26  1  0.33423818  0.45327940  0.16054769  1
  Si  Si27  1  0.54672060  0.66576182  0.83945231  1
  Si  Si28  1  0.95327940  0.83423818  0.83945231  1
  Si  Si29  1  0.45327940  0.16576182  0.16054769  1
  Si  Si30  1  0.83423818  0.54672060  0.83945231  1
  Si  Si31  1  0.66576182  0.95327940  0.83945231  1
  Si  Si32  1  0.06459994  0.83410629  0.08728343  1
  Si  Si33  1  0.66589371  0.06459994  0.08728343  1
  Si  Si34  1  0.83410629  0.43540006  0.08728343  1
  Si  Si35  1  0.56459994  0.16589371  0.91271657  1
  Si  Si36  1  0.93540006  0.33410629  0.91271657  1
  Si  Si37  1  0.43540006  0.66589371  0.08728343  1
  Si  Si38  1  0.33410629  0.56459994  0.91271657  1
  Si  Si39  1  0.16589371  0.93540006  0.91271657  1
  Si  Si40  1  0.93540006  0.16589371  0.91271657  1
  Si  Si41  1  0.33410629  0.93540006  0.91271657  1
  Si  Si42  1  0.16589371  0.56459994  0.91271657  1
  Si  Si43  1  0.43540006  0.83410629  0.08728343  1
  Si  Si44  1  0.06459994  0.66589371  0.08728343  1
  Si  Si45  1  0.56459994  0.33410629  0.91271657  1
  Si  Si46  1  0.66589371  0.43540006  0.08728343  1
  Si  Si47  1  0.83410629  0.06459994  0.08728343  1
  O  O48  1  0.13232636  0.63232636  0.00000000  1
  O  O49  1  0.86767364  0.13232636  0.00000000  1
  O  O50  1  0.63232636  0.36767364  0.00000000  1
  O  O51  1  0.36767364  0.86767364  0.00000000  1
  O  O52  1  0.86767364  0.36767364  0.00000000  1
  O  O53  1  0.13232636  0.86767364  0.00000000  1
  O  O54  1  0.36767364  0.63232636  0.00000000  1
  O  O55  1  0.63232636  0.13232636  0.00000000  1
  O  O56  1  0.08084610  0.75000000  0.11697966  1
  O  O57  1  0.75000000  0.08084610  0.11697966  1
  O  O58  1  0.75000000  0.41915390  0.11697966  1
  O  O59  1  0.58084610  0.25000000  0.88302034  1
  O  O60  1  0.91915390  0.25000000  0.88302034  1
  O  O61  1  0.41915390  0.75000000  0.11697966  1
  O  O62  1  0.25000000  0.58084610  0.88302034  1
  O  O63  1  0.25000000  0.91915390  0.88302034  1
  O  O64  1  0.87706461  0.87706461  0.83866969  1
  O  O65  1  0.62293539  0.87706461  0.83866969  1
  O  O66  1  0.87706461  0.62293539  0.83866969  1
  O  O67  1  0.37706461  0.12293539  0.16133031  1
  O  O68  1  0.12293539  0.37706461  0.16133031  1
  O  O69  1  0.62293539  0.62293539  0.83866969  1
  O  O70  1  0.37706461  0.37706461  0.16133031  1
  O  O71  1  0.12293539  0.12293539  0.16133031  1
  O  O72  1  0.99034979  0.84359124  0.99617145  1
  O  O73  1  0.65640876  0.99034979  0.99617145  1
  O  O74  1  0.84359124  0.50965021  0.99617145  1
  O  O75  1  0.49034979  0.15640876  0.00382855  1
  O  O76  1  0.00965021  0.34359124  0.00382855  1
  O  O77  1  0.50965021  0.65640876  0.99617145  1
  O  O78  1  0.34359124  0.49034979  0.00382855  1
  O  O79  1  0.15640876  0.00965021  0.00382855  1
  O  O80  1  0.00965021  0.15640876  0.00382855  1
  O  O81  1  0.34359124  0.00965021  0.00382855  1
  O  O82  1  0.15640876  0.49034979  0.00382855  1
  O  O83  1  0.50965021  0.84359124  0.99617145  1
  O  O84  1  0.99034979  0.65640876  0.99617145  1
  O  O85  1  0.49034979  0.34359124  0.00382855  1
  O  O86  1  0.65640876  0.50965021  0.99617145  1
  O  O87  1  0.84359124  0.99034979  0.99617145  1
  O  O88  1  0.93784900  0.75000000  0.80528225  1
  O  O89  1  0.75000000  0.93784900  0.80528225  1
  O  O90  1  0.75000000  0.56215100  0.80528225  1
  O  O91  1  0.43784900  0.25000000  0.19471775  1
  O  O92  1  0.06215100  0.25000000  0.19471775  1
  O  O93  1  0.56215100  0.75000000  0.80528225  1
  O  O94  1  0.25000000  0.43784900  0.19471775  1
  O  O95  1  0.25000000  0.06215100  0.19471775  1
  O  O96  1  0.91963365  0.41963365  0.50000000  1
  O  O97  1  0.08036635  0.91963365  0.50000000  1
  O  O98  1  0.41963365  0.58036635  0.50000000  1
  O  O99  1  0.58036635  0.08036635  0.50000000  1
  O  O100  1  0.08036635  0.58036635  0.50000000  1
  O  O101  1  0.91963365  0.08036635  0.50000000  1
  O  O102  1  0.58036635  0.41963365  0.50000000  1
  O  O103  1  0.41963365  0.91963365  0.50000000  1
  O  O104  1  0.99322404  0.36599597  0.28338039  1
  O  O105  1  0.13400403  0.99322404  0.28338039  1
  O  O106  1  0.36599597  0.50677596  0.28338039  1
  O  O107  1  0.49322404  0.63400403  0.71661961  1
  O  O108  1  0.00677596  0.86599597  0.71661961  1
  O  O109  1  0.50677596  0.13400403  0.28338039  1
  O  O110  1  0.86599597  0.49322404  0.71661961  1
  O  O111  1  0.63400403  0.00677596  0.71661961  1
  O  O112  1  0.00677596  0.63400403  0.71661961  1
  O  O113  1  0.86599597  0.00677596  0.71661961  1
  O  O114  1  0.63400403  0.49322404  0.71661961  1
  O  O115  1  0.50677596  0.36599597  0.28338039  1
  O  O116  1  0.99322404  0.13400403  0.28338039  1
  O  O117  1  0.49322404  0.86599597  0.71661961  1
  O  O118  1  0.13400403  0.50677596  0.28338039  1
  O  O119  1  0.36599597  0.99322404  0.28338039  1
  O  O120  1  0.87443183  0.44449847  0.23910665  1
  O  O121  1  0.05550153  0.87443183  0.23910665  1
  O  O122  1  0.44449847  0.62556817  0.23910665  1
  O  O123  1  0.37443183  0.55550153  0.76089335  1
  O  O124  1  0.12556817  0.94449847  0.76089335  1
  O  O125  1  0.62556817  0.05550153  0.23910665  1
  O  O126  1  0.94449847  0.37443183  0.76089335  1
  O  O127  1  0.55550153  0.12556817  0.76089335  1
  O  O128  1  0.12556817  0.55550153  0.76089335  1
  O  O129  1  0.94449847  0.12556817  0.76089335  1
  O  O130  1  0.55550153  0.37443183  0.76089335  1
  O  O131  1  0.62556817  0.44449847  0.23910665  1
  O  O132  1  0.87443183  0.05550153  0.23910665  1
  O  O133  1  0.37443183  0.94449847  0.76089335  1
  O  O134  1  0.05550153  0.62556817  0.23910665  1
  O  O135  1  0.44449847  0.87443183  0.23910665  1
  O  O136  1  0.99187104  0.50812896  0.32841217  1
  O  O137  1  0.99187104  0.99187104  0.32841217  1
  O  O138  1  0.50812896  0.50812896  0.32841217  1
  O  O139  1  0.49187104  0.49187104  0.67158783  1
  O  O140  1  0.00812896  0.00812896  0.67158783  1
  O  O141  1  0.50812896  0.99187104  0.32841217  1
  O  O142  1  0.00812896  0.49187104  0.67158783  1
  O  O143  1  0.49187104  0.00812896  0.67158783  1
