# generated using pymatgen
data_Y(BRh)4
_symmetry_space_group_name_H-M   'P 1'
_cell_length_a   5.34709839
_cell_length_b   5.34709839
_cell_length_c   7.47089216
_cell_angle_alpha   90.00000000
_cell_angle_beta   90.00000000
_cell_angle_gamma   90.00000000
_symmetry_Int_Tables_number   1
_chemical_formula_structural   Y(BRh)4
_chemical_formula_sum   'Y2 B8 Rh8'
_cell_volume   213.60372326
_cell_formula_units_Z   2
loop_
 _symmetry_equiv_pos_site_id
 _symmetry_equiv_pos_as_xyz
  1  'x, y, z'
loop_
 _atom_site_type_symbol
 _atom_site_label
 _atom_site_symmetry_multiplicity
 _atom_site_fract_x
 _atom_site_fract_y
 _atom_site_fract_z
 _atom_site_occupancy
  B  B0  1  0.91880842  0.75000000  0.89977788  1
  B  B1  1  0.25000000  0.08119158  0.60022212  1
  B  B2  1  0.58119158  0.75000000  0.89977788  1
  B  B3  1  0.25000000  0.41880842  0.60022212  1
  B  B4  1  0.75000000  0.58119158  0.39977788  1
  B  B5  1  0.75000000  0.91880842  0.39977788  1
  B  B6  1  0.08119158  0.25000000  0.10022212  1
  B  B7  1  0.41880842  0.25000000  0.10022212  1
  Y  Y8  1  0.75000000  0.25000000  0.75000000  1
  Y  Y9  1  0.25000000  0.75000000  0.25000000  1
  Rh  Rh10  1  0.49863504  0.75000000  0.60511741  1
  Rh  Rh11  1  0.25000000  0.50136496  0.89488259  1
  Rh  Rh12  1  0.75000000  0.49863504  0.10511741  1
  Rh  Rh13  1  0.75000000  0.00136496  0.10511741  1
  Rh  Rh14  1  0.99863504  0.25000000  0.39488259  1
  Rh  Rh15  1  0.50136496  0.25000000  0.39488259  1
  Rh  Rh16  1  0.25000000  0.99863504  0.89488259  1
  Rh  Rh17  1  0.00136496  0.75000000  0.60511741  1
