# generated using pymatgen
data_Al2P3H11O13
_symmetry_space_group_name_H-M   'P 1'
_cell_length_a   7.72197001
_cell_length_b   8.18792004
_cell_length_c   10.04941372
_cell_angle_alpha   90.00000000
_cell_angle_beta   90.00000000
_cell_angle_gamma   111.75224880
_symmetry_Int_Tables_number   1
_chemical_formula_structural   Al2P3H11O13
_chemical_formula_sum   'Al4 P6 H22 O26'
_cell_volume   590.14985134
_cell_formula_units_Z   2
loop_
 _symmetry_equiv_pos_site_id
 _symmetry_equiv_pos_as_xyz
  1  'x, y, z'
loop_
 _atom_site_type_symbol
 _atom_site_label
 _atom_site_symmetry_multiplicity
 _atom_site_fract_x
 _atom_site_fract_y
 _atom_site_fract_z
 _atom_site_occupancy
  Al  Al0  1  0.43611473  0.97515802  0.14648739  1
  Al  Al1  1  0.91274871  0.63168831  0.42323239  1
  Al  Al2  1  0.56388527  0.02484198  0.64648739  1
  Al  Al3  1  0.08725129  0.36831169  0.92323239  1
  P  P4  1  0.25410350  0.00904201  0.41959472  1
  P  P5  1  0.74589650  0.99095799  0.91959472  1
  P  P6  1  0.95578551  0.34896377  0.62496479  1
  P  P7  1  0.28125496  0.08212161  0.86882037  1
  P  P8  1  0.04421449  0.65103623  0.12496479  1
  P  P9  1  0.71874504  0.91787839  0.36882037  1
  H  H10  1  0.03992763  0.22699626  0.59999750  1
  H  H11  1  0.20665898  0.37804937  0.18207207  1
  H  H12  1  0.14981582  0.91806836  0.82887669  1
  H  H13  1  0.96007237  0.77300374  0.09999750  1
  H  H14  1  0.85018418  0.08193164  0.32887669  1
  H  H15  1  0.78570695  0.78681776  0.59851511  1
  H  H16  1  0.26624819  0.76128113  0.58808469  1
  H  H17  1  0.86562240  0.90176675  0.94900341  1
  H  H18  1  0.55117242  0.46509101  0.38948106  1
  H  H19  1  0.21429305  0.21318224  0.09851511  1
  H  H20  1  0.60441519  0.37664232  0.80787560  1
  H  H21  1  0.62756592  0.33498180  0.46884518  1
  H  H22  1  0.67035435  0.29862858  0.22925949  1
  H  H23  1  0.73375181  0.23871887  0.08808469  1
  H  H24  1  0.23696136  0.48943183  0.39245030  1
  H  H25  1  0.39558481  0.62335768  0.30787560  1
  H  H26  1  0.37243408  0.66501820  0.96884518  1
  H  H27  1  0.44882758  0.53490899  0.88948106  1
  H  H28  1  0.13437760  0.09823325  0.44900341  1
  H  H29  1  0.32964565  0.70137142  0.72925949  1
  H  H30  1  0.76303864  0.51056817  0.89245030  1
  H  H31  1  0.79334102  0.62195063  0.68207207  1
  O  O32  1  0.83682410  0.69215327  0.60001698  1
  O  O33  1  0.74310548  0.25319884  0.62771359  1
  O  O34  1  0.57776336  0.91728807  0.01340922  1
  O  O35  1  0.30372393  0.05105221  0.27292857  1
  O  O36  1  0.36414992  0.78916528  0.65771782  1
  O  O37  1  0.42223664  0.08271193  0.51340922  1
  O  O38  1  0.31530364  0.06916459  0.01850067  1
  O  O39  1  0.66264182  0.43328151  0.40475894  1
  O  O40  1  0.34321547  0.49859417  0.33479247  1
  O  O41  1  0.63585008  0.21083472  0.15771782  1
  O  O42  1  0.65678453  0.50140583  0.83479247  1
  O  O43  1  0.98947278  0.52087555  0.00742438  1
  O  O44  1  0.16317590  0.30784673  0.10001698  1
  O  O45  1  0.54388393  0.88033962  0.28333553  1
  O  O46  1  0.68469636  0.93083541  0.51850067  1
  O  O47  1  0.85159859  0.18781385  0.94790445  1
  O  O48  1  0.14840141  0.81218615  0.44790445  1
  O  O49  1  0.96581970  0.55881307  0.25637543  1
  O  O50  1  0.25689452  0.74680116  0.12771359  1
  O  O51  1  0.01052722  0.47912445  0.50742438  1
  O  O52  1  0.33735818  0.56671849  0.90475894  1
  O  O53  1  0.80373025  0.77823968  0.34587116  1
  O  O54  1  0.45611607  0.11966038  0.78333553  1
  O  O55  1  0.03418030  0.44118693  0.75637543  1
  O  O56  1  0.19626975  0.22176032  0.84587116  1
  O  O57  1  0.69627607  0.94894779  0.77292857  1
