# generated using pymatgen
data_SiO2
_symmetry_space_group_name_H-M   'P 1'
_cell_length_a   14.82843935
_cell_length_b   27.84312389
_cell_length_c   8.39526266
_cell_angle_alpha   90.00000000
_cell_angle_beta   90.00000000
_cell_angle_gamma   90.00000000
_symmetry_Int_Tables_number   1
_chemical_formula_structural   SiO2
_chemical_formula_sum   'Si64 O128'
_cell_volume   3466.15271499
_cell_formula_units_Z   64
loop_
 _symmetry_equiv_pos_site_id
 _symmetry_equiv_pos_as_xyz
  1  'x, y, z'
loop_
 _atom_site_type_symbol
 _atom_site_label
 _atom_site_symmetry_multiplicity
 _atom_site_fract_x
 _atom_site_fract_y
 _atom_site_fract_z
 _atom_site_occupancy
  Si  Si0  1  0.90461569  0.77596969  0.68589141  1
  Si  Si1  1  0.90461569  0.22403031  0.81410859  1
  Si  Si2  1  0.09538431  0.77596969  0.81410859  1
  Si  Si3  1  0.09538431  0.22403031  0.68589141  1
  Si  Si4  1  0.09538431  0.22403031  0.31410859  1
  Si  Si5  1  0.09538431  0.77596969  0.18589141  1
  Si  Si6  1  0.90461569  0.22403031  0.18589141  1
  Si  Si7  1  0.90461569  0.77596969  0.31410859  1
  Si  Si8  1  0.40461569  0.27596969  0.18589141  1
  Si  Si9  1  0.40461569  0.72403031  0.31410859  1
  Si  Si10  1  0.59538431  0.27596969  0.31410859  1
  Si  Si11  1  0.59538431  0.72403031  0.18589141  1
  Si  Si12  1  0.59538431  0.72403031  0.81410859  1
  Si  Si13  1  0.59538431  0.27596969  0.68589141  1
  Si  Si14  1  0.40461569  0.72403031  0.68589141  1
  Si  Si15  1  0.40461569  0.27596969  0.81410859  1
  Si  Si16  1  0.89938632  0.67169672  0.18662056  1
  Si  Si17  1  0.89938632  0.32830328  0.31337944  1
  Si  Si18  1  0.10061368  0.67169672  0.31337944  1
  Si  Si19  1  0.10061368  0.32830328  0.18662056  1
  Si  Si20  1  0.10061368  0.32830328  0.81337944  1
  Si  Si21  1  0.10061368  0.67169672  0.68662056  1
  Si  Si22  1  0.89938632  0.32830328  0.68662056  1
  Si  Si23  1  0.89938632  0.67169672  0.81337944  1
  Si  Si24  1  0.39938632  0.17169672  0.68662056  1
  Si  Si25  1  0.39938632  0.82830328  0.81337944  1
  Si  Si26  1  0.60061368  0.17169672  0.81337944  1
  Si  Si27  1  0.60061368  0.82830328  0.68662056  1
  Si  Si28  1  0.60061368  0.82830328  0.31337944  1
  Si  Si29  1  0.60061368  0.17169672  0.18662056  1
  Si  Si30  1  0.39938632  0.82830328  0.18662056  1
  Si  Si31  1  0.39938632  0.17169672  0.31337944  1
  Si  Si32  1  0.71690014  0.64207576  0.68481605  1
  Si  Si33  1  0.71690014  0.35792424  0.81518395  1
  Si  Si34  1  0.28309986  0.64207576  0.81518395  1
  Si  Si35  1  0.28309986  0.35792424  0.68481605  1
  Si  Si36  1  0.28309986  0.35792424  0.31518395  1
  Si  Si37  1  0.28309986  0.64207576  0.18481605  1
  Si  Si38  1  0.71690014  0.35792424  0.18481605  1
  Si  Si39  1  0.71690014  0.64207576  0.31518395  1
  Si  Si40  1  0.21690014  0.14207576  0.18481605  1
  Si  Si41  1  0.21690014  0.85792424  0.31518395  1
  Si  Si42  1  0.78309986  0.14207576  0.31518395  1
  Si  Si43  1  0.78309986  0.85792424  0.18481605  1
  Si  Si44  1  0.78309986  0.85792424  0.81518395  1
  Si  Si45  1  0.78309986  0.14207576  0.68481605  1
  Si  Si46  1  0.21690014  0.85792424  0.68481605  1
  Si  Si47  1  0.21690014  0.14207576  0.81518395  1
  Si  Si48  1  0.39956093  0.55462954  0.69245605  1
  Si  Si49  1  0.39956093  0.44537046  0.80754395  1
  Si  Si50  1  0.60043907  0.55462954  0.80754395  1
  Si  Si51  1  0.60043907  0.44537046  0.69245605  1
  Si  Si52  1  0.60043907  0.44537046  0.30754395  1
  Si  Si53  1  0.60043907  0.55462954  0.19245605  1
  Si  Si54  1  0.39956093  0.44537046  0.19245605  1
  Si  Si55  1  0.39956093  0.55462954  0.30754395  1
  Si  Si56  1  0.89956093  0.05462954  0.19245605  1
  Si  Si57  1  0.89956093  0.94537046  0.30754395  1
  Si  Si58  1  0.10043907  0.05462954  0.30754395  1
  Si  Si59  1  0.10043907  0.94537046  0.19245605  1
  Si  Si60  1  0.10043907  0.94537046  0.80754395  1
  Si  Si61  1  0.10043907  0.05462954  0.69245605  1
  Si  Si62  1  0.89956093  0.94537046  0.69245605  1
  Si  Si63  1  0.89956093  0.05462954  0.80754395  1
  O  O64  1  0.00000000  0.79805887  0.75000000  1
  O  O65  1  0.00000000  0.20194113  0.75000000  1
  O  O66  1  0.00000000  0.20194113  0.25000000  1
  O  O67  1  0.00000000  0.79805887  0.25000000  1
  O  O68  1  0.50000000  0.29805887  0.25000000  1
  O  O69  1  0.50000000  0.70194113  0.25000000  1
  O  O70  1  0.50000000  0.70194113  0.75000000  1
  O  O71  1  0.50000000  0.29805887  0.75000000  1
  O  O72  1  0.82714935  0.81667487  0.70036734  1
  O  O73  1  0.82714935  0.18332513  0.79963266  1
  O  O74  1  0.17285065  0.81667487  0.79963266  1
  O  O75  1  0.17285065  0.18332513  0.70036734  1
  O  O76  1  0.17285065  0.18332513  0.29963266  1
  O  O77  1  0.17285065  0.81667487  0.20036734  1
  O  O78  1  0.82714935  0.18332513  0.20036734  1
  O  O79  1  0.82714935  0.81667487  0.29963266  1
  O  O80  1  0.32714935  0.31667487  0.20036734  1
  O  O81  1  0.32714935  0.68332513  0.29963266  1
  O  O82  1  0.67285065  0.31667487  0.29963266  1
  O  O83  1  0.67285065  0.68332513  0.20036734  1
  O  O84  1  0.67285065  0.68332513  0.79963266  1
  O  O85  1  0.67285065  0.31667487  0.70036734  1
  O  O86  1  0.32714935  0.68332513  0.70036734  1
  O  O87  1  0.32714935  0.31667487  0.79963266  1
  O  O88  1  0.87842326  0.72913649  0.79183342  1
  O  O89  1  0.87842326  0.27086351  0.70816658  1
  O  O90  1  0.12157674  0.72913649  0.70816658  1
  O  O91  1  0.12157674  0.27086351  0.79183342  1
  O  O92  1  0.12157674  0.27086351  0.20816658  1
  O  O93  1  0.12157674  0.72913649  0.29183342  1
  O  O94  1  0.87842326  0.27086351  0.29183342  1
  O  O95  1  0.87842326  0.72913649  0.20816658  1
  O  O96  1  0.37842326  0.22913649  0.29183342  1
  O  O97  1  0.37842326  0.77086351  0.20816658  1
  O  O98  1  0.62157674  0.22913649  0.20816658  1
  O  O99  1  0.62157674  0.77086351  0.29183342  1
  O  O100  1  0.62157674  0.77086351  0.70816658  1
  O  O101  1  0.62157674  0.22913649  0.79183342  1
  O  O102  1  0.37842326  0.77086351  0.79183342  1
  O  O103  1  0.37842326  0.22913649  0.70816658  1
  O  O104  1  0.91512514  0.75979150  0.50000000  1
  O  O105  1  0.91512514  0.24020850  0.00000000  1
  O  O106  1  0.08487486  0.75979150  0.00000000  1
  O  O107  1  0.08487486  0.24020850  0.50000000  1
  O  O108  1  0.41512514  0.25979150  0.00000000  1
  O  O109  1  0.41512514  0.74020850  0.50000000  1
  O  O110  1  0.58487486  0.25979150  0.50000000  1
  O  O111  1  0.58487486  0.74020850  0.00000000  1
  O  O112  1  0.82552196  0.64104543  0.28776039  1
  O  O113  1  0.82552196  0.35895457  0.21223961  1
  O  O114  1  0.17447804  0.64104543  0.21223961  1
  O  O115  1  0.17447804  0.35895457  0.28776039  1
  O  O116  1  0.17447804  0.35895457  0.71223961  1
  O  O117  1  0.17447804  0.64104543  0.78776039  1
  O  O118  1  0.82552196  0.35895457  0.78776039  1
  O  O119  1  0.82552196  0.64104543  0.71223961  1
  O  O120  1  0.32552196  0.14104543  0.78776039  1
  O  O121  1  0.32552196  0.85895457  0.71223961  1
  O  O122  1  0.67447804  0.14104543  0.71223961  1
  O  O123  1  0.67447804  0.85895457  0.78776039  1
  O  O124  1  0.67447804  0.85895457  0.21223961  1
  O  O125  1  0.67447804  0.14104543  0.28776039  1
  O  O126  1  0.32552196  0.85895457  0.28776039  1
  O  O127  1  0.32552196  0.14104543  0.21223961  1
  O  O128  1  0.00000000  0.65891567  0.25000000  1
  O  O129  1  0.00000000  0.34108433  0.25000000  1
  O  O130  1  0.00000000  0.34108433  0.75000000  1
  O  O131  1  0.00000000  0.65891567  0.75000000  1
  O  O132  1  0.50000000  0.15891567  0.75000000  1
  O  O133  1  0.50000000  0.84108433  0.75000000  1
  O  O134  1  0.50000000  0.84108433  0.25000000  1
  O  O135  1  0.50000000  0.15891567  0.25000000  1
  O  O136  1  0.89095101  0.65738529  0.00000000  1
  O  O137  1  0.89095101  0.34261471  0.50000000  1
  O  O138  1  0.10904899  0.65738529  0.50000000  1
  O  O139  1  0.10904899  0.34261471  0.00000000  1
  O  O140  1  0.39095101  0.15738529  0.50000000  1
  O  O141  1  0.39095101  0.84261471  0.00000000  1
  O  O142  1  0.60904899  0.15738529  0.00000000  1
  O  O143  1  0.60904899  0.84261471  0.50000000  1
  O  O144  1  0.69491393  0.65539388  0.50000000  1
  O  O145  1  0.69491393  0.34460612  0.00000000  1
  O  O146  1  0.30508607  0.65539388  0.00000000  1
  O  O147  1  0.30508607  0.34460612  0.50000000  1
  O  O148  1  0.19491393  0.15539388  0.00000000  1
  O  O149  1  0.19491393  0.84460612  0.50000000  1
  O  O150  1  0.80508607  0.15539388  0.50000000  1
  O  O151  1  0.80508607  0.84460612  0.00000000  1
  O  O152  1  0.67496622  0.58985144  0.72791409  1
  O  O153  1  0.67496622  0.41014856  0.77208591  1
  O  O154  1  0.32503378  0.58985144  0.77208591  1
  O  O155  1  0.32503378  0.41014856  0.72791409  1
  O  O156  1  0.32503378  0.41014856  0.27208591  1
  O  O157  1  0.32503378  0.58985144  0.22791409  1
  O  O158  1  0.67496622  0.41014856  0.22791409  1
  O  O159  1  0.67496622  0.58985144  0.27208591  1
  O  O160  1  0.17496622  0.08985144  0.22791409  1
  O  O161  1  0.17496622  0.91014856  0.27208591  1
  O  O162  1  0.82503378  0.08985144  0.27208591  1
  O  O163  1  0.82503378  0.91014856  0.22791409  1
  O  O164  1  0.82503378  0.91014856  0.77208591  1
  O  O165  1  0.82503378  0.08985144  0.72791409  1
  O  O166  1  0.17496622  0.91014856  0.72791409  1
  O  O167  1  0.17496622  0.08985144  0.77208591  1
  O  O168  1  0.50000000  0.57100332  0.75000000  1
  O  O169  1  0.50000000  0.42899668  0.75000000  1
  O  O170  1  0.50000000  0.42899668  0.25000000  1
  O  O171  1  0.50000000  0.57100332  0.25000000  1
  O  O172  1  0.00000000  0.07100332  0.25000000  1
  O  O173  1  0.00000000  0.92899668  0.25000000  1
  O  O174  1  0.00000000  0.92899668  0.75000000  1
  O  O175  1  0.00000000  0.07100332  0.75000000  1
  O  O176  1  0.39284423  0.55819650  0.50000000  1
  O  O177  1  0.39284423  0.44180350  0.00000000  1
  O  O178  1  0.60715577  0.55819650  0.00000000  1
  O  O179  1  0.60715577  0.44180350  0.50000000  1
  O  O180  1  0.89284423  0.05819650  0.00000000  1
  O  O181  1  0.89284423  0.94180350  0.50000000  1
  O  O182  1  0.10715577  0.05819650  0.50000000  1
  O  O183  1  0.10715577  0.94180350  0.00000000  1
  O  O184  1  0.37895068  0.50000000  0.75000000  1
  O  O185  1  0.62104932  0.50000000  0.75000000  1
  O  O186  1  0.62104932  0.50000000  0.25000000  1
  O  O187  1  0.37895068  0.50000000  0.25000000  1
  O  O188  1  0.87895068  0.00000000  0.25000000  1
  O  O189  1  0.12104932  0.00000000  0.25000000  1
  O  O190  1  0.12104932  0.00000000  0.75000000  1
  O  O191  1  0.87895068  0.00000000  0.75000000  1
