# generated using pymatgen
data_SiO2
_symmetry_space_group_name_H-M   'P 1'
_cell_length_a   13.77622064
_cell_length_b   12.70510792
_cell_length_c   18.63324019
_cell_angle_alpha   90.00000000
_cell_angle_beta   90.00000000
_cell_angle_gamma   90.00000000
_symmetry_Int_Tables_number   1
_chemical_formula_structural   SiO2
_chemical_formula_sum   'Si48 O96'
_cell_volume   3261.34565755
_cell_formula_units_Z   48
loop_
 _symmetry_equiv_pos_site_id
 _symmetry_equiv_pos_as_xyz
  1  'x, y, z'
loop_
 _atom_site_type_symbol
 _atom_site_label
 _atom_site_symmetry_multiplicity
 _atom_site_fract_x
 _atom_site_fract_y
 _atom_site_fract_z
 _atom_site_occupancy
  Si  Si0  1  0.11293292  0.03668178  0.16655972  1
  Si  Si1  1  0.11293292  0.96331822  0.83344028  1
  Si  Si2  1  0.88706708  0.03668178  0.33344028  1
  Si  Si3  1  0.88706708  0.96331822  0.66655972  1
  Si  Si4  1  0.88706708  0.96331822  0.83344028  1
  Si  Si5  1  0.88706708  0.03668178  0.16655972  1
  Si  Si6  1  0.11293292  0.96331822  0.66655972  1
  Si  Si7  1  0.11293292  0.03668178  0.33344028  1
  Si  Si8  1  0.61293292  0.53668178  0.16655972  1
  Si  Si9  1  0.61293292  0.46331822  0.83344028  1
  Si  Si10  1  0.38706708  0.53668178  0.33344028  1
  Si  Si11  1  0.38706708  0.46331822  0.66655972  1
  Si  Si12  1  0.38706708  0.46331822  0.83344028  1
  Si  Si13  1  0.38706708  0.53668178  0.16655972  1
  Si  Si14  1  0.61293292  0.46331822  0.66655972  1
  Si  Si15  1  0.61293292  0.53668178  0.33344028  1
  Si  Si16  1  0.11283856  0.77078959  0.93918784  1
  Si  Si17  1  0.11283856  0.22921041  0.06081216  1
  Si  Si18  1  0.88716144  0.77078959  0.56081216  1
  Si  Si19  1  0.88716144  0.22921041  0.43918784  1
  Si  Si20  1  0.88716144  0.22921041  0.06081216  1
  Si  Si21  1  0.88716144  0.77078959  0.93918784  1
  Si  Si22  1  0.11283856  0.22921041  0.43918784  1
  Si  Si23  1  0.11283856  0.77078959  0.56081216  1
  Si  Si24  1  0.61283856  0.27078959  0.93918784  1
  Si  Si25  1  0.61283856  0.72921041  0.06081216  1
  Si  Si26  1  0.38716144  0.27078959  0.56081216  1
  Si  Si27  1  0.38716144  0.72921041  0.43918784  1
  Si  Si28  1  0.38716144  0.72921041  0.06081216  1
  Si  Si29  1  0.38716144  0.27078959  0.93918784  1
  Si  Si30  1  0.61283856  0.72921041  0.43918784  1
  Si  Si31  1  0.61283856  0.27078959  0.56081216  1
  Si  Si32  1  0.77301614  0.90416179  0.05242889  1
  Si  Si33  1  0.77301614  0.09583821  0.94757111  1
  Si  Si34  1  0.22698386  0.90416179  0.44757111  1
  Si  Si35  1  0.22698386  0.09583821  0.55242889  1
  Si  Si36  1  0.22698386  0.09583821  0.94757111  1
  Si  Si37  1  0.22698386  0.90416179  0.05242889  1
  Si  Si38  1  0.77301614  0.09583821  0.55242889  1
  Si  Si39  1  0.77301614  0.90416179  0.44757111  1
  Si  Si40  1  0.27301614  0.40416179  0.05242889  1
  Si  Si41  1  0.27301614  0.59583821  0.94757111  1
  Si  Si42  1  0.72698386  0.40416179  0.44757111  1
  Si  Si43  1  0.72698386  0.59583821  0.55242889  1
  Si  Si44  1  0.72698386  0.59583821  0.94757111  1
  Si  Si45  1  0.72698386  0.40416179  0.05242889  1
  Si  Si46  1  0.27301614  0.59583821  0.55242889  1
  Si  Si47  1  0.27301614  0.40416179  0.44757111  1
  O  O48  1  0.00000000  0.99931437  0.16100211  1
  O  O49  1  0.00000000  0.00068563  0.83899789  1
  O  O50  1  0.00000000  0.99931437  0.33899789  1
  O  O51  1  0.00000000  0.00068563  0.66100211  1
  O  O52  1  0.50000000  0.49931437  0.16100211  1
  O  O53  1  0.50000000  0.50068563  0.83899789  1
  O  O54  1  0.50000000  0.49931437  0.33899789  1
  O  O55  1  0.50000000  0.50068563  0.66100211  1
  O  O56  1  0.14583629  0.04390942  0.25000000  1
  O  O57  1  0.14583629  0.95609058  0.75000000  1
  O  O58  1  0.85416371  0.04390942  0.25000000  1
  O  O59  1  0.85416371  0.95609058  0.75000000  1
  O  O60  1  0.64583629  0.54390942  0.25000000  1
  O  O61  1  0.64583629  0.45609058  0.75000000  1
  O  O62  1  0.35416371  0.54390942  0.25000000  1
  O  O63  1  0.35416371  0.45609058  0.75000000  1
  O  O64  1  0.12581461  0.15226066  0.12983415  1
  O  O65  1  0.12581461  0.84773934  0.87016585  1
  O  O66  1  0.87418539  0.15226066  0.37016585  1
  O  O67  1  0.87418539  0.84773934  0.62983415  1
  O  O68  1  0.87418539  0.84773934  0.87016585  1
  O  O69  1  0.87418539  0.15226066  0.12983415  1
  O  O70  1  0.12581461  0.84773934  0.62983415  1
  O  O71  1  0.12581461  0.15226066  0.37016585  1
  O  O72  1  0.62581461  0.65226066  0.12983415  1
  O  O73  1  0.62581461  0.34773934  0.87016585  1
  O  O74  1  0.37418539  0.65226066  0.37016585  1
  O  O75  1  0.37418539  0.34773934  0.62983415  1
  O  O76  1  0.37418539  0.34773934  0.87016585  1
  O  O77  1  0.37418539  0.65226066  0.12983415  1
  O  O78  1  0.62581461  0.34773934  0.62983415  1
  O  O79  1  0.62581461  0.65226066  0.37016585  1
  O  O80  1  0.18069123  0.95092414  0.12571553  1
  O  O81  1  0.18069123  0.04907586  0.87428447  1
  O  O82  1  0.81930877  0.95092414  0.37428447  1
  O  O83  1  0.81930877  0.04907586  0.62571553  1
  O  O84  1  0.81930877  0.04907586  0.87428447  1
  O  O85  1  0.81930877  0.95092414  0.12571553  1
  O  O86  1  0.18069123  0.04907586  0.62571553  1
  O  O87  1  0.18069123  0.95092414  0.37428447  1
  O  O88  1  0.68069123  0.45092414  0.12571553  1
  O  O89  1  0.68069123  0.54907586  0.87428447  1
  O  O90  1  0.31930877  0.45092414  0.37428447  1
  O  O91  1  0.31930877  0.54907586  0.62571553  1
  O  O92  1  0.31930877  0.54907586  0.87428447  1
  O  O93  1  0.31930877  0.45092414  0.12571553  1
  O  O94  1  0.68069123  0.54907586  0.62571553  1
  O  O95  1  0.68069123  0.45092414  0.37428447  1
  O  O96  1  0.14561355  0.83206641  0.01212550  1
  O  O97  1  0.14561355  0.16793359  0.98787450  1
  O  O98  1  0.85438645  0.83206641  0.48787450  1
  O  O99  1  0.85438645  0.16793359  0.51212550  1
  O  O100  1  0.85438645  0.16793359  0.98787450  1
  O  O101  1  0.85438645  0.83206641  0.01212550  1
  O  O102  1  0.14561355  0.16793359  0.51212550  1
  O  O103  1  0.14561355  0.83206641  0.48787450  1
  O  O104  1  0.64561355  0.33206641  0.01212550  1
  O  O105  1  0.64561355  0.66793359  0.98787450  1
  O  O106  1  0.35438645  0.33206641  0.48787450  1
  O  O107  1  0.35438645  0.66793359  0.51212550  1
  O  O108  1  0.35438645  0.66793359  0.98787450  1
  O  O109  1  0.35438645  0.33206641  0.01212550  1
  O  O110  1  0.64561355  0.66793359  0.51212550  1
  O  O111  1  0.64561355  0.33206641  0.48787450  1
  O  O112  1  0.00000000  0.73549641  0.94709868  1
  O  O113  1  0.00000000  0.26450359  0.05290132  1
  O  O114  1  0.00000000  0.73549641  0.55290132  1
  O  O115  1  0.00000000  0.26450359  0.44709868  1
  O  O116  1  0.50000000  0.23549641  0.94709868  1
  O  O117  1  0.50000000  0.76450359  0.05290132  1
  O  O118  1  0.50000000  0.23549641  0.55290132  1
  O  O119  1  0.50000000  0.76450359  0.44709868  1
  O  O120  1  0.17890214  0.66651372  0.92756265  1
  O  O121  1  0.17890214  0.33348628  0.07243735  1
  O  O122  1  0.82109786  0.66651372  0.57243735  1
  O  O123  1  0.82109786  0.33348628  0.42756265  1
  O  O124  1  0.82109786  0.33348628  0.07243735  1
  O  O125  1  0.82109786  0.66651372  0.92756265  1
  O  O126  1  0.17890214  0.33348628  0.42756265  1
  O  O127  1  0.17890214  0.66651372  0.57243735  1
  O  O128  1  0.67890214  0.16651372  0.92756265  1
  O  O129  1  0.67890214  0.83348628  0.07243735  1
  O  O130  1  0.32109786  0.16651372  0.57243735  1
  O  O131  1  0.32109786  0.83348628  0.42756265  1
  O  O132  1  0.32109786  0.83348628  0.07243735  1
  O  O133  1  0.32109786  0.16651372  0.92756265  1
  O  O134  1  0.67890214  0.83348628  0.42756265  1
  O  O135  1  0.67890214  0.16651372  0.57243735  1
  O  O136  1  0.73920556  0.00000000  0.00000000  1
  O  O137  1  0.26079444  0.00000000  0.50000000  1
  O  O138  1  0.26079444  0.00000000  0.00000000  1
  O  O139  1  0.73920556  0.00000000  0.50000000  1
  O  O140  1  0.23920556  0.50000000  0.00000000  1
  O  O141  1  0.76079444  0.50000000  0.50000000  1
  O  O142  1  0.76079444  0.50000000  0.00000000  1
  O  O143  1  0.23920556  0.50000000  0.50000000  1
