# generated using pymatgen
data_SiO2
_symmetry_space_group_name_H-M   'P 1'
_cell_length_a   7.59425529
_cell_length_b   14.48156739
_cell_length_c   19.13838135
_cell_angle_alpha   90.00000000
_cell_angle_beta   90.00000000
_cell_angle_gamma   90.00000000
_symmetry_Int_Tables_number   1
_chemical_formula_structural   SiO2
_chemical_formula_sum   'Si36 O72'
_cell_volume   2104.77640237
_cell_formula_units_Z   36
loop_
 _symmetry_equiv_pos_site_id
 _symmetry_equiv_pos_as_xyz
  1  'x, y, z'
loop_
 _atom_site_type_symbol
 _atom_site_label
 _atom_site_symmetry_multiplicity
 _atom_site_fract_x
 _atom_site_fract_y
 _atom_site_fract_z
 _atom_site_occupancy
  Si  Si0  1  0.20621962  0.19678384  0.18496196  1
  Si  Si1  1  0.79378038  0.80321616  0.18496196  1
  Si  Si2  1  0.79378038  0.19678384  0.18496196  1
  Si  Si3  1  0.20621962  0.80321616  0.18496196  1
  Si  Si4  1  0.70621962  0.69678384  0.68496196  1
  Si  Si5  1  0.29378038  0.30321616  0.68496196  1
  Si  Si6  1  0.29378038  0.69678384  0.68496196  1
  Si  Si7  1  0.70621962  0.30321616  0.68496196  1
  Si  Si8  1  0.29356856  0.70075244  0.04208114  1
  Si  Si9  1  0.70643144  0.29924756  0.04208114  1
  Si  Si10  1  0.70643144  0.70075244  0.04208114  1
  Si  Si11  1  0.29356856  0.29924756  0.04208114  1
  Si  Si12  1  0.79356856  0.20075244  0.54208114  1
  Si  Si13  1  0.20643144  0.79924756  0.54208114  1
  Si  Si14  1  0.20643144  0.20075244  0.54208114  1
  Si  Si15  1  0.79356856  0.79924756  0.54208114  1
  Si  Si16  1  0.00000000  0.20314785  0.94787429  1
  Si  Si17  1  0.00000000  0.79685215  0.94787429  1
  Si  Si18  1  0.50000000  0.70314785  0.44787429  1
  Si  Si19  1  0.50000000  0.29685215  0.44787429  1
  Si  Si20  1  0.00000000  0.69939048  0.79798314  1
  Si  Si21  1  0.00000000  0.30060952  0.79798314  1
  Si  Si22  1  0.50000000  0.19939048  0.29798314  1
  Si  Si23  1  0.50000000  0.80060952  0.29798314  1
  Si  Si24  1  0.29335781  0.00000000  0.11643890  1
  Si  Si25  1  0.70664219  0.00000000  0.11643890  1
  Si  Si26  1  0.79335781  0.50000000  0.61643890  1
  Si  Si27  1  0.20664219  0.50000000  0.61643890  1
  Si  Si28  1  0.29352006  0.50000000  0.98733057  1
  Si  Si29  1  0.70647994  0.50000000  0.98733057  1
  Si  Si30  1  0.79352006  0.00000000  0.48733057  1
  Si  Si31  1  0.20647994  0.00000000  0.48733057  1
  Si  Si32  1  0.00000000  0.50000000  0.86825439  1
  Si  Si33  1  0.50000000  0.00000000  0.36825439  1
  Si  Si34  1  0.00000000  0.00000000  0.99759163  1
  Si  Si35  1  0.50000000  0.50000000  0.49759163  1
  O  O36  1  0.32480751  0.22336704  0.25238354  1
  O  O37  1  0.67519249  0.77663296  0.25238354  1
  O  O38  1  0.67519249  0.22336704  0.25238354  1
  O  O39  1  0.32480751  0.77663296  0.25238354  1
  O  O40  1  0.82480751  0.72336704  0.75238354  1
  O  O41  1  0.17519249  0.27663296  0.75238354  1
  O  O42  1  0.17519249  0.72336704  0.75238354  1
  O  O43  1  0.82480751  0.27663296  0.75238354  1
  O  O44  1  0.25038821  0.26761167  0.12136486  1
  O  O45  1  0.74961179  0.73238833  0.12136486  1
  O  O46  1  0.74961179  0.26761167  0.12136486  1
  O  O47  1  0.25038821  0.73238833  0.12136486  1
  O  O48  1  0.75038821  0.76761167  0.62136486  1
  O  O49  1  0.24961179  0.23238833  0.62136486  1
  O  O50  1  0.24961179  0.76761167  0.62136486  1
  O  O51  1  0.75038821  0.23238833  0.62136486  1
  O  O52  1  0.00000000  0.20601204  0.20593576  1
  O  O53  1  0.00000000  0.79398796  0.20593576  1
  O  O54  1  0.50000000  0.70601204  0.70593576  1
  O  O55  1  0.50000000  0.29398796  0.70593576  1
  O  O56  1  0.24889342  0.09103118  0.16220557  1
  O  O57  1  0.75110658  0.90896882  0.16220557  1
  O  O58  1  0.75110658  0.09103118  0.16220557  1
  O  O59  1  0.24889342  0.90896882  0.16220557  1
  O  O60  1  0.74889342  0.59103118  0.66220557  1
  O  O61  1  0.25110658  0.40896882  0.66220557  1
  O  O62  1  0.25110658  0.59103118  0.66220557  1
  O  O63  1  0.74889342  0.40896882  0.66220557  1
  O  O64  1  0.24983071  0.59103249  0.03394289  1
  O  O65  1  0.75016929  0.40896751  0.03394289  1
  O  O66  1  0.75016929  0.59103249  0.03394289  1
  O  O67  1  0.24983071  0.40896751  0.03394289  1
  O  O68  1  0.74983071  0.09103249  0.53394289  1
  O  O69  1  0.25016929  0.90896751  0.53394289  1
  O  O70  1  0.25016929  0.09103249  0.53394289  1
  O  O71  1  0.74983071  0.90896751  0.53394289  1
  O  O72  1  0.17561287  0.75936503  0.98749082  1
  O  O73  1  0.82438713  0.24063497  0.98749082  1
  O  O74  1  0.82438713  0.75936503  0.98749082  1
  O  O75  1  0.17561287  0.24063497  0.98749082  1
  O  O76  1  0.67561287  0.25936503  0.48749082  1
  O  O77  1  0.32438713  0.74063497  0.48749082  1
  O  O78  1  0.32438713  0.25936503  0.48749082  1
  O  O79  1  0.67561287  0.74063497  0.48749082  1
  O  O80  1  0.50000000  0.71955004  0.02471168  1
  O  O81  1  0.50000000  0.28044996  0.02471168  1
  O  O82  1  0.00000000  0.21955004  0.52471168  1
  O  O83  1  0.00000000  0.78044996  0.52471168  1
  O  O84  1  0.00000000  0.09106531  0.94835895  1
  O  O85  1  0.00000000  0.90893469  0.94835895  1
  O  O86  1  0.50000000  0.59106531  0.44835895  1
  O  O87  1  0.50000000  0.40893469  0.44835895  1
  O  O88  1  0.00000000  0.23765669  0.86770841  1
  O  O89  1  0.00000000  0.76234331  0.86770841  1
  O  O90  1  0.50000000  0.73765669  0.36770841  1
  O  O91  1  0.50000000  0.26234331  0.36770841  1
  O  O92  1  0.00000000  0.59041993  0.81875601  1
  O  O93  1  0.00000000  0.40958007  0.81875601  1
  O  O94  1  0.50000000  0.09041993  0.31875601  1
  O  O95  1  0.50000000  0.90958007  0.31875601  1
  O  O96  1  0.50000000  0.00000000  0.09470522  1
  O  O97  1  0.00000000  0.50000000  0.59470522  1
  O  O98  1  0.17599279  0.00000000  0.04599705  1
  O  O99  1  0.82400721  0.00000000  0.04599705  1
  O  O100  1  0.67599279  0.50000000  0.54599705  1
  O  O101  1  0.32400721  0.50000000  0.54599705  1
  O  O102  1  0.50000000  0.50000000  0.96454821  1
  O  O103  1  0.00000000  0.00000000  0.46454821  1
  O  O104  1  0.17567718  0.50000000  0.91694396  1
  O  O105  1  0.82432282  0.50000000  0.91694396  1
  O  O106  1  0.67567718  0.00000000  0.41694396  1
  O  O107  1  0.32432282  0.00000000  0.41694396  1
