# generated using pymatgen
data_Cs2Te(MoO4)3
_symmetry_space_group_name_H-M   'P 1'
_cell_length_a   7.50964282
_cell_length_b   7.50964239
_cell_length_c   12.64107040
_cell_angle_alpha   90.00000000
_cell_angle_beta   90.00000000
_cell_angle_gamma   120.00000189
_symmetry_Int_Tables_number   1
_chemical_formula_structural   Cs2Te(MoO4)3
_chemical_formula_sum   'Cs4 Te2 Mo6 O24'
_cell_volume   617.38064624
_cell_formula_units_Z   2
loop_
 _symmetry_equiv_pos_site_id
 _symmetry_equiv_pos_as_xyz
  1  'x, y, z'
loop_
 _atom_site_type_symbol
 _atom_site_label
 _atom_site_symmetry_multiplicity
 _atom_site_fract_x
 _atom_site_fract_y
 _atom_site_fract_z
 _atom_site_occupancy
  Cs  Cs0  1  0.66666700  0.33333300  0.22900527  1
  Cs  Cs1  1  0.66666700  0.33333300  0.59693974  1
  Cs  Cs2  1  0.33333300  0.66666700  0.72900527  1
  Cs  Cs3  1  0.33333300  0.66666700  0.09693974  1
  Te  Te4  1  0.00000000  0.00000000  0.16219798  1
  Te  Te5  1  0.00000000  0.00000000  0.66219798  1
  Mo  Mo6  1  0.85968748  0.66187830  0.89545824  1
  Mo  Mo7  1  0.33812170  0.19780918  0.89545824  1
  Mo  Mo8  1  0.66187830  0.80219082  0.39545824  1
  Mo  Mo9  1  0.80219082  0.14031252  0.89545824  1
  Mo  Mo10  1  0.14031252  0.33812170  0.39545824  1
  Mo  Mo11  1  0.19780918  0.85968748  0.39545824  1
  O  O12  1  0.91093253  0.45488519  0.85835991  1
  O  O13  1  0.12385812  0.87442703  0.90576476  1
  O  O14  1  0.25990338  0.11707618  0.73211834  1
  O  O15  1  0.79875851  0.61278927  0.03068442  1
  O  O16  1  0.08906747  0.54511481  0.35835991  1
  O  O17  1  0.45604735  0.91093253  0.35835991  1
  O  O18  1  0.85717280  0.74009662  0.73211834  1
  O  O19  1  0.61278927  0.81403075  0.53068442  1
  O  O20  1  0.24943109  0.12385812  0.40576476  1
  O  O21  1  0.12557297  0.24943109  0.90576476  1
  O  O22  1  0.87614188  0.12557297  0.40576476  1
  O  O23  1  0.18596925  0.79875851  0.53068442  1
  O  O24  1  0.14282720  0.25990338  0.23211834  1
  O  O25  1  0.87442703  0.75056891  0.40576476  1
  O  O26  1  0.11707618  0.85717280  0.23211834  1
  O  O27  1  0.74009662  0.88292382  0.23211834  1
  O  O28  1  0.54511481  0.45604735  0.85835991  1
  O  O29  1  0.45488519  0.54395265  0.35835991  1
  O  O30  1  0.54395265  0.08906747  0.85835991  1
  O  O31  1  0.20124149  0.38721073  0.53068442  1
  O  O32  1  0.88292382  0.14282720  0.73211834  1
  O  O33  1  0.38721073  0.18596925  0.03068442  1
  O  O34  1  0.81403075  0.20124149  0.03068442  1
  O  O35  1  0.75056891  0.87614188  0.90576476  1
