# generated using pymatgen
data_Fe4P2O9
_symmetry_space_group_name_H-M   'P 1'
_cell_length_a   6.66623765
_cell_length_b   9.52567603
_cell_length_c   11.42507709
_cell_angle_alpha   90.00000000
_cell_angle_beta   90.00000000
_cell_angle_gamma   104.33790575
_symmetry_Int_Tables_number   1
_chemical_formula_structural   Fe4P2O9
_chemical_formula_sum   'Fe16 P8 O36'
_cell_volume   702.89948964
_cell_formula_units_Z   4
loop_
 _symmetry_equiv_pos_site_id
 _symmetry_equiv_pos_as_xyz
  1  'x, y, z'
loop_
 _atom_site_type_symbol
 _atom_site_label
 _atom_site_symmetry_multiplicity
 _atom_site_fract_x
 _atom_site_fract_y
 _atom_site_fract_z
 _atom_site_occupancy
  Fe  Fe0  1  0.46975115  0.68221357  0.13408130  1
  Fe  Fe1  1  0.04523389  0.88264827  0.59459873  1
  Fe  Fe2  1  0.22869369  0.25164344  0.11886942  1
  Fe  Fe3  1  0.18053907  0.03479628  0.89644476  1
  Fe  Fe4  1  0.95476611  0.61735173  0.09459873  1
  Fe  Fe5  1  0.46975115  0.18221357  0.36591870  1
  Fe  Fe6  1  0.18053907  0.53479628  0.60355524  1
  Fe  Fe7  1  0.53024885  0.31778643  0.86591870  1
  Fe  Fe8  1  0.81946093  0.46520372  0.39644476  1
  Fe  Fe9  1  0.81946093  0.96520372  0.10355524  1
  Fe  Fe10  1  0.95476611  0.11735173  0.40540127  1
  Fe  Fe11  1  0.77130631  0.24835656  0.61886942  1
  Fe  Fe12  1  0.04523389  0.38264827  0.90540127  1
  Fe  Fe13  1  0.77130631  0.74835656  0.88113058  1
  Fe  Fe14  1  0.22869369  0.75164344  0.38113058  1
  Fe  Fe15  1  0.53024885  0.81778643  0.63408130  1
  P  P16  1  0.24026409  0.68477565  0.86989534  1
  P  P17  1  0.29673173  0.42562918  0.32894193  1
  P  P18  1  0.75973591  0.31522435  0.13010466  1
  P  P19  1  0.75973591  0.81522435  0.36989534  1
  P  P20  1  0.29673173  0.92562918  0.17105807  1
  P  P21  1  0.24026409  0.18477565  0.63010466  1
  P  P22  1  0.70326827  0.07437082  0.82894193  1
  P  P23  1  0.70326827  0.57437082  0.67105807  1
  O  O24  1  0.49542378  0.41819669  0.39274939  1
  O  O25  1  0.53851262  0.74258222  0.33081683  1
  O  O26  1  0.83596740  0.49314954  0.59520643  1
  O  O27  1  0.13766509  0.55711693  0.78590014  1
  O  O28  1  0.10855905  0.29777173  0.61930266  1
  O  O29  1  0.16403260  0.50685046  0.40479357  1
  O  O30  1  0.24801994  0.76744525  0.55895475  1
  O  O31  1  0.17804926  0.76162628  0.19274479  1
  O  O32  1  0.86233491  0.94288307  0.28590014  1
  O  O33  1  0.76953561  0.89586400  0.49209467  1
  O  O34  1  0.89144095  0.20222827  0.11930266  1
  O  O35  1  0.46148738  0.75741778  0.83081683  1
  O  O36  1  0.23046439  0.10413600  0.50790533  1
  O  O37  1  0.75198006  0.73255475  0.05895475  1
  O  O38  1  0.24801994  0.26744525  0.94104525  1
  O  O39  1  0.67221624  0.51571722  0.79767318  1
  O  O40  1  0.82195074  0.73837372  0.69274479  1
  O  O41  1  0.76953561  0.39586400  0.00790533  1
  O  O42  1  0.50457622  0.58180331  0.60725061  1
  O  O43  1  0.82195074  0.23837372  0.80725521  1
  O  O44  1  0.23046439  0.60413600  0.99209467  1
  O  O45  1  0.53851262  0.24258222  0.16918317  1
  O  O46  1  0.13766509  0.05711693  0.71409986  1
  O  O47  1  0.49542378  0.91819669  0.10725061  1
  O  O48  1  0.10855905  0.79777173  0.88069734  1
  O  O49  1  0.17804926  0.26162628  0.30725521  1
  O  O50  1  0.16403260  0.00685046  0.09520643  1
  O  O51  1  0.75198006  0.23255475  0.44104525  1
  O  O52  1  0.89144095  0.70222827  0.38069734  1
  O  O53  1  0.50457622  0.08180331  0.89274939  1
  O  O54  1  0.86233491  0.44288307  0.21409986  1
  O  O55  1  0.32778376  0.48428278  0.20232682  1
  O  O56  1  0.67221624  0.01571722  0.70232682  1
  O  O57  1  0.83596740  0.99314954  0.90479357  1
  O  O58  1  0.46148738  0.25741778  0.66918317  1
  O  O59  1  0.32778376  0.98428278  0.29767318  1
