# generated using pymatgen
data_Cs6Bi4O9
_symmetry_space_group_name_H-M   'P 1'
_cell_length_a   8.35205503
_cell_length_b   10.19762298
_cell_length_c   12.48819053
_cell_angle_alpha   104.04299940
_cell_angle_beta   93.68973611
_cell_angle_gamma   92.24210119
_symmetry_Int_Tables_number   1
_chemical_formula_structural   Cs6Bi4O9
_chemical_formula_sum   'Cs12 Bi8 O18'
_cell_volume   1028.05909256
_cell_formula_units_Z   2
loop_
 _symmetry_equiv_pos_site_id
 _symmetry_equiv_pos_as_xyz
  1  'x, y, z'
loop_
 _atom_site_type_symbol
 _atom_site_label
 _atom_site_symmetry_multiplicity
 _atom_site_fract_x
 _atom_site_fract_y
 _atom_site_fract_z
 _atom_site_occupancy
  Cs  Cs0  1  0.85263751  0.85121430  0.55323025  1
  Cs  Cs1  1  0.14736249  0.14878570  0.44676975  1
  Cs  Cs2  1  0.37767257  0.63626246  0.94284199  1
  Cs  Cs3  1  0.44087548  0.23733302  0.74090728  1
  Cs  Cs4  1  0.11771093  0.96093007  0.86320511  1
  Cs  Cs5  1  0.61914207  0.55051476  0.63867973  1
  Cs  Cs6  1  0.55912452  0.76266698  0.25909272  1
  Cs  Cs7  1  0.88228907  0.03906993  0.13679489  1
  Cs  Cs8  1  0.93474334  0.24935479  0.74977389  1
  Cs  Cs9  1  0.62232743  0.36373754  0.05715801  1
  Cs  Cs10  1  0.06525666  0.75064521  0.25022611  1
  Cs  Cs11  1  0.38085793  0.44948524  0.36132027  1
  Bi  Bi12  1  0.11396107  0.54398432  0.62956057  1
  Bi  Bi13  1  0.38560564  0.06818845  0.14777876  1
  Bi  Bi14  1  0.66425834  0.16445475  0.41260035  1
  Bi  Bi15  1  0.14017104  0.35628737  0.07185071  1
  Bi  Bi16  1  0.88603893  0.45601568  0.37043943  1
  Bi  Bi17  1  0.85982896  0.64371263  0.92814929  1
  Bi  Bi18  1  0.33574166  0.83554525  0.58739965  1
  Bi  Bi19  1  0.61439436  0.93181155  0.85222124  1
  O  O20  1  0.74394548  0.72272465  0.06864765  1
  O  O21  1  0.23145925  0.89931310  0.10331344  1
  O  O22  1  0.18696200  0.99258844  0.63078825  1
  O  O23  1  0.89660646  0.37865329  0.51441925  1
  O  O24  1  0.10339354  0.62134671  0.48558075  1
  O  O25  1  0.29123946  0.52500505  0.14399018  1
  O  O26  1  0.25605452  0.27727535  0.93135235  1
  O  O27  1  0.29166262  0.72724230  0.70870450  1
  O  O28  1  0.70833738  0.27275770  0.29129550  1
  O  O29  1  0.79079747  0.78079589  0.82312161  1
  O  O30  1  0.43963047  0.06379437  0.31638914  1
  O  O31  1  0.81303800  0.00741156  0.36921175  1
  O  O32  1  0.70876054  0.47499495  0.85600982  1
  O  O33  1  0.20920253  0.21920411  0.17687839  1
  O  O34  1  0.76854075  0.10068690  0.89668656  1
  O  O35  1  0.28826756  0.40545358  0.59998754  1
  O  O36  1  0.56036953  0.93620563  0.68361086  1
  O  O37  1  0.71173244  0.59454642  0.40001246  1
