# generated using pymatgen
data_Ga(HO)3
_symmetry_space_group_name_H-M   'P 1'
_cell_length_a   6.50311094
_cell_length_b   6.50311094
_cell_length_c   6.43490378
_cell_angle_alpha   109.25889472
_cell_angle_beta   109.25889472
_cell_angle_gamma   109.68270943
_symmetry_Int_Tables_number   1
_chemical_formula_structural   Ga(HO)3
_chemical_formula_sum   'Ga4 H12 O12'
_cell_volume   210.03603340
_cell_formula_units_Z   4
loop_
 _symmetry_equiv_pos_site_id
 _symmetry_equiv_pos_as_xyz
  1  'x, y, z'
loop_
 _atom_site_type_symbol
 _atom_site_label
 _atom_site_symmetry_multiplicity
 _atom_site_fract_x
 _atom_site_fract_y
 _atom_site_fract_z
 _atom_site_occupancy
  Ga  Ga0  1  0.50000000  0.00000000  0.00000000  1
  Ga  Ga1  1  0.00000000  0.00000000  0.50000000  1
  Ga  Ga2  1  0.00000000  0.50000000  0.00000000  1
  Ga  Ga3  1  0.50000000  0.50000000  0.50000000  1
  H  H4  1  0.63833829  0.18194497  0.45511225  1
  H  H5  1  0.26946330  0.96076690  0.30778505  1
  H  H6  1  0.73053670  0.03923310  0.69221495  1
  H  H7  1  0.36166171  0.81805503  0.54488775  1
  H  H8  1  0.45639332  0.63833829  0.18322603  1
  H  H9  1  0.30869639  0.26946330  0.96167825  1
  H  H10  1  0.69130361  0.73053670  0.03832175  1
  H  H11  1  0.54360668  0.36166171  0.81677397  1
  H  H12  1  0.03923310  0.30869639  0.34701815  1
  H  H13  1  0.81805503  0.45639332  0.27316728  1
  H  H14  1  0.18194497  0.54360668  0.72683272  1
  H  H15  1  0.96076690  0.69130361  0.65298185  1
  O  O16  1  0.49698846  0.17238003  0.31865513  1
  O  O17  1  0.13935640  0.82539990  0.31229672  1
  O  O18  1  0.86064360  0.17460010  0.68770328  1
  O  O19  1  0.50301154  0.82761997  0.68134487  1
  O  O20  1  0.32460843  0.49698846  0.17833333  1
  O  O21  1  0.31395650  0.13935640  0.82705968  1
  O  O22  1  0.68604350  0.86064360  0.17294032  1
  O  O23  1  0.67539157  0.50301154  0.82166667  1
  O  O24  1  0.17460010  0.31395650  0.48689682  1
  O  O25  1  0.82761997  0.32460843  0.14627511  1
  O  O26  1  0.17238003  0.67539157  0.85372489  1
  O  O27  1  0.82539990  0.68604350  0.51310318  1
