# generated using pymatgen
data_Ce5C2Br9
_symmetry_space_group_name_H-M   'P 1'
_cell_length_a   9.91549125
_cell_length_b   11.28439448
_cell_length_c   16.58025662
_cell_angle_alpha   90.00000000
_cell_angle_beta   90.00000000
_cell_angle_gamma   90.00000000
_symmetry_Int_Tables_number   1
_chemical_formula_structural   Ce5C2Br9
_chemical_formula_sum   'Ce20 C8 Br36'
_cell_volume   1855.17013148
_cell_formula_units_Z   4
loop_
 _symmetry_equiv_pos_site_id
 _symmetry_equiv_pos_as_xyz
  1  'x, y, z'
loop_
 _atom_site_type_symbol
 _atom_site_label
 _atom_site_symmetry_multiplicity
 _atom_site_fract_x
 _atom_site_fract_y
 _atom_site_fract_z
 _atom_site_occupancy
  Ce  Ce0  1  0.45242554  0.19059567  0.95047847  1
  Ce  Ce1  1  0.25000000  0.92847565  0.65918065  1
  Ce  Ce2  1  0.25000000  0.96316734  0.43586796  1
  Ce  Ce3  1  0.75000000  0.86372965  0.85060510  1
  Ce  Ce4  1  0.75000000  0.07152435  0.34081935  1
  Ce  Ce5  1  0.95242554  0.30940433  0.45047847  1
  Ce  Ce6  1  0.75000000  0.36372965  0.64939490  1
  Ce  Ce7  1  0.45242554  0.69059567  0.54952153  1
  Ce  Ce8  1  0.25000000  0.63627035  0.35060510  1
  Ce  Ce9  1  0.04757446  0.19059567  0.95047847  1
  Ce  Ce10  1  0.75000000  0.03683266  0.56413204  1
  Ce  Ce11  1  0.75000000  0.53683266  0.93586796  1
  Ce  Ce12  1  0.25000000  0.13627035  0.14939490  1
  Ce  Ce13  1  0.25000000  0.42847565  0.84081935  1
  Ce  Ce14  1  0.75000000  0.57152435  0.15918065  1
  Ce  Ce15  1  0.54757446  0.80940433  0.04952153  1
  Ce  Ce16  1  0.95242554  0.80940433  0.04952153  1
  Ce  Ce17  1  0.04757446  0.69059567  0.54952153  1
  Ce  Ce18  1  0.54757446  0.30940433  0.45047847  1
  Ce  Ce19  1  0.25000000  0.46316734  0.06413204  1
  C  C20  1  0.25000000  0.74525711  0.47081423  1
  C  C21  1  0.75000000  0.75474289  0.97081423  1
  C  C22  1  0.75000000  0.18122031  0.45711470  1
  C  C23  1  0.75000000  0.68122031  0.04288530  1
  C  C24  1  0.25000000  0.31877969  0.95711470  1
  C  C25  1  0.25000000  0.81877969  0.54288530  1
  C  C26  1  0.25000000  0.24525711  0.02918577  1
  C  C27  1  0.75000000  0.25474289  0.52918577  1
  Br  Br28  1  0.96572013  0.56847637  0.38825106  1
  Br  Br29  1  0.75000000  0.33922015  0.28877954  1
  Br  Br30  1  0.07228098  0.11388398  0.56108485  1
  Br  Br31  1  0.75000000  0.61341289  0.55910269  1
  Br  Br32  1  0.53427987  0.06847637  0.11174894  1
  Br  Br33  1  0.96572013  0.06847637  0.11174894  1
  Br  Br34  1  0.92771902  0.38611602  0.06108485  1
  Br  Br35  1  0.25000000  0.16077985  0.78877954  1
  Br  Br36  1  0.44864619  0.63517819  0.17529347  1
  Br  Br37  1  0.25000000  0.38658711  0.44089731  1
  Br  Br38  1  0.57228098  0.88611602  0.43891515  1
  Br  Br39  1  0.53427987  0.56847637  0.38825106  1
  Br  Br40  1  0.07228098  0.61388398  0.93891515  1
  Br  Br41  1  0.25000000  0.87204534  0.27175179  1
  Br  Br42  1  0.44864619  0.13517819  0.32470653  1
  Br  Br43  1  0.55135381  0.36482181  0.82470653  1
  Br  Br44  1  0.92771902  0.88611602  0.43891515  1
  Br  Br45  1  0.75000000  0.83922015  0.21122046  1
  Br  Br46  1  0.42771902  0.61388398  0.93891515  1
  Br  Br47  1  0.55135381  0.86482181  0.67529347  1
  Br  Br48  1  0.57228098  0.38611602  0.06108485  1
  Br  Br49  1  0.94864619  0.36482181  0.82470653  1
  Br  Br50  1  0.42771902  0.11388398  0.56108485  1
  Br  Br51  1  0.25000000  0.88658711  0.05910269  1
  Br  Br52  1  0.94864619  0.86482181  0.67529347  1
  Br  Br53  1  0.25000000  0.37204534  0.22824821  1
  Br  Br54  1  0.03427987  0.93152363  0.88825106  1
  Br  Br55  1  0.75000000  0.11341289  0.94089731  1
  Br  Br56  1  0.75000000  0.62795466  0.77175179  1
  Br  Br57  1  0.05135381  0.13517819  0.32470653  1
  Br  Br58  1  0.46572013  0.93152363  0.88825106  1
  Br  Br59  1  0.03427987  0.43152363  0.61174894  1
  Br  Br60  1  0.05135381  0.63517819  0.17529347  1
  Br  Br61  1  0.75000000  0.12795466  0.72824821  1
  Br  Br62  1  0.25000000  0.66077985  0.71122046  1
  Br  Br63  1  0.46572013  0.43152363  0.61174894  1
