# generated using pymatgen
data_NaHO
_symmetry_space_group_name_H-M   'P 1'
_cell_length_a   3.19396511
_cell_length_b   5.93288574
_cell_length_c   6.28123547
_cell_angle_alpha   89.96197765
_cell_angle_beta   90.10325009
_cell_angle_gamma   90.00439189
_symmetry_Int_Tables_number   1
_chemical_formula_structural   NaHO
_chemical_formula_sum   'Na4 H4 O4'
_cell_volume   119.02561246
_cell_formula_units_Z   4
loop_
 _symmetry_equiv_pos_site_id
 _symmetry_equiv_pos_as_xyz
  1  'x, y, z'
loop_
 _atom_site_type_symbol
 _atom_site_label
 _atom_site_symmetry_multiplicity
 _atom_site_fract_x
 _atom_site_fract_y
 _atom_site_fract_z
 _atom_site_occupancy
  Na  Na0  1  0.36153980  0.25077240  0.49880505  1
  Na  Na1  1  0.63722447  0.75056214  0.99912729  1
  Na  Na2  1  0.63933802  0.74946200  0.49915227  1
  Na  Na3  1  0.36195072  0.24927205  0.99882986  1
  H  H4  1  0.05142630  0.53589254  0.75274984  1
  H  H5  1  0.94856774  0.46406011  0.24616367  1
  H  H6  1  0.05152941  0.96404641  0.24720287  1
  H  H7  1  0.94844402  0.03592682  0.74684418  1
  O  O8  1  0.79400852  0.44499732  0.75075863  1
  O  O9  1  0.20592753  0.55501401  0.24801548  1
  O  O10  1  0.79392558  0.05504159  0.24890665  1
  O  O11  1  0.20611789  0.94495260  0.74867821  1
