# generated using pymatgen
data_Ba5Er8Zn4O21
_symmetry_space_group_name_H-M   'P 1'
_cell_length_a   5.72258848
_cell_length_b   10.17599884
_cell_length_c   10.17599885
_cell_angle_alpha   85.46531554
_cell_angle_beta   73.66931612
_cell_angle_gamma   73.66931615
_symmetry_Int_Tables_number   1
_chemical_formula_structural   Ba5Er8Zn4O21
_chemical_formula_sum   'Ba5 Er8 Zn4 O21'
_cell_volume   545.72862903
_cell_formula_units_Z   1
loop_
 _symmetry_equiv_pos_site_id
 _symmetry_equiv_pos_as_xyz
  1  'x, y, z'
loop_
 _atom_site_type_symbol
 _atom_site_label
 _atom_site_symmetry_multiplicity
 _atom_site_fract_x
 _atom_site_fract_y
 _atom_site_fract_z
 _atom_site_occupancy
  O  O0  1  0.10039969  0.89214988  0.40534463  1
  O  O1  1  0.50574432  0.59465537  0.89214988  1
  O  O2  1  0.99254957  0.40534463  0.10785012  1
  O  O3  1  0.39789420  0.10785012  0.59465537  1
  O  O4  1  0.89960031  0.10785012  0.59465537  1
  O  O5  1  0.49425568  0.40534463  0.10785012  1
  O  O6  1  0.00745043  0.59465537  0.89214988  1
  O  O7  1  0.60210580  0.89214988  0.40534463  1
  O  O8  1  0.92651993  0.87085967  0.77426145  1
  O  O9  1  0.70078138  0.22573855  0.87085967  1
  O  O10  1  0.79737961  0.77426145  0.12914033  1
  O  O11  1  0.57164106  0.12914033  0.22573855  1
  O  O12  1  0.07348007  0.12914033  0.22573855  1
  O  O13  1  0.29921862  0.77426145  0.12914033  1
  O  O14  1  0.20262039  0.22573855  0.87085967  1
  O  O15  1  0.42835894  0.87085967  0.77426145  1
  O  O16  1  0.37101667  0.66778937  0.59017729  1
  O  O17  1  0.50000000  0.00000000  0.00000000  1
  O  O18  1  0.62898333  0.33221063  0.40982271  1
  O  O19  1  0.03880604  0.59017729  0.33221063  1
  O  O20  1  0.96119396  0.40982271  0.66778937  1
  Zn  Zn21  1  0.95941107  0.79066177  0.29051609  1
  Zn  Zn22  1  0.24992716  0.70948391  0.79066177  1
  Zn  Zn23  1  0.75007284  0.29051609  0.20933823  1
  Zn  Zn24  1  0.04058893  0.20933823  0.70948391  1
  Ba  Ba25  1  0.46450734  0.39556524  0.67542007  1
  Ba  Ba26  1  0.13992742  0.32457993  0.39556524  1
  Ba  Ba27  1  0.86007258  0.67542007  0.60443476  1
  Ba  Ba28  1  0.53549266  0.60443476  0.32457993  1
  Ba  Ba29  1  0.00000000  0.00000000  0.00000000  1
  Er  Er30  1  0.58876162  0.05287340  0.76960335  1
  Er  Er31  1  0.35836498  0.23039665  0.05287340  1
  Er  Er32  1  0.64163502  0.76960335  0.94712660  1
  Er  Er33  1  0.41123838  0.94712660  0.23039665  1
  Er  Er34  1  0.75248086  0.07934211  0.41569617  1
  Er  Er35  1  0.16817703  0.58430383  0.07934211  1
  Er  Er36  1  0.83182297  0.41569617  0.92065789  1
  Er  Er37  1  0.24751914  0.92065789  0.58430383  1
