# generated using pymatgen
data_KHgSbS3
_symmetry_space_group_name_H-M   'P 1'
_cell_length_a   6.43663914
_cell_length_b   6.43663914
_cell_length_c   17.62289396
_cell_angle_alpha   79.66283191
_cell_angle_beta   79.66283191
_cell_angle_gamma   90.74582071
_symmetry_Int_Tables_number   1
_chemical_formula_structural   KHgSbS3
_chemical_formula_sum   'K4 Hg4 Sb4 S12'
_cell_volume   705.84148985
_cell_formula_units_Z   4
loop_
 _symmetry_equiv_pos_site_id
 _symmetry_equiv_pos_as_xyz
  1  'x, y, z'
loop_
 _atom_site_type_symbol
 _atom_site_label
 _atom_site_symmetry_multiplicity
 _atom_site_fract_x
 _atom_site_fract_y
 _atom_site_fract_z
 _atom_site_occupancy
  S  S0  1  0.82298508  0.89191106  0.60818273  1
  S  S1  1  0.82306821  0.73342201  0.10707961  1
  S  S2  1  0.23342201  0.32306821  0.60707961  1
  S  S3  1  0.17693179  0.26657799  0.89292039  1
  S  S4  1  0.39191106  0.32298508  0.10818273  1
  S  S5  1  0.17701492  0.10808894  0.39181727  1
  S  S6  1  0.60808894  0.67701492  0.89181727  1
  S  S7  1  0.71058616  0.26685928  0.76693046  1
  S  S8  1  0.23314072  0.78941384  0.73306954  1
  S  S9  1  0.28941384  0.73314072  0.23306954  1
  S  S10  1  0.76685928  0.21058616  0.26693046  1
  S  S11  1  0.76657799  0.67693179  0.39292039  1
  K  K12  1  0.09128807  0.76545677  0.91555924  1
  K  K13  1  0.90871193  0.23454323  0.08444076  1
  K  K14  1  0.73454323  0.40871193  0.58444076  1
  K  K15  1  0.26545677  0.59128807  0.41555924  1
  Sb  Sb16  1  0.21003446  0.94330118  0.59899271  1
  Sb  Sb17  1  0.55669882  0.28996554  0.90100729  1
  Sb  Sb18  1  0.78996554  0.05669882  0.40100729  1
  Sb  Sb19  1  0.44330118  0.71003446  0.09899271  1
  Hg  Hg20  1  0.86336819  0.63663181  0.25000000  1
  Hg  Hg21  1  0.13663181  0.36336819  0.75000000  1
  Hg  Hg22  1  0.33722920  0.16277080  0.25000000  1
  Hg  Hg23  1  0.66277080  0.83722920  0.75000000  1
