# generated using pymatgen
data_Sm(Mn2Ni)4
_symmetry_space_group_name_H-M   'P 1'
_cell_length_a   4.82053718
_cell_length_b   6.42674014
_cell_length_c   6.42674014
_cell_angle_alpha   81.91435815
_cell_angle_beta   67.97336907
_cell_angle_gamma   67.97336907
_symmetry_Int_Tables_number   1
_chemical_formula_structural   Sm(Mn2Ni)4
_chemical_formula_sum   'Sm1 Mn8 Ni4'
_cell_volume   171.09819008
_cell_formula_units_Z   1
loop_
 _symmetry_equiv_pos_site_id
 _symmetry_equiv_pos_as_xyz
  1  'x, y, z'
loop_
 _atom_site_type_symbol
 _atom_site_label
 _atom_site_symmetry_multiplicity
 _atom_site_fract_x
 _atom_site_fract_y
 _atom_site_fract_z
 _atom_site_occupancy
  Sm  Sm0  1  -0.00000000  0.00000000  0.00000000  1
  Mn  Mn1  1  -0.00000000  0.00000000  0.50000000  1
  Mn  Mn2  1  0.50000000  0.00000000  0.50000000  1
  Mn  Mn3  1  0.50000000  0.50000000  0.00000000  1
  Mn  Mn4  1  -0.00000000  0.50000000  0.00000000  1
  Mn  Mn5  1  0.50000000  0.76259405  0.23740595  1
  Mn  Mn6  1  0.50000000  0.23740595  0.76259405  1
  Mn  Mn7  1  0.73740595  0.76259405  0.76259405  1
  Mn  Mn8  1  0.26259405  0.23740595  0.23740595  1
  Ni  Ni9  1  0.00000000  0.35034059  0.64965941  1
  Ni  Ni10  1  -0.00000000  0.64965941  0.35034059  1
  Ni  Ni11  1  0.64965941  0.35034059  0.35034059  1
  Ni  Ni12  1  0.35034059  0.64965941  0.64965941  1
