# generated using pymatgen
data_Bi32P10Pb3O76
_symmetry_space_group_name_H-M   'P 1'
_cell_length_a   11.47358682
_cell_length_b   11.47358753
_cell_length_c   16.54691243
_cell_angle_alpha   80.29788433
_cell_angle_beta   80.29788372
_cell_angle_gamma   60.65829289
_symmetry_Int_Tables_number   1
_chemical_formula_structural   Bi32P10Pb3O76
_chemical_formula_sum   'Bi32 P10 Pb3 O76'
_cell_volume   1862.29687296
_cell_formula_units_Z   1
loop_
 _symmetry_equiv_pos_site_id
 _symmetry_equiv_pos_as_xyz
  1  'x, y, z'
loop_
 _atom_site_type_symbol
 _atom_site_label
 _atom_site_symmetry_multiplicity
 _atom_site_fract_x
 _atom_site_fract_y
 _atom_site_fract_z
 _atom_site_occupancy
  Bi  Bi0  1  0.70656670  0.07858671  0.18731247  1
  Bi  Bi1  1  0.23493929  0.51508608  0.59322104  1
  Bi  Bi2  1  0.29097946  0.94886140  0.80571557  1
  Bi  Bi3  1  0.05113860  0.70902054  0.19428443  1
  Bi  Bi4  1  0.61604650  0.94058481  0.79354869  1
  Bi  Bi5  1  0.34949374  0.33136820  0.97271308  1
  Bi  Bi6  1  0.66863180  0.65050626  0.02728692  1
  Bi  Bi7  1  0.92272235  0.83585768  0.60723935  1
  Bi  Bi8  1  0.27455129  0.63111291  0.78883654  1
  Bi  Bi9  1  0.81849597  0.76197070  0.40236444  1
  Bi  Bi10  1  0.49509585  0.10469953  0.39008832  1
  Bi  Bi11  1  0.36888709  0.72544871  0.21116346  1
  Bi  Bi12  1  0.57687527  0.52970307  0.59701225  1
  Bi  Bi13  1  0.89530047  0.50490415  0.60991168  1
  Bi  Bi14  1  0.47029693  0.42312473  0.40298775  1
  Bi  Bi15  1  0.69661512  0.42597787  0.20284653  1
  Bi  Bi16  1  0.16414232  0.07727765  0.39276065  1
  Bi  Bi17  1  0.48491392  0.76506071  0.40677896  1
  Bi  Bi18  1  0.99674186  0.32764812  0.00261254  1
  Bi  Bi19  1  0.57402213  0.30338488  0.79715347  1
  Bi  Bi20  1  0.60420908  0.85865390  0.60084806  1
  Bi  Bi21  1  0.01221166  0.98778834  1.00000000  1
  Bi  Bi22  1  0.93188869  0.59923583  0.82660874  1
  Bi  Bi23  1  0.67235188  0.00325814  0.99738746  1
  Bi  Bi24  1  0.14134610  0.39579092  0.39915194  1
  Bi  Bi25  1  0.40076417  0.06811131  0.17339126  1
  Bi  Bi26  1  0.34749129  0.65250871  0.00000000  1
  Bi  Bi27  1  0.89774182  0.18870035  0.60177753  1
  Bi  Bi28  1  0.81129965  0.10225818  0.39822247  1
  Bi  Bi29  1  0.92141329  0.29343330  0.81268753  1
  Bi  Bi30  1  0.05941519  0.38395350  0.20645131  1
  Bi  Bi31  1  0.23802930  0.18150403  0.59763556  1
  P  P32  1  0.69547953  0.73921946  0.20852534  1
  P  P33  1  0.25038456  0.86083716  0.59993616  1
  P  P34  1  0.13916284  0.74961544  0.40006384  1
  P  P35  1  0.26078054  0.30452047  0.79147466  1
  P  P36  1  0.57701194  0.18175376  0.58488024  1
  P  P37  1  0.34660004  0.97517483  0.99268678  1
  P  P38  1  0.02482517  0.65339996  0.00731322  1
  P  P39  1  0.81824624  0.42298806  0.41511976  1
  P  P40  1  0.91980963  0.97904937  0.80043984  1
  P  P41  1  0.02095063  0.08019037  0.19956016  1
  Pb  Pb42  1  0.38069227  0.39190047  0.19147314  1
  Pb  Pb43  1  0.60809953  0.61930773  0.80852686  1
  Pb  Pb44  1  0.66806269  0.33193731  1.00000000  1
  O  O45  1  0.03049976  0.62524243  0.64146502  1
  O  O46  1  0.50581920  0.11601536  0.25907352  1
  O  O47  1  0.92694001  0.30077001  0.46794303  1
  O  O48  1  0.03124166  0.97328754  0.14700358  1
  O  O49  1  0.54245833  0.59708351  0.12988885  1
  O  O50  1  0.74586130  0.54810404  0.46660126  1
  O  O51  1  0.87521330  0.11488999  0.74121100  1
  O  O52  1  0.00622989  0.85377271  0.44515536  1
  O  O53  1  0.74850334  0.83227459  0.68794123  1
  O  O54  1  0.00553656  0.20889685  0.14261796  1
  O  O55  1  0.77997677  0.60755521  0.16600175  1
  O  O56  1  0.93834340  0.60335966  0.97452709  1
  O  O57  1  0.69922999  0.07305999  0.53205697  1
  O  O58  1  0.14286958  0.02518217  0.24949439  1
  O  O59  1  0.02731365  0.25154068  0.63800078  1
  O  O60  1  0.60774729  0.84261850  0.43654731  1
  O  O61  1  0.39330678  0.81311386  0.54922240  1
  O  O62  1  0.62322283  0.85529238  0.14101477  1
  O  O63  1  0.79110315  0.99446344  0.85738204  1
  O  O64  1  0.79731454  0.06676804  0.04207690  1
  O  O65  1  0.56556488  0.20898091  0.93463583  1
  O  O66  1  0.71476779  0.38153595  0.39812774  1
  O  O67  1  0.15738150  0.39225271  0.56345269  1
  O  O68  1  0.88511001  0.12478670  0.25878900  1
  O  O69  1  0.89148369  0.45705206  0.33607797  1
  O  O70  1  0.63972753  0.29089758  0.16049813  1
  O  O71  1  0.42966745  0.92499070  0.90805904  1
  O  O72  1  0.47786968  0.52672955  0.72102523  1
  O  O73  1  0.40935747  0.44067703  0.04007116  1
  O  O74  1  0.11653904  0.51016688  0.25840799  1
  O  O75  1  0.37164472  0.84944480  0.05558341  1
  O  O76  1  0.23243467  0.18417199  0.46304538  1
  O  O77  1  0.88398464  0.49418080  0.74092648  1
  O  O78  1  0.10955769  0.73955231  0.31366687  1
  O  O79  1  0.55037013  0.12310266  0.10293962  1
  O  O80  1  0.25231638  0.78953210  0.38872950  1
  O  O81  1  0.61114596  0.23144925  0.35908944  1
  O  O82  1  0.94151843  0.80277305  0.02484560  1
  O  O83  1  0.26407636  0.28114689  0.14090877  1
  O  O84  1  0.15055520  0.62835528  0.94441659  1
  O  O85  1  0.34959634  0.34323729  0.36662555  1
  O  O86  1  0.48983312  0.88346096  0.74159201  1
  O  O87  1  0.26093788  0.65824822  0.14987291  1
  O  O88  1  0.39244479  0.22002323  0.83399825  1
  O  O89  1  0.54294794  0.10851631  0.66392203  1
  O  O90  1  0.16772541  0.25149666  0.31205877  1
  O  O91  1  0.02671246  0.96875834  0.85299642  1
  O  O92  1  0.61846405  0.28523221  0.60187226  1
  O  O93  1  0.14470762  0.37677717  0.85898523  1
  O  O94  1  0.47327045  0.52213032  0.27897477  1
  O  O95  1  0.45189596  0.25413870  0.53339874  1
  O  O96  1  0.39664034  0.06165660  0.02547291  1
  O  O97  1  0.76855075  0.38885404  0.64091056  1
  O  O98  1  0.14622729  0.99377011  0.55484464  1
  O  O99  1  0.81582801  0.76756533  0.53695462  1
  O  O100  1  0.58260203  0.72378309  0.27179706  1
  O  O101  1  0.21046790  0.74768362  0.61127050  1
  O  O102  1  0.07500930  0.57033255  0.09194096  1
  O  O103  1  0.65676271  0.65040366  0.63337445  1
  O  O104  1  0.79101909  0.43443512  0.06536417  1
  O  O105  1  0.37475757  0.96950024  0.35853498  1
  O  O106  1  0.22751203  0.21662294  0.74729485  1
  O  O107  1  0.55932297  0.59064253  0.95992884  1
  O  O108  1  0.26044769  0.89044231  0.68633313  1
  O  O109  1  0.70910242  0.36027247  0.83950187  1
  O  O110  1  0.87689734  0.44962987  0.89706038  1
  O  O111  1  0.93323196  0.20268546  0.95792310  1
  O  O112  1  0.40291649  0.45754167  0.87011115  1
  O  O113  1  0.19722695  0.05848157  0.97515440  1
  O  O114  1  0.71885311  0.73592364  0.85909123  1
  O  O115  1  0.97481783  0.85713042  0.75050561  1
  O  O116  1  0.27621691  0.41739797  0.72820294  1
  O  O117  1  0.74845932  0.97268635  0.36199922  1
  O  O118  1  0.78337706  0.77248797  0.25270515  1
  O  O119  1  0.18688614  0.60669322  0.45077760  1
  O  O120  1  0.34175178  0.73906212  0.85012709  1
