# generated using pymatgen
data_NaTi(SiO3)2
_symmetry_space_group_name_H-M   'P 1'
_cell_length_a   5.31239760
_cell_length_b   6.64663304
_cell_length_c   6.64794640
_cell_angle_alpha   83.30063085
_cell_angle_beta   77.98073765
_cell_angle_gamma   77.99793566
_symmetry_Int_Tables_number   1
_chemical_formula_structural   NaTi(SiO3)2
_chemical_formula_sum   'Na2 Ti2 Si4 O12'
_cell_volume   223.91012028
_cell_formula_units_Z   2
loop_
 _symmetry_equiv_pos_site_id
 _symmetry_equiv_pos_as_xyz
  1  'x, y, z'
loop_
 _atom_site_type_symbol
 _atom_site_label
 _atom_site_symmetry_multiplicity
 _atom_site_fract_x
 _atom_site_fract_y
 _atom_site_fract_z
 _atom_site_occupancy
  O  O0  1  0.69149155  0.12195101  0.10836053  1
  O  O1  1  0.30850845  0.87804899  0.89163947  1
  O  O2  1  0.84958207  0.70643138  0.03368105  1
  O  O3  1  0.15041793  0.29356862  0.96631895  1
  O  O4  1  0.98677400  0.85965728  0.34178051  1
  O  O5  1  0.01322600  0.14034272  0.65821949  1
  O  O6  1  0.48672885  0.84134137  0.36005701  1
  O  O7  1  0.51327115  0.15865863  0.63994299  1
  O  O8  1  0.80845696  0.39239660  0.37791032  1
  O  O9  1  0.19154304  0.60760340  0.62208968  1
  O  O10  1  0.65047674  0.46646398  0.79365674  1
  O  O11  1  0.34952326  0.53353602  0.20634326  1
  Na  Na12  1  0.75017452  0.80556141  0.69500624  1
  Na  Na13  1  0.24982548  0.19443859  0.30499376  1
  Si  Si14  1  0.24121663  0.11483678  0.80046101  1
  Si  Si15  1  0.74121211  0.30098856  0.61456599  1
  Si  Si16  1  0.75878337  0.88516322  0.19953899  1
  Si  Si17  1  0.25878789  0.69901144  0.38543401  1
  Ti  Ti18  1  0.25002841  0.58877690  0.91124965  1
  Ti  Ti19  1  0.74997159  0.41122310  0.08875035  1
