# generated using pymatgen
data_AlPO4
_symmetry_space_group_name_H-M   'P 1'
_cell_length_a   8.63585579
_cell_length_b   14.02049082
_cell_length_c   24.36945313
_cell_angle_alpha   90.00000000
_cell_angle_beta   90.00000000
_cell_angle_gamma   90.00000000
_symmetry_Int_Tables_number   1
_chemical_formula_structural   AlPO4
_chemical_formula_sum   'Al24 P24 O96'
_cell_volume   2950.62747602
_cell_formula_units_Z   24
loop_
 _symmetry_equiv_pos_site_id
 _symmetry_equiv_pos_as_xyz
  1  'x, y, z'
loop_
 _atom_site_type_symbol
 _atom_site_label
 _atom_site_symmetry_multiplicity
 _atom_site_fract_x
 _atom_site_fract_y
 _atom_site_fract_z
 _atom_site_occupancy
  Al  Al0  1  0.99840298  0.20733470  0.66691235  1
  Al  Al1  1  0.01263088  0.39374617  0.06152270  1
  Al  Al2  1  0.99914553  0.88944616  0.77393009  1
  Al  Al3  1  0.00376984  0.29121329  0.83106167  1
  Al  Al4  1  0.48847351  0.89592025  0.43924902  1
  Al  Al5  1  0.00970831  0.39331432  0.27444228  1
  Al  Al6  1  0.50376984  0.29121329  0.16893833  1
  Al  Al7  1  0.49840298  0.79266530  0.66691235  1
  Al  Al8  1  0.99914553  0.11055384  0.22606991  1
  Al  Al9  1  0.51263088  0.60625383  0.06152270  1
  Al  Al10  1  0.49914553  0.11055384  0.77393009  1
  Al  Al11  1  0.50970831  0.39331432  0.72555772  1
  Al  Al12  1  0.50970831  0.60668568  0.27444228  1
  Al  Al13  1  0.99840298  0.79266530  0.33308765  1
  Al  Al14  1  0.98847351  0.10407975  0.43924902  1
  Al  Al15  1  0.49840298  0.20733470  0.33308765  1
  Al  Al16  1  0.00970831  0.60668568  0.72555772  1
  Al  Al17  1  0.01263088  0.60625383  0.93847730  1
  Al  Al18  1  0.00376984  0.70878671  0.16893833  1
  Al  Al19  1  0.49914553  0.88944616  0.22606991  1
  Al  Al20  1  0.51263088  0.39374617  0.93847730  1
  Al  Al21  1  0.50376984  0.70878671  0.83106167  1
  Al  Al22  1  0.98847351  0.89592025  0.56075098  1
  Al  Al23  1  0.48847351  0.10407975  0.56075098  1
  P  P24  1  0.12513521  0.20910228  0.33578112  1
  P  P25  1  0.13332959  0.39017082  0.93801781  1
  P  P26  1  0.12131467  0.10374215  0.77529585  1
  P  P27  1  0.13332959  0.60982918  0.06198219  1
  P  P28  1  0.61505802  0.89278718  0.56042167  1
  P  P29  1  0.62513521  0.20910228  0.66421888  1
  P  P30  1  0.62131467  0.89625785  0.77529585  1
  P  P31  1  0.13165643  0.70606915  0.83172768  1
  P  P32  1  0.63672175  0.39200025  0.27527094  1
  P  P33  1  0.63332959  0.60982918  0.93801781  1
  P  P34  1  0.12131467  0.89625785  0.22470415  1
  P  P35  1  0.61505802  0.10721282  0.43957833  1
  P  P36  1  0.13165643  0.29393085  0.16827232  1
  P  P37  1  0.12513521  0.79089772  0.66421888  1
  P  P38  1  0.11505802  0.10721282  0.56042167  1
  P  P39  1  0.63165643  0.70606915  0.16827232  1
  P  P40  1  0.62513521  0.79089772  0.33578112  1
  P  P41  1  0.63165643  0.29393085  0.83172768  1
  P  P42  1  0.63332959  0.39017082  0.06198219  1
  P  P43  1  0.11505802  0.89278718  0.43957833  1
  P  P44  1  0.13672175  0.39200025  0.72472906  1
  P  P45  1  0.63672175  0.60799975  0.72472906  1
  P  P46  1  0.13672175  0.60799975  0.27527094  1
  P  P47  1  0.62131467  0.10374215  0.22470415  1
  O  O48  1  0.57700403  0.81460943  0.60234702  1
  O  O49  1  0.54666058  0.01146213  0.42058118  1
  O  O50  1  0.60435482  0.63399271  0.78515096  1
  O  O51  1  0.10435482  0.36600729  0.78515096  1
  O  O52  1  0.59671257  0.68501897  0.10793217  1
  O  O53  1  0.56115449  0.31787771  0.10182947  1
  O  O54  1  0.07809908  0.49103788  0.92294959  1
  O  O55  1  0.04797216  0.32367620  0.68655230  1
  O  O56  1  0.80542149  0.30847979  0.82044380  1
  O  O57  1  0.60107295  0.68568199  0.31987640  1
  O  O58  1  0.05143547  0.13816992  0.50441063  1
  O  O59  1  0.07700403  0.18539057  0.60234702  1
  O  O60  1  0.10107295  0.31431801  0.31987640  1
  O  O61  1  0.79006321  0.09626718  0.44403695  1
  O  O62  1  0.07055404  0.12729952  0.71621715  1
  O  O63  1  0.05046570  0.85713137  0.70716394  1
  O  O64  1  0.10107295  0.68568199  0.68012360  1
  O  O65  1  0.04666058  0.01146213  0.57941882  1
  O  O66  1  0.03987674  0.63657889  0.79495483  1
  O  O67  1  0.79806155  0.88630825  0.77977043  1
  O  O68  1  0.57700403  0.18539057  0.39765298  1
  O  O69  1  0.54797216  0.32367620  0.31344770  1
  O  O70  1  0.53987674  0.63657889  0.20504517  1
  O  O71  1  0.55143547  0.13816992  0.49558937  1
  O  O72  1  0.57055404  0.87270048  0.71621715  1
  O  O73  1  0.04440677  0.82884718  0.18305434  1
  O  O74  1  0.55046570  0.85713137  0.29283606  1
  O  O75  1  0.54440677  0.82884718  0.81694566  1
  O  O76  1  0.05025730  0.81040312  0.60835528  1
  O  O77  1  0.60435482  0.36600729  0.21484904  1
  O  O78  1  0.04797216  0.67632380  0.31344770  1
  O  O79  1  0.30542149  0.30847979  0.17955620  1
  O  O80  1  0.29806155  0.88630825  0.22022957  1
  O  O81  1  0.29806155  0.11369175  0.77977043  1
  O  O82  1  0.79006321  0.90373282  0.55596305  1
  O  O83  1  0.07700403  0.81460943  0.39765298  1
  O  O84  1  0.04666058  0.98853787  0.42058118  1
  O  O85  1  0.54666058  0.98853787  0.57941882  1
  O  O86  1  0.58586270  0.19009729  0.82006737  1
  O  O87  1  0.08116541  0.63718448  0.00363162  1
  O  O88  1  0.31071734  0.38702516  0.93412633  1
  O  O89  1  0.55025730  0.81040312  0.39164472  1
  O  O90  1  0.81098804  0.38485854  0.28646153  1
  O  O91  1  0.07809908  0.50896212  0.07705041  1
  O  O92  1  0.81071734  0.38702516  0.06587367  1
  O  O93  1  0.08586270  0.80990271  0.82006737  1
  O  O94  1  0.53987674  0.36342111  0.79495483  1
  O  O95  1  0.05046570  0.14286863  0.29283606  1
  O  O96  1  0.55025730  0.18959688  0.60835528  1
  O  O97  1  0.09671257  0.31498103  0.10793217  1
  O  O98  1  0.07220694  0.00181941  0.78982383  1
  O  O99  1  0.29006321  0.09626718  0.55596305  1
  O  O100  1  0.08381513  0.50601679  0.28809589  1
  O  O101  1  0.54797216  0.67632380  0.68655230  1
  O  O102  1  0.08381513  0.49398321  0.71190411  1
  O  O103  1  0.31098804  0.38485854  0.71353847  1
  O  O104  1  0.80542149  0.69152021  0.17955620  1
  O  O105  1  0.06115449  0.31787771  0.89817053  1
  O  O106  1  0.03987674  0.36342111  0.20504517  1
  O  O107  1  0.29932477  0.81151319  0.66122597  1
  O  O108  1  0.05025730  0.18959688  0.39164472  1
  O  O109  1  0.81071734  0.61297484  0.93412633  1
  O  O110  1  0.57809908  0.49103788  0.07705041  1
  O  O111  1  0.31071734  0.61297484  0.06587367  1
  O  O112  1  0.07055404  0.87270048  0.28378285  1
  O  O113  1  0.07220694  0.99818059  0.21017617  1
  O  O114  1  0.57809908  0.50896212  0.92294959  1
  O  O115  1  0.60107295  0.31431801  0.68012360  1
  O  O116  1  0.79806155  0.11369175  0.22022957  1
  O  O117  1  0.05143547  0.86183008  0.49558937  1
  O  O118  1  0.56115449  0.68212229  0.89817053  1
  O  O119  1  0.55046570  0.14286863  0.70716394  1
  O  O120  1  0.08586270  0.19009729  0.17993263  1
  O  O121  1  0.59671257  0.31498103  0.89206783  1
  O  O122  1  0.58116541  0.36281552  0.00363162  1
  O  O123  1  0.29932477  0.18848681  0.33877403  1
  O  O124  1  0.31098804  0.61514146  0.28646153  1
  O  O125  1  0.57220694  0.00181941  0.21017617  1
  O  O126  1  0.57055404  0.12729952  0.28378285  1
  O  O127  1  0.06115449  0.68212229  0.10182947  1
  O  O128  1  0.58381513  0.50601679  0.71190411  1
  O  O129  1  0.79932477  0.81151319  0.33877403  1
  O  O130  1  0.57220694  0.99818059  0.78982383  1
  O  O131  1  0.08116541  0.36281552  0.99636838  1
  O  O132  1  0.81098804  0.61514146  0.71353847  1
  O  O133  1  0.58586270  0.80990271  0.17993263  1
  O  O134  1  0.29006321  0.90373282  0.44403695  1
  O  O135  1  0.10435482  0.63399271  0.21484904  1
  O  O136  1  0.09671257  0.68501897  0.89206783  1
  O  O137  1  0.55143547  0.86183008  0.50441063  1
  O  O138  1  0.58381513  0.49398321  0.28809589  1
  O  O139  1  0.30542149  0.69152021  0.82044380  1
  O  O140  1  0.04440677  0.17115282  0.81694566  1
  O  O141  1  0.54440677  0.17115282  0.18305434  1
  O  O142  1  0.58116541  0.63718448  0.99636838  1
  O  O143  1  0.79932477  0.18848681  0.66122597  1
