# generated using pymatgen
data_BaNd2ZnO5
_symmetry_space_group_name_H-M   'P 1'
_cell_length_a   6.82223281
_cell_length_b   6.82223280
_cell_length_c   7.58512813
_cell_angle_alpha   116.72515069
_cell_angle_beta   116.72515066
_cell_angle_gamma   90.00000004
_symmetry_Int_Tables_number   1
_chemical_formula_structural   BaNd2ZnO5
_chemical_formula_sum   'Ba2 Nd4 Zn2 O10'
_cell_volume   272.43575623
_cell_formula_units_Z   2
loop_
 _symmetry_equiv_pos_site_id
 _symmetry_equiv_pos_as_xyz
  1  'x, y, z'
loop_
 _atom_site_type_symbol
 _atom_site_label
 _atom_site_symmetry_multiplicity
 _atom_site_fract_x
 _atom_site_fract_y
 _atom_site_fract_z
 _atom_site_occupancy
  O  O0  1  0.77491147  0.27491147  0.26070422  1
  O  O1  1  0.51420725  0.01420725  0.73929578  1
  O  O2  1  0.22508853  0.72508853  0.73929578  1
  O  O3  1  0.01420725  0.22508853  0.73929578  1
  O  O4  1  0.72508853  0.51420725  0.73929578  1
  O  O5  1  0.98579275  0.77491147  0.26070422  1
  O  O6  1  0.27491147  0.48579275  0.26070422  1
  O  O7  1  0.48579275  0.98579275  0.26070422  1
  O  O8  1  0.00000000  0.00000000  0.00000000  1
  O  O9  1  0.50000000  0.50000000  0.00000000  1
  Zn  Zn10  1  0.75000000  0.25000000  0.50000000  1
  Zn  Zn11  1  0.25000000  0.75000000  0.50000000  1
  Ba  Ba12  1  0.75000000  0.75000000  0.50000000  1
  Ba  Ba13  1  0.25000000  0.25000000  0.50000000  1
  Nd  Nd14  1  0.67406994  0.82593006  0.00000000  1
  Nd  Nd15  1  0.17406994  0.67406994  0.00000000  1
  Nd  Nd16  1  0.82593006  0.32593006  0.00000000  1
  Nd  Nd17  1  0.32593006  0.17406994  0.00000000  1
