# generated using pymatgen
data_SiO2
_symmetry_space_group_name_H-M   'P 1'
_cell_length_a   5.11617517
_cell_length_b   17.40926664
_cell_length_c   21.57406338
_cell_angle_alpha   89.87618770
_cell_angle_beta   89.15735592
_cell_angle_gamma   81.55046351
_symmetry_Int_Tables_number   1
_chemical_formula_structural   SiO2
_chemical_formula_sum   'Si32 O64'
_cell_volume   1900.51418211
_cell_formula_units_Z   32
loop_
 _symmetry_equiv_pos_site_id
 _symmetry_equiv_pos_as_xyz
  1  'x, y, z'
loop_
 _atom_site_type_symbol
 _atom_site_label
 _atom_site_symmetry_multiplicity
 _atom_site_fract_x
 _atom_site_fract_y
 _atom_site_fract_z
 _atom_site_occupancy
  Si  Si0  1  0.16804812  0.75889902  0.14455211  1
  Si  Si1  1  0.76269622  0.55319120  0.43321341  1
  Si  Si2  1  0.62318388  0.66196580  0.32142700  1
  Si  Si3  1  0.01010357  0.06587214  0.67932516  1
  Si  Si4  1  0.93995950  0.22442705  0.49573937  1
  Si  Si5  1  0.68411257  0.55319120  0.06678659  1
  Si  Si6  1  0.83561344  0.22442705  0.00426063  1
  Si  Si7  1  0.54244386  0.02081177  0.60312861  1
  Si  Si8  1  0.45755614  0.97918823  0.39687139  1
  Si  Si9  1  0.83195188  0.24110098  0.85544789  1
  Si  Si10  1  0.23730378  0.44680880  0.56678659  1
  Si  Si11  1  0.49426218  0.12489937  0.47817474  1
  Si  Si12  1  0.61916155  0.87510063  0.97817474  1
  Si  Si13  1  0.71485032  0.66196580  0.17857300  1
  Si  Si14  1  0.83431924  0.39918446  0.00995705  1
  Si  Si15  1  0.37681612  0.33803420  0.67857300  1
  Si  Si16  1  0.76649630  0.39918446  0.49004295  1
  Si  Si17  1  0.98989643  0.93412786  0.32067484  1
  Si  Si18  1  0.28514968  0.33803420  0.82142700  1
  Si  Si19  1  0.50573782  0.87510063  0.52182526  1
  Si  Si20  1  0.43674437  0.02081177  0.89687139  1
  Si  Si21  1  0.06004050  0.77557295  0.50426063  1
  Si  Si22  1  0.56325563  0.97918823  0.10312861  1
  Si  Si23  1  0.31588743  0.44680880  0.93321341  1
  Si  Si24  1  0.16568076  0.60081554  0.99004295  1
  Si  Si25  1  0.07597570  0.93412786  0.17932516  1
  Si  Si26  1  0.16438656  0.77557295  0.99573937  1
  Si  Si27  1  0.07305286  0.75889902  0.35544789  1
  Si  Si28  1  0.38083845  0.12489937  0.02182526  1
  Si  Si29  1  0.92402430  0.06587214  0.82067484  1
  Si  Si30  1  0.23350370  0.60081554  0.50995705  1
  Si  Si31  1  0.92694714  0.24110098  0.64455211  1
  O  O32  1  0.12721572  0.77008008  0.07046792  1
  O  O33  1  0.63730111  0.04647816  0.84432499  1
  O  O34  1  0.21839621  0.54137614  0.56817590  1
  O  O35  1  0.75182559  0.80454264  0.52160844  1
  O  O36  1  0.14916919  0.68964290  0.53398642  1
  O  O37  1  0.28510978  0.41506425  0.86372052  1
  O  O38  1  0.76725479  0.16125523  0.46838626  1
  O  O39  1  0.01740415  0.96519171  0.25000000  1
  O  O40  1  0.87532293  0.59080430  0.01769923  1
  O  O41  1  0.12467707  0.40919570  0.98230077  1
  O  O42  1  0.52127836  0.26906595  0.84051628  1
  O  O43  1  0.90964468  0.15910599  0.67882509  1
  O  O44  1  0.14673805  0.02286459  0.86710640  1
  O  O45  1  0.79034430  0.73093405  0.34051628  1
  O  O46  1  0.16118791  0.68964290  0.96601358  1
  O  O47  1  0.31622074  0.04647816  0.65567501  1
  O  O48  1  0.55636824  0.19545736  0.02160844  1
  O  O49  1  0.44363176  0.80454264  0.97839156  1
  O  O50  1  0.09035532  0.84089401  0.32117491  1
  O  O51  1  0.89729579  0.22991992  0.57046792  1
  O  O52  1  0.53387277  0.59080430  0.48230077  1
  O  O53  1  0.78160379  0.45862386  0.43182410  1
  O  O54  1  0.20965570  0.26906595  0.65948372  1
  O  O55  1  0.46687879  0.06735510  0.42042815  1
  O  O56  1  0.83039735  0.02286459  0.63289360  1
  O  O57  1  0.87278428  0.22991992  0.92953208  1
  O  O58  1  0.24817441  0.19545736  0.47839156  1
  O  O59  1  0.31792995  0.36414010  0.75000000  1
  O  O60  1  0.68377926  0.95352184  0.34432499  1
  O  O61  1  0.83881209  0.31035710  0.03398642  1
  O  O62  1  0.06875066  0.84089401  0.17882509  1
  O  O63  1  0.00452065  0.30562832  0.82954751  1
  O  O64  1  0.61975804  0.42087105  0.95505636  1
  O  O65  1  0.68207005  0.63585990  0.25000000  1
  O  O66  1  0.53423388  0.93264490  0.92042815  1
  O  O67  1  0.85326195  0.97713541  0.13289360  1
  O  O68  1  0.95937090  0.42087105  0.54494364  1
  O  O69  1  0.49818025  0.07945186  0.54406047  1
  O  O70  1  0.47872164  0.73093405  0.15948372  1
  O  O71  1  0.53312121  0.93264490  0.57957185  1
  O  O72  1  0.57763211  0.92054814  0.04406047  1
  O  O73  1  0.29982597  0.41506425  0.63627948  1
  O  O74  1  0.04062910  0.57912895  0.45505636  1
  O  O75  1  0.31014896  0.69437168  0.32954751  1
  O  O76  1  0.46576612  0.06735510  0.07957185  1
  O  O77  1  0.99547935  0.69437168  0.17045249  1
  O  O78  1  0.68985104  0.30562832  0.67045249  1
  O  O79  1  0.70017403  0.58493575  0.36372052  1
  O  O80  1  0.07148998  0.16125523  0.03161374  1
  O  O81  1  0.16960265  0.97713541  0.36710640  1
  O  O82  1  0.10270421  0.77008008  0.42953208  1
  O  O83  1  0.75977236  0.45862386  0.06817590  1
  O  O84  1  0.85083081  0.31035710  0.46601358  1
  O  O85  1  0.42236789  0.07945186  0.95593953  1
  O  O86  1  0.98259585  0.03480829  0.75000000  1
  O  O87  1  0.50181975  0.92054814  0.45593953  1
  O  O88  1  0.36269889  0.95352184  0.15567501  1
  O  O89  1  0.71489022  0.58493575  0.13627948  1
  O  O90  1  0.24022764  0.54137614  0.93182410  1
  O  O91  1  0.38024196  0.57912895  0.04494364  1
  O  O92  1  0.92851002  0.83874477  0.96838626  1
  O  O93  1  0.23274521  0.83874477  0.53161374  1
  O  O94  1  0.46612723  0.40919570  0.51769923  1
  O  O95  1  0.93124934  0.15910599  0.82117491  1
