# generated using pymatgen
data_Ce9GdO20
_symmetry_space_group_name_H-M   'P 1'
_cell_length_a   7.72216879
_cell_length_b   19.31317206
_cell_length_c   10.21923703
_cell_angle_alpha   19.09548105
_cell_angle_beta   55.48103164
_cell_angle_gamma   59.99467841
_symmetry_Int_Tables_number   1
_chemical_formula_structural   Ce9GdO20
_chemical_formula_sum   'Ce9 Gd1 O20'
_cell_volume   407.25147330
_cell_formula_units_Z   1
loop_
 _symmetry_equiv_pos_site_id
 _symmetry_equiv_pos_as_xyz
  1  'x, y, z'
loop_
 _atom_site_type_symbol
 _atom_site_label
 _atom_site_symmetry_multiplicity
 _atom_site_fract_x
 _atom_site_fract_y
 _atom_site_fract_z
 _atom_site_occupancy
  Ce  Ce0  1  0.99993542  0.19959680  -0.00004240  1
  Ce  Ce1  1  0.00003273  0.40061016  -0.00002892  1
  Ce  Ce2  1  0.50000000  0.00000000  0.00000000  1
  Ce  Ce3  1  0.50115624  0.19957936  0.99978093  1
  Ce  Ce4  1  0.00006458  0.80040320  0.00004240  1
  Ce  Ce5  1  0.49849285  0.39863488  0.00331278  1
  Ce  Ce6  1  0.50150715  0.60136512  0.99668722  1
  Ce  Ce7  1  0.49884376  0.80042064  0.00021907  1
  Ce  Ce8  1  0.99996727  0.59938984  0.00002892  1
  Gd  Gd9  1  0.00000000  0.00000000  0.00000000  1
  O  O10  1  0.12510914  0.14983319  0.25008362  1
  O  O11  1  0.12649623  0.35300518  0.24330981  1
  O  O12  1  0.37831588  0.05031647  0.74798843  1
  O  O13  1  0.12514404  0.55018777  0.24974926  1
  O  O14  1  0.62499839  0.14996908  0.25001961  1
  O  O15  1  0.12590092  0.74804831  0.25194916  1
  O  O16  1  0.37511662  0.25041427  0.74919275  1
  O  O17  1  0.62476581  0.35030027  0.24954436  1
  O  O18  1  0.37543569  0.44981087  0.75008532  1
  O  O19  1  0.62456431  0.55018913  0.24991468  1
  O  O20  1  0.12584715  0.94959579  0.25214239  1
  O  O21  1  0.87415285  0.05040421  0.74785761  1
  O  O22  1  0.37523419  0.64969973  0.75045564  1
  O  O23  1  0.62488338  0.74958573  0.25080725  1
  O  O24  1  0.87409908  0.25195169  0.74805084  1
  O  O25  1  0.87485596  0.44981223  0.75025074  1
  O  O26  1  0.37500161  0.85003092  0.74998039  1
  O  O27  1  0.62168412  0.94968353  0.25201157  1
  O  O28  1  0.87350377  0.64699482  0.75669019  1
  O  O29  1  0.87489086  0.85016681  0.74991638  1
