# generated using pymatgen
data_Li5SnP3
_symmetry_space_group_name_H-M   'P 1'
_cell_length_a   8.49873820
_cell_length_b   12.72789335
_cell_length_c   10.40742413
_cell_angle_alpha   35.16928058
_cell_angle_beta   35.25378452
_cell_angle_gamma   59.95761851
_symmetry_Int_Tables_number   1
_chemical_formula_structural   Li5SnP3
_chemical_formula_sum   'Li10 Sn2 P6'
_cell_volume   323.70457511
_cell_formula_units_Z   2
loop_
 _symmetry_equiv_pos_site_id
 _symmetry_equiv_pos_as_xyz
  1  'x, y, z'
loop_
 _atom_site_type_symbol
 _atom_site_label
 _atom_site_symmetry_multiplicity
 _atom_site_fract_x
 _atom_site_fract_y
 _atom_site_fract_z
 _atom_site_occupancy
  Li  Li0  1  0.51387049  0.34052150  0.23601173  1
  Li  Li1  1  0.98724574  0.33224407  0.75646584  1
  Li  Li2  1  0.49254057  0.65947850  0.25757721  1
  Li  Li3  1  0.99691061  0.33224407  0.24680097  1
  Li  Li4  1  0.50312792  0.00000000  0.24687208  1
  Li  Li5  1  0.50745943  0.34052150  0.74242279  1
  Li  Li6  1  0.01275426  0.66775593  0.24353416  1
  Li  Li7  1  0.48612951  0.65947850  0.76398827  1
  Li  Li8  1  0.49687208  1.00000000  0.75312792  1
  Li  Li9  1  0.00308939  0.66775593  0.75319903  1
  Sn  Sn10  1  0.01630727  1.00000000  0.73369273  1
  Sn  Sn11  1  0.98369273  0.00000000  0.26630727  1
  P  P12  1  -0.00000000  -0.00000000  0.00000000  1
  P  P13  1  0.50000000  -0.00000000  0.00000000  1
  P  P14  1  0.48509397  0.33060136  0.01396558  1
  P  P15  1  0.51490603  0.66939864  0.98603442  1
  P  P16  1  0.00483019  0.33060136  0.99422936  1
  P  P17  1  0.99516981  0.66939864  0.00577064  1
