# generated using pymatgen
data_Eu(GdS2)2
_symmetry_space_group_name_H-M   'P 1'
_cell_length_a   7.34951319
_cell_length_b   7.34951316
_cell_length_c   7.34951360
_cell_angle_alpha   109.29701423
_cell_angle_beta   109.29701420
_cell_angle_gamma   109.82019661
_symmetry_Int_Tables_number   1
_chemical_formula_structural   Eu(GdS2)2
_chemical_formula_sum   'Eu2 Gd4 S8'
_cell_volume   305.59185090
_cell_formula_units_Z   2
loop_
 _symmetry_equiv_pos_site_id
 _symmetry_equiv_pos_as_xyz
  1  'x, y, z'
loop_
 _atom_site_type_symbol
 _atom_site_label
 _atom_site_symmetry_multiplicity
 _atom_site_fract_x
 _atom_site_fract_y
 _atom_site_fract_z
 _atom_site_occupancy
  Eu  Eu0  1  0.62500000  0.37500000  0.25000000  1
  Eu  Eu1  1  0.87500000  0.12500000  0.75000000  1
  Gd  Gd2  1  0.12354142  0.75000000  0.87354142  1
  Gd  Gd3  1  0.25000000  0.62354142  0.37354142  1
  Gd  Gd4  1  0.37645858  0.25000000  0.62645858  1
  Gd  Gd5  1  0.75000000  0.87645858  0.12645858  1
  S  S6  1  0.14428699  0.14284240  0.15204189  1
  S  S7  1  0.35571301  0.50775490  0.99855541  1
  S  S8  1  0.49224510  0.99080051  0.84795811  1
  S  S9  1  0.64284240  0.64428699  0.65204189  1
  S  S10  1  0.49080051  0.99224510  0.34795811  1
  S  S11  1  0.00775490  0.85571301  0.49855541  1
  S  S12  1  0.85715760  0.50919949  0.00144459  1
  S  S13  1  0.00919949  0.35715760  0.50144459  1
