# generated using pymatgen
data_Li3(Mo3S4)2
_symmetry_space_group_name_H-M   'P 1'
_cell_length_a   6.66779725
_cell_length_b   6.67627271
_cell_length_c   13.34679161
_cell_angle_alpha   94.02627346
_cell_angle_beta   93.78715074
_cell_angle_gamma   95.68037910
_symmetry_Int_Tables_number   1
_chemical_formula_structural   Li3(Mo3S4)2
_chemical_formula_sum   'Li6 Mo12 S16'
_cell_volume   588.17248972
_cell_formula_units_Z   2
loop_
 _symmetry_equiv_pos_site_id
 _symmetry_equiv_pos_as_xyz
  1  'x, y, z'
loop_
 _atom_site_type_symbol
 _atom_site_label
 _atom_site_symmetry_multiplicity
 _atom_site_fract_x
 _atom_site_fract_y
 _atom_site_fract_z
 _atom_site_occupancy
  Li  Li0  1  0.01571910  0.39507278  0.98472791  1
  Li  Li1  1  0.14052619  0.91808464  0.98794694  1
  Li  Li2  1  0.41025299  0.96267887  0.50989535  1
  Li  Li3  1  0.97387140  0.01282269  0.70401204  1
  Li  Li4  1  0.97777153  0.14058093  0.45872559  1
  Li  Li5  1  0.96102756  0.01853413  0.20304716  1
  Mo  Mo6  1  0.23498849  0.40539585  0.77401852  1
  Mo  Mo7  1  0.23127492  0.41387726  0.27398267  1
  Mo  Mo8  1  0.46216665  0.76452530  0.79476341  1
  Mo  Mo9  1  0.41466632  0.54376124  0.61435944  1
  Mo  Mo10  1  0.45365970  0.77359516  0.29360081  1
  Mo  Mo11  1  0.41218562  0.54988694  0.11496757  1
  Mo  Mo12  1  0.59118517  0.45024026  0.88428245  1
  Mo  Mo13  1  0.54723895  0.22926332  0.70543077  1
  Mo  Mo14  1  0.58810119  0.45833024  0.38478824  1
  Mo  Mo15  1  0.54244899  0.23264726  0.20447097  1
  Mo  Mo16  1  0.77359669  0.58614546  0.72515858  1
  Mo  Mo17  1  0.76438066  0.59624661  0.22566719  1
  S  S18  1  0.14217235  0.70719763  0.68934954  1
  S  S19  1  0.13472090  0.71606159  0.18646348  1
  S  S20  1  0.29124195  0.61655100  0.93426742  1
  S  S21  1  0.21669569  0.21022058  0.60726249  1
  S  S22  1  0.28666006  0.61827869  0.43516518  1
  S  S23  1  0.21101328  0.21519843  0.10796375  1
  S  S24  1  0.37529176  0.12690990  0.85947247  1
  S  S25  1  0.37134209  0.13403436  0.35767411  1
  S  S26  1  0.63033720  0.86913793  0.64319775  1
  S  S27  1  0.61924292  0.87420235  0.13987208  1
  S  S28  1  0.79580862  0.77896343  0.89030756  1
  S  S29  1  0.71807485  0.37883573  0.56433285  1
  S  S30  1  0.78163208  0.79498029  0.39037561  1
  S  S31  1  0.70875681  0.38071481  0.06638857  1
  S  S32  1  0.86848387  0.28617589  0.81118456  1
  S  S33  1  0.86346347  0.29384847  0.30937695  1
