# generated using pymatgen
data_Li27Sb10
_symmetry_space_group_name_H-M   'P 1'
_cell_length_a   9.26527504
_cell_length_b   22.98030483
_cell_length_c   7.94100972
_cell_angle_alpha   30.24345901
_cell_angle_beta   54.41418285
_cell_angle_gamma   59.82001029
_symmetry_Int_Tables_number   1
_chemical_formula_structural   Li27Sb10
_chemical_formula_sum   'Li27 Sb10'
_cell_volume   692.56708057
_cell_formula_units_Z   1
loop_
 _symmetry_equiv_pos_site_id
 _symmetry_equiv_pos_as_xyz
  1  'x, y, z'
loop_
 _atom_site_type_symbol
 _atom_site_label
 _atom_site_symmetry_multiplicity
 _atom_site_fract_x
 _atom_site_fract_y
 _atom_site_fract_z
 _atom_site_occupancy
  Li  Li0  1  0.10632631  0.20003355  0.26193753  1
  Li  Li1  1  0.25000000  0.20037752  0.49905620  1
  Li  Li2  1  0.39367369  0.99996645  0.73806247  1
  Li  Li3  1  0.13296827  0.41190337  0.20692431  1
  Li  Li4  1  0.63635684  0.19031470  0.27582611  1
  Li  Li5  1  0.39367369  0.20003355  0.73789472  1
  Li  Li6  1  0.25000000  0.39655925  0.50860187  1
  Li  Li7  1  0.13303447  0.60000000  0.26262346  1
  Li  Li8  1  0.13296827  0.78809663  0.26644115  1
  Li  Li9  1  0.63141963  0.38954034  0.26243648  1
  Li  Li10  1  0.36703173  0.41190337  0.73355885  1
  Li  Li11  1  0.86364316  0.00968530  0.72417389  1
  Li  Li12  1  0.10632631  0.99996645  0.26210528  1
  Li  Li13  1  0.86364316  0.19031470  0.77260037  1
  Li  Li14  1  0.75000000  0.39897779  0.50255553  1
  Li  Li15  1  0.60529158  0.60000000  0.26224191  1
  Li  Li16  1  0.25000000  0.80344075  0.49139813  1
  Li  Li17  1  0.36696553  0.60000000  0.73737654  1
  Li  Li18  1  0.25000000  0.99962248  0.50094380  1
  Li  Li19  1  0.86858037  0.38954034  0.78986183  1
  Li  Li20  1  0.75000000  0.60000000  0.50000000  1
  Li  Li21  1  0.63141963  0.81045966  0.21013817  1
  Li  Li22  1  0.36703173  0.78809663  0.79307569  1
  Li  Li23  1  0.75000000  0.80102221  0.49744447  1
  Li  Li24  1  0.63635684  0.00968530  0.22739963  1
  Li  Li25  1  0.89470842  0.60000000  0.73775809  1
  Li  Li26  1  0.86858037  0.81045966  0.73756352  1
  Sb  Sb27  1  0.01465684  0.99265129  -0.00142378  1
  Sb  Sb28  1  0.01465684  0.20734871  0.96183267  1
  Sb  Sb29  1  0.48534316  0.99265129  0.03816733  1
  Sb  Sb30  1  0.99820152  0.39843847  0.00750515  1
  Sb  Sb31  1  0.48534316  0.20734871  0.00142378  1
  Sb  Sb32  1  0.98954750  0.60000000  0.02111693  1
  Sb  Sb33  1  0.50179848  0.39843847  0.00030251  1
  Sb  Sb34  1  0.99820152  0.80156153  -0.00030251  1
  Sb  Sb35  1  0.51045250  0.60000000  0.97888307  1
  Sb  Sb36  1  0.50179848  0.80156153  0.99249485  1
