# generated using pymatgen
data_Sr6Nb7O21
_symmetry_space_group_name_H-M   'P 1'
_cell_length_a   28.49663844
_cell_length_b   12.87322495
_cell_length_c   9.10262190
_cell_angle_alpha   31.94693187
_cell_angle_beta   26.56065347
_cell_angle_gamma   18.43158672
_symmetry_Int_Tables_number   1
_chemical_formula_structural   Sr6Nb7O21
_chemical_formula_sum   'Sr6 Nb7 O21'
_cell_volume   472.08406450
_cell_formula_units_Z   1
loop_
 _symmetry_equiv_pos_site_id
 _symmetry_equiv_pos_as_xyz
  1  'x, y, z'
loop_
 _atom_site_type_symbol
 _atom_site_label
 _atom_site_symmetry_multiplicity
 _atom_site_fract_x
 _atom_site_fract_y
 _atom_site_fract_z
 _atom_site_occupancy
  Sr  Sr0  1  0.14137473  0.00011484  0.99724632  1
  Sr  Sr1  1  0.28808289  0.99465014  0.00073562  1
  Sr  Sr2  1  0.42854889  0.00138247  0.99649720  1
  Sr  Sr3  1  0.57425111  0.99511812  -0.00010906  1
  Sr  Sr4  1  0.71894262  0.99125054  0.99236889  1
  Sr  Sr5  1  0.85709223  0.99763445  0.00450007  1
  Nb  Nb6  1  0.14171062  0.50155522  0.49882192  1
  Nb  Nb7  1  0.28141070  0.50537846  0.50803256  1
  Nb  Nb8  1  0.42390364  0.50394789  0.50692553  1
  Nb  Nb9  1  0.57509217  0.49378668  0.49793814  1
  Nb  Nb10  1  0.71685693  0.49442967  0.49670535  1
  Nb  Nb11  1  0.85713043  0.49751354  0.50611494  1
  Nb  Nb12  1  0.00002066  0.49926344  0.50022387  1
  O  O13  1  0.14727625  0.48378674  0.00176850  1
  O  O14  1  0.07339468  0.48473763  0.51589043  1
  O  O15  1  0.29597459  0.47790897  0.00325746  1
  O  O16  1  0.21355670  0.50044351  0.50142720  1
  O  O17  1  0.43062383  0.49344841  0.00298903  1
  O  O18  1  0.07162156  0.00106090  0.48979596  1
  O  O19  1  0.36492931  0.48709789  0.49108349  1
  O  O20  1  0.56988933  0.50164069  0.00215817  1
  O  O21  1  0.21780357  0.99882236  0.49442836  1
  O  O22  1  0.49754386  0.50320249  0.50312779  1
  O  O23  1  0.35447611  0.99875094  0.51338857  1
  O  O24  1  0.70315549  0.51954674  0.00227463  1
  O  O25  1  0.63486085  0.50873155  0.51441089  1
  O  O26  1  0.49822433  0.99964114  0.50385712  1
  O  O27  1  0.85088010  0.51714001  0.00210590  1
  O  O28  1  0.78202083  0.50665202  0.50214524  1
  O  O29  1  0.99711106  0.50482378  0.00227948  1
  O  O30  1  0.64311994  0.00103180  0.49759815  1
  O  O31  1  0.92518205  0.51515570  0.48826615  1
  O  O32  1  0.78073867  0.00007087  0.51025203  1
  O  O33  1  0.92850926  0.99946038  0.50881613  1
