# generated using pymatgen
data_Bi4Pb(ClO3)2
_symmetry_space_group_name_H-M   'P 1'
_cell_length_a   3.98335332
_cell_length_b   3.98335332
_cell_length_c   16.04099590
_cell_angle_alpha   97.13234523
_cell_angle_beta   97.13234523
_cell_angle_gamma   90.00000000
_symmetry_Int_Tables_number   1
_chemical_formula_structural   Bi4Pb(ClO3)2
_chemical_formula_sum   'Bi4 Pb1 Cl2 O6'
_cell_volume   250.56965064
_cell_formula_units_Z   1
loop_
 _symmetry_equiv_pos_site_id
 _symmetry_equiv_pos_as_xyz
  1  'x, y, z'
loop_
 _atom_site_type_symbol
 _atom_site_label
 _atom_site_symmetry_multiplicity
 _atom_site_fract_x
 _atom_site_fract_y
 _atom_site_fract_z
 _atom_site_occupancy
  Bi  Bi0  1  0.28902062  0.28902062  0.57804124  1
  Bi  Bi1  1  0.71097938  0.71097938  0.42195876  1
  Bi  Bi2  1  0.58552852  0.58552852  0.17105704  1
  Bi  Bi3  1  0.41447148  0.41447148  0.82894296  1
  Pb  Pb4  1  -0.00000000  -0.00000000  -0.00000000  1
  Cl  Cl5  1  0.83414218  0.83414218  0.66828435  1
  Cl  Cl6  1  0.16585782  0.16585782  0.33171565  1
  O  O7  1  0.75000000  0.25000000  0.50000000  1
  O  O8  1  0.25000000  0.75000000  0.50000000  1
  O  O9  1  0.05449498  0.55449498  0.10898997  1
  O  O10  1  0.55449498  0.05449498  0.10898997  1
  O  O11  1  0.94550502  0.44550502  0.89101003  1
  O  O12  1  0.44550502  0.94550502  0.89101003  1
