# generated using pymatgen
data_Ce9SmO20
_symmetry_space_group_name_H-M   'P 1'
_cell_length_a   7.73449130
_cell_length_b   19.38105234
_cell_length_c   10.25235908
_cell_angle_alpha   19.04862836
_cell_angle_beta   55.47484312
_cell_angle_gamma   59.91579111
_symmetry_Int_Tables_number   1
_chemical_formula_structural   Ce9SmO20
_chemical_formula_sum   'Ce9 Sm1 O20'
_cell_volume   409.83612396
_cell_formula_units_Z   1
loop_
 _symmetry_equiv_pos_site_id
 _symmetry_equiv_pos_as_xyz
  1  'x, y, z'
loop_
 _atom_site_type_symbol
 _atom_site_label
 _atom_site_symmetry_multiplicity
 _atom_site_fract_x
 _atom_site_fract_y
 _atom_site_fract_z
 _atom_site_occupancy
  Ce  Ce0  1  0.00017860  0.19958502  0.99972268  1
  Ce  Ce1  1  0.00000440  0.40033735  0.00017685  1
  Ce  Ce2  1  0.50000000  0.00000000  0.00000000  1
  Ce  Ce3  1  0.50115632  0.19976280  0.99940049  1
  Ce  Ce4  1  0.99999560  0.59966265  0.99982315  1
  Ce  Ce5  1  0.99982140  0.80041498  0.00027732  1
  Ce  Ce6  1  0.49866720  0.39847694  0.00352462  1
  Ce  Ce7  1  0.50133280  0.60152306  0.99647538  1
  Ce  Ce8  1  0.49884368  0.80023720  0.00059951  1
  Sm  Sm9  1  0.00000000  0.00000000  0.00000000  1
  O  O10  1  0.12605103  0.14985596  0.24936832  1
  O  O11  1  0.12864420  0.35705013  0.23437243  1
  O  O12  1  0.38312515  0.05108279  0.74440563  1
  O  O13  1  0.12588107  0.55057242  0.24890266  1
  O  O14  1  0.62455825  0.14936396  0.25102037  1
  O  O15  1  0.62405078  0.35115815  0.24832450  1
  O  O16  1  0.37552979  0.25169293  0.74667606  1
  O  O17  1  0.12765218  0.74484815  0.25498789  1
  O  O18  1  0.87245441  0.05079727  0.74496091  1
  O  O19  1  0.62386312  0.55071653  0.24925240  1
  O  O20  1  0.37613688  0.44928347  0.75074760  1
  O  O21  1  0.12754559  0.94920273  0.25503909  1
  O  O22  1  0.87234782  0.25515185  0.74501211  1
  O  O23  1  0.37594922  0.64884185  0.75167550  1
  O  O24  1  0.62447021  0.74830707  0.25332394  1
  O  O25  1  0.87411893  0.44942758  0.75109734  1
  O  O26  1  0.37544175  0.85063604  0.74897963  1
  O  O27  1  0.61687485  0.94891721  0.25559437  1
  O  O28  1  0.87135580  0.64294987  0.76562757  1
  O  O29  1  0.87394897  0.85014404  0.75063168  1
