# generated using pymatgen
data_HfPbO3
_symmetry_space_group_name_H-M   'P 1'
_cell_length_a   5.93143433
_cell_length_b   8.30396565
_cell_length_c   11.80414715
_cell_angle_alpha   90.00000000
_cell_angle_beta   90.00000000
_cell_angle_gamma   90.00000000
_symmetry_Int_Tables_number   1
_chemical_formula_structural   HfPbO3
_chemical_formula_sum   'Hf8 Pb8 O24'
_cell_volume   581.40650329
_cell_formula_units_Z   8
loop_
 _symmetry_equiv_pos_site_id
 _symmetry_equiv_pos_as_xyz
  1  'x, y, z'
loop_
 _atom_site_type_symbol
 _atom_site_label
 _atom_site_symmetry_multiplicity
 _atom_site_fract_x
 _atom_site_fract_y
 _atom_site_fract_z
 _atom_site_occupancy
  Hf  Hf0  1  0.25686924  0.74681541  0.62067725  1
  Hf  Hf1  1  0.24313076  0.74681541  0.12067725  1
  Hf  Hf2  1  0.74374543  0.24539031  0.37882406  1
  Hf  Hf3  1  0.24374543  0.24539031  0.12117594  1
  Hf  Hf4  1  0.75686924  0.74681541  0.87932275  1
  Hf  Hf5  1  0.25625457  0.24539031  0.62117594  1
  Hf  Hf6  1  0.75625457  0.24539031  0.87882406  1
  Hf  Hf7  1  0.74313076  0.74681541  0.37932275  1
  Pb  Pb8  1  0.20184024  0.00831512  0.36552682  1
  Pb  Pb9  1  0.20204600  0.50788464  0.36063919  1
  Pb  Pb10  1  0.29815976  0.00831512  0.86552682  1
  Pb  Pb11  1  0.79815976  0.00831512  0.63447318  1
  Pb  Pb12  1  0.70184024  0.00831512  0.13447318  1
  Pb  Pb13  1  0.29795400  0.50788464  0.86063919  1
  Pb  Pb14  1  0.70204600  0.50788464  0.13936081  1
  Pb  Pb15  1  0.79795400  0.50788464  0.63936081  1
  O  O16  1  0.00000000  0.22850055  0.00000000  1
  O  O17  1  0.22384282  0.99258473  0.64507752  1
  O  O18  1  0.21707467  0.49213637  0.62134657  1
  O  O19  1  0.96205247  0.24906097  0.73735605  1
  O  O20  1  0.00000000  0.21348156  0.50000000  1
  O  O21  1  0.78292533  0.49213637  0.37865343  1
  O  O22  1  0.53794753  0.24906097  0.23735605  1
  O  O23  1  0.52842244  0.72563367  0.24123810  1
  O  O24  1  0.50000000  0.21348156  0.00000000  1
  O  O25  1  0.72384282  0.99258473  0.85492248  1
  O  O26  1  0.71707467  0.49213637  0.87865343  1
  O  O27  1  0.02842244  0.72563367  0.25876190  1
  O  O28  1  0.50000000  0.22850055  0.50000000  1
  O  O29  1  0.00000000  0.75208911  0.50000000  1
  O  O30  1  0.46205247  0.24906097  0.76264395  1
  O  O31  1  0.50000000  0.75028632  0.50000000  1
  O  O32  1  0.03794753  0.24906097  0.26264395  1
  O  O33  1  0.47157756  0.72563367  0.75876190  1
  O  O34  1  0.77615718  0.99258473  0.35492248  1
  O  O35  1  0.28292533  0.49213637  0.12134657  1
  O  O36  1  0.27615718  0.99258473  0.14507752  1
  O  O37  1  0.00000000  0.75028632  0.00000000  1
  O  O38  1  0.97157756  0.72563367  0.74123810  1
  O  O39  1  0.50000000  0.75208911  0.00000000  1
