# generated using pymatgen
data_KInI4
_symmetry_space_group_name_H-M   'P 1'
_cell_length_a   14.47745701
_cell_length_b   14.47745713
_cell_length_c   15.11871828
_cell_angle_alpha   58.52362924
_cell_angle_beta   58.52362895
_cell_angle_gamma   59.51768513
_symmetry_Int_Tables_number   1
_chemical_formula_structural   KInI4
_chemical_formula_sum   'K6 In6 I24'
_cell_volume   2181.67473137
_cell_formula_units_Z   6
loop_
 _symmetry_equiv_pos_site_id
 _symmetry_equiv_pos_as_xyz
  1  'x, y, z'
loop_
 _atom_site_type_symbol
 _atom_site_label
 _atom_site_symmetry_multiplicity
 _atom_site_fract_x
 _atom_site_fract_y
 _atom_site_fract_z
 _atom_site_occupancy
  K  K0  1  0.00673856  0.00673856  0.99326144  1
  K  K1  1  0.32911671  0.32767972  0.97327240  1
  K  K2  1  0.32767972  0.32911671  0.36993117  1
  K  K3  1  0.50673856  0.50673856  0.49326144  1
  K  K4  1  0.82767972  0.82911671  0.47327240  1
  K  K5  1  0.82911671  0.82767972  0.86993117  1
  In  In6  1  0.24964421  0.75062732  0.25187877  1
  In  In7  1  0.24643072  0.24643072  0.75356928  1
  In  In8  1  0.74964421  0.25062732  0.24784970  1
  In  In9  1  0.25062732  0.74964421  0.75187877  1
  In  In10  1  0.74643072  0.74643072  0.25356928  1
  In  In11  1  0.75062732  0.24964421  0.74784970  1
  I  I12  1  0.06836024  0.69700912  0.29054538  1
  I  I13  1  0.06372929  0.28459040  0.93827040  1
  I  I14  1  0.28459040  0.06372929  0.71340991  1
  I  I15  1  0.21106581  0.44257707  0.57214641  1
  I  I16  1  0.28410820  0.93521012  0.06204219  1
  I  I17  1  0.43682067  0.56013469  0.21372977  1
  I  I18  1  0.20843982  0.78331733  0.43398322  1
  I  I19  1  0.06013469  0.93682067  0.71372977  1
  I  I20  1  0.56836024  0.19700912  0.44408526  1
  I  I21  1  0.70843982  0.28331733  0.07425963  1
  I  I22  1  0.19700912  0.56836024  0.79054538  1
  I  I23  1  0.44257707  0.21106581  0.77421070  1
  I  I24  1  0.56372929  0.78459040  0.21340991  1
  I  I25  1  0.43521012  0.78410820  0.56204219  1
  I  I26  1  0.93682067  0.06013469  0.28931487  1
  I  I27  1  0.28331733  0.70843982  0.93398322  1
  I  I28  1  0.78410820  0.43521012  0.21863949  1
  I  I29  1  0.56013469  0.43682067  0.78931487  1
  I  I30  1  0.78331733  0.20843982  0.57425963  1
  I  I31  1  0.69700912  0.06836024  0.94408526  1
  I  I32  1  0.78459040  0.56372929  0.43827040  1
  I  I33  1  0.94257707  0.71106581  0.07214641  1
  I  I34  1  0.71106581  0.94257707  0.27421070  1
  I  I35  1  0.93521012  0.28410820  0.71863949  1
