# generated using pymatgen
data_Rb2SeO4
_symmetry_space_group_name_H-M   'P 1'
_cell_length_a   6.40863014
_cell_length_b   6.64223676
_cell_length_c   8.36956087
_cell_angle_alpha   89.89659858
_cell_angle_beta   90.05358407
_cell_angle_gamma   121.21332267
_symmetry_Int_Tables_number   1
_chemical_formula_structural   Rb2SeO4
_chemical_formula_sum   'Rb4 Se2 O8'
_cell_volume   304.69929577
_cell_formula_units_Z   2
loop_
 _symmetry_equiv_pos_site_id
 _symmetry_equiv_pos_as_xyz
  1  'x, y, z'
loop_
 _atom_site_type_symbol
 _atom_site_label
 _atom_site_symmetry_multiplicity
 _atom_site_fract_x
 _atom_site_fract_y
 _atom_site_fract_z
 _atom_site_occupancy
  Rb  Rb0  1  0.00122462  0.01491306  0.50520967  1
  Rb  Rb1  1  0.99877538  0.01368844  0.00520967  1
  Rb  Rb2  1  0.35135207  0.70909860  0.75212783  1
  Rb  Rb3  1  0.64864793  0.35774553  0.25212783  1
  Se  Se4  1  0.32135786  0.65351429  0.25598404  1
  Se  Se5  1  0.67864214  0.33215543  0.75598404  1
  O  O6  1  0.18119282  0.80904650  0.26822552  1
  O  O7  1  0.10548964  0.36427677  0.24782516  1
  O  O8  1  0.49430383  0.72581048  0.09192446  1
  O  O9  1  0.49701588  0.69930966  0.41616232  1
  O  O10  1  0.50298412  0.20229278  0.91616232  1
  O  O11  1  0.50569617  0.23150564  0.59192446  1
  O  O12  1  0.81880818  0.62785369  0.76822552  1
  O  O13  1  0.89451136  0.25878813  0.74782516  1
