# generated using pymatgen
data_SiO2
_symmetry_space_group_name_H-M   'P 1'
_cell_length_a   7.46702492
_cell_length_b   9.67329265
_cell_length_c   16.41812111
_cell_angle_alpha   72.86692826
_cell_angle_beta   89.51135745
_cell_angle_gamma   88.34108322
_symmetry_Int_Tables_number   1
_chemical_formula_structural   SiO2
_chemical_formula_sum   'Si22 O44'
_cell_volume   1132.79148222
_cell_formula_units_Z   22
loop_
 _symmetry_equiv_pos_site_id
 _symmetry_equiv_pos_as_xyz
  1  'x, y, z'
loop_
 _atom_site_type_symbol
 _atom_site_label
 _atom_site_symmetry_multiplicity
 _atom_site_fract_x
 _atom_site_fract_y
 _atom_site_fract_z
 _atom_site_occupancy
  Si  Si0  1  0.36598254  0.92573603  0.90192925  1
  Si  Si1  1  1.00000000  0.08244885  0.83510231  1
  Si  Si2  1  0.83600374  0.95828332  0.69391833  1
  Si  Si3  1  0.52294668  0.46116411  0.75600318  1
  Si  Si4  1  0.71437486  0.23472518  0.54149680  1
  Si  Si5  1  0.28562514  0.22377803  0.54149680  1
  Si  Si6  1  0.71437486  0.77622197  0.45850320  1
  Si  Si7  1  0.47705332  0.78283271  0.75600318  1
  Si  Si8  1  0.18440132  0.49944651  0.39511229  1
  Si  Si9  1  0.81559868  0.50055349  0.60488771  1
  Si  Si10  1  0.81559868  0.10544120  0.39511229  1
  Si  Si11  1  0.36598254  0.82766528  0.09807075  1
  Si  Si12  1  0.83600374  0.65220165  0.30608167  1
  Si  Si13  1  0.63401746  0.07426397  0.09807075  1
  Si  Si14  1  0.52294668  0.21716729  0.24399682  1
  Si  Si15  1  0.63401746  0.17233472  0.90192925  1
  Si  Si16  1  0.16399626  0.34779835  0.69391833  1
  Si  Si17  1  0.18440132  0.89455880  0.60488771  1
  Si  Si18  1  0.16399626  0.04171668  0.30608167  1
  Si  Si19  1  0.47705332  0.53883589  0.24399682  1
  Si  Si20  1  0.00000000  0.91755115  0.16489769  1
  Si  Si21  1  0.28562514  0.76527482  0.45850320  1
  O  O22  1  0.50000000  0.39185186  0.21629627  1
  O  O23  1  0.50000000  0.93815547  0.12368907  1
  O  O24  1  0.91958430  0.76626917  0.22252911  1
  O  O25  1  0.77583766  0.39042582  0.54896365  1
  O  O26  1  0.15842119  0.98452954  0.89373271  1
  O  O27  1  0.33387610  0.83697619  0.67891200  1
  O  O28  1  0.08041570  0.23373083  0.77747089  1
  O  O29  1  0.50000000  0.60814814  0.78370373  1
  O  O30  1  0.66837769  0.57537731  0.27753396  1
  O  O31  1  0.18963651  0.79407618  0.54120674  1
  O  O32  1  0.18963651  0.33528291  0.45879326  1
  O  O33  1  0.84157881  0.12173775  0.89373271  1
  O  O34  1  0.59376017  0.33356676  0.83882058  1
  O  O35  1  0.98650427  0.88217571  0.64813736  1
  O  O36  1  0.15842119  0.87826225  0.10626729  1
  O  O37  1  0.08041570  0.01120172  0.22252911  1
  O  O38  1  0.01349573  0.46968693  0.64813736  1
  O  O39  1  0.33162231  0.14708872  0.27753396  1
  O  O40  1  0.98650427  0.53031307  0.35186264  1
  O  O41  1  0.50000000  0.06184453  0.87631093  1
  O  O42  1  0.76986126  0.74106300  0.37094493  1
  O  O43  1  0.91958430  0.98879828  0.77747089  1
  O  O44  1  0.22416234  0.60957418  0.45103635  1
  O  O45  1  0.23013874  0.25893700  0.62905507  1
  O  O46  1  0.50000000  0.23547953  0.52904093  1
  O  O47  1  0.66612390  0.48411181  0.67891200  1
  O  O48  1  0.59376017  0.17238733  0.16117942  1
  O  O49  1  0.81036349  0.20592382  0.45879326  1
  O  O50  1  0.77583766  0.93938946  0.45103635  1
  O  O51  1  0.50000000  0.76452047  0.47095907  1
  O  O52  1  0.59846616  0.17228927  0.00000000  1
  O  O53  1  0.22416234  0.06061054  0.54896365  1
  O  O54  1  0.33162231  0.42462269  0.72246604  1
  O  O55  1  0.66837769  0.85291128  0.72246604  1
  O  O56  1  0.76986126  0.11200793  0.62905507  1
  O  O57  1  0.81036349  0.66471709  0.54120674  1
  O  O58  1  0.01349573  0.11782429  0.35186264  1
  O  O59  1  0.66612390  0.16302381  0.32108800  1
  O  O60  1  0.33387610  0.51588819  0.32108800  1
  O  O61  1  0.40623983  0.66643324  0.16117942  1
  O  O62  1  0.40153384  0.82771073  1.00000000  1
  O  O63  1  0.40623983  0.82761267  0.83882058  1
  O  O64  1  0.23013874  0.88799207  0.37094493  1
  O  O65  1  0.84157881  0.01547046  0.10626729  1
