# generated using pymatgen
data_Ba16Tb8Nb5(SnO16)3
_symmetry_space_group_name_H-M   'P 1'
_cell_length_a   6.08105182
_cell_length_b   6.08102641
_cell_length_c   48.75567314
_cell_angle_alpha   119.93230196
_cell_angle_beta   119.93231503
_cell_angle_gamma   89.99643833
_symmetry_Int_Tables_number   1
_chemical_formula_structural   Ba16Tb8Nb5(SnO16)3
_chemical_formula_sum   'Ba16 Tb8 Nb5 Sn3 O48'
_cell_volume   1277.51328130
_cell_formula_units_Z   1
loop_
 _symmetry_equiv_pos_site_id
 _symmetry_equiv_pos_as_xyz
  1  'x, y, z'
loop_
 _atom_site_type_symbol
 _atom_site_label
 _atom_site_symmetry_multiplicity
 _atom_site_fract_x
 _atom_site_fract_y
 _atom_site_fract_z
 _atom_site_occupancy
  Tb  Tb0  1  0.99612871  0.99612394  0.87402990  1
  Tb  Tb1  1  -0.00020153  -0.00020299  0.74995054  1
  Tb  Tb2  1  0.99808339  0.99808649  0.62452190  1
  Tb  Tb3  1  0.00031055  0.00031065  0.50007570  1
  Tb  Tb4  1  0.00186315  0.00186253  0.37546732  1
  Tb  Tb5  1  0.00327827  0.00327800  0.25082283  1
  Tb  Tb6  1  0.49620959  0.49620898  0.12405267  1
  Tb  Tb7  1  0.50159128  0.50159438  0.00040029  1
  Ba  Ba8  1  0.25057044  0.75056225  0.93764017  1
  Ba  Ba9  1  0.24980409  0.74979640  0.81244938  1
  Ba  Ba10  1  0.75056866  0.25057566  0.93764071  1
  Ba  Ba11  1  0.24828832  0.74828743  0.68707518  1
  Ba  Ba12  1  0.74979489  0.24979988  0.81244898  1
  Ba  Ba13  1  0.24557414  0.74555965  0.56139840  1
  Ba  Ba14  1  0.74828276  0.24828351  0.68707473  1
  Ba  Ba15  1  0.25391365  0.75391784  0.43847290  1
  Ba  Ba16  1  0.74556788  0.24558356  0.56139995  1
  Ba  Ba17  1  0.25040937  0.75040742  0.31260647  1
  Ba  Ba18  1  0.75393041  0.25392448  0.43847557  1
  Ba  Ba19  1  0.25280493  0.75280753  0.18819832  1
  Ba  Ba20  1  0.75040456  0.25040866  0.31260639  1
  Ba  Ba21  1  0.24831274  0.74831615  0.06208479  1
  Ba  Ba22  1  0.75280751  0.25280716  0.18819824  1
  Ba  Ba23  1  0.74832484  0.24831677  0.06208523  1
  Nb  Nb24  1  0.50141051  0.50140997  0.87534866  1
  Nb  Nb25  1  0.49803887  0.49803732  0.74951050  1
  Nb  Nb26  1  0.49934752  0.49934783  0.62483936  1
  Nb  Nb27  1  0.50174434  0.50174489  0.37543759  1
  Nb  Nb28  1  0.00261107  0.00260650  0.12565290  1
  Sn  Sn29  1  0.50035118  0.50035126  0.50008226  1
  Sn  Sn30  1  0.49973493  0.49974464  0.24993371  1
  Sn  Sn31  1  0.99813734  0.99813503  0.99952429  1
  O  O32  1  0.24749557  0.24750424  0.93687964  1
  O  O33  1  0.25373815  0.72341207  0.87430523  1
  O  O34  1  0.27103705  0.25377515  0.87431233  1
  O  O35  1  0.26468915  0.26469254  0.81617060  1
  O  O36  1  0.74159019  0.74158033  0.93539233  1
  O  O37  1  0.72339875  0.74068839  0.87430008  1
  O  O38  1  0.25573504  0.72743626  0.75008289  1
  O  O39  1  0.74071123  0.27101994  0.87430581  1
  O  O40  1  0.27323869  0.25575143  0.75008465  1
  O  O41  1  0.26336944  0.26337323  0.69084128  1
  O  O42  1  0.73259991  0.73259521  0.80815223  1
  O  O43  1  0.72740868  0.74488486  0.75007647  1
  O  O44  1  0.25881892  0.72952672  0.62572652  1
  O  O45  1  0.74491302  0.27320668  0.75007860  1
  O  O46  1  0.27630122  0.25883151  0.62572844  1
  O  O47  1  0.26612105  0.26613181  0.56653029  1
  O  O48  1  0.73817389  0.73817117  0.68454450  1
  O  O49  1  0.72949044  0.74692930  0.62571640  1
  O  O50  1  0.25059309  0.73308802  0.50011655  1
  O  O51  1  0.74697248  0.27628844  0.62572476  1
  O  O52  1  0.26779807  0.25057457  0.50010562  1
  O  O53  1  0.25788525  0.25789005  0.43947701  1
  O  O54  1  0.74320338  0.74319711  0.56079521  1
  O  O55  1  0.73309908  0.75033390  0.50011413  1
  O  O56  1  0.25579877  0.72662667  0.37495157  1
  O  O57  1  0.75031486  0.26781859  0.50011076  1
  O  O58  1  0.27302678  0.25586289  0.37496260  1
  O  O59  1  0.26804925  0.26805537  0.31700736  1
  O  O60  1  0.73621478  0.73620653  0.43405458  1
  O  O61  1  0.72660980  0.74378272  0.37494892  1
  O  O62  1  0.25157225  0.73058233  0.24984595  1
  O  O63  1  0.74380979  0.27297714  0.37495126  1
  O  O64  1  0.26814619  0.25157243  0.24984146  1
  O  O65  1  0.24224989  0.24225140  0.18556478  1
  O  O66  1  0.74221172  0.74220236  0.31054570  1
  O  O67  1  0.73058964  0.74715832  0.24984366  1
  O  O68  1  0.22810991  0.75784036  0.12538019  1
  O  O69  1  0.74711677  0.26810694  0.24983320  1
  O  O70  1  0.24516936  0.22810648  0.12537706  1
  O  O71  1  0.23837337  0.23838202  0.05958894  1
  O  O72  1  0.75038356  0.75038350  0.18760011  1
  O  O73  1  0.75787940  0.77495629  0.12538921  1
  O  O74  1  0.23003345  0.74929120  0.99950284  1
  O  O75  1  0.77494817  0.24520578  0.12538422  1
  O  O76  1  0.24672287  0.23004372  0.99949549  1
  O  O77  1  0.77105910  0.77105973  0.06776311  1
  O  O78  1  0.74928708  0.76595998  0.99949534  1
  O  O79  1  0.76594310  0.24669052  0.99949432  1
