# generated using pymatgen
data_Ba2Y(CuO2)4
_symmetry_space_group_name_H-M   'P 1'
_cell_length_a   3.88992193
_cell_length_b   3.89960405
_cell_length_c   13.88942657
_cell_angle_alpha   98.06985389
_cell_angle_beta   90.00000000
_cell_angle_gamma   90.00000000
_symmetry_Int_Tables_number   1
_chemical_formula_structural   Ba2Y(CuO2)4
_chemical_formula_sum   'Ba2 Y1 Cu4 O8'
_cell_volume   208.60453528
_cell_formula_units_Z   1
loop_
 _symmetry_equiv_pos_site_id
 _symmetry_equiv_pos_as_xyz
  1  'x, y, z'
loop_
 _atom_site_type_symbol
 _atom_site_label
 _atom_site_symmetry_multiplicity
 _atom_site_fract_x
 _atom_site_fract_y
 _atom_site_fract_z
 _atom_site_occupancy
  O  O0  1  0.00000000  0.85459113  0.70918225  1
  O  O1  1  0.00000000  0.14540887  0.29081775  1
  O  O2  1  0.00000000  0.44790562  0.89581124  1
  O  O3  1  0.00000000  0.55209438  0.10418876  1
  O  O4  1  0.50000000  0.94772193  0.89544386  1
  O  O5  1  0.50000000  0.05227807  0.10455614  1
  O  O6  1  0.00000000  0.28151860  0.56303721  1
  O  O7  1  0.00000000  0.71848140  0.43696279  1
  Cu  Cu8  1  0.00000000  0.93844972  0.87689944  1
  Cu  Cu9  1  0.00000000  0.06155028  0.12310056  1
  Cu  Cu10  1  0.00000000  0.78734834  0.57469668  1
  Cu  Cu11  1  0.00000000  0.21265166  0.42530332  1
  Y  Y12  1  0.50000000  0.50000000  0.00000000  1
  Ba  Ba13  1  0.50000000  0.63572956  0.27145912  1
  Ba  Ba14  1  0.50000000  0.36427044  0.72854088  1
