# generated using pymatgen
data_Ag7P3S11
_symmetry_space_group_name_H-M   'P 1'
_cell_length_a   6.44069883
_cell_length_b   12.64333003
_cell_length_c   23.71605812
_cell_angle_alpha   80.03909295
_cell_angle_beta   82.19582788
_cell_angle_gamma   75.24375247
_symmetry_Int_Tables_number   1
_chemical_formula_structural   Ag7P3S11
_chemical_formula_sum   'Ag28 P12 S44'
_cell_volume   1830.84528996
_cell_formula_units_Z   4
loop_
 _symmetry_equiv_pos_site_id
 _symmetry_equiv_pos_as_xyz
  1  'x, y, z'
loop_
 _atom_site_type_symbol
 _atom_site_label
 _atom_site_symmetry_multiplicity
 _atom_site_fract_x
 _atom_site_fract_y
 _atom_site_fract_z
 _atom_site_occupancy
  Ag  Ag0  1  0.83191911  0.64101190  0.31337269  1
  Ag  Ag1  1  0.82052641  0.68064806  0.09943721  1
  Ag  Ag2  1  0.78630370  0.85898810  0.18662731  1
  Ag  Ag3  1  0.81790088  0.54819833  0.93281651  1
  Ag  Ag4  1  0.70108428  0.04819833  0.43281651  1
  Ag  Ag5  1  0.17415207  0.86266141  0.31812730  1
  Ag  Ag6  1  0.26736218  0.92389145  0.89372463  1
  Ag  Ag7  1  0.64505922  0.36266141  0.81812730  1
  Ag  Ag8  1  0.55047733  0.65615983  0.68572445  1
  Ag  Ag9  1  0.18209912  0.45180167  0.06718349  1
  Ag  Ag10  1  0.21369630  0.14101190  0.81337269  1
  Ag  Ag11  1  0.91502174  0.42389145  0.39372463  1
  Ag  Ag12  1  0.17947359  0.31935194  0.90056279  1
  Ag  Ag13  1  0.44952267  0.34384017  0.31427555  1
  Ag  Ag14  1  0.35494078  0.63733859  0.18187270  1
  Ag  Ag15  1  0.16808089  0.35898810  0.68662731  1
  Ag  Ag16  1  0.44142208  0.65246409  0.85487410  1
  Ag  Ag17  1  0.10763839  0.15615983  0.18572445  1
  Ag  Ag18  1  0.29891572  0.95180167  0.56718349  1
  Ag  Ag19  1  0.55857792  0.34753591  0.14512590  1
  Ag  Ag20  1  0.60061167  0.81935194  0.40056279  1
  Ag  Ag21  1  0.08497826  0.57610855  0.60627537  1
  Ag  Ag22  1  0.39938833  0.18064806  0.59943721  1
  Ag  Ag23  1  0.89236161  0.84384017  0.81427555  1
  Ag  Ag24  1  0.73263782  0.07610855  0.10627537  1
  Ag  Ag25  1  0.82584793  0.13733859  0.68187270  1
  Ag  Ag26  1  0.05123972  0.15246409  0.35487410  1
  Ag  Ag27  1  0.94876028  0.84753591  0.64512590  1
  P  P28  1  0.31039179  0.58494111  0.39431629  1
  P  P29  1  0.37313830  0.94452887  0.72104073  1
  P  P30  1  0.67199014  0.30139672  0.98204504  1
  P  P31  1  0.28964919  0.91505889  0.10568371  1
  P  P32  1  0.71035081  0.08494111  0.89431629  1
  P  P33  1  0.04456810  0.80139672  0.48204504  1
  P  P34  1  0.32800986  0.69860328  0.01795496  1
  P  P35  1  0.03870790  0.55547113  0.77895927  1
  P  P36  1  0.68960821  0.41505889  0.60568371  1
  P  P37  1  0.62686170  0.05547113  0.27895927  1
  P  P38  1  0.96129210  0.44452887  0.22104073  1
  P  P39  1  0.95543190  0.19860328  0.51795496  1
  S  S40  1  0.14788851  0.63778305  0.70357530  1
  S  S41  1  0.48924686  0.86221695  0.79642470  1
  S  S42  1  0.05923403  0.63323317  0.84794433  1
  S  S43  1  0.07138859  0.63704528  0.46222691  1
  S  S44  1  0.94076597  0.36676683  0.15205567  1
  S  S45  1  0.80465110  0.16278273  0.81550134  1
  S  S46  1  0.48313448  0.26977487  0.05783833  1
  S  S47  1  0.21706483  0.66278273  0.31550134  1
  S  S48  1  0.71507143  0.85847471  0.49249426  1
  S  S49  1  0.86772424  0.92314587  0.90913444  1
  S  S50  1  0.49208885  0.40483644  0.92309052  1
  S  S51  1  0.51075314  0.13778305  0.20357530  1
  S  S52  1  0.78293517  0.33721727  0.68449866  1
  S  S53  1  0.70000455  0.57685413  0.59086556  1
  S  S54  1  0.17066077  0.86295472  0.03777309  1
  S  S55  1  0.93395960  0.35847471  0.99249426  1
  S  S56  1  0.62023155  0.89665624  0.09054228  1
  S  S57  1  0.39256993  0.39665624  0.59054228  1
  S  S58  1  0.81074768  0.23022513  0.44216167  1
  S  S59  1  0.51686552  0.73022513  0.94216167  1
  S  S60  1  0.18925232  0.76977487  0.55783833  1
  S  S61  1  0.28596057  0.44581615  0.22114947  1
  S  S62  1  0.29999545  0.42314587  0.40913444  1
  S  S63  1  0.92861141  0.36295472  0.53777309  1
  S  S64  1  0.77665089  0.60646868  0.21031627  1
  S  S65  1  0.28492857  0.14152529  0.50750574  1
  S  S66  1  0.54041153  0.86676683  0.65205567  1
  S  S67  1  0.71403943  0.55418385  0.77885053  1
  S  S68  1  0.13227576  0.07685413  0.09086556  1
  S  S69  1  0.22334911  0.39353132  0.78968373  1
  S  S70  1  0.85211149  0.36221695  0.29642470  1
  S  S71  1  0.04707381  0.94581615  0.72114947  1
  S  S72  1  0.50791115  0.59516356  0.07690948  1
  S  S73  1  0.06604040  0.64152529  0.00750574  1
  S  S74  1  0.40656416  0.10646868  0.71031627  1
  S  S75  1  0.60743007  0.60334376  0.40945772  1
  S  S76  1  0.95292619  0.05418385  0.27885053  1
  S  S77  1  0.82933923  0.13704528  0.96222691  1
  S  S78  1  0.45958847  0.13323317  0.34794433  1
  S  S79  1  0.17998419  0.90483644  0.42309052  1
  S  S80  1  0.82001581  0.09516356  0.57690948  1
  S  S81  1  0.59343584  0.89353132  0.28968373  1
  S  S82  1  0.37976845  0.10334376  0.90945772  1
  S  S83  1  0.19534890  0.83721727  0.18449866  1
