# generated using pymatgen
data_Ba3Y2Cu2PtO10
_symmetry_space_group_name_H-M   'P 1'
_cell_length_a   5.87679520
_cell_length_b   6.95376391
_cell_length_c   7.53128675
_cell_angle_alpha   104.04591609
_cell_angle_beta   90.00000000
_cell_angle_gamma   114.99645429
_symmetry_Int_Tables_number   1
_chemical_formula_structural   Ba3Y2Cu2PtO10
_chemical_formula_sum   'Ba3 Y2 Cu2 Pt1 O10'
_cell_volume   268.75743432
_cell_formula_units_Z   1
loop_
 _symmetry_equiv_pos_site_id
 _symmetry_equiv_pos_as_xyz
  1  'x, y, z'
loop_
 _atom_site_type_symbol
 _atom_site_label
 _atom_site_symmetry_multiplicity
 _atom_site_fract_x
 _atom_site_fract_y
 _atom_site_fract_z
 _atom_site_occupancy
  O  O0  1  0.66747751  0.33495502  0.55208532  1
  O  O1  1  0.33252249  0.66504498  0.44791468  1
  O  O2  1  0.54588604  0.63439813  0.87529110  1
  O  O3  1  0.91148791  0.36560187  0.12470890  1
  O  O4  1  0.45411396  0.36560187  0.12470890  1
  O  O5  1  0.08851209  0.63439813  0.87529110  1
  O  O6  1  0.70355745  0.96600027  0.28236316  1
  O  O7  1  0.73755717  0.03399973  0.71763684  1
  O  O8  1  0.26244283  0.96600027  0.28236316  1
  O  O9  1  0.29644255  0.03399973  0.71763684  1
  Cu  Cu10  1  0.58942743  0.17885487  0.19988253  1
  Cu  Cu11  1  0.41057257  0.82114513  0.80011747  1
  Y  Y12  1  0.68874476  0.37748952  0.87372991  1
  Y  Y13  1  0.31125524  0.62251048  0.12627009  1
  Ba  Ba14  1  0.84678104  0.69356209  0.45955815  1
  Ba  Ba15  1  0.00000000  0.00000000  0.00000000  1
  Ba  Ba16  1  0.15321896  0.30643791  0.54044185  1
  Pt  Pt17  1  0.50000000  0.00000000  0.50000000  1
