# generated using pymatgen
data_Ga2(Hg4Te5)3
_symmetry_space_group_name_H-M   'P 1'
_cell_length_a   13.96813034
_cell_length_b   8.06384833
_cell_length_c   23.11013457
_cell_angle_alpha   54.42383337
_cell_angle_beta   59.74831304
_cell_angle_gamma   30.00806555
_symmetry_Int_Tables_number   1
_chemical_formula_structural   Ga2(Hg4Te5)3
_chemical_formula_sum   'Ga2 Hg12 Te15'
_cell_volume   1058.84557850
_cell_formula_units_Z   1
loop_
 _symmetry_equiv_pos_site_id
 _symmetry_equiv_pos_as_xyz
  1  'x, y, z'
loop_
 _atom_site_type_symbol
 _atom_site_label
 _atom_site_symmetry_multiplicity
 _atom_site_fract_x
 _atom_site_fract_y
 _atom_site_fract_z
 _atom_site_occupancy
  Ga  Ga0  1  0.33325425  0.00276117  0.79845102  1
  Ga  Ga1  1  0.66674575  0.00252493  0.79845102  1
  Hg  Hg2  1  0.00000000  0.02243774  0.99148024  1
  Hg  Hg3  1  1.00000000  0.00603920  0.19693026  1
  Hg  Hg4  1  0.34211384  0.99659807  0.99151216  1
  Hg  Hg5  1  1.00000000  0.99024585  0.40362964  1
  Hg  Hg6  1  0.33222632  0.00557488  0.19727642  1
  Hg  Hg7  1  1.00000000  0.01077664  0.60909375  1
  Hg  Hg8  1  0.65788616  0.02294060  0.99151216  1
  Hg  Hg9  1  0.32975672  0.00254136  0.40278058  1
  Hg  Hg10  1  0.66777368  0.00225484  0.19727642  1
  Hg  Hg11  1  0.30769525  0.01039509  0.60916093  1
  Hg  Hg12  1  0.67024328  0.99181251  0.40278058  1
  Hg  Hg13  1  0.69230475  0.93348185  0.60916093  1
  Te  Te14  1  0.00000000  0.26661932  0.04372969  1
  Te  Te15  1  0.00000000  0.24911480  0.25043421  1
  Te  Te16  1  0.32706878  0.26618681  0.04402121  1
  Te  Te17  1  1.00000000  0.23825203  0.45605199  1
  Te  Te18  1  0.33326544  0.25155465  0.24915932  1
  Te  Te19  1  1.00000000  0.20487688  0.67722174  1
  Te  Te20  1  0.67293122  0.24739416  0.04402121  1
  Te  Te21  1  0.33556298  0.23738518  0.45607977  1
  Te  Te22  1  1.00000000  0.29079571  0.83766130  1
  Te  Te23  1  0.66673456  0.25135197  0.24915932  1
  Te  Te24  1  0.33327271  0.24063973  0.65573818  1
  Te  Te25  1  0.66443702  0.24407513  0.45607977  1
  Te  Te26  1  0.35372543  0.22986636  0.83770400  1
  Te  Te27  1  0.66672729  0.24045888  0.65573818  1
  Te  Te28  1  0.64627457  0.29104364  0.83770400  1
