# generated using pymatgen
data_Pr4(FeB2)3
_symmetry_space_group_name_H-M   'P 1'
_cell_length_a   5.42283193
_cell_length_b   5.42283193
_cell_length_c   8.25028473
_cell_angle_alpha   70.81343677
_cell_angle_beta   70.81343677
_cell_angle_gamma   60.00000475
_symmetry_Int_Tables_number   1
_chemical_formula_structural   Pr4(FeB2)3
_chemical_formula_sum   'Pr4 Fe3 B6'
_cell_volume   194.39548469
_cell_formula_units_Z   1
loop_
 _symmetry_equiv_pos_site_id
 _symmetry_equiv_pos_as_xyz
  1  'x, y, z'
loop_
 _atom_site_type_symbol
 _atom_site_label
 _atom_site_symmetry_multiplicity
 _atom_site_fract_x
 _atom_site_fract_y
 _atom_site_fract_z
 _atom_site_occupancy
  Pr  Pr0  1  0.25705264  0.25705264  0.22884208  1
  Pr  Pr1  1  0.74294736  0.74294736  0.77115792  1
  Pr  Pr2  1  0.41066146  0.41066146  0.76801561  1
  Pr  Pr3  1  0.58933854  0.58933854  0.23198439  1
  Fe  Fe4  1  -0.00000000  -0.00000000  0.00000000  1
  Fe  Fe5  1  0.11717468  0.11717468  0.64847597  1
  Fe  Fe6  1  0.88282532  0.88282532  0.35152403  1
  B  B7  1  0.16657237  0.83342763  0.50000000  1
  B  B8  1  0.83342763  0.50000000  0.50000000  1
  B  B9  1  0.50000000  0.16657237  0.50000000  1
  B  B10  1  0.16657237  0.50000000  0.50000000  1
  B  B11  1  0.50000000  0.83342763  0.50000000  1
  B  B12  1  0.83342763  0.16657237  0.50000000  1
