# generated using pymatgen
data_Li4Nd3SbTeO12
_symmetry_space_group_name_H-M   'P 1'
_cell_length_a   11.04911061
_cell_length_b   11.08887451
_cell_length_c   11.09076684
_cell_angle_alpha   108.95576347
_cell_angle_beta   109.37960349
_cell_angle_gamma   109.50213622
_symmetry_Int_Tables_number   1
_chemical_formula_structural   Li4Nd3SbTeO12
_chemical_formula_sum   'Li16 Nd12 Sb4 Te4 O48'
_cell_volume   1053.40747531
_cell_formula_units_Z   4
loop_
 _symmetry_equiv_pos_site_id
 _symmetry_equiv_pos_as_xyz
  1  'x, y, z'
loop_
 _atom_site_type_symbol
 _atom_site_label
 _atom_site_symmetry_multiplicity
 _atom_site_fract_x
 _atom_site_fract_y
 _atom_site_fract_z
 _atom_site_occupancy
  Li  Li0  1  0.12994843  0.75553778  0.88100322  1
  Li  Li1  1  0.12748256  0.87188100  0.24817892  1
  Li  Li2  1  0.24822089  0.12684574  0.87281051  1
  Li  Li3  1  0.28033917  0.64282306  0.39175580  1
  Li  Li4  1  0.36558187  0.64360065  0.75283875  1
  Li  Li5  1  0.40662854  0.45112963  0.69832358  1
  Li  Li6  1  0.36849639  0.22085626  0.61182786  1
  Li  Li7  1  0.60789619  0.72378206  0.35428105  1
  Li  Li8  1  0.75143103  0.87484150  0.12905605  1
  Li  Li9  1  0.62781511  0.37441000  0.25099885  1
  Li  Li10  1  0.74707985  0.37571174  0.62159932  1
  Li  Li11  1  0.89391179  0.14062211  0.75366359  1
  Li  Li12  1  0.74361584  0.94637172  0.54362480  1
  Li  Li13  1  0.83886763  0.21025263  0.13352751  1
  Li  Li14  1  0.05009915  0.44914252  0.25054132  1
  Li  Li15  1  0.89807549  0.20461710  0.95864639  1
  Nd  Nd16  1  0.25975848  0.88157564  0.63012154  1
  Nd  Nd17  1  0.12992872  0.37840116  0.75542865  1
  Nd  Nd18  1  0.13075836  0.25023709  0.37661028  1
  Nd  Nd19  1  0.61826283  0.87272223  0.74907193  1
  Nd  Nd20  1  0.26808873  0.38128192  0.13142832  1
  Nd  Nd21  1  0.38610930  0.76145488  0.12795566  1
  Nd  Nd22  1  0.61768883  0.25169735  0.87871218  1
  Nd  Nd23  1  0.38025139  0.12261341  0.24761311  1
  Nd  Nd24  1  0.75379036  0.62852448  0.87709544  1
  Nd  Nd25  1  0.87525064  0.74630452  0.62641210  1
  Nd  Nd26  1  0.74198447  0.12606252  0.36767760  1
  Nd  Nd27  1  0.86472882  0.63458995  0.25161883  1
  Sb  Sb28  1  0.50291104  0.00015597  0.49867798  1
  Sb  Sb29  1  0.50363686  0.50512158  0.50234899  1
  Sb  Sb30  1  0.49907223  0.49688121  0.99528148  1
  Sb  Sb31  1  0.49682678  0.00109679  0.99656244  1
  Te  Te32  1  0.00341739  0.00395694  0.00522204  1
  Te  Te33  1  0.00404032  0.00526027  0.50194596  1
  Te  Te34  1  0.00479457  0.50676846  0.50583405  1
  Te  Te35  1  0.00160792  0.50081212  0.00131425  1
  O  O36  1  0.09276966  0.97690219  0.66752601  1
  O  O37  1  0.02531175  0.33008842  0.90976012  1
  O  O38  1  0.12526173  0.59704817  0.93422618  1
  O  O39  1  0.07925977  0.69310128  0.67365635  1
  O  O40  1  0.07276989  0.88674940  0.40340032  1
  O  O41  1  0.09818832  0.61779469  0.42358938  1
  O  O42  1  0.17289120  0.47895141  0.59728877  1
  O  O43  1  0.41494653  0.83239954  0.79785859  1
  O  O44  1  0.30015186  0.32707135  0.91830853  1
  O  O45  1  0.37916334  0.56554005  0.88364811  1
  O  O46  1  0.17461224  0.19764913  0.58134465  1
  O  O47  1  0.01562945  0.19489908  0.12022691  1
  O  O48  1  0.32971188  0.91850614  0.30066664  1
  O  O49  1  0.17850649  0.56003569  0.17638547  1
  O  O50  1  0.41411821  0.83235593  0.53266425  1
  O  O51  1  0.30102880  0.47486439  0.37854610  1
  O  O52  1  0.32814203  0.91121792  0.02931183  1
  O  O53  1  0.12070193  0.02813760  0.19694919  1
  O  O54  1  0.40554827  0.08364142  0.88065874  1
  O  O55  1  0.52475217  0.62211586  0.70157801  1
  O  O56  1  0.52524967  0.40599090  0.82089854  1
  O  O57  1  0.38206180  0.31957159  0.49888951  1
  O  O58  1  0.19333799  0.12284623  0.02711922  1
  O  O59  1  0.58456430  0.90568203  0.37689221  1
  O  O60  1  0.43181271  0.09125094  0.62778540  1
  O  O61  1  0.81378428  0.88522467  0.98332452  1
  O  O62  1  0.62588231  0.70629250  0.52763100  1
  O  O63  1  0.46580132  0.58996409  0.16141709  1
  O  O64  1  0.47618064  0.37906454  0.30728635  1
  O  O65  1  0.59396056  0.92212058  0.11657632  1
  O  O66  1  0.88860362  0.00210697  0.82557329  1
  O  O67  1  0.66877681  0.08728140  0.96027681  1
  O  O68  1  0.70396960  0.53490777  0.62624407  1
  O  O69  1  0.59235514  0.17208272  0.46949226  1
  O  O70  1  0.81391783  0.42825201  0.83334627  1
  O  O71  1  0.68777159  0.06497807  0.67989620  1
  O  O72  1  0.98111312  0.81599578  0.88360579  1
  O  O73  1  0.82645977  0.81911032  0.43181305  1
  O  O74  1  0.69846382  0.67176684  0.07796353  1
  O  O75  1  0.62383494  0.42221185  0.09250421  1
  O  O76  1  0.58601120  0.17427416  0.19647875  1
  O  O77  1  0.83614530  0.53356227  0.41149111  1
  O  O78  1  0.90537753  0.38198432  0.57024559  1
  O  O79  1  0.92323467  0.11574095  0.59433339  1
  O  O80  1  0.93997987  0.32560493  0.33154501  1
  O  O81  1  0.88419192  0.38321140  0.06563066  1
  O  O82  1  0.97420192  0.66281227  0.09909554  1
  O  O83  1  0.91059224  0.03279427  0.33623986  1
