# generated using pymatgen
data_Ba2CaTl2(CuO4)2
_symmetry_space_group_name_H-M   'P 1'
_cell_length_a   3.88878821
_cell_length_b   3.88878863
_cell_length_c   15.44888419
_cell_angle_alpha   97.23041545
_cell_angle_beta   97.23041625
_cell_angle_gamma   89.99999999
_symmetry_Int_Tables_number   1
_chemical_formula_structural   Ba2CaTl2(CuO4)2
_chemical_formula_sum   'Ba2 Ca1 Tl2 Cu2 O8'
_cell_volume   229.89783395
_cell_formula_units_Z   1
loop_
 _symmetry_equiv_pos_site_id
 _symmetry_equiv_pos_as_xyz
  1  'x, y, z'
loop_
 _atom_site_type_symbol
 _atom_site_label
 _atom_site_symmetry_multiplicity
 _atom_site_fract_x
 _atom_site_fract_y
 _atom_site_fract_z
 _atom_site_occupancy
  Ba  Ba0  1  0.11721212  0.11721212  0.23442424  1
  Ba  Ba1  1  0.88278788  0.88278788  0.76557576  1
  Ca  Ca2  1  0.00000000  0.00000000  0.00000000  1
  Tl  Tl3  1  0.28771592  0.28771592  0.57543184  1
  Tl  Tl4  1  0.71228408  0.71228408  0.42456816  1
  Cu  Cu5  1  0.55060072  0.55060072  0.10120143  1
  Cu  Cu6  1  0.44939928  0.44939928  0.89879857  1
  O  O7  1  0.78072475  0.78072475  0.56144950  1
  O  O8  1  0.94785475  0.44785475  0.89570951  1
  O  O9  1  0.55214525  0.05214525  0.10429049  1
  O  O10  1  0.64556154  0.64556154  0.29112309  1
  O  O11  1  0.05214525  0.55214525  0.10429049  1
  O  O12  1  0.44785475  0.94785475  0.89570951  1
  O  O13  1  0.35443846  0.35443846  0.70887691  1
  O  O14  1  0.21927525  0.21927525  0.43855050  1
