# generated using pymatgen
data_K2Ba6Yb3Bi5O24
_symmetry_space_group_name_H-M   'P 1'
_cell_length_a   8.69842647
_cell_length_b   17.95981010
_cell_length_c   6.18031035
_cell_angle_alpha   46.51949238
_cell_angle_beta   90.01209369
_cell_angle_gamma   76.00458686
_symmetry_Int_Tables_number   1
_chemical_formula_structural   K2Ba6Yb3Bi5O24
_chemical_formula_sum   'K2 Ba6 Yb3 Bi5 O24'
_cell_volume   660.46815874
_cell_formula_units_Z   1
loop_
 _symmetry_equiv_pos_site_id
 _symmetry_equiv_pos_as_xyz
  1  'x, y, z'
loop_
 _atom_site_type_symbol
 _atom_site_label
 _atom_site_symmetry_multiplicity
 _atom_site_fract_x
 _atom_site_fract_y
 _atom_site_fract_z
 _atom_site_occupancy
  Yb  Yb0  1  0.62452609  0.25039005  0.49902607  1
  Yb  Yb1  1  0.25250037  0.99476799  0.51128591  1
  Yb  Yb2  1  0.99600881  0.50625003  0.48737636  1
  K  K3  1  0.12641648  0.74988851  0.99768622  1
  K  K4  1  0.62605376  0.75170156  0.99597023  1
  Ba  Ba5  1  0.00147542  0.99952078  0.00266714  1
  Ba  Ba6  1  0.49695780  0.00130408  0.99602056  1
  Ba  Ba7  1  0.37384640  0.24948594  0.00289184  1
  Ba  Ba8  1  0.24738033  0.49878012  0.00216956  1
  Ba  Ba9  1  0.87631299  0.25009719  0.00232404  1
  Ba  Ba10  1  0.75055652  0.50060801  0.99779808  1
  Bi  Bi11  1  0.12409461  0.25051094  0.49945149  1
  Bi  Bi12  1  0.49814761  0.50151015  0.49611492  1
  Bi  Bi13  1  0.37360770  0.75205814  0.49628470  1
  Bi  Bi14  1  0.87545736  0.74919138  0.50188652  1
  Bi  Bi15  1  0.75019171  -0.00018435  0.50029502  1
  O  O16  1  0.98905568  0.00276268  0.49250514  1
  O  O17  1  0.18659483  0.12812481  0.98881915  1
  O  O18  1  0.18379269  0.12927397  0.49498889  1
  O  O19  1  0.06366586  0.37218696  0.50169924  1
  O  O20  1  0.06398743  0.37374085  0.00965893  1
  O  O21  1  0.50951788  0.00065065  0.50357921  1
  O  O22  1  0.36810487  0.24895403  0.49917559  1
  O  O23  1  0.25913694  0.49893291  0.49857813  1
  O  O24  1  0.12350209  0.75258394  0.49605024  1
  O  O25  1  0.68825182  0.11965411  0.01563055  1
  O  O26  1  0.69038934  0.12101111  0.50007488  1
  O  O27  1  0.55666619  0.38089765  0.98065890  1
  O  O28  1  0.55815730  0.38257053  0.48727351  1
  O  O29  1  0.43922187  0.62233543  0.99070879  1
  O  O30  1  0.43621896  0.62038256  0.52849070  1
  O  O31  1  0.31156504  0.87568355  0.01990751  1
  O  O32  1  0.31240481  0.87443741  0.48378186  1
  O  O33  1  0.88031967  0.25229129  0.49394627  1
  O  O34  1  0.62498818  0.74962017  0.50344400  1
  O  O35  1  0.73938132  0.49963465  0.50444444  1
  O  O36  1  0.93743204  0.62729309  0.97835040  1
  O  O37  1  0.93724764  0.62622558  0.51734161  1
  O  O38  1  0.81024055  0.88123577  0.00701124  1
  O  O39  1  0.81112402  0.88091578  0.47014218  1
