# generated using pymatgen
data_Sr3La7Ti2Mn8O30
_symmetry_space_group_name_H-M   'P 1'
_cell_length_a   5.56606956
_cell_length_b   27.83216063
_cell_length_c   14.69319548
_cell_angle_alpha   19.23829718
_cell_angle_beta   56.02286507
_cell_angle_gamma   60.51944421
_symmetry_Int_Tables_number   1
_chemical_formula_structural   Sr3La7Ti2Mn8O30
_chemical_formula_sum   'Sr3 La7 Ti2 Mn8 O30'
_cell_volume   616.67088946
_cell_formula_units_Z   1
loop_
 _symmetry_equiv_pos_site_id
 _symmetry_equiv_pos_as_xyz
  1  'x, y, z'
loop_
 _atom_site_type_symbol
 _atom_site_label
 _atom_site_symmetry_multiplicity
 _atom_site_fract_x
 _atom_site_fract_y
 _atom_site_fract_z
 _atom_site_occupancy
  Sr  Sr0  1  0.24870297  0.14976559  0.25151598  1
  Sr  Sr1  1  0.25282569  0.54969481  0.24956905  1
  Sr  Sr2  1  0.25134277  0.94990702  0.24861326  1
  La  La3  1  0.24650467  0.34908193  0.25343472  1
  La  La4  1  0.74909862  0.05044600  0.74957402  1
  La  La5  1  0.24958408  0.75034961  0.24889494  1
  La  La6  1  0.74914887  0.25247441  0.74350188  1
  La  La7  1  0.74945202  0.45041399  0.74962047  1
  La  La8  1  0.74835206  0.64921817  0.75162386  1
  La  La9  1  0.74808703  0.84692202  0.75842237  1
  Ti  Ti10  1  0.99810514  0.20162756  0.99706591  1
  Ti  Ti11  1  0.50105141  0.89848249  0.50246958  1
  Mn  Mn12  1  0.99910975  0.99868123  0.00236830  1
  Mn  Mn13  1  0.00159679  0.39983122  -0.00035102  1
  Mn  Mn14  1  0.99793032  0.60022915  0.00022581  1
  Mn  Mn15  1  0.50089995  0.09959677  0.50061256  1
  Mn  Mn16  1  0.99997510  0.80096016  0.99821996  1
  Mn  Mn17  1  0.49833628  0.30033023  0.49987183  1
  Mn  Mn18  1  0.49720229  0.49871189  0.50301297  1
  Mn  Mn19  1  0.50063310  0.70020668  0.49991768  1
  O  O20  1  0.18533620  0.02469197  0.31346077  1
  O  O21  1  0.18485021  0.22513502  0.31713672  1
  O  O22  1  0.70335399  0.05989889  0.24921244  1
  O  O23  1  0.25170462  0.01539191  0.80764511  1
  O  O24  1  0.75689321  0.18929993  0.18112881  1
  O  O25  1  0.19101378  0.42496802  0.30785375  1
  O  O26  1  0.68803183  0.26343201  0.24851740  1
  O  O27  1  0.31240703  0.14067616  0.74035947  1
  O  O28  1  0.24634058  0.21997930  0.80185255  1
  O  O29  1  0.74567312  0.38706272  0.18945239  1
  O  O30  1  0.19043157  0.62670559  0.31190368  1
  O  O31  1  0.70557267  0.45702696  0.25266512  1
  O  O32  1  0.30912028  0.33092483  0.76096159  1
  O  O33  1  0.81354539  0.17270875  0.69061758  1
  O  O34  1  0.25299373  0.42359244  0.79316184  1
  O  O35  1  0.75104156  0.58713984  0.18805719  1
  O  O36  1  0.18414218  0.82287047  0.31342592  1
  O  O37  1  0.69307064  0.66287925  0.24777387  1
  O  O38  1  0.31261267  0.53577393  0.75412129  1
  O  O39  1  0.80346902  0.36623979  0.70697771  1
  O  O40  1  0.24896217  0.61380532  0.81128595  1
  O  O41  1  0.75097617  0.78511417  0.19012952  1
  O  O42  1  0.70571836  0.86025837  0.24649246  1
  O  O43  1  0.32149945  0.74321034  0.73858553  1
  O  O44  1  0.81074805  0.57311169  0.69212357  1
  O  O45  1  0.25388445  0.82404200  0.79095710  1
  O  O46  1  0.74042390  0.99020464  0.18692951  1
  O  O47  1  0.31241596  0.93329520  0.76173077  1
  O  O48  1  0.79388820  0.77359996  0.69451068  1
  O  O49  1  0.79194008  0.97002958  0.70278561  1
