# generated using pymatgen
data_K29NaHg48
_symmetry_space_group_name_H-M   'P 1'
_cell_length_a   17.40562650
_cell_length_b   17.40562650
_cell_length_c   17.40562650
_cell_angle_alpha   90.00000000
_cell_angle_beta   90.00000000
_cell_angle_gamma   90.00000000
_symmetry_Int_Tables_number   1
_chemical_formula_structural   K29NaHg48
_chemical_formula_sum   'K58 Na2 Hg96'
_cell_volume   5273.13609012
_cell_formula_units_Z   2
loop_
 _symmetry_equiv_pos_site_id
 _symmetry_equiv_pos_as_xyz
  1  'x, y, z'
loop_
 _atom_site_type_symbol
 _atom_site_label
 _atom_site_symmetry_multiplicity
 _atom_site_fract_x
 _atom_site_fract_y
 _atom_site_fract_z
 _atom_site_occupancy
  K  K0  1  0.50000000  0.00000000  0.50000000  1
  K  K1  1  0.29549168  0.86758415  0.00000000  1
  K  K2  1  0.86758415  0.00000000  0.70450832  1
  K  K3  1  0.68742651  0.31257349  0.68742651  1
  K  K4  1  0.20450832  0.50000000  0.36758415  1
  K  K5  1  0.18742651  0.81257349  0.18742651  1
  K  K6  1  0.18742651  0.81257349  0.81257349  1
  K  K7  1  0.31257349  0.31257349  0.68742651  1
  K  K8  1  0.79549168  0.50000000  0.63241585  1
  K  K9  1  0.00000000  0.70450832  0.13241585  1
  K  K10  1  0.50000000  0.50000000  0.00000000  1
  K  K11  1  0.70450832  0.13241585  0.00000000  1
  K  K12  1  0.00000000  0.29549168  0.86758415  1
  K  K13  1  0.31257349  0.68742651  0.68742651  1
  K  K14  1  0.00000000  0.75000000  0.50000000  1
  K  K15  1  0.86758415  0.00000000  0.29549168  1
  K  K16  1  0.63241585  0.20450832  0.50000000  1
  K  K17  1  0.25000000  0.00000000  0.50000000  1
  K  K18  1  0.00000000  0.50000000  0.75000000  1
  K  K19  1  0.81257349  0.18742651  0.81257349  1
  K  K20  1  0.00000000  0.50000000  0.50000000  1
  K  K21  1  0.81257349  0.18742651  0.18742651  1
  K  K22  1  0.50000000  0.75000000  0.00000000  1
  K  K23  1  0.18742651  0.18742651  0.81257349  1
  K  K24  1  0.13241585  0.00000000  0.29549168  1
  K  K25  1  0.68742651  0.68742651  0.31257349  1
  K  K26  1  0.50000000  0.00000000  0.25000000  1
  K  K27  1  0.50000000  0.63241585  0.79549168  1
  K  K28  1  0.25000000  0.50000000  0.00000000  1
  K  K29  1  0.50000000  0.00000000  0.75000000  1
  K  K30  1  0.31257349  0.68742651  0.31257349  1
  K  K31  1  0.63241585  0.79549168  0.50000000  1
  K  K32  1  0.50000000  0.36758415  0.79549168  1
  K  K33  1  0.29549168  0.13241585  0.00000000  1
  K  K34  1  0.50000000  0.36758415  0.20450832  1
  K  K35  1  0.50000000  0.25000000  0.00000000  1
  K  K36  1  0.13241585  0.00000000  0.70450832  1
  K  K37  1  0.70450832  0.86758415  0.00000000  1
  K  K38  1  0.00000000  0.25000000  0.50000000  1
  K  K39  1  0.00000000  0.29549168  0.13241585  1
  K  K40  1  0.18742651  0.18742651  0.18742651  1
  K  K41  1  0.50000000  0.00000000  0.00000000  1
  K  K42  1  0.00000000  0.50000000  0.25000000  1
  K  K43  1  0.00000000  0.70450832  0.86758415  1
  K  K44  1  0.50000000  0.63241585  0.20450832  1
  K  K45  1  0.68742651  0.68742651  0.68742651  1
  K  K46  1  0.81257349  0.81257349  0.81257349  1
  K  K47  1  0.68742651  0.31257349  0.31257349  1
  K  K48  1  0.79549168  0.50000000  0.36758415  1
  K  K49  1  0.75000000  0.00000000  0.50000000  1
  K  K50  1  0.81257349  0.81257349  0.18742651  1
  K  K51  1  0.00000000  0.00000000  0.50000000  1
  K  K52  1  0.31257349  0.31257349  0.31257349  1
  K  K53  1  0.00000000  0.50000000  0.00000000  1
  K  K54  1  0.20450832  0.50000000  0.63241585  1
  K  K55  1  0.75000000  0.50000000  0.00000000  1
  K  K56  1  0.36758415  0.79549168  0.50000000  1
  K  K57  1  0.36758415  0.20450832  0.50000000  1
  Na  Na58  1  0.00000000  0.00000000  0.00000000  1
  Na  Na59  1  0.50000000  0.50000000  0.50000000  1
  Hg  Hg60  1  0.00000000  0.09162808  0.84196830  1
  Hg  Hg61  1  0.40366850  0.17277429  0.82854896  1
  Hg  Hg62  1  0.90366850  0.67145104  0.67277429  1
  Hg  Hg63  1  0.90366850  0.32854896  0.32722571  1
  Hg  Hg64  1  0.67277429  0.09633150  0.67145104  1
  Hg  Hg65  1  0.50000000  0.34196830  0.40837192  1
  Hg  Hg66  1  0.50000000  0.34196830  0.59162808  1
  Hg  Hg67  1  0.82722571  0.82854896  0.59633150  1
  Hg  Hg68  1  0.32722571  0.90366850  0.67145104  1
  Hg  Hg69  1  0.32854896  0.67277429  0.90366850  1
  Hg  Hg70  1  0.34196830  0.40837192  0.50000000  1
  Hg  Hg71  1  0.59633150  0.82722571  0.82854896  1
  Hg  Hg72  1  0.65803170  0.59162808  0.50000000  1
  Hg  Hg73  1  0.82854896  0.59633150  0.17277429  1
  Hg  Hg74  1  0.00000000  0.90837192  0.84196830  1
  Hg  Hg75  1  0.50000000  0.81504699  0.66433327  1
  Hg  Hg76  1  0.81504699  0.66433327  0.50000000  1
  Hg  Hg77  1  0.59633150  0.82722571  0.17145104  1
  Hg  Hg78  1  0.09633150  0.67145104  0.32722571  1
  Hg  Hg79  1  0.59633150  0.17277429  0.17145104  1
  Hg  Hg80  1  0.00000000  0.09162808  0.15803170  1
  Hg  Hg81  1  0.67145104  0.32722571  0.90366850  1
  Hg  Hg82  1  0.59633150  0.17277429  0.82854896  1
  Hg  Hg83  1  0.09633150  0.67145104  0.67277429  1
  Hg  Hg84  1  0.00000000  0.16433327  0.68495301  1
  Hg  Hg85  1  0.82854896  0.59633150  0.82722571  1
  Hg  Hg86  1  0.32722571  0.09633150  0.67145104  1
  Hg  Hg87  1  0.40837192  0.50000000  0.65803170  1
  Hg  Hg88  1  0.90366850  0.32854896  0.67277429  1
  Hg  Hg89  1  0.17145104  0.59633150  0.17277429  1
  Hg  Hg90  1  0.40366850  0.82722571  0.82854896  1
  Hg  Hg91  1  0.59162808  0.50000000  0.34196830  1
  Hg  Hg92  1  0.09633150  0.32854896  0.67277429  1
  Hg  Hg93  1  0.68495301  0.00000000  0.16433327  1
  Hg  Hg94  1  0.17277429  0.82854896  0.59633150  1
  Hg  Hg95  1  0.17145104  0.59633150  0.82722571  1
  Hg  Hg96  1  0.31504699  0.00000000  0.16433327  1
  Hg  Hg97  1  0.18495301  0.33566673  0.50000000  1
  Hg  Hg98  1  0.40366850  0.82722571  0.17145104  1
  Hg  Hg99  1  0.67145104  0.67277429  0.90366850  1
  Hg  Hg100  1  0.66433327  0.50000000  0.81504699  1
  Hg  Hg101  1  0.32854896  0.32722571  0.90366850  1
  Hg  Hg102  1  0.18495301  0.66433327  0.50000000  1
  Hg  Hg103  1  0.65803170  0.40837192  0.50000000  1
  Hg  Hg104  1  0.67145104  0.32722571  0.09633150  1
  Hg  Hg105  1  0.90366850  0.67145104  0.32722571  1
  Hg  Hg106  1  0.67145104  0.67277429  0.09633150  1
  Hg  Hg107  1  0.67277429  0.90366850  0.67145104  1
  Hg  Hg108  1  0.00000000  0.90837192  0.15803170  1
  Hg  Hg109  1  0.09162808  0.84196830  0.00000000  1
  Hg  Hg110  1  0.15803170  0.00000000  0.09162808  1
  Hg  Hg111  1  0.66433327  0.50000000  0.18495301  1
  Hg  Hg112  1  0.83566673  0.68495301  0.00000000  1
  Hg  Hg113  1  0.82854896  0.40366850  0.82722571  1
  Hg  Hg114  1  0.09162808  0.15803170  0.00000000  1
  Hg  Hg115  1  0.40837192  0.50000000  0.34196830  1
  Hg  Hg116  1  0.84196830  0.00000000  0.09162808  1
  Hg  Hg117  1  0.33566673  0.50000000  0.81504699  1
  Hg  Hg118  1  0.50000000  0.81504699  0.33566673  1
  Hg  Hg119  1  0.81504699  0.33566673  0.50000000  1
  Hg  Hg120  1  0.67277429  0.90366850  0.32854896  1
  Hg  Hg121  1  0.82722571  0.82854896  0.40366850  1
  Hg  Hg122  1  0.90837192  0.15803170  0.00000000  1
  Hg  Hg123  1  0.32854896  0.32722571  0.09633150  1
  Hg  Hg124  1  0.82722571  0.17145104  0.59633150  1
  Hg  Hg125  1  0.68495301  0.00000000  0.83566673  1
  Hg  Hg126  1  0.09633150  0.32854896  0.32722571  1
  Hg  Hg127  1  0.82722571  0.17145104  0.40366850  1
  Hg  Hg128  1  0.50000000  0.18495301  0.66433327  1
  Hg  Hg129  1  0.50000000  0.65803170  0.59162808  1
  Hg  Hg130  1  0.32722571  0.90366850  0.32854896  1
  Hg  Hg131  1  0.32854896  0.67277429  0.09633150  1
  Hg  Hg132  1  0.83566673  0.31504699  0.00000000  1
  Hg  Hg133  1  0.59162808  0.50000000  0.65803170  1
  Hg  Hg134  1  0.16433327  0.68495301  0.00000000  1
  Hg  Hg135  1  0.17145104  0.40366850  0.82722571  1
  Hg  Hg136  1  0.82854896  0.40366850  0.17277429  1
  Hg  Hg137  1  0.34196830  0.59162808  0.50000000  1
  Hg  Hg138  1  0.17277429  0.17145104  0.59633150  1
  Hg  Hg139  1  0.50000000  0.65803170  0.40837192  1
  Hg  Hg140  1  0.17277429  0.82854896  0.40366850  1
  Hg  Hg141  1  0.50000000  0.18495301  0.33566673  1
  Hg  Hg142  1  0.40366850  0.17277429  0.17145104  1
  Hg  Hg143  1  0.00000000  0.83566673  0.31504699  1
  Hg  Hg144  1  0.00000000  0.16433327  0.31504699  1
  Hg  Hg145  1  0.33566673  0.50000000  0.18495301  1
  Hg  Hg146  1  0.16433327  0.31504699  0.00000000  1
  Hg  Hg147  1  0.32722571  0.09633150  0.32854896  1
  Hg  Hg148  1  0.17277429  0.17145104  0.40366850  1
  Hg  Hg149  1  0.67277429  0.09633150  0.32854896  1
  Hg  Hg150  1  0.31504699  0.00000000  0.83566673  1
  Hg  Hg151  1  0.90837192  0.84196830  0.00000000  1
  Hg  Hg152  1  0.00000000  0.83566673  0.68495301  1
  Hg  Hg153  1  0.17145104  0.40366850  0.17277429  1
  Hg  Hg154  1  0.84196830  0.00000000  0.90837192  1
  Hg  Hg155  1  0.15803170  0.00000000  0.90837192  1
