# generated using pymatgen
data_MgH10CO8
_symmetry_space_group_name_H-M   'P 1'
_cell_length_a   7.29314207
_cell_length_b   7.67990071
_cell_length_c   12.64181918
_cell_angle_alpha   90.00000000
_cell_angle_beta   101.44740159
_cell_angle_gamma   90.00000000
_symmetry_Int_Tables_number   1
_chemical_formula_structural   MgH10CO8
_chemical_formula_sum   'Mg4 H40 C4 O32'
_cell_volume   693.99043306
_cell_formula_units_Z   4
loop_
 _symmetry_equiv_pos_site_id
 _symmetry_equiv_pos_as_xyz
  1  'x, y, z'
loop_
 _atom_site_type_symbol
 _atom_site_label
 _atom_site_symmetry_multiplicity
 _atom_site_fract_x
 _atom_site_fract_y
 _atom_site_fract_z
 _atom_site_occupancy
  Mg  Mg0  1  0.00000000  0.50000000  0.50000000  1
  Mg  Mg1  1  0.00000000  0.00000000  0.00000000  1
  Mg  Mg2  1  0.50000000  0.50000000  0.00000000  1
  Mg  Mg3  1  0.50000000  0.00000000  0.50000000  1
  H  H4  1  0.36084835  0.37151349  0.14427198  1
  H  H5  1  0.63915165  0.87151349  0.35572802  1
  H  H6  1  0.63915165  0.62848651  0.85572802  1
  H  H7  1  0.36084835  0.12848651  0.64427198  1
  H  H8  1  0.74026732  0.44093104  0.85837140  1
  H  H9  1  0.25973268  0.94093104  0.64162860  1
  H  H10  1  0.25973268  0.55906896  0.14162860  1
  H  H11  1  0.74026732  0.05906896  0.35837140  1
  H  H12  1  0.44144792  0.28721081  0.82756547  1
  H  H13  1  0.55855208  0.78721081  0.67243453  1
  H  H14  1  0.55855208  0.71278919  0.17243453  1
  H  H15  1  0.44144792  0.21278919  0.32756547  1
  H  H16  1  0.70316689  0.78035609  0.10166151  1
  H  H17  1  0.29683311  0.28035609  0.39833849  1
  H  H18  1  0.29683311  0.21964391  0.89833849  1
  H  H19  1  0.70316689  0.71964391  0.60166151  1
  H  H20  1  0.09207781  0.34045819  0.05887856  1
  H  H21  1  0.90792219  0.84045819  0.44112144  1
  H  H22  1  0.90792219  0.65954181  0.94112144  1
  H  H23  1  0.09207781  0.15954181  0.55887856  1
  H  H24  1  0.88099353  0.29988776  0.07640392  1
  H  H25  1  0.11900647  0.79988776  0.42359608  1
  H  H26  1  0.11900647  0.70011224  0.92359608  1
  H  H27  1  0.88099353  0.20011224  0.57640392  1
  H  H28  1  0.96559966  0.33030422  0.30918452  1
  H  H29  1  0.03440034  0.83030422  0.19081548  1
  H  H30  1  0.03440034  0.66969578  0.69081548  1
  H  H31  1  0.96559966  0.16969578  0.80918452  1
  H  H32  1  0.90398788  0.49962907  0.69543036  1
  H  H33  1  0.09601212  0.99962907  0.80456964  1
  H  H34  1  0.09601212  0.50037093  0.30456964  1
  H  H35  1  0.90398788  0.00037093  0.19543036  1
  H  H36  1  0.37469697  0.60562189  0.55857141  1
  H  H37  1  0.62530303  0.10562189  0.94142859  1
  H  H38  1  0.62530303  0.39437811  0.44142859  1
  H  H39  1  0.37469697  0.89437811  0.05857141  1
  H  H40  1  0.35690711  0.42517148  0.61579359  1
  H  H41  1  0.64309289  0.92517148  0.88420641  1
  H  H42  1  0.64309289  0.57482852  0.38420641  1
  H  H43  1  0.35690711  0.07482852  0.11579359  1
  C  C44  1  0.65287233  0.25154568  0.69205558  1
  C  C45  1  0.34712767  0.75154568  0.80794442  1
  C  C46  1  0.34712767  0.74845432  0.30794442  1
  C  C47  1  0.65287233  0.24845432  0.19205558  1
  O  O48  1  0.48091304  0.27761173  0.70559518  1
  O  O49  1  0.51908696  0.77761173  0.79440482  1
  O  O50  1  0.51908696  0.72238827  0.29440482  1
  O  O51  1  0.48091304  0.22238827  0.20559518  1
  O  O52  1  0.68128810  0.15862055  0.61162091  1
  O  O53  1  0.31871190  0.65862055  0.88837909  1
  O  O54  1  0.31871190  0.84137945  0.38837909  1
  O  O55  1  0.68128810  0.34137945  0.11162091  1
  O  O56  1  0.79182300  0.31989286  0.75933117  1
  O  O57  1  0.20817700  0.81989286  0.74066883  1
  O  O58  1  0.20817700  0.68010714  0.24066883  1
  O  O59  1  0.79182300  0.18010714  0.25933117  1
  O  O60  1  0.29295010  0.46461412  0.09283883  1
  O  O61  1  0.70704990  0.96461412  0.40716117  1
  O  O62  1  0.70704990  0.53538588  0.90716117  1
  O  O63  1  0.29295010  0.03538588  0.59283883  1
  O  O64  1  0.41878809  0.27857961  0.90397063  1
  O  O65  1  0.58121191  0.77857961  0.59602937  1
  O  O66  1  0.58121191  0.72142039  0.09602937  1
  O  O67  1  0.41878809  0.22142039  0.40397063  1
  O  O68  1  0.98992460  0.24735995  0.54777882  1
  O  O69  1  0.01007540  0.74735995  0.95222118  1
  O  O70  1  0.01007540  0.75264005  0.45222118  1
  O  O71  1  0.98992460  0.25264005  0.04777882  1
  O  O72  1  0.06451117  0.40696699  0.35205406  1
  O  O73  1  0.93548883  0.90696699  0.14794594  1
  O  O74  1  0.93548883  0.59303301  0.64794594  1
  O  O75  1  0.06451117  0.09303301  0.85205406  1
  O  O76  1  0.28795430  0.50808015  0.56180594  1
  O  O77  1  0.71204570  0.00808015  0.93819406  1
  O  O78  1  0.71204570  0.49191985  0.43819406  1
  O  O79  1  0.28795430  0.99191985  0.06180594  1
