# generated using pymatgen
data_Na7Ca3Ta7Ti3O30
_symmetry_space_group_name_H-M   'P 1'
_cell_length_a   5.49438272
_cell_length_b   5.57744695
_cell_length_c   38.99047316
_cell_angle_alpha   89.91124766
_cell_angle_beta   89.95117509
_cell_angle_gamma   90.18666826
_symmetry_Int_Tables_number   1
_chemical_formula_structural   Na7Ca3Ta7Ti3O30
_chemical_formula_sum   'Na14 Ca6 Ta14 Ti6 O60'
_cell_volume   1194.84033728
_cell_formula_units_Z   2
loop_
 _symmetry_equiv_pos_site_id
 _symmetry_equiv_pos_as_xyz
  1  'x, y, z'
loop_
 _atom_site_type_symbol
 _atom_site_label
 _atom_site_symmetry_multiplicity
 _atom_site_fract_x
 _atom_site_fract_y
 _atom_site_fract_z
 _atom_site_occupancy
  Na  Na0  1  0.00557177  0.96771959  0.14889065  1
  Na  Na1  1  0.00850777  0.97802181  0.35197736  1
  Na  Na2  1  0.00870101  0.97826586  0.55191914  1
  Na  Na3  1  0.00819201  0.97869738  0.75200103  1
  Na  Na4  1  0.01265703  0.97552228  0.95277461  1
  Na  Na5  1  0.49023194  0.47907316  0.35236920  1
  Na  Na6  1  0.48922628  0.47913450  0.55237547  1
  Na  Na7  1  0.48852745  0.47980308  0.75255971  1
  Na  Na8  1  0.49334160  0.47734185  0.95282719  1
  Na  Na9  1  0.51314952  0.52533429  0.04878741  1
  Na  Na10  1  0.50223071  0.52446852  0.24826695  1
  Na  Na11  1  0.50907235  0.52831035  0.64758104  1
  Na  Na12  1  0.50931976  0.52805779  0.44746820  1
  Na  Na13  1  0.50823262  0.52861830  0.84777838  1
  Ca  Ca14  1  0.47949598  0.46032553  0.14951129  1
  Ca  Ca15  1  0.98598054  0.05056372  0.24787860  1
  Ca  Ca16  1  0.99089655  0.04660510  0.04900598  1
  Ca  Ca17  1  0.99085515  0.04727296  0.64753502  1
  Ca  Ca18  1  0.99088291  0.04749154  0.44743847  1
  Ca  Ca19  1  0.98999513  0.04772860  0.84772937  1
  Ta  Ta20  1  0.99873672  0.50661548  0.29972222  1
  Ta  Ta21  1  0.99932096  0.50504948  0.50043093  1
  Ta  Ta22  1  0.99907400  0.50499600  0.70078932  1
  Ta  Ta23  1  0.99945103  0.50548580  0.90088204  1
  Ta  Ta24  1  0.49438932  0.99516453  0.10001952  1
  Ta  Ta25  1  0.49592886  0.00158702  0.30062436  1
  Ta  Ta26  1  0.50600192  0.00490341  0.99976518  1
  Ta  Ta27  1  0.49747210  0.00020511  0.50022307  1
  Ta  Ta28  1  0.49707089  0.00102509  0.90032795  1
  Ta  Ta29  1  0.49727206  0.00010013  0.70019556  1
  Ta  Ta30  1  0.49196335  0.99438087  0.19972433  1
  Ta  Ta31  1  0.49772113  0.00703083  0.59939800  1
  Ta  Ta32  1  0.49737095  0.00703803  0.39960384  1
  Ta  Ta33  1  0.49722679  0.00742825  0.79948447  1
  Ti  Ti34  1  0.01072269  0.51014752  0.99980433  1
  Ti  Ti35  1  0.99358034  0.50553024  0.09744565  1
  Ti  Ti36  1  0.98407172  0.50577204  0.19746373  1
  Ti  Ti37  1  0.00184997  0.51644770  0.39927872  1
  Ti  Ti38  1  0.00217608  0.51627747  0.59990900  1
  Ti  Ti39  1  0.00170106  0.51656584  0.80015616  1
  O  O40  1  0.07277254  0.48518317  0.05074343  1
  O  O41  1  0.07051420  0.47904227  0.25030984  1
  O  O42  1  0.07230526  0.48192320  0.45019042  1
  O  O43  1  0.07210924  0.48179954  0.65027287  1
  O  O44  1  0.07199460  0.48244530  0.85044015  1
  O  O45  1  0.22124283  0.21790758  0.19245101  1
  O  O46  1  0.21971022  0.21628899  0.39407747  1
  O  O47  1  0.21948287  0.21610618  0.59419680  1
  O  O48  1  0.22777283  0.22266542  0.10750619  1
  O  O49  1  0.21489274  0.21189647  0.30664641  1
  O  O50  1  0.21854116  0.21652217  0.79432032  1
  O  O51  1  0.22139272  0.21989565  0.99472497  1
  O  O52  1  0.21603022  0.21172448  0.50652387  1
  O  O53  1  0.21615872  0.21210879  0.70669183  1
  O  O54  1  0.21467725  0.21166098  0.90680572  1
  O  O55  1  0.28784674  0.71457382  0.10915901  1
  O  O56  1  0.28830661  0.71025800  0.19112591  1
  O  O57  1  0.28606508  0.71446468  0.30771539  1
  O  O58  1  0.27678399  0.71848775  0.39264633  1
  O  O59  1  0.28703782  0.71374006  0.90849105  1
  O  O60  1  0.27606909  0.71814209  0.59289745  1
  O  O61  1  0.28592000  0.71389058  0.70823818  1
  O  O62  1  0.27473625  0.71861678  0.79309664  1
  O  O63  1  0.28577979  0.71429438  0.50811294  1
  O  O64  1  0.27604593  0.72076668  0.99298793  1
  O  O65  1  0.41861852  0.98061772  0.05036181  1
  O  O66  1  0.41427894  0.98160628  0.24987961  1
  O  O67  1  0.41816361  0.97919739  0.65038062  1
  O  O68  1  0.41830978  0.97898517  0.45025134  1
  O  O69  1  0.41764459  0.98027169  0.85055414  1
  O  O70  1  0.57455510  0.01091208  0.34958781  1
  O  O71  1  0.57668385  0.01792612  0.14995884  1
  O  O72  1  0.57444628  0.01006367  0.54970928  1
  O  O73  1  0.57362799  0.00960519  0.74982744  1
  O  O74  1  0.57475087  0.01402730  0.94993045  1
  O  O75  1  0.72879522  0.26880552  0.00916792  1
  O  O76  1  0.72822253  0.27605873  0.09227281  1
  O  O77  1  0.72189608  0.27537966  0.20759940  1
  O  O78  1  0.72755671  0.26625963  0.60859323  1
  O  O79  1  0.72076811  0.27290109  0.29083532  1
  O  O80  1  0.72788121  0.26637145  0.40840824  1
  O  O81  1  0.72297269  0.27181353  0.49090284  1
  O  O82  1  0.72675443  0.26672914  0.80873630  1
  O  O83  1  0.72336206  0.27169053  0.69107682  1
  O  O84  1  0.72236344  0.27359709  0.89119086  1
  O  O85  1  0.79063003  0.78525271  0.09159232  1
  O  O86  1  0.78297849  0.77827105  0.00858288  1
  O  O87  1  0.78714572  0.78447047  0.20842982  1
  O  O88  1  0.78257245  0.77618327  0.40822501  1
  O  O89  1  0.78223406  0.77580901  0.60845645  1
  O  O90  1  0.78583626  0.78612781  0.29062914  1
  O  O91  1  0.78695831  0.78417308  0.49082507  1
  O  O92  1  0.78736931  0.78425584  0.69095575  1
  O  O93  1  0.78775557  0.78526963  0.89122210  1
  O  O94  1  0.78097457  0.77576453  0.80868641  1
  O  O95  1  0.91593594  0.51313883  0.15074988  1
  O  O96  1  0.92691289  0.50893205  0.34982855  1
  O  O97  1  0.92624112  0.50795629  0.54994218  1
  O  O98  1  0.92526493  0.50861074  0.75007333  1
  O  O99  1  0.92718259  0.50845467  0.95028243  1
