# generated using pymatgen
data_Na2FeSn(PO4)3
_symmetry_space_group_name_H-M   'P 1'
_cell_length_a   8.98070484
_cell_length_b   8.98644663
_cell_length_c   17.97638877
_cell_angle_alpha   58.92042857
_cell_angle_beta   58.97427931
_cell_angle_gamma   58.98582267
_symmetry_Int_Tables_number   1
_chemical_formula_structural   Na2FeSn(PO4)3
_chemical_formula_sum   'Na8 Fe4 Sn4 P12 O48'
_cell_volume   1001.51624086
_cell_formula_units_Z   4
loop_
 _symmetry_equiv_pos_site_id
 _symmetry_equiv_pos_as_xyz
  1  'x, y, z'
loop_
 _atom_site_type_symbol
 _atom_site_label
 _atom_site_symmetry_multiplicity
 _atom_site_fract_x
 _atom_site_fract_y
 _atom_site_fract_z
 _atom_site_occupancy
  Na  Na0  1  0.49240284  0.51069997  0.25030669  1
  Na  Na1  1  0.62282806  0.25033089  0.43826239  1
  Na  Na2  1  0.88335398  0.62990744  0.12448974  1
  Na  Na3  1  0.00962305  0.99837342  0.49372321  1
  Na  Na4  1  0.49937592  0.49899713  0.75085430  1
  Na  Na5  1  0.24570027  0.88243404  0.81660051  1
  Na  Na6  1  0.62924640  0.24511133  0.94343062  1
  Na  Na7  1  0.87900622  0.62081645  0.62457710  1
  Fe  Fe8  1  0.64380363  0.65708823  0.32376648  1
  Fe  Fe9  1  0.86012520  0.84993705  0.41989624  1
  Fe  Fe10  1  0.65082584  0.65139294  0.82749247  1
  Fe  Fe11  1  0.84783733  0.85099606  0.92789575  1
  Sn  Sn12  1  0.14082701  0.13769358  0.07186704  1
  Sn  Sn13  1  0.35591157  0.35294848  0.17888319  1
  Sn  Sn14  1  0.14306096  0.14509421  0.57076530  1
  Sn  Sn15  1  0.35609635  0.35748945  0.67792416  1
  P  P16  1  0.03924243  0.74713791  0.22968363  1
  P  P17  1  0.46290216  0.04051331  0.37536127  1
  P  P18  1  0.74997602  0.45976103  0.02114272  1
  P  P19  1  0.25034164  0.54518959  0.47730851  1
  P  P20  1  0.53819852  0.95555402  0.12627061  1
  P  P21  1  0.03971911  0.75104952  0.73043668  1
  P  P22  1  0.95855789  0.24758214  0.27115972  1
  P  P23  1  0.46038233  0.04109887  0.87523069  1
  P  P24  1  0.74978158  0.46216496  0.51898356  1
  P  P25  1  0.24975648  0.53898417  0.97886477  1
  P  P26  1  0.54275793  0.95688225  0.62512083  1
  P  P27  1  0.95635387  0.24982074  0.77090937  1
  O  O28  1  0.12342924  0.28299988  0.25758317  1
  O  O29  1  0.27852420  0.51249848  0.06324857  1
  O  O30  1  0.05932186  0.91502520  0.14086391  1
  O  O31  1  0.51411973  0.12690671  0.13803105  1
  O  O32  1  0.00658756  0.78365857  0.31268178  1
  O  O33  1  0.22341667  0.57962310  0.22030053  1
  O  O34  1  0.27716785  0.06002883  0.45883894  1
  O  O35  1  0.44077183  0.22328197  0.29161986  1
  O  O36  1  0.58049940  0.44039829  0.11195745  1
  O  O37  1  0.22291241  0.37298305  0.49248375  1
  O  O38  1  0.07712004  0.71947764  0.47048816  1
  O  O39  1  0.37075274  0.98615362  0.11018723  1
  O  O40  1  0.62061188  0.01496024  0.39724953  1
  O  O41  1  0.12731837  0.27799656  0.75606695  1
  O  O42  1  0.91698682  0.28141770  0.03040848  1
  O  O43  1  0.78714935  0.62436940  0.00589311  1
  O  O44  1  0.42288816  0.55996571  0.39023844  1
  O  O45  1  0.27728442  0.51484669  0.56369862  1
  O  O46  1  0.56856333  0.77540604  0.20907122  1
  O  O47  1  0.06016181  0.91775426  0.63799473  1
  O  O48  1  0.51241643  0.12747280  0.63971134  1
  O  O49  1  0.71521458  0.93348380  0.04026610  1
  O  O50  1  0.01127686  0.79184662  0.81056043  1
  O  O51  1  0.77829302  0.41787693  0.28171556  1
  O  O52  1  0.22369431  0.58319941  0.71982109  1
  O  O53  1  0.98793551  0.22152405  0.18552848  1
  O  O54  1  0.28126566  0.06062036  0.95795894  1
  O  O55  1  0.49491801  0.87723345  0.35584344  1
  O  O56  1  0.93074501  0.08196055  0.36204186  1
  O  O57  1  0.44079175  0.22435779  0.79020454  1
  O  O58  1  0.70727195  0.48892334  0.43953151  1
  O  O59  1  0.58271892  0.44022076  0.61183866  1
  O  O60  1  0.22599790  0.36652590  0.99347224  1
  O  O61  1  0.08052225  0.71517530  0.96652077  1
  O  O62  1  0.87902771  0.70448647  0.24397989  1
  O  O63  1  0.37150931  0.98666114  0.61121080  1
  O  O64  1  0.62498582  0.01273190  0.89293374  1
  O  O65  1  0.91655529  0.27669004  0.52975025  1
  O  O66  1  0.79124226  0.62147193  0.50625539  1
  O  O67  1  0.42083757  0.56269734  0.88904657  1
  O  O68  1  0.56270341  0.77792822  0.71037757  1
  O  O69  1  0.72155591  0.93575509  0.54126879  1
  O  O70  1  0.77798611  0.42060227  0.78168799  1
  O  O71  1  0.98526889  0.22715778  0.68394082  1
  O  O72  1  0.49006810  0.88063779  0.85294847  1
  O  O73  1  0.93376859  0.08019468  0.85808847  1
  O  O74  1  0.70776752  0.48914748  0.94003681  1
  O  O75  1  0.88007908  0.70821569  0.74354642  1
