# generated using pymatgen
data_Cd10As6HClO25
_symmetry_space_group_name_H-M   'P 1'
_cell_length_a   10.12346266
_cell_length_b   20.24294407
_cell_length_c   6.68989199
_cell_angle_alpha   90.00000000
_cell_angle_beta   90.00000000
_cell_angle_gamma   120.01211472
_symmetry_Int_Tables_number   1
_chemical_formula_structural   Cd10As6HClO25
_chemical_formula_sum   'Cd20 As12 H2 Cl2 O50'
_cell_volume   1187.13324801
_cell_formula_units_Z   2
loop_
 _symmetry_equiv_pos_site_id
 _symmetry_equiv_pos_as_xyz
  1  'x, y, z'
loop_
 _atom_site_type_symbol
 _atom_site_label
 _atom_site_symmetry_multiplicity
 _atom_site_fract_x
 _atom_site_fract_y
 _atom_site_fract_z
 _atom_site_occupancy
  Cd  Cd0  1  0.02354479  0.87540671  0.75006709  1
  Cd  Cd1  1  0.33469443  0.83309058  0.00033331  1
  Cd  Cd2  1  0.33462281  0.83306147  0.49954232  1
  Cd  Cd3  1  0.23032038  0.62720096  0.74664683  1
  Cd  Cd4  1  0.02683943  0.38566931  0.74661377  1
  Cd  Cd5  1  0.72826831  0.98697452  0.75002062  1
  Cd  Cd6  1  0.25589357  0.51206581  0.24666347  1
  Cd  Cd7  1  0.75267984  0.86313289  0.25005453  1
  Cd  Cd8  1  0.66803549  0.66642124  0.49969139  1
  Cd  Cd9  1  0.66793190  0.66639880  0.99991018  1
  Cd  Cd10  1  0.33206810  0.33360120  0.49991018  1
  Cd  Cd11  1  0.33196451  0.33357876  0.99969139  1
  Cd  Cd12  1  0.24732016  0.13686711  0.75005453  1
  Cd  Cd13  1  0.74410643  0.48793419  0.74666347  1
  Cd  Cd14  1  0.27173169  0.01302548  0.25002062  1
  Cd  Cd15  1  0.97316057  0.61433069  0.24661377  1
  Cd  Cd16  1  0.76967962  0.37279904  0.24664683  1
  Cd  Cd17  1  0.66530557  0.16690942  0.50033331  1
  Cd  Cd18  1  0.66537719  0.16693853  0.99954232  1
  Cd  Cd19  1  0.97645521  0.12459329  0.25006709  1
  As  As20  1  0.02268385  0.69792926  0.74849987  1
  As  As21  1  0.37562133  0.98752911  0.75001273  1
  As  As22  1  0.39605792  0.68658282  0.24846947  1
  As  As23  1  0.59620934  0.81008409  0.74993282  1
  As  As24  1  0.02412870  0.20195896  0.74988974  1
  As  As25  1  0.37711856  0.48900288  0.74832034  1
  As  As26  1  0.62288144  0.51099712  0.24832034  1
  As  As27  1  0.97587130  0.79804104  0.24988974  1
  As  As28  1  0.40379066  0.18991591  0.24993282  1
  As  As29  1  0.60394208  0.31341718  0.74846947  1
  As  As30  1  0.62437867  0.01247089  0.25001273  1
  As  As31  1  0.97731615  0.30207074  0.24849987  1
  H  H32  1  0.99978980  0.50000755  0.90765150  1
  H  H33  1  0.00021020  0.49999245  0.40765150  1
  Cl  Cl34  1  0.99971126  0.99999083  0.25009246  1
  Cl  Cl35  1  0.00028874  0.00000917  0.75009246  1
  O  O36  1  0.25388296  0.95520521  0.54778249  1
  O  O37  1  0.25390216  0.95518115  0.95225322  1
  O  O38  1  0.16686959  0.82901682  0.24997992  1
  O  O39  1  0.13695937  0.79750246  0.74977539  1
  O  O40  1  0.08338247  0.66703693  0.54612329  1
  O  O41  1  0.08408560  0.66669437  0.94955727  1
  O  O42  1  0.46233215  0.93112189  0.74999956  1
  O  O43  1  0.49244935  0.91750370  0.25007637  1
  O  O44  1  0.34174139  0.75389860  0.24956965  1
  O  O45  1  0.39692544  0.76600036  0.74957250  1
  O  O46  1  0.33444046  0.62505449  0.04673603  1
  O  O47  1  0.33380748  0.62439049  0.44895972  1
  O  O48  1  0.65352367  0.87118756  0.95268431  1
  O  O49  1  0.65377340  0.87127844  0.54737040  1
  O  O50  1  0.25241719  0.45783214  0.94950195  1
  O  O51  1  0.25347349  0.45819771  0.54614312  1
  O  O52  1  0.16641331  0.32954594  0.24961277  1
  O  O53  1  0.13582211  0.30162787  0.74950596  1
  O  O54  1  0.59517732  0.72877679  0.24973810  1
  O  O55  1  0.65898723  0.74589150  0.75002531  1
  O  O56  1  0.08965410  0.17323140  0.54805087  1
  O  O57  1  0.08971311  0.17340622  0.95203316  1
  O  O58  1  0.50862213  0.58414410  0.74946294  1
  O  O59  1  0.53742702  0.56770077  0.24927682  1
  O  O60  1  0.46257298  0.43229923  0.74927682  1
  O  O61  1  0.49137787  0.41585590  0.24946294  1
  O  O62  1  0.91034590  0.82676860  0.04805087  1
  O  O63  1  0.91028689  0.82659378  0.45203316  1
  O  O64  1  0.34101277  0.25410850  0.25002531  1
  O  O65  1  0.40482268  0.27122321  0.74973810  1
  O  O66  1  0.86417789  0.69837213  0.24950596  1
  O  O67  1  0.83358669  0.67045406  0.74961277  1
  O  O68  1  0.74758281  0.54216786  0.44950195  1
  O  O69  1  0.74652651  0.54180229  0.04614312  1
  O  O70  1  0.34622660  0.12872156  0.04737040  1
  O  O71  1  0.34647633  0.12881244  0.45268431  1
  O  O72  1  0.66619252  0.37560951  0.94895972  1
  O  O73  1  0.66555954  0.37494551  0.54673603  1
  O  O74  1  0.60307456  0.23399964  0.24957250  1
  O  O75  1  0.65825861  0.24610140  0.74956965  1
  O  O76  1  0.50755065  0.08249630  0.75007637  1
  O  O77  1  0.53766785  0.06887811  0.24999956  1
  O  O78  1  0.99977946  0.49996433  0.26079644  1
  O  O79  1  0.00022054  0.50003567  0.76079644  1
  O  O80  1  0.91661753  0.33296307  0.04612329  1
  O  O81  1  0.91591440  0.33330563  0.44955727  1
  O  O82  1  0.86304063  0.20249754  0.24977539  1
  O  O83  1  0.83313041  0.17098318  0.74997992  1
  O  O84  1  0.74609784  0.04481885  0.45225322  1
  O  O85  1  0.74611704  0.04479479  0.04778249  1
