# generated using pymatgen
data_MgTiO2
_symmetry_space_group_name_H-M   'P 1'
_cell_length_a   2.89108477
_cell_length_b   7.92296456
_cell_length_c   8.04669564
_cell_angle_alpha   90.94134560
_cell_angle_beta   79.42931388
_cell_angle_gamma   100.47138370
_symmetry_Int_Tables_number   1
_chemical_formula_structural   MgTiO2
_chemical_formula_sum   'Mg4 Ti4 O8'
_cell_volume   178.14448574
_cell_formula_units_Z   4
loop_
 _symmetry_equiv_pos_site_id
 _symmetry_equiv_pos_as_xyz
  1  'x, y, z'
loop_
 _atom_site_type_symbol
 _atom_site_label
 _atom_site_symmetry_multiplicity
 _atom_site_fract_x
 _atom_site_fract_y
 _atom_site_fract_z
 _atom_site_occupancy
  Mg  Mg0  1  0.37029031  0.03989484  0.32649849  1
  Mg  Mg1  1  0.62597033  0.93994202  0.70171198  1
  Mg  Mg2  1  0.32496303  0.74332258  0.12066562  1
  Mg  Mg3  1  0.67118013  0.23663690  0.90724751  1
  Ti  Ti4  1  0.37701553  0.32895232  0.59554791  1
  Ti  Ti5  1  0.07627238  0.38405301  0.25860336  1
  Ti  Ti6  1  0.91983816  0.59634275  0.76971399  1
  Ti  Ti7  1  0.61890991  0.65085869  0.43259029  1
  O  O8  1  0.11699676  0.79172293  0.57343937  1
  O  O9  1  0.29695916  0.42397886  0.84439551  1
  O  O10  1  0.69868207  0.55590524  0.18424162  1
  O  O11  1  0.87900226  0.18795137  0.45476665  1
  O  O12  1  0.17280868  0.10612183  0.77475750  1
  O  O13  1  0.55308378  0.23079864  0.15554194  1
  O  O14  1  0.82345074  0.87399062  0.25350024  1
  O  O15  1  0.44285278  0.74886140  0.87239904  1
