# generated using pymatgen
data_Ba(HO)2
_symmetry_space_group_name_H-M   'P 1'
_cell_length_a   7.22072092
_cell_length_b   11.12016986
_cell_length_c   16.74983059
_cell_angle_alpha   90.00000000
_cell_angle_beta   91.00404521
_cell_angle_gamma   90.00000000
_symmetry_Int_Tables_number   1
_chemical_formula_structural   Ba(HO)2
_chemical_formula_sum   'Ba20 H40 O40'
_cell_volume   1344.73191760
_cell_formula_units_Z   20
loop_
 _symmetry_equiv_pos_site_id
 _symmetry_equiv_pos_as_xyz
  1  'x, y, z'
loop_
 _atom_site_type_symbol
 _atom_site_label
 _atom_site_symmetry_multiplicity
 _atom_site_fract_x
 _atom_site_fract_y
 _atom_site_fract_z
 _atom_site_occupancy
  Ba  Ba0  1  0.06602307  0.82246943  0.25297953  1
  Ba  Ba1  1  0.56602307  0.67753057  0.75297953  1
  Ba  Ba2  1  0.93397693  0.17753057  0.74702047  1
  Ba  Ba3  1  0.43397693  0.32246943  0.24702047  1
  Ba  Ba4  1  0.58865894  0.97635916  0.12391221  1
  Ba  Ba5  1  0.08865894  0.52364084  0.62391221  1
  Ba  Ba6  1  0.41134106  0.02364084  0.87608779  1
  Ba  Ba7  1  0.91134106  0.47635916  0.37608779  1
  Ba  Ba8  1  0.08069523  0.52046158  0.87506232  1
  Ba  Ba9  1  0.58069523  0.97953842  0.37506232  1
  Ba  Ba10  1  0.91930477  0.47953842  0.12493768  1
  Ba  Ba11  1  0.41930477  0.02046158  0.62493768  1
  Ba  Ba12  1  0.06994944  0.83007158  0.01147528  1
  Ba  Ba13  1  0.56994944  0.66992842  0.51147528  1
  Ba  Ba14  1  0.93005056  0.16992842  0.98852472  1
  Ba  Ba15  1  0.43005056  0.33007158  0.48852472  1
  Ba  Ba16  1  0.56827294  0.66926118  0.99157059  1
  Ba  Ba17  1  0.06827294  0.83073882  0.49157059  1
  Ba  Ba18  1  0.43172706  0.33073882  0.00842941  1
  Ba  Ba19  1  0.93172706  0.16926118  0.50842941  1
  H  H20  1  0.24228330  0.56102283  0.27270213  1
  H  H21  1  0.74228330  0.93897717  0.77270213  1
  H  H22  1  0.75771670  0.43897717  0.72729787  1
  H  H23  1  0.25771670  0.06102283  0.22729787  1
  H  H24  1  0.56290507  0.78772329  0.24603127  1
  H  H25  1  0.06290507  0.71227671  0.74603127  1
  H  H26  1  0.43709493  0.21227671  0.75396873  1
  H  H27  1  0.93709493  0.28772329  0.25396873  1
  H  H28  1  0.95814118  0.07953132  0.16901547  1
  H  H29  1  0.45814118  0.42046868  0.66901547  1
  H  H30  1  0.04185882  0.92046868  0.83098453  1
  H  H31  1  0.54185882  0.57953132  0.33098453  1
  H  H32  1  0.48655605  0.43102597  0.83419595  1
  H  H33  1  0.98655605  0.06897403  0.33419595  1
  H  H34  1  0.51344395  0.56897403  0.16580405  1
  H  H35  1  0.01344395  0.93102597  0.66580405  1
  H  H36  1  0.31924684  0.70685544  0.14044774  1
  H  H37  1  0.81924684  0.79314456  0.64044774  1
  H  H38  1  0.68075316  0.29314456  0.85955226  1
  H  H39  1  0.18075316  0.20685544  0.35955226  1
  H  H40  1  0.84647807  0.79055703  0.86212160  1
  H  H41  1  0.34647807  0.70944297  0.36212160  1
  H  H42  1  0.15352193  0.20944297  0.13787840  1
  H  H43  1  0.65352193  0.29055703  0.63787840  1
  H  H44  1  0.76411190  0.74040240  0.15503043  1
  H  H45  1  0.26411190  0.75959760  0.65503043  1
  H  H46  1  0.23588810  0.25959760  0.84496957  1
  H  H47  1  0.73588810  0.24040240  0.34496957  1
  H  H48  1  0.26214735  0.75726709  0.84735976  1
  H  H49  1  0.76214735  0.74273291  0.34735976  1
  H  H50  1  0.73785265  0.24273291  0.15264024  1
  H  H51  1  0.23785265  0.25726709  0.65264024  1
  H  H52  1  0.28276824  0.54740425  0.07389842  1
  H  H53  1  0.78276824  0.95259575  0.57389842  1
  H  H54  1  0.71723176  0.45259575  0.92610158  1
  H  H55  1  0.21723176  0.04740425  0.42610158  1
  H  H56  1  0.77694129  0.94729112  0.92741077  1
  H  H57  1  0.27694129  0.55270888  0.42741077  1
  H  H58  1  0.22305871  0.05270888  0.07258923  1
  H  H59  1  0.72305871  0.44729112  0.57258923  1
  O  O60  1  0.11933099  0.57597302  0.25055811  1
  O  O61  1  0.61933099  0.92402698  0.75055811  1
  O  O62  1  0.88066901  0.42402698  0.74944189  1
  O  O63  1  0.38066901  0.07597302  0.24944189  1
  O  O64  1  0.68671496  0.82214401  0.25011154  1
  O  O65  1  0.18671496  0.67785599  0.75011154  1
  O  O66  1  0.31328504  0.17785599  0.74988846  1
  O  O67  1  0.81328504  0.32214401  0.24988846  1
  O  O68  1  0.99374967  0.00859931  0.13876831  1
  O  O69  1  0.49374967  0.49140069  0.63876831  1
  O  O70  1  0.00625033  0.99140069  0.86123169  1
  O  O71  1  0.50625033  0.50859931  0.36123169  1
  O  O72  1  0.47122371  0.50178560  0.86766836  1
  O  O73  1  0.97122371  0.99821440  0.36766836  1
  O  O74  1  0.52877629  0.49821440  0.13233164  1
  O  O75  1  0.02877629  0.00178560  0.63233164  1
  O  O76  1  0.34127619  0.79075457  0.12676105  1
  O  O77  1  0.84127619  0.70924543  0.62676105  1
  O  O78  1  0.65872381  0.20924543  0.87323895  1
  O  O79  1  0.15872381  0.29075457  0.37323895  1
  O  O80  1  0.83614150  0.70775779  0.88070047  1
  O  O81  1  0.33614150  0.79224221  0.38070047  1
  O  O82  1  0.16385850  0.29224221  0.11929953  1
  O  O83  1  0.66385850  0.20775779  0.61929953  1
  O  O84  1  0.83917717  0.72167131  0.10787708  1
  O  O85  1  0.33917717  0.77832869  0.60787708  1
  O  O86  1  0.16082283  0.27832869  0.89212292  1
  O  O87  1  0.66082283  0.22167131  0.39212292  1
  O  O88  1  0.33416689  0.78394277  0.89476392  1
  O  O89  1  0.83416689  0.71605723  0.39476392  1
  O  O90  1  0.66583311  0.21605723  0.10523608  1
  O  O91  1  0.16583311  0.28394277  0.60523608  1
  O  O92  1  0.20962269  0.55857614  0.02438958  1
  O  O93  1  0.70962269  0.94142386  0.52438958  1
  O  O94  1  0.79037731  0.44142386  0.97561042  1
  O  O95  1  0.29037731  0.05857614  0.47561042  1
  O  O96  1  0.70659156  0.94722280  0.97710952  1
  O  O97  1  0.20659156  0.55277720  0.47710952  1
  O  O98  1  0.29340844  0.05277720  0.02289048  1
  O  O99  1  0.79340844  0.44722280  0.52289048  1
