# generated using pymatgen
data_Li11Mn13O32
_symmetry_space_group_name_H-M   'P 1'
_cell_length_a   11.76399195
_cell_length_b   15.60075143
_cell_length_c   10.21846053
_cell_angle_alpha   28.88045596
_cell_angle_beta   54.18443030
_cell_angle_gamma   40.50729232
_symmetry_Int_Tables_number   1
_chemical_formula_structural   Li11Mn13O32
_chemical_formula_sum   'Li11 Mn13 O32'
_cell_volume   568.59836048
_cell_formula_units_Z   1
loop_
 _symmetry_equiv_pos_site_id
 _symmetry_equiv_pos_as_xyz
  1  'x, y, z'
loop_
 _atom_site_type_symbol
 _atom_site_label
 _atom_site_symmetry_multiplicity
 _atom_site_fract_x
 _atom_site_fract_y
 _atom_site_fract_z
 _atom_site_occupancy
  Li  Li0  1  0.99898812  0.00000000  0.01004099  1
  Li  Li1  1  0.50332046  0.00000000  0.00508941  1
  Li  Li2  1  0.25199410  0.50518303  0.99849000  1
  Li  Li3  1  0.06468920  0.49562161  0.62937839  1
  Li  Li4  1  0.37300590  0.49481697  0.25151000  1
  Li  Li5  1  0.81250000  0.00000000  0.62500000  1
  Li  Li6  1  0.75717713  0.49481697  0.00885606  1
  Li  Li7  1  0.12167954  0.00000000  0.24491059  1
  Li  Li8  1  0.56031080  0.50437839  0.62062161  1
  Li  Li9  1  0.86782287  0.50518303  0.24114394  1
  Li  Li10  1  0.62601188  0.00000000  0.23995901  1
  Mn  Mn11  1  0.05851823  0.00000000  0.62792918  1
  Mn  Mn12  1  0.18645788  0.25483911  0.11799546  1
  Mn  Mn13  1  0.31250000  0.00000000  0.62500000  1
  Mn  Mn14  1  0.18370301  0.25483911  0.62232632  1
  Mn  Mn15  1  0.56648177  0.00000000  0.62207082  1
  Mn  Mn16  1  0.68813690  0.24965759  0.12453873  1
  Mn  Mn17  1  0.31250000  0.50000000  0.62500000  1
  Mn  Mn18  1  0.68720552  0.24965759  0.62614609  1
  Mn  Mn19  1  0.43854212  0.74516089  0.13200454  1
  Mn  Mn20  1  0.44129699  0.74516089  0.62767368  1
  Mn  Mn21  1  0.81250000  0.50000000  0.62500000  1
  Mn  Mn22  1  0.93686310  0.75034241  0.12546127  1
  Mn  Mn23  1  0.93779448  0.75034241  0.62385391  1
  O  O24  1  0.19492179  0.00000000  0.38988718  1
  O  O25  1  0.08524395  0.22138135  0.39177621  1
  O  O26  1  0.41717703  0.00000000  0.39203363  1
  O  O27  1  0.20782297  0.00000000  0.85796637  1
  O  O28  1  0.05552272  0.26662208  0.83542706  1
  O  O29  1  0.31837469  0.22138135  0.41546108  1
  O  O30  1  0.43007821  0.00000000  0.86011282  1
  O  O31  1  0.16994618  0.49480052  0.37933452  1
  O  O32  1  0.69394888  0.00000000  0.38584029  1
  O  O33  1  0.57062047  0.22822013  0.37829349  1
  O  O34  1  0.30285521  0.26662208  0.88132878  1
  O  O35  1  0.07244587  0.72683230  0.41812968  1
  O  O36  1  0.91620496  0.00000000  0.37753969  1
  O  O37  1  0.18133088  0.50155292  0.86145357  1
  O  O38  1  0.44366912  0.49844708  0.38854643  1
  O  O39  1  0.70879504  0.00000000  0.87246031  1
  O  O40  1  0.05437953  0.77177987  0.87170651  1
  O  O41  1  0.82615940  0.22822013  0.41526625  1
  O  O42  1  0.55255413  0.27316770  0.83187032  1
  O  O43  1  0.32214479  0.73337792  0.36867122  1
  O  O44  1  0.93105112  0.00000000  0.86415971  1
  O  O45  1  0.66474670  0.50519948  0.36893555  1
  O  O46  1  0.45505382  0.50519948  0.87066548  1
  O  O47  1  0.79927818  0.27316770  0.87179429  1
  O  O48  1  0.30662531  0.77861865  0.83453892  1
  O  O49  1  0.56947728  0.73337792  0.41457294  1
  O  O50  1  0.68288380  0.49844708  0.86455942  1
  O  O51  1  0.94211620  0.50155292  0.38544058  1
  O  O52  1  0.82572182  0.72683230  0.37820571  1
  O  O53  1  0.53975605  0.77861865  0.85822379  1
  O  O54  1  0.96025330  0.49480052  0.88106445  1
  O  O55  1  0.79884060  0.77177987  0.83473375  1
