# generated using pymatgen
data_KCa2P4H9O17
_symmetry_space_group_name_H-M   'P 1'
_cell_length_a   10.66315054
_cell_length_b   19.42820316
_cell_length_c   7.43948969
_cell_angle_alpha   90.00000000
_cell_angle_beta   90.71357963
_cell_angle_gamma   90.00000000
_symmetry_Int_Tables_number   1
_chemical_formula_structural   KCa2P4H9O17
_chemical_formula_sum   'K4 Ca8 P16 H36 O68'
_cell_volume   1541.08871665
_cell_formula_units_Z   4
loop_
 _symmetry_equiv_pos_site_id
 _symmetry_equiv_pos_as_xyz
  1  'x, y, z'
loop_
 _atom_site_type_symbol
 _atom_site_label
 _atom_site_symmetry_multiplicity
 _atom_site_fract_x
 _atom_site_fract_y
 _atom_site_fract_z
 _atom_site_occupancy
  K  K0  1  0.15844761  0.60237831  0.35170512  1
  K  K1  1  0.65844761  0.89762169  0.85170512  1
  K  K2  1  0.84155239  0.39762169  0.64829488  1
  K  K3  1  0.34155239  0.10237831  0.14829488  1
  Ca  Ca4  1  0.42447914  0.74503479  0.09222680  1
  Ca  Ca5  1  0.92447914  0.75496521  0.59222680  1
  Ca  Ca6  1  0.57552086  0.25496521  0.90777320  1
  Ca  Ca7  1  0.07552086  0.24503479  0.40777320  1
  Ca  Ca8  1  0.34435799  0.76942462  0.59218747  1
  Ca  Ca9  1  0.84435799  0.73057538  0.09218747  1
  Ca  Ca10  1  0.65564201  0.23057538  0.40781253  1
  Ca  Ca11  1  0.15564201  0.26942462  0.90781253  1
  P  P12  1  0.99367750  0.59885004  0.82736928  1
  P  P13  1  0.49367750  0.90114996  0.32736928  1
  P  P14  1  0.00632250  0.40114996  0.17263072  1
  P  P15  1  0.50632250  0.09885004  0.67263072  1
  P  P16  1  0.27582695  0.61425197  0.84102560  1
  P  P17  1  0.77582695  0.88574803  0.34102560  1
  P  P18  1  0.72417305  0.38574803  0.15897440  1
  P  P19  1  0.22417305  0.11425197  0.65897440  1
  P  P20  1  0.13127804  0.77586628  0.31479951  1
  P  P21  1  0.63127804  0.72413372  0.81479951  1
  P  P22  1  0.86872196  0.22413372  0.68520049  1
  P  P23  1  0.36872196  0.27586628  0.18520049  1
  P  P24  1  0.12911853  0.82395816  0.94355497  1
  P  P25  1  0.62911853  0.67604184  0.44355497  1
  P  P26  1  0.87088147  0.17604184  0.05644503  1
  P  P27  1  0.37088147  0.32395816  0.55644503  1
  H  H28  1  0.04553572  0.49685918  0.71299562  1
  H  H29  1  0.54553572  0.00314082  0.21299562  1
  H  H30  1  0.95446428  0.50314082  0.28700438  1
  H  H31  1  0.45446428  0.99685918  0.78700438  1
  H  H32  1  0.32088599  0.50365213  0.88634253  1
  H  H33  1  0.82088599  0.99634787  0.38634253  1
  H  H34  1  0.67911401  0.49634787  0.11365747  1
  H  H35  1  0.17911401  0.00365213  0.61365747  1
  H  H36  1  0.03652665  0.92379719  0.86331201  1
  H  H37  1  0.53652665  0.57620281  0.36331201  1
  H  H38  1  0.96347335  0.07620281  0.13668799  1
  H  H39  1  0.46347335  0.42379719  0.63668799  1
  H  H40  1  0.12907417  0.90802620  0.48491098  1
  H  H41  1  0.62907417  0.59197380  0.98491098  1
  H  H42  1  0.87092583  0.09197380  0.51508902  1
  H  H43  1  0.37092583  0.40802620  0.01508902  1
  H  H44  1  0.26517531  0.93171939  0.46273938  1
  H  H45  1  0.76517531  0.56828061  0.96273938  1
  H  H46  1  0.73482469  0.06828061  0.53726062  1
  H  H47  1  0.23482469  0.43171939  0.03726062  1
  H  H48  1  0.28641685  0.95090549  0.88898356  1
  H  H49  1  0.78641685  0.54909451  0.38898356  1
  H  H50  1  0.71358315  0.04909451  0.11101644  1
  H  H51  1  0.21358315  0.45090549  0.61101644  1
  H  H52  1  0.40546532  0.92242231  0.99746244  1
  H  H53  1  0.90546532  0.57757769  0.49746244  1
  H  H54  1  0.59453468  0.07757769  0.00253756  1
  H  H55  1  0.09453468  0.42242231  0.50253756  1
  H  H56  1  0.39630446  0.49863587  0.28101405  1
  H  H57  1  0.89630446  0.00136413  0.78101405  1
  H  H58  1  0.60369554  0.50136413  0.71898595  1
  H  H59  1  0.10369554  0.99863587  0.21898595  1
  H  H60  1  0.39222256  0.57033441  0.18312504  1
  H  H61  1  0.89222256  0.92966559  0.68312504  1
  H  H62  1  0.60777744  0.42966559  0.81687496  1
  H  H63  1  0.10777744  0.07033441  0.31687496  1
  O  O64  1  0.98255079  0.63620551  0.64680670  1
  O  O65  1  0.48255079  0.86379449  0.14680670  1
  O  O66  1  0.01744921  0.36379449  0.35319330  1
  O  O67  1  0.51744921  0.13620551  0.85319330  1
  O  O68  1  0.98232408  0.51858296  0.80045456  1
  O  O69  1  0.48232408  0.98141704  0.30045456  1
  O  O70  1  0.01767592  0.48141704  0.19954544  1
  O  O71  1  0.51767592  0.01858296  0.69954544  1
  O  O72  1  0.90099947  0.62070142  0.96897454  1
  O  O73  1  0.40099947  0.87929858  0.46897454  1
  O  O74  1  0.09900053  0.37929858  0.03102546  1
  O  O75  1  0.59900053  0.12070142  0.53102546  1
  O  O76  1  0.13155047  0.61115096  0.91550684  1
  O  O77  1  0.63155047  0.88884904  0.41550684  1
  O  O78  1  0.86844953  0.38884904  0.08449316  1
  O  O79  1  0.36844953  0.11115096  0.58449316  1
  O  O80  1  0.27892566  0.65934860  0.67674243  1
  O  O81  1  0.77892566  0.84065140  0.17674243  1
  O  O82  1  0.72107434  0.34065140  0.32325757  1
  O  O83  1  0.22107434  0.15934860  0.82325757  1
  O  O84  1  0.31054922  0.53867928  0.78250742  1
  O  O85  1  0.81054922  0.96132072  0.28250742  1
  O  O86  1  0.68945078  0.46132072  0.21749258  1
  O  O87  1  0.18945078  0.03867928  0.71749258  1
  O  O88  1  0.35150494  0.63492973  0.00708883  1
  O  O89  1  0.85150494  0.86507027  0.50708883  1
  O  O90  1  0.64849506  0.36507027  0.99291117  1
  O  O91  1  0.14849506  0.13492973  0.49291117  1
  O  O92  1  0.25730897  0.73910126  0.29527304  1
  O  O93  1  0.75730897  0.76089874  0.79527304  1
  O  O94  1  0.74269103  0.26089874  0.70472696  1
  O  O95  1  0.24269103  0.23910126  0.20472696  1
  O  O96  1  0.12604120  0.81205995  0.49792885  1
  O  O97  1  0.62604120  0.68794005  0.99792885  1
  O  O98  1  0.87395880  0.18794005  0.50207115  1
  O  O99  1  0.37395880  0.31205995  0.00207115  1
  O  O100  1  0.01699565  0.72867630  0.29216709  1
  O  O101  1  0.51699565  0.77132370  0.79216709  1
  O  O102  1  0.98300435  0.27132370  0.70783291  1
  O  O103  1  0.48300435  0.22867630  0.20783291  1
  O  O104  1  0.12409268  0.83497138  0.16088783  1
  O  O105  1  0.62409268  0.66502862  0.66088783  1
  O  O106  1  0.87590732  0.16502862  0.83911217  1
  O  O107  1  0.37590732  0.33497138  0.33911217  1
  O  O108  1  0.25633379  0.79490321  0.89495898  1
  O  O109  1  0.75633379  0.70509679  0.39495898  1
  O  O110  1  0.74366621  0.20509679  0.10504102  1
  O  O111  1  0.24366621  0.29490321  0.60504102  1
  O  O112  1  0.12351070  0.90182382  0.88024685  1
  O  O113  1  0.62351070  0.59817618  0.38024685  1
  O  O114  1  0.87648930  0.09817618  0.11975315  1
  O  O115  1  0.37648930  0.40182382  0.61975315  1
  O  O116  1  0.01443209  0.78307521  0.88666575  1
  O  O117  1  0.51443209  0.71692479  0.38666575  1
  O  O118  1  0.98556791  0.21692479  0.11333425  1
  O  O119  1  0.48556791  0.28307521  0.61333425  1
  O  O120  1  0.17800031  0.95043301  0.46237079  1
  O  O121  1  0.67800031  0.54956699  0.96237079  1
  O  O122  1  0.82199969  0.04956699  0.53762921  1
  O  O123  1  0.32199969  0.45043301  0.03762921  1
  O  O124  1  0.37305002  0.96193037  0.92601664  1
  O  O125  1  0.87305002  0.53806963  0.42601664  1
  O  O126  1  0.62694998  0.03806963  0.07398336  1
  O  O127  1  0.12694998  0.46193037  0.57398336  1
  O  O128  1  0.40348674  0.54852761  0.30305613  1
  O  O129  1  0.90348674  0.95147239  0.80305613  1
  O  O130  1  0.59651326  0.45147239  0.69694387  1
  O  O131  1  0.09651326  0.04852761  0.19694387  1
