# generated using pymatgen
data_Al2NiO4
_symmetry_space_group_name_H-M   'P 1'
_cell_length_a   5.76768402
_cell_length_b   5.75911872
_cell_length_c   22.92190950
_cell_angle_alpha   59.83452150
_cell_angle_beta   59.85301912
_cell_angle_gamma   60.04910992
_symmetry_Int_Tables_number   1
_chemical_formula_structural   Al2NiO4
_chemical_formula_sum   'Al16 Ni8 O32'
_cell_volume   537.30864905
_cell_formula_units_Z   8
loop_
 _symmetry_equiv_pos_site_id
 _symmetry_equiv_pos_as_xyz
  1  'x, y, z'
loop_
 _atom_site_type_symbol
 _atom_site_label
 _atom_site_symmetry_multiplicity
 _atom_site_fract_x
 _atom_site_fract_y
 _atom_site_fract_z
 _atom_site_occupancy
  Al  Al0  1  0.49720704  0.49634525  0.00252562  1
  Al  Al1  1  0.49566524  0.00631955  0.12529920  1
  Al  Al2  1  0.49566524  0.49681840  0.12529920  1
  Al  Al3  1  0.49438538  0.49759769  0.25260481  1
  Al  Al4  1  0.13001371  0.11696854  0.53401230  1
  Al  Al5  1  0.49352268  0.00450542  0.37548654  1
  Al  Al6  1  0.49352268  0.50002575  0.37548654  1
  Al  Al7  1  0.14104744  0.11770140  0.78088744  1
  Al  Al8  1  0.85903429  0.88098223  0.21975031  1
  Al  Al9  1  0.50146713  0.00082461  0.62433584  1
  Al  Al10  1  0.50146713  0.50036489  0.62433584  1
  Al  Al11  1  0.86566129  0.88498354  0.46609291  1
  Al  Al12  1  0.50681633  0.00214242  0.87328911  1
  Al  Al13  1  0.50681633  0.49788480  0.87328911  1
  Al  Al14  1  0.87019911  0.88224619  0.71632713  1
  Al  Al15  1  0.86304373  0.87836824  0.97005495  1
  Ni  Ni16  1  0.13056126  0.12609223  0.02931357  1
  Ni  Ni17  1  0.00342265  0.49799415  0.12514726  1
  Ni  Ni18  1  0.12021693  0.12217640  0.28385757  1
  Ni  Ni19  1  0.99789816  0.50026112  0.37539490  1
  Ni  Ni20  1  0.00055607  0.50040224  0.62465986  1
  Ni  Ni21  1  0.49893060  0.50182241  0.49935615  1
  Ni  Ni22  1  0.00773020  0.49815675  0.87398908  1
  Ni  Ni23  1  0.50311369  0.49891046  0.74976635  1
  O  O24  1  0.28471484  0.25000684  0.06285805  1
  O  O25  1  0.28203478  0.24990317  0.17953972  1
  O  O26  1  0.28471484  0.71384611  0.06285805  1
  O  O27  1  0.71240156  0.26144922  0.06617500  1
  O  O28  1  0.28129209  0.25278717  0.31383010  1
  O  O29  1  0.26265841  0.74577365  0.18644857  1
  O  O30  1  0.72422519  0.27076862  0.18817400  1
  O  O31  1  0.26136652  0.24433571  0.43749052  1
  O  O32  1  0.28129209  0.71060035  0.31383010  1
  O  O33  1  0.72588772  0.75199284  0.06753165  1
  O  O34  1  0.72422519  0.75231019  0.18817400  1
  O  O35  1  0.69991388  0.26555682  0.31724312  1
  O  O36  1  0.26529180  0.23262198  0.56676767  1
  O  O37  1  0.25628411  0.75856892  0.43164451  1
  O  O38  1  0.73170413  0.26547691  0.43300701  1
  O  O39  1  0.26529180  0.73501555  0.56676767  1
  O  O40  1  0.72466711  0.75425157  0.31670744  1
  O  O41  1  0.27361256  0.24636675  0.68341348  1
  O  O42  1  0.73170413  0.77079093  0.43300701  1
  O  O43  1  0.73800295  0.24598579  0.56750637  1
  O  O44  1  0.26963985  0.22916508  0.81570471  1
  O  O45  1  0.26144359  0.75315619  0.68306101  1
  O  O46  1  0.29786773  0.25256611  0.92425001  1
  O  O47  1  0.73485303  0.26362343  0.68364419  1
  O  O48  1  0.26963985  0.73837622  0.81570471  1
  O  O49  1  0.72934985  0.75488274  0.56522117  1
  O  O50  1  0.75427476  0.24101734  0.81592264  1
  O  O51  1  0.73485303  0.76694677  0.68364419  1
  O  O52  1  0.26840813  0.74137649  0.93720972  1
  O  O53  1  0.72923839  0.26938842  0.93813467  1
  O  O54  1  0.73194340  0.75236296  0.81583267  1
  O  O55  1  0.72923839  0.74883451  0.93813467  1
