# generated using pymatgen
data_Ca3La5Mn6(CuO12)2
_symmetry_space_group_name_H-M   'P 1'
_cell_length_a   5.46895402
_cell_length_b   5.47602286
_cell_length_c   15.67773510
_cell_angle_alpha   90.01666811
_cell_angle_beta   90.02641904
_cell_angle_gamma   89.98158717
_symmetry_Int_Tables_number   1
_chemical_formula_structural   Ca3La5Mn6(CuO12)2
_chemical_formula_sum   'Ca3 La5 Mn6 Cu2 O24'
_cell_volume   469.51855407
_cell_formula_units_Z   1
loop_
 _symmetry_equiv_pos_site_id
 _symmetry_equiv_pos_as_xyz
  1  'x, y, z'
loop_
 _atom_site_type_symbol
 _atom_site_label
 _atom_site_symmetry_multiplicity
 _atom_site_fract_x
 _atom_site_fract_y
 _atom_site_fract_z
 _atom_site_occupancy
  Ca  Ca0  1  0.46661431  0.48978869  0.87875468  1
  Ca  Ca1  1  0.53309513  0.50921362  0.11912115  1
  Ca  Ca2  1  0.96411222  0.00985445  0.87622438  1
  La  La3  1  0.02515363  0.99523360  0.11943109  1
  La  La4  1  0.02445827  0.99263284  0.62570411  1
  La  La5  1  0.47810924  0.49174511  0.37674089  1
  La  La6  1  0.52428775  0.50813509  0.62537401  1
  La  La7  1  0.97746190  0.00735379  0.37860542  1
  Mn  Mn8  1  0.50146164  0.99741152  0.24449345  1
  Mn  Mn9  1  0.49842266  0.00296234  0.75737273  1
  Mn  Mn10  1  0.50016499  0.99938628  0.99681099  1
  Mn  Mn11  1  0.00163786  0.50176132  0.24475002  1
  Mn  Mn12  1  0.00018698  0.49962933  0.99660192  1
  Mn  Mn13  1  0.99896450  0.49767302  0.75737602  1
  Cu  Cu14  1  0.50025364  0.00054521  0.50093809  1
  Cu  Cu15  1  0.00048846  0.50059747  0.50097459  1
  O  O16  1  0.00953731  0.56827704  0.36582382  1
  O  O17  1  0.02172446  0.58341475  0.87752613  1
  O  O18  1  0.22915354  0.22960789  0.48302179  1
  O  O19  1  0.22508999  0.22345081  0.26751491  1
  O  O20  1  0.21826655  0.21888060  0.77534518  1
  O  O21  1  0.21537379  0.21368106  0.97968959  1
  O  O22  1  0.27787180  0.72291439  0.22397575  1
  O  O23  1  0.27450613  0.72543917  0.73157205  1
  O  O24  1  0.27857256  0.72114938  0.02122441  1
  O  O25  1  0.27220956  0.72907515  0.51732227  1
  O  O26  1  0.49049969  0.07917826  0.12138293  1
  O  O27  1  0.49182872  0.06971399  0.63562380  1
  O  O28  1  0.50746911  0.93036436  0.36579103  1
  O  O29  1  0.51965276  0.91594409  0.87735601  1
  O  O30  1  0.72812367  0.27231035  0.48292797  1
  O  O31  1  0.72089927  0.27841826  0.97919472  1
  O  O32  1  0.72977252  0.26991778  0.26839486  1
  O  O33  1  0.71793537  0.28230802  0.77562762  1
  O  O34  1  0.77690939  0.77645626  0.01884947  1
  O  O35  1  0.77626628  0.77477093  0.22629947  1
  O  O36  1  0.77265237  0.77277237  0.51753679  1
  O  O37  1  0.77512335  0.77589460  0.73194922  1
  O  O38  1  0.99161201  0.43105840  0.63555140  1
  O  O39  1  0.98407661  0.43107841  0.12122527  1
