# generated using pymatgen
data_Li10Sn(PSe6)2
_symmetry_space_group_name_H-M   'P 1'
_cell_length_a   9.32218105
_cell_length_b   9.32218105
_cell_length_c   13.52214101
_cell_angle_alpha   90.00000000
_cell_angle_beta   90.00000000
_cell_angle_gamma   90.00000000
_symmetry_Int_Tables_number   1
_chemical_formula_structural   Li10Sn(PSe6)2
_chemical_formula_sum   'Li20 Sn2 P4 Se24'
_cell_volume   1175.11542515
_cell_formula_units_Z   2
loop_
 _symmetry_equiv_pos_site_id
 _symmetry_equiv_pos_as_xyz
  1  'x, y, z'
loop_
 _atom_site_type_symbol
 _atom_site_label
 _atom_site_symmetry_multiplicity
 _atom_site_fract_x
 _atom_site_fract_y
 _atom_site_fract_z
 _atom_site_occupancy
  Li  Li0  1  0.22732958  0.77289502  0.29430297  1
  Li  Li1  1  0.77267042  0.22710498  0.29430297  1
  Li  Li2  1  0.27289502  0.27267042  0.79430297  1
  Li  Li3  1  0.72710498  0.72732958  0.79430297  1
  Li  Li4  1  0.22732958  0.22710498  0.29430297  1
  Li  Li5  1  0.77267042  0.77289502  0.29430297  1
  Li  Li6  1  0.27289502  0.72732958  0.79430297  1
  Li  Li7  1  0.72710498  0.27267042  0.79430297  1
  Li  Li8  1  0.00000000  0.50000000  0.94159739  1
  Li  Li9  1  0.00000000  0.50000000  0.44159739  1
  Li  Li10  1  0.50000000  0.00000000  0.54748240  1
  Li  Li11  1  0.50000000  0.00000000  0.04748240  1
  Li  Li12  1  0.25735505  0.22615719  0.03664798  1
  Li  Li13  1  0.74264495  0.77384281  0.03664798  1
  Li  Li14  1  0.27384281  0.75735505  0.53664798  1
  Li  Li15  1  0.72615719  0.24264495  0.53664798  1
  Li  Li16  1  0.27384281  0.24264495  0.53664798  1
  Li  Li17  1  0.72615719  0.75735505  0.53664798  1
  Li  Li18  1  0.25735505  0.77384281  0.03664798  1
  Li  Li19  1  0.74264495  0.22615719  0.03664798  1
  Sn  Sn20  1  0.50000000  0.00000000  0.80157992  1
  Sn  Sn21  1  0.50000000  0.00000000  0.30157992  1
  P  P22  1  0.00000000  0.50000000  0.68515018  1
  P  P23  1  0.00000000  0.50000000  0.18515018  1
  P  P24  1  0.00000000  0.00000000  0.50340531  1
  P  P25  1  0.50000000  0.50000000  0.00340531  1
  Se  Se26  1  0.00000000  0.19893479  0.41028044  1
  Se  Se27  1  0.00000000  0.80106521  0.41028044  1
  Se  Se28  1  0.30106521  0.50000000  0.91028044  1
  Se  Se29  1  0.69893479  0.50000000  0.91028044  1
  Se  Se30  1  0.50000000  0.69349840  0.09962026  1
  Se  Se31  1  0.50000000  0.30650160  0.09962026  1
  Se  Se32  1  0.19349840  0.00000000  0.59962026  1
  Se  Se33  1  0.80650160  0.00000000  0.59962026  1
  Se  Se34  1  0.00000000  0.30043277  0.09273233  1
  Se  Se35  1  0.00000000  0.69956723  0.09273233  1
  Se  Se36  1  0.19956723  0.50000000  0.59273233  1
  Se  Se37  1  0.80043277  0.50000000  0.59273233  1
  Se  Se38  1  0.50000000  0.77292935  0.40844831  1
  Se  Se39  1  0.50000000  0.22707065  0.40844831  1
  Se  Se40  1  0.27292935  0.00000000  0.90844831  1
  Se  Se41  1  0.72707065  0.00000000  0.90844831  1
  Se  Se42  1  0.00000000  0.69552518  0.77895664  1
  Se  Se43  1  0.00000000  0.30447482  0.77895664  1
  Se  Se44  1  0.80447482  0.50000000  0.27895664  1
  Se  Se45  1  0.19552518  0.50000000  0.27895664  1
  Se  Se46  1  0.50000000  0.22270463  0.69205552  1
  Se  Se47  1  0.50000000  0.77729537  0.69205552  1
  Se  Se48  1  0.72270463  0.00000000  0.19205552  1
  Se  Se49  1  0.27729537  0.00000000  0.19205552  1
