# generated using pymatgen
data_Na3NdV2O8
_symmetry_space_group_name_H-M   'P 1'
_cell_length_a   5.64668967
_cell_length_b   14.38861649
_cell_length_c   15.05064435
_cell_angle_alpha   91.35350943
_cell_angle_beta   100.80048741
_cell_angle_gamma   89.99567157
_symmetry_Int_Tables_number   1
_chemical_formula_structural   Na3NdV2O8
_chemical_formula_sum   'Na18 Nd6 V12 O48'
_cell_volume   1200.82687630
_cell_formula_units_Z   6
loop_
 _symmetry_equiv_pos_site_id
 _symmetry_equiv_pos_as_xyz
  1  'x, y, z'
loop_
 _atom_site_type_symbol
 _atom_site_label
 _atom_site_symmetry_multiplicity
 _atom_site_fract_x
 _atom_site_fract_y
 _atom_site_fract_z
 _atom_site_occupancy
  Na  Na0  1  0.67795650  0.46881991  0.34016315  1
  Na  Na1  1  0.10168584  0.91368818  0.20308401  1
  Na  Na2  1  0.31199673  0.73267710  0.64283453  1
  Na  Na3  1  0.71287557  0.80982314  0.53834134  1
  Na  Na4  1  0.96510771  0.99693162  0.95436437  1
  Na  Na5  1  0.55980670  0.55986568  0.08418110  1
  Na  Na6  1  0.21589114  0.09118857  0.40297348  1
  Na  Na7  1  0.66825268  0.97013650  0.33936761  1
  Na  Na8  1  0.09365211  0.41296355  0.20238830  1
  Na  Na9  1  0.52580874  0.05968038  0.08418815  1
  Na  Na10  1  0.92591670  0.65091715  0.75487010  1
  Na  Na11  1  0.83095262  0.15125944  0.75456267  1
  Na  Na12  1  0.99250999  0.49579445  0.95630423  1
  Na  Na13  1  0.32625621  0.23196937  0.64171348  1
  Na  Na14  1  0.45439369  0.37839051  0.88042580  1
  Na  Na15  1  0.43292815  0.87846057  0.88179220  1
  Na  Na16  1  0.82380980  0.31045906  0.54016504  1
  Na  Na17  1  0.19215468  0.59124542  0.40153664  1
  Nd  Nd18  1  0.42446702  0.48590451  0.64451418  1
  Nd  Nd19  1  0.61030629  0.71865735  0.29271837  1
  Nd  Nd20  1  0.04231004  0.75099052  0.00101591  1
  Nd  Nd21  1  0.68556254  0.21786869  0.29349943  1
  Nd  Nd22  1  0.21836280  0.98544125  0.64529907  1
  Nd  Nd23  1  0.96095848  0.25110691  0.00068704  1
  V  V24  1  0.40355695  0.12888130  0.86901317  1
  V  V25  1  0.82832426  0.88314955  0.76124903  1
  V  V26  1  0.81037773  0.57928019  0.53048833  1
  V  V27  1  0.71838228  0.07830574  0.53135846  1
  V  V28  1  0.07969268  0.63359681  0.18885729  1
  V  V29  1  0.46699856  0.62850837  0.86972732  1
  V  V30  1  0.18179452  0.83931019  0.42386761  1
  V  V31  1  0.54522920  0.33927117  0.10655225  1
  V  V32  1  0.93142696  0.38393699  0.76070036  1
  V  V33  1  0.24372702  0.33798235  0.42393671  1
  V  V34  1  0.10867462  0.13334145  0.18913392  1
  V  V35  1  0.56157848  0.84031731  0.10593585  1
  O  O36  1  0.96268551  0.81098612  0.69210100  1
  O  O37  1  0.97085117  0.35243216  0.87400950  1
  O  O38  1  0.25068938  0.35942285  0.53961753  1
  O  O39  1  0.77934542  0.64899522  0.89796972  1
  O  O40  1  0.39568996  0.53346390  0.92697065  1
  O  O41  1  0.61869919  0.87053763  0.22075322  1
  O  O42  1  0.75044508  0.39178565  0.04947122  1
  O  O43  1  0.51288275  0.72182729  0.10176854  1
  O  O44  1  0.95584512  0.99204310  0.75426375  1
  O  O45  1  0.89756624  0.85098905  0.87425095  1
  O  O46  1  0.31205782  0.72546931  0.90175408  1
  O  O47  1  0.73439988  0.61059019  0.41751598  1
  O  O48  1  0.83992655  0.59589957  0.23698467  1
  O  O49  1  0.80021411  0.87169473  0.05480283  1
  O  O50  1  0.87279687  0.81181358  0.40154665  1
  O  O51  1  0.23633165  0.93350529  0.36234756  1
  O  O52  1  0.11914906  0.14935545  0.89728332  1
  O  O53  1  0.60898638  0.36933123  0.22145615  1
  O  O54  1  0.58997526  0.22540592  0.90298822  1
  O  O55  1  0.03365622  0.60101363  0.07444942  1
  O  O56  1  0.05338128  0.24211009  0.39306302  1
  O  O57  1  0.04282176  0.10179843  0.07455116  1
  O  O58  1  0.53192910  0.31131275  0.40247160  1
  O  O59  1  0.66306218  0.64589492  0.60030788  1
  O  O60  1  0.34417843  0.74436789  0.39285129  1
  O  O61  1  0.72865930  0.31180754  0.69155600  1
  O  O62  1  0.51096657  0.88507984  0.72893160  1
  O  O63  1  0.36657239  0.61057840  0.75312874  1
  O  O64  1  0.12762408  0.58600132  0.56187829  1
  O  O65  1  0.39751703  0.09657702  0.23736467  1
  O  O66  1  0.53288085  0.03320754  0.92494682  1
  O  O67  1  0.25488849  0.37166676  0.05662688  1
  O  O68  1  0.29917957  0.89310010  0.04942338  1
  O  O69  1  0.38700058  0.11293067  0.75220081  1
  O  O70  1  0.21750853  0.38534788  0.72917399  1
  O  O71  1  0.12695365  0.43184820  0.36216215  1
  O  O72  1  0.68347379  0.11068686  0.41872935  1
  O  O73  1  0.83789925  0.96733042  0.54066489  1
  O  O74  1  0.34219590  0.58522524  0.24867449  1
  O  O75  1  0.79797911  0.49299629  0.75217697  1
  O  O76  1  0.10684864  0.75252074  0.19273223  1
  O  O77  1  0.70291965  0.46808629  0.54057954  1
  O  O78  1  0.93296969  0.14492689  0.60206347  1
  O  O79  1  0.90564140  0.08312266  0.24791215  1
  O  O80  1  0.08027722  0.25203189  0.19461536  1
  O  O81  1  0.28820187  0.86048502  0.53965959  1
  O  O82  1  0.43113890  0.08420031  0.56166019  1
  O  O83  1  0.58489217  0.22082090  0.10164602  1
