# generated using pymatgen
data_Na2Co2(B4O7)3
_symmetry_space_group_name_H-M   'P 1'
_cell_length_a   4.60049511
_cell_length_b   11.74046490
_cell_length_c   14.64651712
_cell_angle_alpha   80.98417189
_cell_angle_beta   80.96423932
_cell_angle_gamma   78.70124859
_symmetry_Int_Tables_number   1
_chemical_formula_structural   Na2Co2(B4O7)3
_chemical_formula_sum   'Na4 Co4 B24 O42'
_cell_volume   759.62275798
_cell_formula_units_Z   2
loop_
 _symmetry_equiv_pos_site_id
 _symmetry_equiv_pos_as_xyz
  1  'x, y, z'
loop_
 _atom_site_type_symbol
 _atom_site_label
 _atom_site_symmetry_multiplicity
 _atom_site_fract_x
 _atom_site_fract_y
 _atom_site_fract_z
 _atom_site_occupancy
  Na  Na0  1  0.40888604  0.79570512  0.49075900  1
  Na  Na1  1  0.69535016  0.70429488  0.00924100  1
  Na  Na2  1  0.59111396  0.20429488  0.50924100  1
  Na  Na3  1  0.30464984  0.29570512  0.99075900  1
  Co  Co4  1  0.44715851  0.49064148  0.60494221  1
  Co  Co5  1  0.45725781  0.99064148  0.10494221  1
  Co  Co6  1  0.54274219  0.00935852  0.89505779  1
  Co  Co7  1  0.55284149  0.50935852  0.39505779  1
  B  B8  1  0.80725704  0.16699016  0.15549622  1
  B  B9  1  0.87025658  0.66699016  0.65549622  1
  B  B10  1  0.62609237  0.67295342  0.81755440  1
  B  B11  1  0.58453252  0.03623373  0.29363884  1
  B  B12  1  0.55558241  0.37866554  0.79718985  1
  B  B13  1  0.37390763  0.32704658  0.18244560  1
  B  B14  1  0.44441759  0.62133446  0.20281015  1
  B  B15  1  0.06702984  0.79773217  0.17273141  1
  B  B16  1  0.26856220  0.87866554  0.29718985  1
  B  B17  1  0.04072063  0.37887758  0.50755792  1
  B  B18  1  0.41546748  0.96376627  0.70636116  1
  B  B19  1  0.93297016  0.20226783  0.82726859  1
  B  B20  1  0.19274296  0.83300984  0.84450378  1
  B  B21  1  0.03749341  0.70226783  0.32726859  1
  B  B22  1  0.96250659  0.29773217  0.67273141  1
  B  B23  1  0.12974342  0.33300984  0.34450378  1
  B  B24  1  0.92715614  0.12112242  0.99244208  1
  B  B25  1  0.73143780  0.12133446  0.70281015  1
  B  B26  1  0.95927937  0.62112242  0.49244208  1
  B  B27  1  0.88339980  0.17295342  0.31755440  1
  B  B28  1  0.07284386  0.87887758  0.00755792  1
  B  B29  1  0.11660020  0.82704658  0.68244560  1
  B  B30  1  0.91440510  0.46376627  0.20636116  1
  B  B31  1  0.08559490  0.53623373  0.79363884  1
  O  O32  1  0.76016669  0.63507269  0.57438493  1
  O  O33  1  0.97690301  0.23071619  0.37883691  1
  O  O34  1  0.83434839  0.20700625  0.63890897  1
  O  O35  1  0.15528800  0.35036971  0.59315287  1
  O  O36  1  0.66450872  0.08455446  0.99607126  1
  O  O37  1  0.38600132  0.30748179  0.27604288  1
  O  O38  1  0.23983331  0.36492731  0.42561507  1
  O  O39  1  0.85003668  0.58638801  0.85484607  1
  O  O40  1  0.90118942  0.85036971  0.09315287  1
  O  O41  1  0.58853994  0.04650267  0.66712498  1
  O  O42  1  0.02309699  0.76928381  0.62116309  1
  O  O43  1  0.30216758  0.45349733  0.83287502  1
  O  O44  1  0.68367714  0.39184149  0.70499073  1
  O  O45  1  0.16565161  0.79299375  0.36109103  1
  O  O46  1  0.12101514  0.25000000  0.75000000  1
  O  O47  1  0.31973639  0.70700625  0.13890897  1
  O  O48  1  0.25486555  0.58455446  0.49607126  1
  O  O49  1  0.09881058  0.14963029  0.90684713  1
  O  O50  1  0.41354390  0.73071619  0.87883691  1
  O  O51  1  0.96952599  0.19251821  0.22395712  1
  O  O52  1  0.31632286  0.60815851  0.29500927  1
  O  O53  1  0.03037568  0.13507269  0.07438493  1
  O  O54  1  0.90181836  0.43261229  0.30173808  1
  O  O55  1  0.09818164  0.56738771  0.69826192  1
  O  O56  1  0.70872924  0.08638801  0.35484607  1
  O  O57  1  0.96962432  0.86492731  0.92561507  1
  O  O58  1  0.63616874  0.06738771  0.19826192  1
  O  O59  1  0.69783242  0.54650267  0.16712498  1
  O  O60  1  0.03047401  0.80748179  0.77604288  1
  O  O61  1  0.84471200  0.64963029  0.40684713  1
  O  O62  1  0.58645610  0.26928381  0.12116309  1
  O  O63  1  0.74513445  0.41544554  0.50392874  1
  O  O64  1  0.41146006  0.95349733  0.33287502  1
  O  O65  1  0.61399868  0.69251821  0.72395712  1
  O  O66  1  0.21949064  0.89184149  0.20499073  1
  O  O67  1  0.78050936  0.10815851  0.79500927  1
  O  O68  1  0.14996332  0.41361199  0.14515393  1
  O  O69  1  0.29127076  0.91361199  0.64515393  1
  O  O70  1  0.68026361  0.29299375  0.86109103  1
  O  O71  1  0.87898486  0.75000000  0.25000000  1
  O  O72  1  0.36383126  0.93261229  0.80173808  1
  O  O73  1  0.33549128  0.91544554  0.00392874  1
