# generated using pymatgen
data_LiV2(PO4)3
_symmetry_space_group_name_H-M   'P 1'
_cell_length_a   8.72225088
_cell_length_b   8.60070895
_cell_length_c   8.57031778
_cell_angle_alpha   90.00000000
_cell_angle_beta   60.57456682
_cell_angle_gamma   59.41516068
_symmetry_Int_Tables_number   1
_chemical_formula_structural   LiV2(PO4)3
_chemical_formula_sum   'Li2 V4 P6 O24'
_cell_volume   454.49890932
_cell_formula_units_Z   2
loop_
 _symmetry_equiv_pos_site_id
 _symmetry_equiv_pos_as_xyz
  1  'x, y, z'
loop_
 _atom_site_type_symbol
 _atom_site_label
 _atom_site_symmetry_multiplicity
 _atom_site_fract_x
 _atom_site_fract_y
 _atom_site_fract_z
 _atom_site_occupancy
  Li  Li0  1  0.38758677  0.66707868  0.64534949  1
  Li  Li1  1  0.38758677  0.16707868  0.96706374  1
  V  V2  1  0.21245167  0.86618329  0.14943854  1
  V  V3  1  0.21245167  0.36618329  0.63810979  1
  V  V4  1  0.79464328  0.13342976  0.85037175  1
  V  V5  1  0.79464328  0.63342976  0.35498496  1
  P  P6  1  0.72162571  0.53684049  0.75205359  1
  P  P7  1  0.27956656  0.46198321  0.24813220  1
  P  P8  1  0.00197203  0.75327734  0.96252139  1
  P  P9  1  0.00197203  0.25327734  0.03550659  1
  P  P10  1  0.27956656  0.96198321  0.47230124  1
  P  P11  1  0.72162571  0.03684049  0.52632070  1
  O  O12  1  0.83383652  0.92433124  0.94114266  1
  O  O13  1  0.91317852  0.03636531  0.37206607  1
  O  O14  1  0.68213441  0.57155989  0.59336406  1
  O  O15  1  0.76217354  0.84002506  0.47447527  1
  O  O16  1  0.24095551  0.15457935  0.52013589  1
  O  O17  1  0.51520923  0.69887017  0.93627545  1
  O  O18  1  0.24095551  0.65457935  0.23890860  1
  O  O19  1  0.48104576  0.29406166  0.06191362  1
  O  O20  1  0.12940894  0.31087772  0.87492908  1
  O  O21  1  0.48104576  0.79406166  0.45704062  1
  O  O22  1  0.87926618  0.19951046  0.99913230  1
  O  O23  1  0.76217354  0.34002506  0.76335119  1
  O  O24  1  0.30622643  0.42760760  0.41353120  1
  O  O25  1  0.12940894  0.81087772  0.99566198  1
  O  O26  1  0.18259200  0.58601348  0.76833656  1
  O  O27  1  0.87926618  0.69951046  0.12160153  1
  O  O28  1  0.30622643  0.92760760  0.28024237  1
  O  O29  1  0.83383652  0.42433124  0.22502182  1
  O  O30  1  0.51520923  0.19887017  0.54851531  1
  O  O31  1  0.09355792  0.45606230  0.27830757  1
  O  O32  1  0.09355792  0.95606230  0.62813450  1
  O  O33  1  0.68213441  0.07155989  0.72450252  1
  O  O34  1  0.91317852  0.53636531  0.71475541  1
  O  O35  1  0.18259200  0.08601348  0.04907145  1
