# generated using pymatgen
data_Al2CoO4
_symmetry_space_group_name_H-M   'P 1'
_cell_length_a   5.78493930
_cell_length_b   5.78388139
_cell_length_c   17.37731969
_cell_angle_alpha   60.02687062
_cell_angle_beta   60.04504554
_cell_angle_gamma   59.98861064
_symmetry_Int_Tables_number   1
_chemical_formula_structural   Al2CoO4
_chemical_formula_sum   'Al12 Co6 O24'
_cell_volume   411.32428114
_cell_formula_units_Z   6
loop_
 _symmetry_equiv_pos_site_id
 _symmetry_equiv_pos_as_xyz
  1  'x, y, z'
loop_
 _atom_site_type_symbol
 _atom_site_label
 _atom_site_symmetry_multiplicity
 _atom_site_fract_x
 _atom_site_fract_y
 _atom_site_fract_z
 _atom_site_occupancy
  Al  Al0  1  0.24632017  0.24951742  0.08587238  1
  Al  Al1  1  0.11994765  0.62794815  0.20899382  1
  Al  Al2  1  0.62519015  0.12305038  0.20880887  1
  Al  Al3  1  0.62505576  0.62801781  0.20882928  1
  Al  Al4  1  0.12402685  0.62452949  0.54233132  1
  Al  Al5  1  0.62345730  0.62419798  0.37628636  1
  Al  Al6  1  0.62448114  0.12398200  0.54236323  1
  Al  Al7  1  0.62448609  0.62452861  0.54233443  1
  Al  Al8  1  0.12306158  0.62663481  0.87376606  1
  Al  Al9  1  0.62505571  0.62403381  0.70864907  1
  Al  Al10  1  0.62871446  0.11983840  0.87427016  1
  Al  Al11  1  0.62888386  0.62655644  0.87397582  1
  Co  Co12  1  0.00418600  0.00039562  0.99711199  1
  Co  Co13  1  0.99895454  0.00058268  0.33379453  1
  Co  Co14  1  0.62791379  0.62578218  0.03947906  1
  Co  Co15  1  0.25123614  0.25151000  0.41534344  1
  Co  Co16  1  0.00113909  0.00097177  0.66558193  1
  Co  Co17  1  0.24738647  0.24611125  0.75307238  1
  O  O18  1  0.36621014  0.37006342  0.13413491  1
  O  O19  1  0.39362114  0.39522669  0.27249147  1
  O  O20  1  0.36614353  0.86407408  0.13446495  1
  O  O21  1  0.86102209  0.36980259  0.13419107  1
  O  O22  1  0.41824952  0.85937926  0.28829119  1
  O  O23  1  0.38864321  0.38912624  0.46333951  1
  O  O24  1  0.85773626  0.42023315  0.28805888  1
  O  O25  1  0.38875984  0.38801927  0.61153819  1
  O  O26  1  0.38870858  0.83236642  0.46339194  1
  O  O27  1  0.85984630  0.86360473  0.13878178  1
  O  O28  1  0.83222935  0.38907924  0.46335253  1
  O  O29  1  0.85736376  0.85933390  0.28830360  1
  O  O30  1  0.39184102  0.38997763  0.79724249  1
  O  O31  1  0.41907617  0.86011181  0.62008165  1
  O  O32  1  0.86057157  0.41895792  0.61999883  1
  O  O33  1  0.37776877  0.37496665  0.95656998  1
  O  O34  1  0.86027741  0.86110075  0.47275636  1
  O  O35  1  0.39154334  0.82493807  0.79734307  1
  O  O36  1  0.82653386  0.38988759  0.79728378  1
  O  O37  1  0.86060755  0.86005647  0.62009060  1
  O  O38  1  0.41546693  0.87381544  0.94466963  1
  O  O39  1  0.87735081  0.41160462  0.94465500  1
  O  O40  1  0.86380049  0.86261368  0.80325975  1
  O  O41  1  0.87712963  0.87346659  0.94484275  1
