# generated using pymatgen
data_Mo3S4
_symmetry_space_group_name_H-M   'P 1'
_cell_length_a   6.37888047
_cell_length_b   6.65905398
_cell_length_c   6.87482136
_cell_angle_alpha   104.16556413
_cell_angle_beta   117.48185231
_cell_angle_gamma   103.87338778
_symmetry_Int_Tables_number   1
_chemical_formula_structural   Mo3S4
_chemical_formula_sum   'Mo6 S8'
_cell_volume   229.10519981
_cell_formula_units_Z   2
loop_
 _symmetry_equiv_pos_site_id
 _symmetry_equiv_pos_as_xyz
  1  'x, y, z'
loop_
 _atom_site_type_symbol
 _atom_site_label
 _atom_site_symmetry_multiplicity
 _atom_site_fract_x
 _atom_site_fract_y
 _atom_site_fract_z
 _atom_site_occupancy
  Mo  Mo0  1  0.71483681  0.99880448  0.49664426  1
  Mo  Mo1  1  0.28516319  0.00119552  0.50335574  1
  Mo  Mo2  1  0.54866175  0.51704200  0.82039409  1
  Mo  Mo3  1  0.45133825  0.48295800  0.17960591  1
  Mo  Mo4  1  0.02340322  0.51349580  0.80884057  1
  Mo  Mo5  1  0.97659678  0.48650420  0.19115943  1
  S  S6  1  0.46902373  0.78629828  0.05303335  1
  S  S7  1  0.53097627  0.21370172  0.94696665  1
  S  S8  1  0.94588891  0.73213994  0.52718341  1
  S  S9  1  0.05411109  0.26786006  0.47281659  1
  S  S10  1  0.01515546  0.20539241  0.93476152  1
  S  S11  1  0.98484454  0.79460759  0.06523848  1
  S  S12  1  0.55549944  0.28780327  0.46936172  1
  S  S13  1  0.44450056  0.71219673  0.53063828  1
