# generated using pymatgen
data_CoPH6O6F
_symmetry_space_group_name_H-M   'P 1'
_cell_length_a   4.85266616
_cell_length_b   5.66390255
_cell_length_c   10.39606086
_cell_angle_alpha   96.25280872
_cell_angle_beta   99.58763448
_cell_angle_gamma   92.04161494
_symmetry_Int_Tables_number   1
_chemical_formula_structural   CoPH6O6F
_chemical_formula_sum   'Co2 P2 H12 O12 F2'
_cell_volume   279.64709384
_cell_formula_units_Z   2
loop_
 _symmetry_equiv_pos_site_id
 _symmetry_equiv_pos_as_xyz
  1  'x, y, z'
loop_
 _atom_site_type_symbol
 _atom_site_label
 _atom_site_symmetry_multiplicity
 _atom_site_fract_x
 _atom_site_fract_y
 _atom_site_fract_z
 _atom_site_occupancy
  Co  Co0  1  0.00000000  0.00000000  0.00000000  1
  Co  Co1  1  0.50000000  0.00000000  0.50000000  1
  P  P2  1  0.07211084  0.83881456  0.69506708  1
  P  P3  1  0.92788916  0.16118544  0.30493292  1
  H  H4  1  0.50607865  0.77008678  0.89598295  1
  H  H5  1  0.49392135  0.22991322  0.10401705  1
  H  H6  1  0.72403166  0.56381027  0.92640153  1
  H  H7  1  0.27596834  0.43618973  0.07359847  1
  H  H8  1  0.22726787  0.79624536  0.20656208  1
  H  H9  1  0.77273213  0.20375464  0.79343792  1
  H  H10  1  0.45904847  0.80882450  0.11740734  1
  H  H11  1  0.54095153  0.19117550  0.88259266  1
  H  H12  1  0.62878166  0.53430632  0.40087574  1
  H  H13  1  0.37121834  0.46569368  0.59912426  1
  H  H14  1  0.85458603  0.73907991  0.39496970  1
  H  H15  1  0.14541397  0.26092009  0.60503030  1
  O  O16  1  0.20579393  0.89212429  0.84133744  1
  O  O17  1  0.79420607  0.10787571  0.15866256  1
  O  O18  1  0.28354945  0.77762310  0.60587724  1
  O  O19  1  0.71645055  0.22237690  0.39412276  1
  O  O20  1  0.86764909  0.02635208  0.65216033  1
  O  O21  1  0.13235091  0.97364792  0.34783967  1
  O  O22  1  0.68841690  0.73336279  0.94927320  1
  O  O23  1  0.31158310  0.26663721  0.05072680  1
  O  O24  1  0.26192776  0.75588514  0.11505774  1
  O  O25  1  0.73807224  0.24411486  0.88494226  1
  O  O26  1  0.65341347  0.70754377  0.39556353  1
  O  O27  1  0.34658653  0.29245623  0.60443647  1
  F  F28  1  0.88897185  0.59555442  0.68760052  1
  F  F29  1  0.11102815  0.40444558  0.31239948  1
