# generated using pymatgen
data_LiBH2OF4
_symmetry_space_group_name_H-M   'P 1'
_cell_length_a   5.18254079
_cell_length_b   10.32920514
_cell_length_c   13.46477632
_cell_angle_alpha   90.00000000
_cell_angle_beta   90.00000000
_cell_angle_gamma   90.00000000
_symmetry_Int_Tables_number   1
_chemical_formula_structural   LiBH2OF4
_chemical_formula_sum   'Li8 B8 H16 O8 F32'
_cell_volume   720.79003667
_cell_formula_units_Z   8
loop_
 _symmetry_equiv_pos_site_id
 _symmetry_equiv_pos_as_xyz
  1  'x, y, z'
loop_
 _atom_site_type_symbol
 _atom_site_label
 _atom_site_symmetry_multiplicity
 _atom_site_fract_x
 _atom_site_fract_y
 _atom_site_fract_z
 _atom_site_occupancy
  Li  Li0  1  0.03072275  0.75000000  0.00000000  1
  Li  Li1  1  0.46927725  0.75000000  0.50000000  1
  Li  Li2  1  0.96927725  0.25000000  0.00000000  1
  Li  Li3  1  0.53072275  0.25000000  0.50000000  1
  Li  Li4  1  0.25000000  0.86760605  0.25000000  1
  Li  Li5  1  0.25000000  0.63239395  0.75000000  1
  Li  Li6  1  0.75000000  0.13239395  0.75000000  1
  Li  Li7  1  0.75000000  0.36760605  0.25000000  1
  B  B8  1  0.51035654  0.62890151  0.12554973  1
  B  B9  1  0.51035654  0.87109849  0.87445027  1
  B  B10  1  0.98964346  0.62890151  0.37445027  1
  B  B11  1  0.98964346  0.87109849  0.62554973  1
  B  B12  1  0.48964346  0.37109849  0.87445027  1
  B  B13  1  0.48964346  0.12890151  0.12554973  1
  B  B14  1  0.01035654  0.37109849  0.62554973  1
  B  B15  1  0.01035654  0.12890151  0.37445027  1
  H  H16  1  0.83083473  0.63248360  0.85607187  1
  H  H17  1  0.83083473  0.86751640  0.14392813  1
  H  H18  1  0.66916527  0.63248360  0.64392813  1
  H  H19  1  0.66916527  0.86751640  0.35607187  1
  H  H20  1  0.16916527  0.36751640  0.14392813  1
  H  H21  1  0.16916527  0.13248360  0.85607187  1
  H  H22  1  0.33083473  0.36751640  0.35607187  1
  H  H23  1  0.33083473  0.13248360  0.64392813  1
  H  H24  1  0.04007552  0.53914384  0.89865580  1
  H  H25  1  0.04007552  0.96085616  0.10134420  1
  H  H26  1  0.45992448  0.53914384  0.60134420  1
  H  H27  1  0.45992448  0.96085616  0.39865580  1
  H  H28  1  0.95992448  0.46085616  0.10134420  1
  H  H29  1  0.95992448  0.03914384  0.89865580  1
  H  H30  1  0.54007552  0.46085616  0.39865580  1
  H  H31  1  0.54007552  0.03914384  0.60134420  1
  O  O32  1  0.01265286  0.62799263  0.87605247  1
  O  O33  1  0.01265286  0.87200737  0.12394753  1
  O  O34  1  0.48734714  0.62799263  0.62394753  1
  O  O35  1  0.48734714  0.87200737  0.37605247  1
  O  O36  1  0.98734714  0.37200737  0.12394753  1
  O  O37  1  0.98734714  0.12799263  0.87605247  1
  O  O38  1  0.51265286  0.37200737  0.37605247  1
  O  O39  1  0.51265286  0.12799263  0.62394753  1
  F  F40  1  0.29430215  0.62761635  0.06138714  1
  F  F41  1  0.29430215  0.87238365  0.93861286  1
  F  F42  1  0.20569785  0.62761635  0.43861286  1
  F  F43  1  0.20569785  0.87238365  0.56138714  1
  F  F44  1  0.70569785  0.37238365  0.93861286  1
  F  F45  1  0.70569785  0.12761635  0.06138714  1
  F  F46  1  0.79430215  0.37238365  0.56138714  1
  F  F47  1  0.79430215  0.12761635  0.43861286  1
  F  F48  1  0.50974662  0.51510015  0.18408526  1
  F  F49  1  0.50974662  0.98489985  0.81591474  1
  F  F50  1  0.99025338  0.51510015  0.31591474  1
  F  F51  1  0.99025338  0.98489985  0.68408526  1
  F  F52  1  0.49025338  0.48489985  0.81591474  1
  F  F53  1  0.49025338  0.01510015  0.18408526  1
  F  F54  1  0.00974662  0.48489985  0.68408526  1
  F  F55  1  0.00974662  0.01510015  0.31591474  1
  F  F56  1  0.74176160  0.63273927  0.06863595  1
  F  F57  1  0.74176160  0.86726073  0.93136405  1
  F  F58  1  0.75823840  0.63273927  0.43136405  1
  F  F59  1  0.75823840  0.86726073  0.56863595  1
  F  F60  1  0.25823840  0.36726073  0.93136405  1
  F  F61  1  0.25823840  0.13273927  0.06863595  1
  F  F62  1  0.24176160  0.36726073  0.56863595  1
  F  F63  1  0.24176160  0.13273927  0.43136405  1
  F  F64  1  0.50129012  0.73999400  0.18743681  1
  F  F65  1  0.50129012  0.76000600  0.81256319  1
  F  F66  1  0.99870988  0.73999400  0.31256319  1
  F  F67  1  0.99870988  0.76000600  0.68743681  1
  F  F68  1  0.49870988  0.26000600  0.81256319  1
  F  F69  1  0.49870988  0.23999400  0.18743681  1
  F  F70  1  0.00129012  0.26000600  0.68743681  1
  F  F71  1  0.00129012  0.23999400  0.31256319  1
