# generated using pymatgen
data_H6C3N4O3
_symmetry_space_group_name_H-M   'P 1'
_cell_length_a   5.16905501
_cell_length_b   5.16905501
_cell_length_c   24.99739476
_cell_angle_alpha   69.18175755
_cell_angle_beta   110.81824245
_cell_angle_gamma   91.67692212
_symmetry_Int_Tables_number   1
_chemical_formula_structural   H6C3N4O3
_chemical_formula_sum   'H24 C12 N16 O12'
_cell_volume   579.93223274
_cell_formula_units_Z   4
loop_
 _symmetry_equiv_pos_site_id
 _symmetry_equiv_pos_as_xyz
  1  'x, y, z'
loop_
 _atom_site_type_symbol
 _atom_site_label
 _atom_site_symmetry_multiplicity
 _atom_site_fract_x
 _atom_site_fract_y
 _atom_site_fract_z
 _atom_site_occupancy
  H  H0  1  0.73936353  0.10854218  0.50082245  1
  H  H1  1  0.10854218  0.73936353  0.99917755  1
  H  H2  1  0.26063647  0.89145782  0.49917755  1
  H  H3  1  0.89145782  0.26063647  0.00082245  1
  H  H4  1  0.97281143  0.29203635  0.54187904  1
  H  H5  1  0.29203635  0.97281143  0.95812096  1
  H  H6  1  0.02718857  0.70796365  0.45812096  1
  H  H7  1  0.70796365  0.02718857  0.04187904  1
  H  H8  1  0.56403073  0.29859174  0.62932578  1
  H  H9  1  0.29859174  0.56403073  0.87067422  1
  H  H10  1  0.43596927  0.70140826  0.37067422  1
  H  H11  1  0.70140826  0.43596927  0.12932578  1
  H  H12  1  0.83709034  0.39817025  0.70290931  1
  H  H13  1  0.39817025  0.83709034  0.79709069  1
  H  H14  1  0.16290966  0.60182975  0.29709069  1
  H  H15  1  0.60182975  0.16290966  0.20290931  1
  H  H16  1  0.30332675  0.81132420  0.63701631  1
  H  H17  1  0.81132420  0.30332675  0.86298369  1
  H  H18  1  0.69667325  0.18867580  0.36298369  1
  H  H19  1  0.18867580  0.69667325  0.13701631  1
  H  H20  1  0.44046764  0.91819735  0.70114076  1
  H  H21  1  0.91819735  0.44046764  0.79885924  1
  H  H22  1  0.55953236  0.08180265  0.29885924  1
  H  H23  1  0.08180265  0.55953236  0.20114076  1
  C  C24  1  0.62897277  0.18757701  0.56444920  1
  C  C25  1  0.18757701  0.62897277  0.93555080  1
  C  C26  1  0.37102723  0.81242299  0.43555080  1
  C  C27  1  0.81242299  0.37102723  0.06444920  1
  C  C28  1  0.93928123  0.44436077  0.62713641  1
  C  C29  1  0.44436077  0.93928123  0.87286359  1
  C  C30  1  0.06071877  0.55563923  0.37286359  1
  C  C31  1  0.55563923  0.06071877  0.12713641  1
  C  C32  1  0.14683065  0.65609292  0.70656169  1
  C  C33  1  0.65609292  0.14683065  0.79343831  1
  C  C34  1  0.85316935  0.34390708  0.29343831  1
  C  C35  1  0.34390708  0.85316935  0.20656169  1
  N  N36  1  0.79003208  0.20656324  0.53188710  1
  N  N37  1  0.20656324  0.79003208  0.96811290  1
  N  N38  1  0.20996792  0.79343676  0.46811290  1
  N  N39  1  0.79343676  0.20996792  0.03188710  1
  N  N40  1  0.71026891  0.30426733  0.61029671  1
  N  N41  1  0.30426733  0.71026891  0.88970329  1
  N  N42  1  0.28973109  0.69573267  0.38970329  1
  N  N43  1  0.69573267  0.28973109  0.11029671  1
  N  N44  1  0.95762010  0.50377570  0.67818620  1
  N  N45  1  0.50377570  0.95762010  0.82181380  1
  N  N46  1  0.04237990  0.49622430  0.32181380  1
  N  N47  1  0.49622430  0.04237990  0.17818620  1
  N  N48  1  0.31160772  0.80290271  0.67906591  1
  N  N49  1  0.80290271  0.31160772  0.82093409  1
  N  N50  1  0.68839228  0.19709729  0.32093409  1
  N  N51  1  0.19709729  0.68839228  0.17906591  1
  O  O52  1  0.40972832  0.07198960  0.55800732  1
  O  O53  1  0.07198960  0.40972832  0.94199268  1
  O  O54  1  0.59027168  0.92801040  0.44199268  1
  O  O55  1  0.92801040  0.59027168  0.05800732  1
  O  O56  1  0.10682858  0.50557870  0.60073301  1
  O  O57  1  0.50557870  0.10682858  0.89926699  1
  O  O58  1  0.89317142  0.49442130  0.39926699  1
  O  O59  1  0.49442130  0.89317142  0.10073301  1
  O  O60  1  0.15046964  0.65096946  0.75770120  1
  O  O61  1  0.65096946  0.15046964  0.74229880  1
  O  O62  1  0.84953036  0.34903054  0.24229880  1
  O  O63  1  0.34903054  0.84953036  0.25770120  1
