# generated using pymatgen
data_Na4Co3P4(H3O4)6
_symmetry_space_group_name_H-M   'P 1'
_cell_length_a   7.42932689
_cell_length_b   9.25665932
_cell_length_c   15.29639016
_cell_angle_alpha   90.00000000
_cell_angle_beta   95.51492906
_cell_angle_gamma   90.00000000
_symmetry_Int_Tables_number   1
_chemical_formula_structural   Na4Co3P4(H3O4)6
_chemical_formula_sum   'Na8 Co6 P8 H36 O48'
_cell_volume   1047.07494355
_cell_formula_units_Z   2
loop_
 _symmetry_equiv_pos_site_id
 _symmetry_equiv_pos_as_xyz
  1  'x, y, z'
loop_
 _atom_site_type_symbol
 _atom_site_label
 _atom_site_symmetry_multiplicity
 _atom_site_fract_x
 _atom_site_fract_y
 _atom_site_fract_z
 _atom_site_occupancy
  Na  Na0  1  0.54856504  0.39204074  0.21703048  1
  Na  Na1  1  0.45143496  0.89204074  0.28296952  1
  Na  Na2  1  0.45143496  0.60795926  0.78296952  1
  Na  Na3  1  0.54856504  0.10795926  0.71703048  1
  Na  Na4  1  0.25942897  0.48460667  0.37020339  1
  Na  Na5  1  0.74057103  0.98460667  0.12979661  1
  Na  Na6  1  0.74057103  0.51539333  0.62979661  1
  Na  Na7  1  0.25942897  0.01539333  0.87020339  1
  Co  Co8  1  0.50000000  0.50000000  0.00000000  1
  Co  Co9  1  0.50000000  0.00000000  0.50000000  1
  Co  Co10  1  0.02746064  0.26012003  0.00390224  1
  Co  Co11  1  0.97253936  0.76012003  0.49609776  1
  Co  Co12  1  0.97253936  0.73987997  0.99609776  1
  Co  Co13  1  0.02746064  0.23987997  0.50390224  1
  P  P14  1  0.10275894  0.47622412  0.88276475  1
  P  P15  1  0.89724106  0.97622412  0.61723525  1
  P  P16  1  0.89724106  0.52377588  0.11723525  1
  P  P17  1  0.10275894  0.02377588  0.38276475  1
  P  P18  1  0.75329569  0.02287561  0.92726419  1
  P  P19  1  0.24670431  0.52287561  0.57273581  1
  P  P20  1  0.24670431  0.97712439  0.07273581  1
  P  P21  1  0.75329569  0.47712439  0.42726419  1
  H  H22  1  0.87929987  0.49589293  0.30089604  1
  H  H23  1  0.12070013  0.99589293  0.19910396  1
  H  H24  1  0.12070013  0.50410707  0.69910396  1
  H  H25  1  0.87929987  0.00410707  0.80089604  1
  H  H26  1  0.16153113  0.34129562  0.20099853  1
  H  H27  1  0.83846887  0.84129562  0.29900147  1
  H  H28  1  0.83846887  0.65870438  0.79900147  1
  H  H29  1  0.16153113  0.15870438  0.70099853  1
  H  H30  1  0.23123216  0.28136134  0.76722377  1
  H  H31  1  0.76876784  0.78136134  0.73277623  1
  H  H32  1  0.76876784  0.71863866  0.23277623  1
  H  H33  1  0.23123216  0.21863866  0.26722377  1
  H  H34  1  0.86215067  0.24585795  0.68317702  1
  H  H35  1  0.13784933  0.74585795  0.81682298  1
  H  H36  1  0.13784933  0.75414205  0.31682298  1
  H  H37  1  0.86215067  0.25414205  0.18317702  1
  H  H38  1  0.85564090  0.31192251  0.77757349  1
  H  H39  1  0.14435910  0.81192251  0.72242651  1
  H  H40  1  0.14435910  0.68807749  0.22242651  1
  H  H41  1  0.85564090  0.18807749  0.27757349  1
  H  H42  1  0.63694526  0.25678874  0.54314329  1
  H  H43  1  0.36305474  0.75678874  0.95685671  1
  H  H44  1  0.36305474  0.74321126  0.45685671  1
  H  H45  1  0.63694526  0.24321126  0.04314329  1
  H  H46  1  0.42639390  0.26414824  0.55277906  1
  H  H47  1  0.57360610  0.76414824  0.94722094  1
  H  H48  1  0.57360610  0.73585176  0.44722094  1
  H  H49  1  0.42639390  0.23585176  0.05277906  1
  H  H50  1  0.72456502  0.39875292  0.88755093  1
  H  H51  1  0.27543498  0.89875292  0.61244907  1
  H  H52  1  0.27543498  0.60124708  0.11244907  1
  H  H53  1  0.72456502  0.10124708  0.38755093  1
  H  H54  1  0.54705078  0.30758513  0.87359542  1
  H  H55  1  0.45294922  0.80758513  0.62640458  1
  H  H56  1  0.45294922  0.69241487  0.12640458  1
  H  H57  1  0.54705078  0.19241487  0.37359542  1
  O  O58  1  0.57484921  0.05796754  0.87519241  1
  O  O59  1  0.42515079  0.55796754  0.62480759  1
  O  O60  1  0.42515079  0.94203246  0.12480759  1
  O  O61  1  0.57484921  0.44203246  0.37519241  1
  O  O62  1  0.80496866  0.13290587  0.00264210  1
  O  O63  1  0.19503134  0.63290587  0.49735790  1
  O  O64  1  0.19503134  0.86709413  0.99735790  1
  O  O65  1  0.80496866  0.36709413  0.50264210  1
  O  O66  1  0.23662763  0.44532034  0.96476233  1
  O  O67  1  0.76337237  0.94532034  0.53523767  1
  O  O68  1  0.76337237  0.55467966  0.03523767  1
  O  O69  1  0.23662763  0.05467966  0.46476233  1
  O  O70  1  0.98069540  0.36853087  0.11427564  1
  O  O71  1  0.01930460  0.86853087  0.38572436  1
  O  O72  1  0.01930460  0.63146913  0.88572436  1
  O  O73  1  0.98069540  0.13146913  0.61427564  1
  O  O74  1  0.94953064  0.36060055  0.88917441  1
  O  O75  1  0.05046936  0.86060055  0.61082559  1
  O  O76  1  0.05046936  0.63939945  0.11082559  1
  O  O77  1  0.94953064  0.13939945  0.38917441  1
  O  O78  1  0.24505299  0.13129460  0.02982924  1
  O  O79  1  0.75494701  0.63129460  0.47017076  1
  O  O80  1  0.75494701  0.86870540  0.97017076  1
  O  O81  1  0.24505299  0.36870540  0.52982924  1
  O  O82  1  0.18956988  0.45897557  0.79588371  1
  O  O83  1  0.81043012  0.95897557  0.70411629  1
  O  O84  1  0.81043012  0.54102443  0.20411629  1
  O  O85  1  0.18956988  0.04102443  0.29588371  1
  O  O86  1  0.91599959  0.02981652  0.86539863  1
  O  O87  1  0.08400041  0.52981652  0.63460137  1
  O  O88  1  0.08400041  0.97018348  0.13460137  1
  O  O89  1  0.91599959  0.47018348  0.36539863  1
  O  O90  1  0.25199703  0.32161757  0.25140967  1
  O  O91  1  0.74800297  0.82161757  0.24859033  1
  O  O92  1  0.74800297  0.67838243  0.74859033  1
  O  O93  1  0.25199703  0.17838243  0.75140967  1
  O  O94  1  0.78539029  0.30367877  0.71959789  1
  O  O95  1  0.21460971  0.80367877  0.78040211  1
  O  O96  1  0.21460971  0.69632123  0.28040211  1
  O  O97  1  0.78539029  0.19632123  0.21959789  1
  O  O98  1  0.53619178  0.29851014  0.06576665  1
  O  O99  1  0.46380822  0.79851014  0.43423335  1
  O  O100  1  0.46380822  0.70148986  0.93423335  1
  O  O101  1  0.53619178  0.20148986  0.56576665  1
  O  O102  1  0.58944159  0.40793875  0.87996151  1
  O  O103  1  0.41055841  0.90793875  0.62003849  1
  O  O104  1  0.41055841  0.59206125  0.12003849  1
  O  O105  1  0.58944159  0.09206125  0.37996151  1
