# generated using pymatgen
data_CuH4SeO5
_symmetry_space_group_name_H-M   'P 1'
_cell_length_a   6.66805077
_cell_length_b   9.31907804
_cell_length_c   7.49033096
_cell_angle_alpha   90.00000000
_cell_angle_beta   90.00000000
_cell_angle_gamma   90.00000000
_symmetry_Int_Tables_number   1
_chemical_formula_structural   CuH4SeO5
_chemical_formula_sum   'Cu4 H16 Se4 O20'
_cell_volume   465.44980628
_cell_formula_units_Z   4
loop_
 _symmetry_equiv_pos_site_id
 _symmetry_equiv_pos_as_xyz
  1  'x, y, z'
loop_
 _atom_site_type_symbol
 _atom_site_label
 _atom_site_symmetry_multiplicity
 _atom_site_fract_x
 _atom_site_fract_y
 _atom_site_fract_z
 _atom_site_occupancy
  Cu  Cu0  1  0.97864593  0.35107144  0.71663694  1
  Cu  Cu1  1  0.52135407  0.64892856  0.21663694  1
  Cu  Cu2  1  0.47864593  0.14892856  0.28336306  1
  Cu  Cu3  1  0.02135407  0.85107144  0.78336306  1
  H  H4  1  0.06645654  0.28843223  0.37971474  1
  H  H5  1  0.43354346  0.71156777  0.87971474  1
  H  H6  1  0.56645654  0.21156777  0.62028526  1
  H  H7  1  0.93354346  0.78843223  0.12028526  1
  H  H8  1  0.87898150  0.19157385  0.44281350  1
  H  H9  1  0.62101850  0.80842615  0.94281350  1
  H  H10  1  0.37898150  0.30842615  0.55718650  1
  H  H11  1  0.12101850  0.69157385  0.05718650  1
  H  H12  1  0.73637844  0.59684414  0.80457366  1
  H  H13  1  0.76362156  0.40315586  0.30457366  1
  H  H14  1  0.23637844  0.90315586  0.19542634  1
  H  H15  1  0.26362156  0.09684414  0.69542634  1
  H  H16  1  0.67505943  0.56718123  0.60764481  1
  H  H17  1  0.82494057  0.43281877  0.10764481  1
  H  H18  1  0.17505943  0.93281877  0.39235519  1
  H  H19  1  0.32494057  0.06718123  0.89235519  1
  Se  Se20  1  0.27120679  0.38917219  0.04620932  1
  Se  Se21  1  0.22879321  0.61082781  0.54620932  1
  Se  Se22  1  0.77120679  0.11082781  0.95379068  1
  Se  Se23  1  0.72879321  0.88917219  0.45379068  1
  O  O24  1  0.02352983  0.38880638  0.97306792  1
  O  O25  1  0.47647017  0.61119362  0.47306792  1
  O  O26  1  0.52352983  0.11119362  0.02693208  1
  O  O27  1  0.97647017  0.88880638  0.52693208  1
  O  O28  1  0.25097663  0.27864126  0.23254149  1
  O  O29  1  0.24902337  0.72135874  0.73254149  1
  O  O30  1  0.75097663  0.22135874  0.76745851  1
  O  O31  1  0.74902337  0.77864126  0.26745851  1
  O  O32  1  0.26546003  0.55876286  0.14677961  1
  O  O33  1  0.23453997  0.44123714  0.64677961  1
  O  O34  1  0.76546003  0.94123714  0.85322039  1
  O  O35  1  0.73453997  0.05876286  0.35322039  1
  O  O36  1  0.94529139  0.28722859  0.46074052  1
  O  O37  1  0.55470861  0.71277141  0.96074052  1
  O  O38  1  0.44529139  0.21277141  0.53925948  1
  O  O39  1  0.05470861  0.78722859  0.03925948  1
  O  O40  1  0.79171201  0.56007925  0.69133281  1
  O  O41  1  0.70828799  0.43992075  0.19133281  1
  O  O42  1  0.29171201  0.93992075  0.30866719  1
  O  O43  1  0.20828799  0.06007925  0.80866719  1
