# generated using pymatgen
data_MnRe2(HO5)2
_symmetry_space_group_name_H-M   'P 1'
_cell_length_a   5.58699768
_cell_length_b   5.87293199
_cell_length_c   7.89058526
_cell_angle_alpha   111.84815486
_cell_angle_beta   111.53969158
_cell_angle_gamma   90.00000000
_symmetry_Int_Tables_number   1
_chemical_formula_structural   MnRe2(HO5)2
_chemical_formula_sum   'Mn1 Re2 H2 O10'
_cell_volume   220.71060856
_cell_formula_units_Z   1
loop_
 _symmetry_equiv_pos_site_id
 _symmetry_equiv_pos_as_xyz
  1  'x, y, z'
loop_
 _atom_site_type_symbol
 _atom_site_label
 _atom_site_symmetry_multiplicity
 _atom_site_fract_x
 _atom_site_fract_y
 _atom_site_fract_z
 _atom_site_occupancy
  Mn  Mn0  1  0.00000000  0.50000000  0.00000000  1
  Re  Re1  1  0.85532563  0.13331999  0.26663999  1
  Re  Re2  1  0.14467437  0.86668001  0.73336001  1
  H  H3  1  0.65306194  0.32316320  0.64632640  1
  H  H4  1  0.34693806  0.67683680  0.35367360  1
  O  O5  1  0.85191296  0.81688739  0.12562518  1
  O  O6  1  0.85191296  0.30873780  0.12562518  1
  O  O7  1  0.14808704  0.18311261  0.87437482  1
  O  O8  1  0.14808704  0.69126220  0.87437482  1
  O  O9  1  0.58618293  0.16522813  0.33045627  1
  O  O10  1  0.41381707  0.83477187  0.66954373  1
  O  O11  1  0.13347365  0.24212679  0.48425358  1
  O  O12  1  0.86652635  0.75787321  0.51574642  1
  O  O13  1  0.67888930  0.39399313  0.78798626  1
  O  O14  1  0.32111070  0.60600687  0.21201374  1
