# generated using pymatgen
data_Na2Te(H5O4)2
_symmetry_space_group_name_H-M   'P 1'
_cell_length_a   7.74235445
_cell_length_b   7.74235445
_cell_length_c   17.74250394
_cell_angle_alpha   83.56978884
_cell_angle_beta   96.43021116
_cell_angle_gamma   121.96206748
_symmetry_Int_Tables_number   1
_chemical_formula_structural   Na2Te(H5O4)2
_chemical_formula_sum   'Na8 Te4 H40 O32'
_cell_volume   894.89029995
_cell_formula_units_Z   4
loop_
 _symmetry_equiv_pos_site_id
 _symmetry_equiv_pos_as_xyz
  1  'x, y, z'
loop_
 _atom_site_type_symbol
 _atom_site_label
 _atom_site_symmetry_multiplicity
 _atom_site_fract_x
 _atom_site_fract_y
 _atom_site_fract_z
 _atom_site_occupancy
  Na  Na0  1  0.47128211  0.56847633  0.57472312  1
  Na  Na1  1  0.56847633  0.47128211  0.92527688  1
  Na  Na2  1  0.52871789  0.43152367  0.42527688  1
  Na  Na3  1  0.43152367  0.52871789  0.07472312  1
  Na  Na4  1  0.52954827  0.52954827  0.75000000  1
  Na  Na5  1  0.47045173  0.47045173  0.25000000  1
  Na  Na6  1  0.00000000  0.50000000  0.50000000  1
  Na  Na7  1  0.50000000  0.00000000  0.00000000  1
  Te  Te8  1  0.17727942  0.86256652  0.67433919  1
  Te  Te9  1  0.86256652  0.17727942  0.82566081  1
  Te  Te10  1  0.82272058  0.13743348  0.32566081  1
  Te  Te11  1  0.13743348  0.82272058  0.17433919  1
  H  H12  1  0.77470163  0.47202590  0.64469916  1
  H  H13  1  0.47202590  0.77470163  0.85530084  1
  H  H14  1  0.22529837  0.52797410  0.35530084  1
  H  H15  1  0.52797410  0.22529837  0.14469916  1
  H  H16  1  0.56288394  0.25849408  0.64432934  1
  H  H17  1  0.25849408  0.56288394  0.85567066  1
  H  H18  1  0.43711606  0.74150592  0.35567066  1
  H  H19  1  0.74150592  0.43711606  0.14432934  1
  H  H20  1  0.43087476  0.83743105  0.46087447  1
  H  H21  1  0.83743105  0.43087476  0.03912553  1
  H  H22  1  0.56912524  0.16256895  0.53912553  1
  H  H23  1  0.16256895  0.56912524  0.96087447  1
  H  H24  1  0.35432799  0.84860193  0.53903011  1
  H  H25  1  0.84860193  0.35432799  0.96096989  1
  H  H26  1  0.64567201  0.15139807  0.46096989  1
  H  H27  1  0.15139807  0.64567201  0.03903011  1
  H  H28  1  0.12870415  0.44270241  0.66088728  1
  H  H29  1  0.44270241  0.12870415  0.83911272  1
  H  H30  1  0.87129585  0.55729759  0.33911272  1
  H  H31  1  0.55729759  0.87129585  0.16088728  1
  H  H32  1  0.14645341  0.24434880  0.65865728  1
  H  H33  1  0.24434880  0.14645341  0.84134272  1
  H  H34  1  0.85354659  0.75565120  0.34134272  1
  H  H35  1  0.75565120  0.85354659  0.15865728  1
  H  H36  1  0.83057755  0.82851128  0.45460220  1
  H  H37  1  0.82851128  0.83057755  0.04539780  1
  H  H38  1  0.16942245  0.17148872  0.54539780  1
  H  H39  1  0.17148872  0.16942245  0.95460220  1
  H  H40  1  0.86984448  0.78808925  0.54102069  1
  H  H41  1  0.78808925  0.86984448  0.95897931  1
  H  H42  1  0.13015552  0.21191075  0.45897931  1
  H  H43  1  0.21191075  0.13015552  0.04102069  1
  H  H44  1  0.79598880  0.90467805  0.64604933  1
  H  H45  1  0.90467805  0.79598880  0.85395067  1
  H  H46  1  0.20401120  0.09532195  0.35395067  1
  H  H47  1  0.09532195  0.20401120  0.14604933  1
  H  H48  1  0.59029618  0.90686516  0.65400250  1
  H  H49  1  0.90686516  0.59029618  0.84599750  1
  H  H50  1  0.40970382  0.09313484  0.34599750  1
  H  H51  1  0.09313484  0.40970382  0.15400250  1
  O  O52  1  0.04744607  0.99391146  0.62005889  1
  O  O53  1  0.99391146  0.04744607  0.87994111  1
  O  O54  1  0.95255393  0.00608854  0.37994111  1
  O  O55  1  0.00608854  0.95255393  0.12005889  1
  O  O56  1  0.42031006  0.99343982  0.62102044  1
  O  O57  1  0.99343982  0.42031006  0.87897956  1
  O  O58  1  0.57968994  0.00656018  0.37897956  1
  O  O59  1  0.00656018  0.57968994  0.12102044  1
  O  O60  1  0.03135429  0.60899923  0.62969541  1
  O  O61  1  0.60899923  0.03135429  0.87030459  1
  O  O62  1  0.96864571  0.39100077  0.37030459  1
  O  O63  1  0.39100077  0.96864571  0.12969541  1
  O  O64  1  0.22158871  0.38932792  0.67111819  1
  O  O65  1  0.38932792  0.22158871  0.82888181  1
  O  O66  1  0.77841129  0.61067208  0.32888181  1
  O  O67  1  0.61067208  0.77841129  0.17111819  1
  O  O68  1  0.77625787  0.72052557  0.49720628  1
  O  O69  1  0.72052557  0.77625787  0.00279372  1
  O  O70  1  0.22374213  0.27947443  0.50279372  1
  O  O71  1  0.27947443  0.22374213  0.99720628  1
  O  O72  1  0.65615430  0.82525709  0.66519891  1
  O  O73  1  0.82525709  0.65615430  0.83480109  1
  O  O74  1  0.34384570  0.17474291  0.33480109  1
  O  O75  1  0.17474291  0.34384570  0.16519891  1
  O  O76  1  0.62620263  0.40474710  0.65327039  1
  O  O77  1  0.40474710  0.62620263  0.84672961  1
  O  O78  1  0.37379737  0.59525290  0.34672961  1
  O  O79  1  0.59525290  0.37379737  0.15327039  1
  O  O80  1  0.33551705  0.75370539  0.50070947  1
  O  O81  1  0.75370539  0.33551705  0.99929053  1
  O  O82  1  0.66448295  0.24629461  0.49929053  1
  O  O83  1  0.24629461  0.66448295  0.00070947  1
