# generated using pymatgen
data_Li2Ti2MnCr2(PO4)6
_symmetry_space_group_name_H-M   'P 1'
_cell_length_a   8.64346868
_cell_length_b   8.62235445
_cell_length_c   17.22728592
_cell_angle_alpha   60.19571819
_cell_angle_beta   60.10359189
_cell_angle_gamma   60.08101717
_symmetry_Int_Tables_number   1
_chemical_formula_structural   Li2Ti2MnCr2(PO4)6
_chemical_formula_sum   'Li4 Ti4 Mn2 Cr4 P12 O48'
_cell_volume   910.45888500
_cell_formula_units_Z   2
loop_
 _symmetry_equiv_pos_site_id
 _symmetry_equiv_pos_as_xyz
  1  'x, y, z'
loop_
 _atom_site_type_symbol
 _atom_site_label
 _atom_site_symmetry_multiplicity
 _atom_site_fract_x
 _atom_site_fract_y
 _atom_site_fract_z
 _atom_site_occupancy
  Li  Li0  1  0.01073231  0.99133130  0.00158657  1
  Li  Li1  1  0.48799435  0.51048204  0.75079486  1
  Li  Li2  1  0.64135047  0.25636438  0.92943512  1
  Li  Li3  1  0.85194913  0.64053645  0.62554687  1
  Ti  Ti4  1  0.14005463  0.14103462  0.07172200  1
  Ti  Ti5  1  0.36090778  0.35614610  0.68017686  1
  Ti  Ti6  1  0.64866936  0.64744059  0.32113340  1
  Ti  Ti7  1  0.86212889  0.84892535  0.92782337  1
  Mn  Mn8  1  0.00295033  0.01304041  0.49359644  1
  Mn  Mn9  1  0.49862707  0.49495370  0.25124316  1
  Cr  Cr10  1  0.35401203  0.35783707  0.17962503  1
  Cr  Cr11  1  0.14627812  0.14055847  0.57040126  1
  Cr  Cr12  1  0.85607019  0.85909784  0.42818158  1
  Cr  Cr13  1  0.63933837  0.64385638  0.82207626  1
  P  P14  1  0.04518165  0.75040682  0.22973923  1
  P  P15  1  0.45964834  0.04420825  0.37479547  1
  P  P16  1  0.74716707  0.45373239  0.02158433  1
  P  P17  1  0.25144752  0.53798887  0.47972207  1
  P  P18  1  0.53857054  0.96035536  0.12510282  1
  P  P19  1  0.03959098  0.75024245  0.72584499  1
  P  P20  1  0.95927701  0.24972080  0.27113355  1
  P  P21  1  0.45905595  0.04167105  0.87545788  1
  P  P22  1  0.75199021  0.45856116  0.52241974  1
  P  P23  1  0.25048307  0.53906770  0.98089578  1
  P  P24  1  0.54013604  0.95835584  0.62556315  1
  P  P25  1  0.96149179  0.24936390  0.76926217  1
  O  O26  1  0.11507192  0.30745403  0.25494836  1
  O  O27  1  0.30112657  0.50929224  0.06099951  1
  O  O28  1  0.05842411  0.91318314  0.13371224  1
  O  O29  1  0.50506350  0.11975396  0.15247836  1
  O  O30  1  0.00786322  0.80379944  0.31065273  1
  O  O31  1  0.23608170  0.58483600  0.22123152  1
  O  O32  1  0.26538185  0.05519875  0.45573226  1
  O  O33  1  0.44081676  0.23599373  0.29267822  1
  O  O34  1  0.19557952  0.38072031  0.49560053  1
  O  O35  1  0.58450352  0.44524449  0.11808289  1
  O  O36  1  0.07911145  0.72785247  0.47985241  1
  O  O37  1  0.37329985  0.00070425  0.09817512  1
  O  O38  1  0.61618975  0.00824114  0.40399441  1
  O  O39  1  0.12605238  0.30331574  0.74950146  1
  O  O40  1  0.91471351  0.26665498  0.03195494  1
  O  O41  1  0.41296828  0.56496432  0.38214909  1
  O  O42  1  0.80292116  0.62418394  0.99593690  1
  O  O43  1  0.31000575  0.49597116  0.56132111  1
  O  O44  1  0.56152593  0.76404880  0.20539490  1
  O  O45  1  0.05850639  0.91650541  0.63075460  1
  O  O46  1  0.49988815  0.12242971  0.65338671  1
  O  O47  1  0.99087349  0.80773503  0.81000801  1
  O  O48  1  0.72451611  0.95181621  0.03782392  1
  O  O49  1  0.23113747  0.58627544  0.72054491  1
  O  O50  1  0.76367184  0.41420347  0.27936301  1
  O  O51  1  0.26815979  0.06276425  0.95830916  1
  O  O52  1  0.00013331  0.19085859  0.19010790  1
  O  O53  1  0.50384701  0.87993855  0.34422540  1
  O  O54  1  0.94037540  0.08544095  0.36825235  1
  O  O55  1  0.44070849  0.23351752  0.79256574  1
  O  O56  1  0.69617347  0.50826118  0.43764923  1
  O  O57  1  0.19184606  0.37482046  0.00298362  1
  O  O58  1  0.58506675  0.43678015  0.61649564  1
  O  O59  1  0.08688993  0.73199146  0.96633484  1
  O  O60  1  0.87985970  0.69176682  0.25096528  1
  O  O61  1  0.38405873  0.99133703  0.59713425  1
  O  O62  1  0.62101659  0.01022829  0.90320228  1
  O  O63  1  0.91502197  0.26532837  0.52704940  1
  O  O64  1  0.42342840  0.53730423  0.88743628  1
  O  O65  1  0.80687065  0.61454585  0.51056313  1
  O  O66  1  0.57042855  0.76112977  0.70453713  1
  O  O67  1  0.74056579  0.93490971  0.54599332  1
  O  O68  1  0.77017797  0.41805157  0.77682109  1
  O  O69  1  0.99535792  0.19748470  0.68849366  1
  O  O70  1  0.49585670  0.87893082  0.84969715  1
  O  O71  1  0.92798208  0.09392369  0.86844511  1
  O  O72  1  0.69300854  0.47813334  0.94310528  1
  O  O73  1  0.88276876  0.69389526  0.73999067  1
