# generated using pymatgen
data_CaB3H13O12
_symmetry_space_group_name_H-M   'P 1'
_cell_length_a   10.52829167
_cell_length_b   12.11318039
_cell_length_c   8.39379508
_cell_angle_alpha   90.00000000
_cell_angle_beta   112.45726998
_cell_angle_gamma   90.00000000
_symmetry_Int_Tables_number   1
_chemical_formula_structural   CaB3H13O12
_chemical_formula_sum   'Ca4 B12 H52 O48'
_cell_volume   989.29045365
_cell_formula_units_Z   4
loop_
 _symmetry_equiv_pos_site_id
 _symmetry_equiv_pos_as_xyz
  1  'x, y, z'
loop_
 _atom_site_type_symbol
 _atom_site_label
 _atom_site_symmetry_multiplicity
 _atom_site_fract_x
 _atom_site_fract_y
 _atom_site_fract_z
 _atom_site_occupancy
  Ca  Ca0  1  0.97943860  0.12872900  0.14052874  1
  Ca  Ca1  1  0.47943860  0.37127100  0.64052874  1
  Ca  Ca2  1  0.02056140  0.87127100  0.85947126  1
  Ca  Ca3  1  0.52056140  0.62872900  0.35947126  1
  B  B4  1  0.07988725  0.89237579  0.24630746  1
  B  B5  1  0.57988725  0.60762421  0.74630746  1
  B  B6  1  0.92011275  0.10762421  0.75369254  1
  B  B7  1  0.42011275  0.39237579  0.25369254  1
  B  B8  1  0.26334697  0.03750023  0.23649314  1
  B  B9  1  0.76334697  0.46249977  0.73649314  1
  B  B10  1  0.73665303  0.96249977  0.76350686  1
  B  B11  1  0.23665303  0.53750023  0.26350686  1
  B  B12  1  0.29539932  0.92694945  0.50040562  1
  B  B13  1  0.79539932  0.57305055  0.00040562  1
  B  B14  1  0.70460068  0.07305055  0.49959438  1
  B  B15  1  0.20460068  0.42694945  0.99959438  1
  H  H16  1  0.97617252  0.74287996  0.15181367  1
  H  H17  1  0.47617252  0.75712004  0.65181367  1
  H  H18  1  0.02382748  0.25712004  0.84818633  1
  H  H19  1  0.52382748  0.24287996  0.34818633  1
  H  H20  1  0.86855862  0.90215428  0.19096044  1
  H  H21  1  0.36855862  0.59784572  0.69096044  1
  H  H22  1  0.13144138  0.09784572  0.80903956  1
  H  H23  1  0.63144138  0.40215428  0.30903956  1
  H  H24  1  0.29250886  0.20666031  0.25428554  1
  H  H25  1  0.79250886  0.29333969  0.75428554  1
  H  H26  1  0.70749114  0.79333969  0.74571446  1
  H  H27  1  0.20749114  0.70666031  0.24571446  1
  H  H28  1  0.35018407  0.06516493  0.05761165  1
  H  H29  1  0.85018407  0.43483507  0.55761165  1
  H  H30  1  0.64981593  0.93483507  0.94238835  1
  H  H31  1  0.14981593  0.56516493  0.44238835  1
  H  H32  1  0.46742455  0.93794574  0.71832376  1
  H  H33  1  0.96742455  0.56205426  0.21832376  1
  H  H34  1  0.53257545  0.06205426  0.28167624  1
  H  H35  1  0.03257545  0.43794574  0.78167624  1
  H  H36  1  0.90922406  0.37797739  0.07029688  1
  H  H37  1  0.40922406  0.12202261  0.57029688  1
  H  H38  1  0.09077594  0.62202261  0.92970312  1
  H  H39  1  0.59077594  0.87797739  0.42970312  1
  H  H40  1  0.03665955  0.38207467  0.24153038  1
  H  H41  1  0.53665955  0.11792533  0.74153038  1
  H  H42  1  0.96334045  0.61792533  0.75846962  1
  H  H43  1  0.46334045  0.88207467  0.25846962  1
  H  H44  1  0.69052775  0.09384858  -0.00024704  1
  H  H45  1  0.19052775  0.40615142  0.49975296  1
  H  H46  1  0.30947225  0.90615142  0.00024704  1
  H  H47  1  0.80947225  0.59384858  0.50024704  1
  H  H48  1  0.69924246  0.13655585  0.18181009  1
  H  H49  1  0.19924246  0.36344415  0.68181009  1
  H  H50  1  0.30075754  0.86344415  0.81818991  1
  H  H51  1  0.80075754  0.63655585  0.31818991  1
  H  H52  1  0.04131665  0.11257587  0.53350800  1
  H  H53  1  0.54131665  0.38742413  0.03350800  1
  H  H54  1  0.95868335  0.88742413  0.46649200  1
  H  H55  1  0.45868335  0.61257587  0.96649200  1
  H  H56  1  0.12874066  0.21017991  0.50239040  1
  H  H57  1  0.62874066  0.28982009  0.00239040  1
  H  H58  1  0.87125934  0.78982009  0.49760960  1
  H  H59  1  0.37125934  0.71017991  0.99760960  1
  H  H60  1  0.31643100  0.23539175  0.95762471  1
  H  H61  1  0.81643100  0.26460825  0.45762471  1
  H  H62  1  0.68356900  0.76460825  0.04237529  1
  H  H63  1  0.18356900  0.73539175  0.54237529  1
  H  H64  1  0.36191399  0.16882898  0.82448804  1
  H  H65  1  0.86191399  0.33117102  0.32448804  1
  H  H66  1  0.63808601  0.83117102  0.17551196  1
  H  H67  1  0.13808601  0.66882898  0.67551196  1
  O  O68  1  0.04634817  0.79112285  0.13850415  1
  O  O69  1  0.54634817  0.70887715  0.63850415  1
  O  O70  1  0.95365183  0.20887715  0.86149585  1
  O  O71  1  0.45365183  0.29112285  0.36149585  1
  O  O72  1  0.95366514  0.94275377  0.25758092  1
  O  O73  1  0.45366514  0.55724623  0.75758092  1
  O  O74  1  0.04633486  0.05724623  0.74241908  1
  O  O75  1  0.54633486  0.44275377  0.24241908  1
  O  O76  1  0.21794649  0.15237365  0.20478026  1
  O  O77  1  0.71794649  0.34762635  0.70478026  1
  O  O78  1  0.78205351  0.84762635  0.79521974  1
  O  O79  1  0.28205351  0.65237365  0.29521974  1
  O  O80  1  0.36764095  0.01285592  0.15658701  1
  O  O81  1  0.86764095  0.48714408  0.65658701  1
  O  O82  1  0.63235905  0.98714408  0.84341299  1
  O  O83  1  0.13235905  0.51285592  0.34341299  1
  O  O84  1  0.37915670  0.89577935  0.66839786  1
  O  O85  1  0.87915670  0.60422065  0.16839786  1
  O  O86  1  0.62084330  0.10422065  0.33160214  1
  O  O87  1  0.12084330  0.39577935  0.83160214  1
  O  O88  1  0.95997122  0.33321422  0.17548002  1
  O  O89  1  0.45997122  0.16678578  0.67548002  1
  O  O90  1  0.04002878  0.66678578  0.82451998  1
  O  O91  1  0.54002878  0.83321422  0.32451998  1
  O  O92  1  0.73422781  0.15145617  0.08981506  1
  O  O93  1  0.23422781  0.34854383  0.58981506  1
  O  O94  1  0.26577219  0.84854383  0.91018494  1
  O  O95  1  0.76577219  0.65145617  0.41018494  1
  O  O96  1  0.05864938  0.15477993  0.44264852  1
  O  O97  1  0.55864938  0.34522007  0.94264852  1
  O  O98  1  0.94135062  0.84522007  0.55735148  1
  O  O99  1  0.44135062  0.65477993  0.05735148  1
  O  O100  1  0.30964231  0.16277415  0.90058838  1
  O  O101  1  0.80964231  0.33722585  0.40058838  1
  O  O102  1  0.69035769  0.83722585  0.09941162  1
  O  O103  1  0.19035769  0.66277415  0.59941162  1
  O  O104  1  0.13844398  0.96983576  0.15700955  1
  O  O105  1  0.63844398  0.53016424  0.65700955  1
  O  O106  1  0.86155602  0.03016424  0.84299045  1
  O  O107  1  0.36155602  0.46983576  0.34299045  1
  O  O108  1  0.17893390  0.86612820  0.42328544  1
  O  O109  1  0.67893390  0.63387180  0.92328544  1
  O  O110  1  0.82106610  0.13387180  0.57671456  1
  O  O111  1  0.32106610  0.36612820  0.07671456  1
  O  O112  1  0.33433954  0.01315856  0.42360216  1
  O  O113  1  0.83433954  0.48684144  0.92360216  1
  O  O114  1  0.66566046  0.98684144  0.57639784  1
  O  O115  1  0.16566046  0.51315856  0.07639784  1
