# generated using pymatgen
data_KCrH24(SO10)2
_symmetry_space_group_name_H-M   'P 1'
_cell_length_a   12.13922570
_cell_length_b   12.13922570
_cell_length_c   12.13922570
_cell_angle_alpha   89.99995441
_cell_angle_beta   89.99995441
_cell_angle_gamma   89.99995441
_symmetry_Int_Tables_number   1
_chemical_formula_structural   KCrH24(SO10)2
_chemical_formula_sum   'K4 Cr4 H96 S8 O80'
_cell_volume   1788.84601776
_cell_formula_units_Z   4
loop_
 _symmetry_equiv_pos_site_id
 _symmetry_equiv_pos_as_xyz
  1  'x, y, z'
loop_
 _atom_site_type_symbol
 _atom_site_label
 _atom_site_symmetry_multiplicity
 _atom_site_fract_x
 _atom_site_fract_y
 _atom_site_fract_z
 _atom_site_occupancy
  K  K0  1  0.00000000  0.00000000  0.50000000  1
  K  K1  1  0.00000000  0.50000000  0.00000000  1
  K  K2  1  0.50000000  0.00000000  0.00000000  1
  K  K3  1  0.50000000  0.50000000  0.50000000  1
  Cr  Cr4  1  0.50000000  0.50000000  0.00000000  1
  Cr  Cr5  1  0.50000000  0.00000000  0.50000000  1
  Cr  Cr6  1  0.00000000  0.50000000  0.50000000  1
  Cr  Cr7  1  0.00000000  0.00000000  0.00000000  1
  H  H8  1  0.55786988  0.70141258  0.01600130  1
  H  H9  1  0.44213044  0.20141237  0.48399880  1
  H  H10  1  0.94213070  0.29858756  0.51600110  1
  H  H11  1  0.05787100  0.79858753  0.98399831  1
  H  H12  1  0.01600130  0.55786988  0.70141258  1
  H  H13  1  0.48399880  0.44213044  0.20141237  1
  H  H14  1  0.51600110  0.94213070  0.29858756  1
  H  H15  1  0.98399831  0.05787100  0.79858753  1
  H  H16  1  0.70141258  0.01600130  0.55786988  1
  H  H17  1  0.20141237  0.48399880  0.44213044  1
  H  H18  1  0.29858756  0.51600110  0.94213070  1
  H  H19  1  0.79858753  0.98399831  0.05787100  1
  H  H20  1  0.44213012  0.29858742  0.98399870  1
  H  H21  1  0.55786956  0.79858763  0.51600120  1
  H  H22  1  0.05786930  0.70141244  0.48399890  1
  H  H23  1  0.94212900  0.20141247  0.01600169  1
  H  H24  1  0.98399870  0.44213012  0.29858742  1
  H  H25  1  0.51600120  0.55786956  0.79858763  1
  H  H26  1  0.48399890  0.05786930  0.70141244  1
  H  H27  1  0.01600169  0.94212900  0.20141247  1
  H  H28  1  0.29858742  0.98399870  0.44213012  1
  H  H29  1  0.79858763  0.51600120  0.55786956  1
  H  H30  1  0.70141244  0.48399890  0.05786930  1
  H  H31  1  0.20141247  0.01600169  0.94212900  1
  H  H32  1  0.42532456  0.71253414  0.01479338  1
  H  H33  1  0.57467443  0.21253357  0.48520695  1
  H  H34  1  0.07467468  0.28746581  0.51479274  1
  H  H35  1  0.92532414  0.78746586  0.98520624  1
  H  H36  1  0.01479338  0.42532456  0.71253414  1
  H  H37  1  0.48520695  0.57467443  0.21253357  1
  H  H38  1  0.51479274  0.07467468  0.28746581  1
  H  H39  1  0.98520624  0.92532414  0.78746586  1
  H  H40  1  0.71253414  0.01479338  0.42532456  1
  H  H41  1  0.21253357  0.48520695  0.57467443  1
  H  H42  1  0.28746581  0.51479274  0.07467468  1
  H  H43  1  0.78746586  0.98520624  0.92532414  1
  H  H44  1  0.57467544  0.28746586  0.98520662  1
  H  H45  1  0.42532557  0.78746643  0.51479305  1
  H  H46  1  0.92532532  0.71253419  0.48520726  1
  H  H47  1  0.07467586  0.21253414  0.01479376  1
  H  H48  1  0.98520662  0.57467544  0.28746586  1
  H  H49  1  0.51479305  0.42532557  0.78746643  1
  H  H50  1  0.48520726  0.92532532  0.71253419  1
  H  H51  1  0.01479376  0.07467586  0.21253414  1
  H  H52  1  0.28746586  0.98520662  0.57467544  1
  H  H53  1  0.78746643  0.51479305  0.42532557  1
  H  H54  1  0.71253419  0.48520726  0.92532532  1
  H  H55  1  0.21253414  0.01479376  0.07467586  1
  H  H56  1  0.20484353  0.62452073  0.18584970  1
  H  H57  1  0.79515645  0.12452044  0.31415009  1
  H  H58  1  0.29515625  0.37547933  0.68584983  1
  H  H59  1  0.70484387  0.87547948  0.81415003  1
  H  H60  1  0.18584970  0.20484353  0.62452073  1
  H  H61  1  0.31415009  0.79515645  0.12452044  1
  H  H62  1  0.68584983  0.29515625  0.37547933  1
  H  H63  1  0.81415003  0.70484387  0.87547948  1
  H  H64  1  0.62452073  0.18584970  0.20484353  1
  H  H65  1  0.12452044  0.31415009  0.79515645  1
  H  H66  1  0.37547933  0.68584983  0.29515625  1
  H  H67  1  0.87547948  0.81415003  0.70484387  1
  H  H68  1  0.79515647  0.37547927  0.81415030  1
  H  H69  1  0.20484355  0.87547956  0.68584991  1
  H  H70  1  0.70484375  0.62452067  0.31415017  1
  H  H71  1  0.29515613  0.12452052  0.18584997  1
  H  H72  1  0.81415030  0.79515647  0.37547927  1
  H  H73  1  0.68584991  0.20484355  0.87547956  1
  H  H74  1  0.31415017  0.70484375  0.62452067  1
  H  H75  1  0.18584997  0.29515613  0.12452052  1
  H  H76  1  0.37547927  0.81415030  0.79515647  1
  H  H77  1  0.87547956  0.68584991  0.20484355  1
  H  H78  1  0.62452067  0.31415017  0.70484375  1
  H  H79  1  0.12452052  0.18584997  0.29515613  1
  H  H80  1  0.20100386  0.50033753  0.21826186  1
  H  H81  1  0.79899602  0.00033718  0.28173830  1
  H  H82  1  0.29899583  0.49966285  0.71826206  1
  H  H83  1  0.70100415  0.99966291  0.78173788  1
  H  H84  1  0.21826186  0.20100386  0.50033753  1
  H  H85  1  0.28173830  0.79899602  0.00033718  1
  H  H86  1  0.71826206  0.29899583  0.49966285  1
  H  H87  1  0.78173788  0.70100415  0.99966291  1
  H  H88  1  0.50033753  0.21826186  0.20100386  1
  H  H89  1  0.00033718  0.28173830  0.79899602  1
  H  H90  1  0.49966285  0.71826206  0.29899583  1
  H  H91  1  0.99966291  0.78173788  0.70100415  1
  H  H92  1  0.79899614  0.49966247  0.78173814  1
  H  H93  1  0.20100398  0.99966282  0.71826170  1
  H  H94  1  0.70100417  0.50033715  0.28173794  1
  H  H95  1  0.29899585  0.00033709  0.21826212  1
  H  H96  1  0.78173814  0.79899614  0.49966247  1
  H  H97  1  0.71826170  0.20100398  0.99966282  1
  H  H98  1  0.28173794  0.70100417  0.50033715  1
  H  H99  1  0.21826212  0.29899585  0.00033709  1
  H  H100  1  0.49966247  0.78173814  0.79899614  1
  H  H101  1  0.99966282  0.71826170  0.20100398  1
  H  H102  1  0.50033715  0.28173794  0.70100417  1
  H  H103  1  0.00033709  0.21826212  0.29899585  1
  S  S104  1  0.18039311  0.81960749  0.31960623  1
  S  S105  1  0.81960749  0.31960623  0.18039311  1
  S  S106  1  0.31960623  0.18039311  0.81960749  1
  S  S107  1  0.68039360  0.68039360  0.68039360  1
  S  S108  1  0.81960689  0.18039251  0.68039377  1
  S  S109  1  0.18039251  0.68039377  0.81960689  1
  S  S110  1  0.68039377  0.81960689  0.18039251  1
  S  S111  1  0.31960640  0.31960640  0.31960640  1
  O  O112  1  0.25198988  0.74801009  0.24801041  1
  O  O113  1  0.74801009  0.24801041  0.25198988  1
  O  O114  1  0.24801041  0.25198988  0.74801009  1
  O  O115  1  0.75198910  0.75198910  0.75198910  1
  O  O116  1  0.74801012  0.25198991  0.75198959  1
  O  O117  1  0.25198991  0.75198959  0.74801012  1
  O  O118  1  0.75198959  0.74801012  0.25198991  1
  O  O119  1  0.24801090  0.24801090  0.24801090  1
  O  O120  1  0.07004179  0.83190453  0.26699608  1
  O  O121  1  0.92995791  0.33190517  0.23300356  1
  O  O122  1  0.42995966  0.16809524  0.76699550  1
  O  O123  1  0.57004251  0.66809505  0.73300366  1
  O  O124  1  0.26699608  0.07004179  0.83190453  1
  O  O125  1  0.23300356  0.92995791  0.33190517  1
  O  O126  1  0.76699550  0.42995966  0.16809524  1
  O  O127  1  0.73300366  0.57004251  0.66809505  1
  O  O128  1  0.83190453  0.26699608  0.07004179  1
  O  O129  1  0.33190517  0.23300356  0.92995791  1
  O  O130  1  0.16809524  0.76699550  0.42995966  1
  O  O131  1  0.66809505  0.73300366  0.57004251  1
  O  O132  1  0.92995821  0.16809547  0.73300392  1
  O  O133  1  0.07004209  0.66809483  0.76699644  1
  O  O134  1  0.57004034  0.83190476  0.23300450  1
  O  O135  1  0.42995749  0.33190495  0.26699634  1
  O  O136  1  0.73300392  0.92995821  0.16809547  1
  O  O137  1  0.76699644  0.07004209  0.66809483  1
  O  O138  1  0.23300450  0.57004034  0.83190476  1
  O  O139  1  0.26699634  0.42995749  0.33190495  1
  O  O140  1  0.16809547  0.73300392  0.92995821  1
  O  O141  1  0.66809483  0.76699644  0.07004209  1
  O  O142  1  0.83190476  0.23300450  0.57004034  1
  O  O143  1  0.33190495  0.26699634  0.42995749  1
  O  O144  1  0.33554057  0.48823764  0.01030828  1
  O  O145  1  0.66445812  0.98823603  0.48969021  1
  O  O146  1  0.16445813  0.51176492  0.51031036  1
  O  O147  1  0.83554448  0.01176466  0.98968835  1
  O  O148  1  0.01030828  0.33554057  0.48823764  1
  O  O149  1  0.48969021  0.66445812  0.98823603  1
  O  O150  1  0.51031036  0.16445813  0.51176492  1
  O  O151  1  0.98968835  0.83554448  0.01176466  1
  O  O152  1  0.48823764  0.01030828  0.33554057  1
  O  O153  1  0.98823603  0.48969021  0.66445812  1
  O  O154  1  0.51176492  0.51031036  0.16445813  1
  O  O155  1  0.01176466  0.98968835  0.83554448  1
  O  O156  1  0.66445943  0.51176236  0.98969172  1
  O  O157  1  0.33554188  0.01176397  0.51030979  1
  O  O158  1  0.83554187  0.48823508  0.48968964  1
  O  O159  1  0.16445552  0.98823534  0.01031165  1
  O  O160  1  0.98969172  0.66445943  0.51176236  1
  O  O161  1  0.51030979  0.33554188  0.01176397  1
  O  O162  1  0.48968964  0.83554187  0.48823508  1
  O  O163  1  0.01031165  0.16445552  0.98823534  1
  O  O164  1  0.51176236  0.98969172  0.66445943  1
  O  O165  1  0.01176397  0.51030979  0.33554188  1
  O  O166  1  0.48823508  0.48968964  0.83554187  1
  O  O167  1  0.98823534  0.01031165  0.16445552  1
  O  O168  1  0.19159280  0.54999448  0.15429781  1
  O  O169  1  0.80840578  0.04999506  0.34570293  1
  O  O170  1  0.30840660  0.45000521  0.65430003  1
  O  O171  1  0.69159446  0.95000467  0.84570175  1
  O  O172  1  0.15429781  0.19159280  0.54999448  1
  O  O173  1  0.34570293  0.80840578  0.04999506  1
  O  O174  1  0.65430003  0.30840660  0.45000521  1
  O  O175  1  0.84570175  0.69159446  0.95000467  1
  O  O176  1  0.54999448  0.15429781  0.19159280  1
  O  O177  1  0.04999506  0.34570293  0.80840578  1
  O  O178  1  0.45000521  0.65430003  0.30840660  1
  O  O179  1  0.95000467  0.84570175  0.69159446  1
  O  O180  1  0.80840720  0.45000552  0.84570219  1
  O  O181  1  0.19159422  0.95000494  0.65429707  1
  O  O182  1  0.69159340  0.54999479  0.34569997  1
  O  O183  1  0.30840554  0.04999533  0.15429825  1
  O  O184  1  0.84570219  0.80840720  0.45000552  1
  O  O185  1  0.65429707  0.19159422  0.95000494  1
  O  O186  1  0.34569997  0.69159340  0.54999479  1
  O  O187  1  0.15429825  0.30840554  0.04999533  1
  O  O188  1  0.45000552  0.84570219  0.80840720  1
  O  O189  1  0.95000494  0.65429707  0.19159422  1
  O  O190  1  0.54999479  0.34569997  0.69159340  1
  O  O191  1  0.04999533  0.15429825  0.30840554  1
