# generated using pymatgen
data_Sm2Se2O
_symmetry_space_group_name_H-M   'P 1'
_cell_length_a   16.45709059
_cell_length_b   4.02295503
_cell_length_c   7.17526766
_cell_angle_alpha   90.00000000
_cell_angle_beta   90.00000000
_cell_angle_gamma   90.00000000
_symmetry_Int_Tables_number   1
_chemical_formula_structural   Sm2Se2O
_chemical_formula_sum   'Sm8 Se8 O4'
_cell_volume   475.04674200
_cell_formula_units_Z   4
loop_
 _symmetry_equiv_pos_site_id
 _symmetry_equiv_pos_as_xyz
  1  'x, y, z'
loop_
 _atom_site_type_symbol
 _atom_site_label
 _atom_site_symmetry_multiplicity
 _atom_site_fract_x
 _atom_site_fract_y
 _atom_site_fract_z
 _atom_site_occupancy
  Sm  Sm0  1  0.03827059  0.25000000  0.69819182  1
  Sm  Sm1  1  0.16148852  0.25000000  0.25887741  1
  Sm  Sm2  1  0.33851148  0.75000000  0.75887741  1
  Sm  Sm3  1  0.46172941  0.75000000  0.19819182  1
  Sm  Sm4  1  0.53827059  0.25000000  0.80180818  1
  Sm  Sm5  1  0.66148852  0.25000000  0.24112259  1
  Sm  Sm6  1  0.83851148  0.75000000  0.74112259  1
  Sm  Sm7  1  0.96172941  0.75000000  0.30180818  1
  Se  Se8  1  0.09952185  0.75000000  0.00998184  1
  Se  Se9  1  0.17947842  0.75000000  0.55151944  1
  Se  Se10  1  0.32052158  0.25000000  0.05151944  1
  Se  Se11  1  0.40047815  0.25000000  0.50998184  1
  Se  Se12  1  0.59952185  0.75000000  0.49001816  1
  Se  Se13  1  0.67947842  0.75000000  0.94848056  1
  Se  Se14  1  0.82052158  0.25000000  0.44848056  1
  Se  Se15  1  0.90047815  0.25000000  0.99001816  1
  O  O16  1  0.03051942  0.25000000  0.37174882  1
  O  O17  1  0.46948058  0.75000000  0.87174882  1
  O  O18  1  0.53051942  0.25000000  0.12825118  1
  O  O19  1  0.96948058  0.75000000  0.62825118  1
