# generated using pymatgen
data_Dy2Ge2O7
_symmetry_space_group_name_H-M   'P 1'
_cell_length_a   7.08782495
_cell_length_b   7.08782819
_cell_length_c   7.08782694
_cell_angle_alpha   60.00001026
_cell_angle_beta   59.99992080
_cell_angle_gamma   59.99990010
_symmetry_Int_Tables_number   1
_chemical_formula_structural   Dy2Ge2O7
_chemical_formula_sum   'Dy4 Ge4 O14'
_cell_volume   251.78144296
_cell_formula_units_Z   2
loop_
 _symmetry_equiv_pos_site_id
 _symmetry_equiv_pos_as_xyz
  1  'x, y, z'
loop_
 _atom_site_type_symbol
 _atom_site_label
 _atom_site_symmetry_multiplicity
 _atom_site_fract_x
 _atom_site_fract_y
 _atom_site_fract_z
 _atom_site_occupancy
  Dy  Dy0  1  0.00000076  0.99999857  0.00000036  1
  Dy  Dy1  1  0.50000020  -0.00000093  0.00000087  1
  Dy  Dy2  1  0.00000008  0.49999991  0.99999963  1
  Dy  Dy3  1  0.00000095  0.99999877  0.49999938  1
  Ge  Ge4  1  0.49999942  0.00000053  0.49999964  1
  Ge  Ge5  1  0.50000048  0.49999949  0.00000015  1
  Ge  Ge6  1  0.00000053  0.49999983  0.49999964  1
  Ge  Ge7  1  0.49999970  0.50000049  0.49999950  1
  O  O8  1  0.12499883  0.12500215  0.12499937  1
  O  O9  1  0.57796050  0.17204089  0.17204006  1
  O  O10  1  0.57795999  0.17203768  0.57795943  1
  O  O11  1  0.17204050  0.17203960  0.57796127  1
  O  O12  1  0.17203836  0.57796318  0.17204059  1
  O  O13  1  0.57796229  0.57795843  0.17203873  1
  O  O14  1  0.82796038  0.42203979  0.42204084  1
  O  O15  1  0.17203853  0.57796012  0.57796352  1
  O  O16  1  0.42204282  0.82795974  0.42203978  1
  O  O17  1  0.42203920  0.42204078  0.82795835  1
  O  O18  1  0.82795771  0.82796028  0.42203917  1
  O  O19  1  0.82795972  0.42204009  0.82796052  1
  O  O20  1  0.42203925  0.82796070  0.82795845  1
  O  O21  1  0.87499981  0.87499989  0.87500076  1
