# generated using pymatgen
data_Rb4SiO4
_symmetry_space_group_name_H-M   'P 1'
_cell_length_a   6.61374453
_cell_length_b   6.59987037
_cell_length_c   9.89646293
_cell_angle_alpha   71.93702747
_cell_angle_beta   79.04846404
_cell_angle_gamma   65.98895771
_symmetry_Int_Tables_number   1
_chemical_formula_structural   Rb4SiO4
_chemical_formula_sum   'Rb8 Si2 O8'
_cell_volume   374.13742168
_cell_formula_units_Z   2
loop_
 _symmetry_equiv_pos_site_id
 _symmetry_equiv_pos_as_xyz
  1  'x, y, z'
loop_
 _atom_site_type_symbol
 _atom_site_label
 _atom_site_symmetry_multiplicity
 _atom_site_fract_x
 _atom_site_fract_y
 _atom_site_fract_z
 _atom_site_occupancy
  Rb  Rb0  1  0.23914343  0.76570019  0.03019489  1
  Rb  Rb1  1  0.27473737  0.51107894  0.43920315  1
  Rb  Rb2  1  0.25579452  0.39808703  0.84370380  1
  Rb  Rb3  1  0.21448240  0.96862797  0.62112374  1
  Rb  Rb4  1  0.78551760  0.03137203  0.37887626  1
  Rb  Rb5  1  0.74420548  0.60191297  0.15629620  1
  Rb  Rb6  1  0.72526263  0.48892106  0.56079685  1
  Rb  Rb7  1  0.76085657  0.23429981  0.96980511  1
  Si  Si8  1  0.26777026  0.16108650  0.24853406  1
  Si  Si9  1  0.73222974  0.83891350  0.75146594  1
  O  O10  1  0.14687944  0.15978606  0.11601961  1
  O  O11  1  0.06356030  0.29103748  0.35999545  1
  O  O12  1  0.43274173  0.31337618  0.19065894  1
  O  O13  1  0.58221401  0.10755260  0.66285800  1
  O  O14  1  0.41778599  0.89244740  0.33714200  1
  O  O15  1  0.56725827  0.68662382  0.80934106  1
  O  O16  1  0.93643970  0.70896252  0.64000455  1
  O  O17  1  0.85312056  0.84021394  0.88398039  1
