# generated using pymatgen
data_SrTaNO2
_symmetry_space_group_name_H-M   'P 1'
_cell_length_a   4.02180103
_cell_length_b   9.20480054
_cell_length_c   5.79834580
_cell_angle_alpha   108.73178793
_cell_angle_beta   90.00000000
_cell_angle_gamma   90.00000000
_symmetry_Int_Tables_number   1
_chemical_formula_structural   SrTaNO2
_chemical_formula_sum   'Sr3 Ta3 N3 O6'
_cell_volume   203.28430350
_cell_formula_units_Z   3
loop_
 _symmetry_equiv_pos_site_id
 _symmetry_equiv_pos_as_xyz
  1  'x, y, z'
loop_
 _atom_site_type_symbol
 _atom_site_label
 _atom_site_symmetry_multiplicity
 _atom_site_fract_x
 _atom_site_fract_y
 _atom_site_fract_z
 _atom_site_occupancy
  Sr  Sr0  1  0.50000000  0.32822024  0.16219497  1
  Sr  Sr1  1  0.50000000  0.00025209  0.50992135  1
  Sr  Sr2  1  0.50000000  0.66740714  0.82884378  1
  Ta  Ta3  1  0.00000000  0.34309460  0.66968391  1
  Ta  Ta4  1  0.00000000  0.99208300  0.00855319  1
  Ta  Ta5  1  0.00000000  0.65762049  0.32047346  1
  N  N6  1  0.00000000  0.50163038  0.50805044  1
  N  N7  1  0.00000000  0.49774412  0.00369925  1
  N  N8  1  0.00000000  0.83705917  0.16803883  1
  O  O9  1  0.50000000  0.31809304  0.65653014  1
  O  O10  1  0.50000000  0.00835696  0.99340685  1
  O  O11  1  0.50000000  0.67590046  0.35015971  1
  O  O12  1  0.00000000  0.16445645  0.82548366  1
  O  O13  1  0.00000000  0.16748283  0.32485900  1
  O  O14  1  0.00000000  0.84059903  0.67010147  1
