# generated using pymatgen
data_Sm2Ge2O7
_symmetry_space_group_name_H-M   'P 1'
_cell_length_a   5.92034191
_cell_length_b   5.04812547
_cell_length_c   5.92034191
_cell_angle_alpha   82.78104002
_cell_angle_beta   74.98177544
_cell_angle_gamma   97.21895998
_symmetry_Int_Tables_number   1
_chemical_formula_structural   Sm2Ge2O7
_chemical_formula_sum   'Sm2 Ge2 O7'
_cell_volume   167.21333855
_cell_formula_units_Z   1
loop_
 _symmetry_equiv_pos_site_id
 _symmetry_equiv_pos_as_xyz
  1  'x, y, z'
loop_
 _atom_site_type_symbol
 _atom_site_label
 _atom_site_symmetry_multiplicity
 _atom_site_fract_x
 _atom_site_fract_y
 _atom_site_fract_z
 _atom_site_occupancy
  Sm  Sm0  1  0.30424048  0.50000000  0.30424048  1
  Sm  Sm1  1  0.69575952  0.50000000  0.69575952  1
  Ge  Ge2  1  0.22717127  0.91245580  0.77282873  1
  Ge  Ge3  1  0.77282873  0.08754420  0.22717127  1
  O  O4  1  0.39549384  0.71740423  0.91489030  1
  O  O5  1  0.08510970  0.71740423  0.60450616  1
  O  O6  1  0.39494593  0.22062332  0.60505407  1
  O  O7  1  0.60505407  0.77937668  0.39494593  1
  O  O8  1  0.00000000  0.00000000  0.00000000  1
  O  O9  1  0.60450616  0.28259577  0.08510970  1
  O  O10  1  0.91489030  0.28259577  0.39549384  1
