# generated using pymatgen
data_Li7BiO6
_symmetry_space_group_name_H-M   'P 1'
_cell_length_a   5.71299481
_cell_length_b   5.71221475
_cell_length_c   6.08312238
_cell_angle_alpha   61.99728414
_cell_angle_beta   118.00884229
_cell_angle_gamma   120.00285252
_symmetry_Int_Tables_number   1
_chemical_formula_structural   Li7BiO6
_chemical_formula_sum   'Li7 Bi1 O6'
_cell_volume   144.45190182
_cell_formula_units_Z   1
loop_
 _symmetry_equiv_pos_site_id
 _symmetry_equiv_pos_as_xyz
  1  'x, y, z'
loop_
 _atom_site_type_symbol
 _atom_site_label
 _atom_site_symmetry_multiplicity
 _atom_site_fract_x
 _atom_site_fract_y
 _atom_site_fract_z
 _atom_site_occupancy
  Li  Li0  1  0.87850379  0.73109283  0.64936159  1
  Li  Li1  1  0.50891034  0.93364675  0.34726254  1
  Li  Li2  1  0.77192875  0.49115348  0.34723243  1
  Li  Li3  1  0.34949493  0.65038758  0.04870749  1
  Li  Li4  1  0.50201259  0.12141643  0.64949465  1
  Li  Li5  1  0.26883498  0.49802202  0.64935704  1
  Li  Li6  1  0.06637626  0.22807623  0.34726985  1
  Bi  Bi7  1  0.99781861  0.00217495  0.99338419  1
  O  O8  1  0.75833788  0.87676829  0.24847440  1
  O  O9  1  0.61138020  0.79743159  0.73738641  1
  O  O10  1  0.92366452  0.38871629  0.73738413  1
  O  O11  1  0.12329457  0.63310149  0.24859499  1
  O  O12  1  0.36690897  0.24164290  0.24863856  1
  O  O13  1  0.20253261  0.07636818  0.73744971  1
