# generated using pymatgen
data_YbP3O10
_symmetry_space_group_name_H-M   'P 1'
_cell_length_a   5.73300774
_cell_length_b   6.83725664
_cell_length_c   6.83725664
_cell_angle_alpha   60.80749011
_cell_angle_beta   73.79997340
_cell_angle_gamma   73.79997340
_symmetry_Int_Tables_number   1
_chemical_formula_structural   YbP3O10
_chemical_formula_sum   'Yb1 P3 O10'
_cell_volume   221.38753939
_cell_formula_units_Z   1
loop_
 _symmetry_equiv_pos_site_id
 _symmetry_equiv_pos_as_xyz
  1  'x, y, z'
loop_
 _atom_site_type_symbol
 _atom_site_label
 _atom_site_symmetry_multiplicity
 _atom_site_fract_x
 _atom_site_fract_y
 _atom_site_fract_z
 _atom_site_occupancy
  Yb  Yb0  1  0.50000000  0.96771551  0.03228449  1
  P  P1  1  -0.00000000  0.31282758  0.68717242  1
  P  P2  1  0.19187832  0.47337071  0.18240124  1
  P  P3  1  0.80812168  0.81759876  0.52662929  1
  O  O4  1  0.03970454  0.34031445  0.43592957  1
  O  O5  1  0.96029546  0.56407043  0.65968555  1
  O  O6  1  0.77289379  0.20893973  0.81624383  1
  O  O7  1  0.22710621  0.18375617  0.79106027  1
  O  O8  1  0.32313022  0.63607679  0.18477858  1
  O  O9  1  0.67686978  0.81522142  0.36392321  1
  O  O10  1  0.35242570  0.28599539  0.12241637  1
  O  O11  1  0.64757430  0.87758363  0.71400461  1
  O  O12  1  0.99321296  0.60921550  0.03228605  1
  O  O13  1  0.00678704  0.96771395  0.39078450  1
