# generated using pymatgen
data_LuTa3O9
_symmetry_space_group_name_H-M   'P 1'
_cell_length_a   5.22950530
_cell_length_b   7.48857704
_cell_length_c   8.31241006
_cell_angle_alpha   90.00000000
_cell_angle_beta   92.63334335
_cell_angle_gamma   90.00000000
_symmetry_Int_Tables_number   1
_chemical_formula_structural   LuTa3O9
_chemical_formula_sum   'Lu2 Ta6 O18'
_cell_volume   325.18313407
_cell_formula_units_Z   2
loop_
 _symmetry_equiv_pos_site_id
 _symmetry_equiv_pos_as_xyz
  1  'x, y, z'
loop_
 _atom_site_type_symbol
 _atom_site_label
 _atom_site_symmetry_multiplicity
 _atom_site_fract_x
 _atom_site_fract_y
 _atom_site_fract_z
 _atom_site_occupancy
  Lu  Lu0  1  0.03662942  0.75000000  0.43549032  1
  Lu  Lu1  1  0.96337058  0.25000000  0.56450968  1
  Ta  Ta2  1  0.00000000  0.00000000  0.00000000  1
  Ta  Ta3  1  0.00000000  0.50000000  0.00000000  1
  Ta  Ta4  1  0.46844986  0.99390099  0.69388079  1
  Ta  Ta5  1  0.46844986  0.50609901  0.69388079  1
  Ta  Ta6  1  0.53155014  0.00609901  0.30611921  1
  Ta  Ta7  1  0.53155014  0.49390099  0.30611921  1
  O  O8  1  0.09686747  0.75000000  0.97614104  1
  O  O9  1  0.14482828  0.06777395  0.78300722  1
  O  O10  1  0.14482828  0.43222605  0.78300722  1
  O  O11  1  0.25296014  0.04501163  0.46801088  1
  O  O12  1  0.25296014  0.45498837  0.46801088  1
  O  O13  1  0.32994126  0.75000000  0.65098169  1
  O  O14  1  0.32901328  0.05320939  0.12064113  1
  O  O15  1  0.32901328  0.44679061  0.12064113  1
  O  O16  1  0.41320863  0.75000000  0.31733090  1
  O  O17  1  0.58679137  0.25000000  0.68266910  1
  O  O18  1  0.67098672  0.94679061  0.87935887  1
  O  O19  1  0.67098672  0.55320939  0.87935887  1
  O  O20  1  0.67005874  0.25000000  0.34901831  1
  O  O21  1  0.74703986  0.95498837  0.53198912  1
  O  O22  1  0.74703986  0.54501163  0.53198912  1
  O  O23  1  0.85517172  0.93222605  0.21699278  1
  O  O24  1  0.85517172  0.56777395  0.21699278  1
  O  O25  1  0.90313253  0.25000000  0.02385896  1
