# generated using pymatgen
data_LiSn2(PO4)3
_symmetry_space_group_name_H-M   'P 1'
_cell_length_a   8.76623223
_cell_length_b   12.22419464
_cell_length_c   8.87448049
_cell_angle_alpha   90.00000000
_cell_angle_beta   90.00000000
_cell_angle_gamma   90.00000000
_symmetry_Int_Tables_number   1
_chemical_formula_structural   LiSn2(PO4)3
_chemical_formula_sum   'Li4 Sn8 P12 O48'
_cell_volume   950.99047446
_cell_formula_units_Z   4
loop_
 _symmetry_equiv_pos_site_id
 _symmetry_equiv_pos_as_xyz
  1  'x, y, z'
loop_
 _atom_site_type_symbol
 _atom_site_label
 _atom_site_symmetry_multiplicity
 _atom_site_fract_x
 _atom_site_fract_y
 _atom_site_fract_z
 _atom_site_occupancy
  Li  Li0  1  0.21612352  0.82267148  0.72867212  1
  Li  Li1  1  0.28387648  0.32267148  0.27132788  1
  Li  Li2  1  0.71612352  0.32267148  0.77132788  1
  Li  Li3  1  0.78387648  0.82267148  0.22867212  1
  Sn  Sn4  1  0.24780062  0.11766947  0.46498510  1
  Sn  Sn5  1  0.25441206  0.87957290  0.05207630  1
  Sn  Sn6  1  0.24558794  0.37957290  0.94792370  1
  Sn  Sn7  1  0.25219938  0.61766947  0.53501490  1
  Sn  Sn8  1  0.75441206  0.37957290  0.44792370  1
  Sn  Sn9  1  0.74780062  0.61766947  0.03501490  1
  Sn  Sn10  1  0.74558794  0.87957290  0.55207630  1
  Sn  Sn11  1  0.75219938  0.11766947  0.96498510  1
  P  P12  1  0.04398785  0.50109660  0.24596902  1
  P  P13  1  0.10796141  0.14720290  0.10305387  1
  P  P14  1  0.10095276  0.85293606  0.39684545  1
  P  P15  1  0.39904724  0.35293606  0.60315455  1
  P  P16  1  0.39203859  0.64720290  0.89694613  1
  P  P17  1  0.45601215  0.00109660  0.75403098  1
  P  P18  1  0.54398785  0.00109660  0.25403098  1
  P  P19  1  0.60095276  0.35293606  0.10315455  1
  P  P20  1  0.60796141  0.64720290  0.39694613  1
  P  P21  1  0.89904724  0.85293606  0.89684545  1
  P  P22  1  0.89203859  0.14720290  0.60305387  1
  P  P23  1  0.95601215  0.50109660  0.74596902  1
  O  O24  1  0.04928374  0.42095965  0.84425894  1
  O  O25  1  0.05373592  0.57402998  0.64457470  1
  O  O26  1  0.06678280  0.16271116  0.59894261  1
  O  O27  1  0.07519475  0.83950703  0.90261618  1
  O  O28  1  0.14945723  0.02711967  0.07774660  1
  O  O29  1  0.14640465  0.97037382  0.43264887  1
  O  O30  1  0.16740997  0.18492905  0.26196265  1
  O  O31  1  0.14966677  0.81670792  0.23844121  1
  O  O32  1  0.18458925  0.21944570  0.98214938  1
  O  O33  1  0.17510035  0.77956610  0.52095516  1
  O  O34  1  0.14440441  0.57609505  0.34216858  1
  O  O35  1  0.15251937  0.42413644  0.15512083  1
  O  O36  1  0.35559559  0.07609505  0.65783142  1
  O  O37  1  0.34748063  0.92413644  0.84487917  1
  O  O38  1  0.31541075  0.71944570  0.01785062  1
  O  O39  1  0.32489965  0.27956610  0.47904484  1
  O  O40  1  0.33259003  0.68492905  0.73803735  1
  O  O41  1  0.35033323  0.31670792  0.76155879  1
  O  O42  1  0.35359535  0.47037382  0.56735113  1
  O  O43  1  0.35054277  0.52711967  0.92225340  1
  O  O44  1  0.42480525  0.33950703  0.09738382  1
  O  O45  1  0.43321720  0.66271116  0.40105739  1
  O  O46  1  0.44626408  0.07402998  0.35542530  1
  O  O47  1  0.45071626  0.92095965  0.15574106  1
  O  O48  1  0.54928374  0.92095965  0.65574106  1
  O  O49  1  0.55373592  0.07402998  0.85542530  1
  O  O50  1  0.57519475  0.33950703  0.59738382  1
  O  O51  1  0.56678280  0.66271116  0.90105739  1
  O  O52  1  0.64640465  0.47037382  0.06735113  1
  O  O53  1  0.64945723  0.52711967  0.42225340  1
  O  O54  1  0.64966677  0.31670792  0.26155879  1
  O  O55  1  0.66740997  0.68492905  0.23803735  1
  O  O56  1  0.68458925  0.71944570  0.51785062  1
  O  O57  1  0.67510035  0.27956610  0.97904484  1
  O  O58  1  0.64440441  0.07609505  0.15783142  1
  O  O59  1  0.65251937  0.92413644  0.34487917  1
  O  O60  1  0.84748063  0.42413644  0.65512083  1
  O  O61  1  0.85559559  0.57609505  0.84216858  1
  O  O62  1  0.81541075  0.21944570  0.48214938  1
  O  O63  1  0.82489965  0.77956610  0.02095516  1
  O  O64  1  0.83259003  0.18492905  0.76196265  1
  O  O65  1  0.85033323  0.81670792  0.73844121  1
  O  O66  1  0.85054277  0.02711967  0.57774660  1
  O  O67  1  0.85359535  0.97037382  0.93264887  1
  O  O68  1  0.93321720  0.16271116  0.09894261  1
  O  O69  1  0.92480525  0.83950703  0.40261618  1
  O  O70  1  0.95071626  0.42095965  0.34425894  1
  O  O71  1  0.94626408  0.57402998  0.14457470  1
