# generated using pymatgen
data_Ti5Fe7O18
_symmetry_space_group_name_H-M   'P 1'
_cell_length_a   5.56305638
_cell_length_b   8.93920822
_cell_length_c   7.63126843
_cell_angle_alpha   66.85655975
_cell_angle_beta   96.06070727
_cell_angle_gamma   74.66990664
_symmetry_Int_Tables_number   1
_chemical_formula_structural   Ti5Fe7O18
_chemical_formula_sum   'Ti5 Fe7 O18'
_cell_volume   327.01561094
_cell_formula_units_Z   1
loop_
 _symmetry_equiv_pos_site_id
 _symmetry_equiv_pos_as_xyz
  1  'x, y, z'
loop_
 _atom_site_type_symbol
 _atom_site_label
 _atom_site_symmetry_multiplicity
 _atom_site_fract_x
 _atom_site_fract_y
 _atom_site_fract_z
 _atom_site_occupancy
  Ti  Ti0  1  0.70470236  0.99931203  0.14761613  1
  Ti  Ti1  1  0.62625410  0.33259768  0.18729129  1
  Ti  Ti2  1  0.28875078  0.00560671  0.84941093  1
  Ti  Ti3  1  0.38247101  0.66514821  0.80906678  1
  Ti  Ti4  1  0.96316169  0.66237550  0.52297068  1
  Fe  Fe5  1  0.29115940  0.00383727  0.35723498  1
  Fe  Fe6  1  0.03783528  0.33579351  0.48044908  1
  Fe  Fe7  1  0.71002162  0.00109200  0.64397556  1
  Fe  Fe8  1  0.96530206  0.66300583  0.02523810  1
  Fe  Fe9  1  0.37472440  0.66962899  0.30744448  1
  Fe  Fe10  1  0.61973994  0.33334235  0.68346615  1
  Fe  Fe11  1  0.04285870  0.33344010  0.98022698  1
  O  O12  1  0.41692853  0.20601573  0.15424924  1
  O  O13  1  0.90949838  0.12867099  0.17915755  1
  O  O14  1  0.29272828  0.10369167  0.55907793  1
  O  O15  1  0.04149947  0.21705488  0.78837734  1
  O  O16  1  0.36710668  0.55126812  0.11235554  1
  O  O17  1  0.72422532  0.24206723  0.46001746  1
  O  O18  1  0.60042184  0.08882329  0.87344898  1
  O  O19  1  0.92840201  0.43831877  0.18743964  1
  O  O20  1  0.25523487  0.47132683  0.51131129  1
  O  O21  1  0.75353164  0.53957861  0.48945855  1
  O  O22  1  0.05983098  0.58140549  0.80044963  1
  O  O23  1  0.39040279  0.90972942  0.13135577  1
  O  O24  1  0.27411026  0.75925288  0.53745447  1
  O  O25  1  0.94644049  0.77747305  0.20606079  1
  O  O26  1  0.61966326  0.44756138  0.88293134  1
  O  O27  1  0.72161881  0.88296503  0.44623995  1
  O  O28  1  0.08920359  0.86358519  0.83124203  1
  O  O29  1  0.60217144  0.78603025  0.85498035  1
