# generated using pymatgen
data_TiP2O7
_symmetry_space_group_name_H-M   'P 1'
_cell_length_a   7.41859027
_cell_length_b   8.00716064
_cell_length_c   9.56877326
_cell_angle_alpha   90.00000000
_cell_angle_beta   111.12859253
_cell_angle_gamma   90.00000000
_symmetry_Int_Tables_number   1
_chemical_formula_structural   TiP2O7
_chemical_formula_sum   'Ti4 P8 O28'
_cell_volume   530.19119980
_cell_formula_units_Z   4
loop_
 _symmetry_equiv_pos_site_id
 _symmetry_equiv_pos_as_xyz
  1  'x, y, z'
loop_
 _atom_site_type_symbol
 _atom_site_label
 _atom_site_symmetry_multiplicity
 _atom_site_fract_x
 _atom_site_fract_y
 _atom_site_fract_z
 _atom_site_occupancy
  Ti  Ti0  1  0.26667982  0.48717994  0.74855750  1
  Ti  Ti1  1  0.26667982  0.01282006  0.24855750  1
  Ti  Ti2  1  0.73332018  0.98717994  0.75144250  1
  Ti  Ti3  1  0.73332018  0.51282006  0.25144250  1
  P  P4  1  0.06633049  0.24467513  0.94903831  1
  P  P5  1  0.06633049  0.25532387  0.44903831  1
  P  P6  1  0.32272653  0.79220365  0.54684119  1
  P  P7  1  0.67727347  0.29220365  0.95315881  1
  P  P8  1  0.32272653  0.70779635  0.04684119  1
  P  P9  1  0.67727347  0.20779635  0.45315881  1
  P  P10  1  0.93366951  0.74467513  0.55096169  1
  P  P11  1  0.93366951  0.75532487  0.05096169  1
  O  O12  1  0.99141504  0.08833241  0.85392951  1
  O  O13  1  0.17661551  0.36300117  0.88449890  1
  O  O14  1  0.99141504  0.41166759  0.35392951  1
  O  O15  1  0.11726339  0.85222328  0.55178038  1
  O  O16  1  0.31241395  0.68957201  0.88535244  1
  O  O17  1  0.18886251  0.29833864  0.61171781  1
  O  O18  1  0.17661551  0.13699883  0.38449890  1
  O  O19  1  0.35104604  0.61267350  0.60617912  1
  O  O20  1  0.11726339  0.64777672  0.05178038  1
  O  O21  1  0.31241395  0.81042799  0.38535244  1
  O  O22  1  0.52711541  0.41038275  0.84761489  1
  O  O23  1  0.18886251  0.20166136  0.11171781  1
  O  O24  1  0.47288459  0.91038275  0.65238511  1
  O  O25  1  0.64895396  0.11267350  0.89382088  1
  O  O26  1  0.35104604  0.88732650  0.10617912  1
  O  O27  1  0.52711541  0.08961725  0.34761489  1
  O  O28  1  0.81113749  0.79833864  0.88828219  1
  O  O29  1  0.47288459  0.58961725  0.15238511  1
  O  O30  1  0.68758605  0.18957201  0.61464756  1
  O  O31  1  0.88273661  0.35222328  0.94821962  1
  O  O32  1  0.64895396  0.38732650  0.39382088  1
  O  O33  1  0.82338449  0.86300117  0.61550110  1
  O  O34  1  0.81113749  0.70166136  0.38828219  1
  O  O35  1  0.68758605  0.31042799  0.11464756  1
  O  O36  1  0.88273661  0.14777672  0.44821962  1
  O  O37  1  0.00858496  0.58833241  0.64607049  1
  O  O38  1  0.82338449  0.63699883  0.11550110  1
  O  O39  1  0.00858496  0.91166759  0.14607049  1
