# generated using pymatgen
data_LiH2ClO
_symmetry_space_group_name_H-M   'P 1'
_cell_length_a   5.48661344
_cell_length_b   5.48661344
_cell_length_c   7.70825872
_cell_angle_alpha   90.00000000
_cell_angle_beta   90.00000000
_cell_angle_gamma   88.68519775
_symmetry_Int_Tables_number   1
_chemical_formula_structural   LiH2ClO
_chemical_formula_sum   'Li4 H8 Cl4 O4'
_cell_volume   231.98005696
_cell_formula_units_Z   4
loop_
 _symmetry_equiv_pos_site_id
 _symmetry_equiv_pos_as_xyz
  1  'x, y, z'
loop_
 _atom_site_type_symbol
 _atom_site_label
 _atom_site_symmetry_multiplicity
 _atom_site_fract_x
 _atom_site_fract_y
 _atom_site_fract_z
 _atom_site_occupancy
  Li  Li0  1  0.50000000  0.50000000  0.00000000  1
  Li  Li1  1  0.50000000  0.50000000  0.50000000  1
  Li  Li2  1  0.17973054  0.17973054  0.75000000  1
  Li  Li3  1  0.82026946  0.82026946  0.25000000  1
  H  H4  1  0.08780350  0.28918103  0.06973566  1
  H  H5  1  0.08780350  0.28918103  0.43026434  1
  H  H6  1  0.71081897  0.91219650  0.56973566  1
  H  H7  1  0.71081897  0.91219650  0.93026434  1
  H  H8  1  0.28918103  0.08780350  0.06973566  1
  H  H9  1  0.91219650  0.71081897  0.56973566  1
  H  H10  1  0.28918103  0.08780350  0.43026434  1
  H  H11  1  0.91219650  0.71081897  0.93026434  1
  Cl  Cl12  1  0.28591419  0.77339314  0.25000000  1
  Cl  Cl13  1  0.22660686  0.71408581  0.75000000  1
  Cl  Cl14  1  0.71408581  0.22660686  0.75000000  1
  Cl  Cl15  1  0.77339314  0.28591419  0.25000000  1
  O  O16  1  0.76099279  0.76099279  0.50631674  1
  O  O17  1  0.23900721  0.23900721  0.00631674  1
  O  O18  1  0.23900721  0.23900721  0.49368326  1
  O  O19  1  0.76099279  0.76099279  0.99368326  1
