# generated using pymatgen
data_BH2S3N3F4
_symmetry_space_group_name_H-M   'P 1'
_cell_length_a   5.88920513
_cell_length_b   7.12454127
_cell_length_c   10.33134408
_cell_angle_alpha   87.80658433
_cell_angle_beta   83.75050373
_cell_angle_gamma   84.55704397
_symmetry_Int_Tables_number   1
_chemical_formula_structural   BH2S3N3F4
_chemical_formula_sum   'B1 H2 S3 N3 F4'
_cell_volume   428.79129611
_cell_formula_units_Z   1
loop_
 _symmetry_equiv_pos_site_id
 _symmetry_equiv_pos_as_xyz
  1  'x, y, z'
loop_
 _atom_site_type_symbol
 _atom_site_label
 _atom_site_symmetry_multiplicity
 _atom_site_fract_x
 _atom_site_fract_y
 _atom_site_fract_z
 _atom_site_occupancy
  B  B0  1  0.56631599  0.77745910  0.24062503  1
  H  H1  1  0.76512288  0.42861948  0.11641569  1
  H  H2  1  0.79578003  0.25651097  0.99330736  1
  S  S3  1  0.86888413  0.13741274  0.35145942  1
  S  S4  1  0.03683866  0.17477481  0.14617605  1
  S  S5  1  0.17753663  0.40671329  0.32927537  1
  N  N6  1  0.22183434  0.30759113  0.19105916  1
  N  N7  1  0.98311188  0.30495097  0.41290298  1
  N  N8  1  0.85151754  0.30891013  0.07348601  1
  F  F9  1  0.36243406  0.79584479  0.18066982  1
  F  F10  1  0.66925029  0.58513056  0.22655508  1
  F  F11  1  0.52600826  0.81379229  0.37379007  1
  F  F12  1  0.72456531  0.89998974  0.17757795  1
