# generated using pymatgen
data_CaB5H3O10
_symmetry_space_group_name_H-M   'P 1'
_cell_length_a   6.57974215
_cell_length_b   20.03708486
_cell_length_c   6.62052172
_cell_angle_alpha   90.00000000
_cell_angle_beta   119.36340250
_cell_angle_gamma   90.00000000
_symmetry_Int_Tables_number   1
_chemical_formula_structural   CaB5H3O10
_chemical_formula_sum   'Ca4 B20 H12 O40'
_cell_volume   760.70552611
_cell_formula_units_Z   4
loop_
 _symmetry_equiv_pos_site_id
 _symmetry_equiv_pos_as_xyz
  1  'x, y, z'
loop_
 _atom_site_type_symbol
 _atom_site_label
 _atom_site_symmetry_multiplicity
 _atom_site_fract_x
 _atom_site_fract_y
 _atom_site_fract_z
 _atom_site_occupancy
  Ca  Ca0  1  0.18488093  0.80536488  0.54907469  1
  Ca  Ca1  1  0.18488093  0.69463512  0.04907469  1
  Ca  Ca2  1  0.81511907  0.30536488  0.95092531  1
  Ca  Ca3  1  0.81511907  0.19463512  0.45092531  1
  B  B4  1  0.08759233  0.65515245  0.55882592  1
  B  B5  1  0.22276572  0.31626686  0.83598823  1
  B  B6  1  0.32277652  0.55232683  0.65403224  1
  B  B7  1  0.31953787  0.32811611  0.52742236  1
  B  B8  1  0.08759233  0.84484755  0.05882592  1
  B  B9  1  0.22276572  0.18373314  0.33598823  1
  B  B10  1  0.48575238  0.16009560  0.75651820  1
  B  B11  1  0.51424762  0.66009560  0.74348180  1
  B  B12  1  0.68046213  0.82811611  0.97257764  1
  B  B13  1  0.32277652  0.94767317  0.15403224  1
  B  B14  1  0.67722348  0.05232683  0.84596776  1
  B  B15  1  0.31953787  0.17188389  0.02742236  1
  B  B16  1  0.48575238  0.33990440  0.25651820  1
  B  B17  1  0.51424762  0.83990440  0.24348180  1
  B  B18  1  0.77723428  0.81626686  0.66401177  1
  B  B19  1  0.91240767  0.15515245  0.94117408  1
  B  B20  1  0.68046213  0.67188389  0.47257764  1
  B  B21  1  0.67722348  0.44767317  0.34596776  1
  B  B22  1  0.77723428  0.68373314  0.16401177  1
  B  B23  1  0.91240767  0.34484755  0.44117408  1
  H  H24  1  0.08605907  0.95062690  0.56902173  1
  H  H25  1  0.18333045  0.46152341  0.58805069  1
  H  H26  1  0.35646550  0.94997999  0.64770273  1
  H  H27  1  0.08605907  0.54937310  0.06902173  1
  H  H28  1  0.18333045  0.03847659  0.08805069  1
  H  H29  1  0.64353450  0.44997999  0.85229727  1
  H  H30  1  0.35646550  0.55002001  0.14770373  1
  H  H31  1  0.81666955  0.96152341  0.91194931  1
  H  H32  1  0.91394093  0.45062690  0.93097827  1
  H  H33  1  0.64353450  0.05002001  0.35229627  1
  H  H34  1  0.81666955  0.53847659  0.41194931  1
  H  H35  1  0.91394093  0.04937310  0.43097827  1
  O  O36  1  0.00898825  0.80925297  0.82968329  1
  O  O37  1  0.08913258  0.16606751  0.86673377  1
  O  O38  1  0.00898825  0.69074703  0.32968329  1
  O  O39  1  0.10795691  0.58342103  0.52952362  1
  O  O40  1  0.08913258  0.33393249  0.36673377  1
  O  O41  1  0.20966834  0.92395127  0.57052559  1
  O  O42  1  0.29942132  0.68812721  0.73267380  1
  O  O43  1  0.27343356  0.18886561  0.56003539  1
  O  O44  1  0.33760044  0.48335189  0.66326142  1
  O  O45  1  0.38899010  0.32724652  0.76698762  1
  O  O46  1  0.49533234  0.17848731  0.97970642  1
  O  O47  1  0.10795691  0.91657897  0.02952362  1
  O  O48  1  0.47543940  0.08763573  0.72980270  1
  O  O49  1  0.52456060  0.58763573  0.77019730  1
  O  O50  1  0.20966834  0.57604873  0.07052559  1
  O  O51  1  0.29942132  0.81187279  0.23267380  1
  O  O52  1  0.27343356  0.31113439  0.06003539  1
  O  O53  1  0.50466766  0.67848731  0.52029358  1
  O  O54  1  0.61100990  0.82724652  0.73301238  1
  O  O55  1  0.66239956  0.98335189  0.83673858  1
  O  O56  1  0.33760044  0.01664811  0.16326142  1
  O  O57  1  0.38899010  0.17275348  0.26698762  1
  O  O58  1  0.49533234  0.32151269  0.47970642  1
  O  O59  1  0.72656644  0.68886561  0.93996461  1
  O  O60  1  0.70057868  0.18812721  0.76732620  1
  O  O61  1  0.79033166  0.42395127  0.92947441  1
  O  O62  1  0.47543940  0.41236427  0.22980270  1
  O  O63  1  0.52456060  0.91236427  0.27019730  1
  O  O64  1  0.89204309  0.08342103  0.97047638  1
  O  O65  1  0.50466766  0.82151269  0.02029358  1
  O  O66  1  0.61100990  0.67275348  0.23301238  1
  O  O67  1  0.66239956  0.51664811  0.33673858  1
  O  O68  1  0.72656644  0.81113439  0.43996461  1
  O  O69  1  0.70057868  0.31187279  0.26732620  1
  O  O70  1  0.79033166  0.07604873  0.42947441  1
  O  O71  1  0.91086742  0.66606751  0.63326623  1
  O  O72  1  0.89204309  0.41657897  0.47047638  1
  O  O73  1  0.99101175  0.30925297  0.67031671  1
  O  O74  1  0.91086742  0.83393249  0.13326623  1
  O  O75  1  0.99101175  0.19074703  0.17031671  1
