# generated using pymatgen
data_ZnH4(IO4)2
_symmetry_space_group_name_H-M   'P 1'
_cell_length_a   4.99005688
_cell_length_b   6.75596600
_cell_length_c   10.98951504
_cell_angle_alpha   99.10161690
_cell_angle_beta   91.49988846
_cell_angle_gamma   91.29920675
_symmetry_Int_Tables_number   1
_chemical_formula_structural   ZnH4(IO4)2
_chemical_formula_sum   'Zn2 H8 I4 O16'
_cell_volume   365.56076925
_cell_formula_units_Z   2
loop_
 _symmetry_equiv_pos_site_id
 _symmetry_equiv_pos_as_xyz
  1  'x, y, z'
loop_
 _atom_site_type_symbol
 _atom_site_label
 _atom_site_symmetry_multiplicity
 _atom_site_fract_x
 _atom_site_fract_y
 _atom_site_fract_z
 _atom_site_occupancy
  Zn  Zn0  1  0.00000000  0.00000000  0.50000000  1
  Zn  Zn1  1  0.00000000  0.00000000  0.00000000  1
  H  H2  1  0.21276726  0.36193205  0.00702816  1
  H  H3  1  0.29070747  0.34811217  0.55194724  1
  H  H4  1  0.44081934  0.22290816  0.04360554  1
  H  H5  1  0.44775215  0.20453769  0.44752664  1
  H  H6  1  0.55224785  0.79546231  0.55247336  1
  H  H7  1  0.55918066  0.77709184  0.95639446  1
  H  H8  1  0.70929253  0.65188783  0.44805276  1
  H  H9  1  0.78723274  0.63806795  0.99297184  1
  I  I10  1  0.10999631  0.71130477  0.72918728  1
  I  I11  1  0.35722615  0.77115344  0.22858890  1
  I  I12  1  0.64277385  0.22884656  0.77141110  1
  I  I13  1  0.89000369  0.28869523  0.27081272  1
  O  O14  1  0.15182019  0.56534618  0.14378515  1
  O  O15  1  0.20309973  0.98567631  0.16843257  1
  O  O16  1  0.20206468  0.79173462  0.37900651  1
  O  O17  1  0.24565438  0.79475716  0.88726913  1
  O  O18  1  0.25872181  0.90334329  0.64495313  1
  O  O19  1  0.26687803  0.23901670  0.47854458  1
  O  O20  1  0.29157020  0.22852779  0.98209983  1
  O  O21  1  0.34831891  0.51496976  0.67981469  1
  O  O22  1  0.65168109  0.48503024  0.32018531  1
  O  O23  1  0.70842980  0.77147221  0.01790017  1
  O  O24  1  0.73312197  0.76098330  0.52145542  1
  O  O25  1  0.74127819  0.09665671  0.35504687  1
  O  O26  1  0.75434562  0.20524284  0.11273087  1
  O  O27  1  0.79793532  0.20826538  0.62099349  1
  O  O28  1  0.79690027  0.01432369  0.83156743  1
  O  O29  1  0.84817981  0.43465382  0.85621485  1
