# generated using pymatgen
data_Nb2OF8
_symmetry_space_group_name_H-M   'P 1'
_cell_length_a   9.39014702
_cell_length_b   5.45735130
_cell_length_c   15.69637023
_cell_angle_alpha   90.00000000
_cell_angle_beta   104.35650704
_cell_angle_gamma   90.00000000
_symmetry_Int_Tables_number   1
_chemical_formula_structural   Nb2OF8
_chemical_formula_sum   'Nb8 O4 F32'
_cell_volume   779.24668459
_cell_formula_units_Z   4
loop_
 _symmetry_equiv_pos_site_id
 _symmetry_equiv_pos_as_xyz
  1  'x, y, z'
loop_
 _atom_site_type_symbol
 _atom_site_label
 _atom_site_symmetry_multiplicity
 _atom_site_fract_x
 _atom_site_fract_y
 _atom_site_fract_z
 _atom_site_occupancy
  Nb  Nb0  1  0.09335093  0.19870869  0.87712749  1
  Nb  Nb1  1  0.09335093  0.80129131  0.37712749  1
  Nb  Nb2  1  0.46394671  0.93362891  0.84474372  1
  Nb  Nb3  1  0.53605329  0.93362891  0.65525628  1
  Nb  Nb4  1  0.46394671  0.06637109  0.34474372  1
  Nb  Nb5  1  0.53605329  0.06637109  0.15525628  1
  Nb  Nb6  1  0.90664907  0.19870869  0.62287251  1
  Nb  Nb7  1  0.90664907  0.80129131  0.12287251  1
  O  O8  1  0.29501675  0.05548836  0.86044024  1
  O  O9  1  0.29501675  0.94451164  0.36044024  1
  O  O10  1  0.70498325  0.05548836  0.63955976  1
  O  O11  1  0.70498325  0.94451164  0.13955976  1
  F  F12  1  0.00000000  0.05017317  0.75000000  1
  F  F13  1  0.06748511  0.87592055  0.91584903  1
  F  F14  1  0.19683624  0.32710394  0.98576417  1
  F  F15  1  0.13938594  0.45839479  0.80765851  1
  F  F16  1  0.09482596  0.30473940  0.61786733  1
  F  F17  1  0.00000000  0.94982683  0.25000000  1
  F  F18  1  0.06748511  0.12407945  0.41584903  1
  F  F19  1  0.19683624  0.67289606  0.48576417  1
  F  F20  1  0.13938594  0.54160521  0.30765851  1
  F  F21  1  0.09482596  0.69526060  0.11786733  1
  F  F22  1  0.36512607  0.80248501  0.72038560  1
  F  F23  1  0.47305388  0.62365179  0.89824363  1
  F  F24  1  0.39555326  0.10390851  0.56850221  1
  F  F25  1  0.50000000  0.19178774  0.75000000  1
  F  F26  1  0.36512607  0.19751499  0.22038560  1
  F  F27  1  0.60444674  0.10390851  0.93149779  1
  F  F28  1  0.47305388  0.37634821  0.39824363  1
  F  F29  1  0.52694612  0.62365179  0.60175637  1
  F  F30  1  0.39555326  0.89609149  0.06850221  1
  F  F31  1  0.63487393  0.80248501  0.77961440  1
  F  F32  1  0.50000000  0.80821226  0.25000000  1
  F  F33  1  0.60444674  0.89609149  0.43149779  1
  F  F34  1  0.52694612  0.37634821  0.10175637  1
  F  F35  1  0.63487393  0.19751499  0.27961440  1
  F  F36  1  0.90517404  0.30473940  0.88213267  1
  F  F37  1  0.86061406  0.45839479  0.69234149  1
  F  F38  1  0.80316376  0.32710394  0.51423583  1
  F  F39  1  0.93251489  0.87592055  0.58415097  1
  F  F40  1  0.90517404  0.69526060  0.38213267  1
  F  F41  1  0.86061406  0.54160521  0.19234149  1
  F  F42  1  0.80316376  0.67289606  0.01423583  1
  F  F43  1  0.93251489  0.12407945  0.08415097  1
