# generated using pymatgen
data_MgP2(H8O5)2
_symmetry_space_group_name_H-M   'P 1'
_cell_length_a   7.30348911
_cell_length_b   7.30348911
_cell_length_c   10.54835038
_cell_angle_alpha   90.00000000
_cell_angle_beta   90.00000000
_cell_angle_gamma   90.00000000
_symmetry_Int_Tables_number   1
_chemical_formula_structural   MgP2(H8O5)2
_chemical_formula_sum   'Mg2 P4 H32 O20'
_cell_volume   562.65906374
_cell_formula_units_Z   2
loop_
 _symmetry_equiv_pos_site_id
 _symmetry_equiv_pos_as_xyz
  1  'x, y, z'
loop_
 _atom_site_type_symbol
 _atom_site_label
 _atom_site_symmetry_multiplicity
 _atom_site_fract_x
 _atom_site_fract_y
 _atom_site_fract_z
 _atom_site_occupancy
  Mg  Mg0  1  0.25000000  0.75000000  0.25000000  1
  Mg  Mg1  1  0.75000000  0.25000000  0.75000000  1
  P  P2  1  0.25000000  0.25000000  0.01136224  1
  P  P3  1  0.25000000  0.25000000  0.51136224  1
  P  P4  1  0.75000000  0.75000000  0.48863776  1
  P  P5  1  0.75000000  0.75000000  0.98863776  1
  H  H6  1  0.06162167  0.04633445  0.69390956  1
  H  H7  1  0.06162167  0.45366555  0.69390956  1
  H  H8  1  0.04633445  0.06162167  0.19390956  1
  H  H9  1  0.04633445  0.43837833  0.19390956  1
  H  H10  1  0.09717734  0.25000000  0.42902939  1
  H  H11  1  0.13867147  0.75000000  -0.00008797  1
  H  H12  1  0.25000000  0.63867147  0.50008797  1
  H  H13  1  0.25000000  0.86132853  0.50008797  1
  H  H14  1  0.25000000  0.09717734  0.92902939  1
  H  H15  1  0.25000000  0.40282266  0.92902939  1
  H  H16  1  0.36132853  0.75000000  -0.00008797  1
  H  H17  1  0.40282266  0.25000000  0.42902939  1
  H  H18  1  0.45366555  0.43837833  0.19390956  1
  H  H19  1  0.45366555  0.06162167  0.19390956  1
  H  H20  1  0.43837833  0.04633445  0.69390956  1
  H  H21  1  0.43837833  0.45366555  0.69390956  1
  H  H22  1  0.56162167  0.95366555  0.30609044  1
  H  H23  1  0.56162167  0.54633445  0.30609044  1
  H  H24  1  0.54633445  0.93837833  0.80609044  1
  H  H25  1  0.54633445  0.56162167  0.80609044  1
  H  H26  1  0.59717734  0.75000000  0.57097061  1
  H  H27  1  0.63867147  0.25000000  0.00008797  1
  H  H28  1  0.75000000  0.13867147  0.49991203  1
  H  H29  1  0.75000000  0.36132853  0.49991203  1
  H  H30  1  0.75000000  0.59717734  0.07097061  1
  H  H31  1  0.75000000  0.90282266  0.07097061  1
  H  H32  1  0.86132853  0.25000000  0.00008797  1
  H  H33  1  0.90282266  0.75000000  0.57097061  1
  H  H34  1  0.95366555  0.93837833  0.80609044  1
  H  H35  1  0.95366555  0.56162167  0.80609044  1
  H  H36  1  0.93837833  0.95366555  0.30609044  1
  H  H37  1  0.93837833  0.54633445  0.30609044  1
  O  O38  1  0.04736588  0.54736588  0.25000000  1
  O  O39  1  0.04736588  0.95263412  0.25000000  1
  O  O40  1  0.07126873  0.25000000  0.08816003  1
  O  O41  1  0.25000000  0.75000000  0.05367282  1
  O  O42  1  0.25000000  0.75000000  0.44632718  1
  O  O43  1  0.25000000  0.07126873  0.58816003  1
  O  O44  1  0.25000000  0.42873127  0.58816003  1
  O  O45  1  0.42873127  0.25000000  0.08816003  1
  O  O46  1  0.45263412  0.54736588  0.25000000  1
  O  O47  1  0.45263412  0.95263412  0.25000000  1
  O  O48  1  0.54736588  0.04736588  0.75000000  1
  O  O49  1  0.54736588  0.45263412  0.75000000  1
  O  O50  1  0.57126873  0.75000000  0.91183997  1
  O  O51  1  0.75000000  0.25000000  0.55367282  1
  O  O52  1  0.75000000  0.57126873  0.41183997  1
  O  O53  1  0.75000000  0.92873127  0.41183997  1
  O  O54  1  0.75000000  0.25000000  0.94632718  1
  O  O55  1  0.92873127  0.75000000  0.91183997  1
  O  O56  1  0.95263412  0.04736588  0.75000000  1
  O  O57  1  0.95263412  0.45263412  0.75000000  1
