# generated using pymatgen
data_Li2V2(PO4)3
_symmetry_space_group_name_H-M   'P 1'
_cell_length_a   8.30297789
_cell_length_b   8.47830185
_cell_length_c   8.94587973
_cell_angle_alpha   117.99334845
_cell_angle_beta   117.26622768
_cell_angle_gamma   60.48057807
_symmetry_Int_Tables_number   1
_chemical_formula_structural   Li2V2(PO4)3
_chemical_formula_sum   'Li4 V4 P6 O24'
_cell_volume   462.31313503
_cell_formula_units_Z   2
loop_
 _symmetry_equiv_pos_site_id
 _symmetry_equiv_pos_as_xyz
  1  'x, y, z'
loop_
 _atom_site_type_symbol
 _atom_site_label
 _atom_site_symmetry_multiplicity
 _atom_site_fract_x
 _atom_site_fract_y
 _atom_site_fract_z
 _atom_site_occupancy
  Li  Li0  1  0.32623126  0.73185723  0.14313960  1
  Li  Li1  1  0.73800653  0.07462628  0.13967417  1
  Li  Li2  1  0.26199347  0.92537372  0.86032583  1
  Li  Li3  1  0.67376874  0.26814277  0.85686040  1
  V  V4  1  0.34621532  0.35309927  0.05577575  1
  V  V5  1  0.13875174  0.15287654  0.43588462  1
  V  V6  1  0.86124826  0.84712346  0.56411538  1
  V  V7  1  0.65378468  0.64690073  0.94422425  1
  P  P8  1  0.03602293  0.75264723  0.25258695  1
  P  P9  1  0.46495295  0.03429425  0.25305977  1
  P  P10  1  0.75402880  0.45908421  0.24376141  1
  P  P11  1  0.24597120  0.54091579  0.75623859  1
  P  P12  1  0.53504705  0.96570575  0.74694023  1
  P  P13  1  0.96397707  0.24735277  0.74741305  1
  O  O14  1  0.17045476  0.54538584  0.20603242  1
  O  O15  1  0.12090240  0.88900619  0.26869036  1
  O  O16  1  0.00683575  0.81026988  0.43405903  1
  O  O17  1  0.45213947  0.84777398  0.09144821  1
  O  O18  1  0.26641017  0.12379303  0.28960634  1
  O  O19  1  0.49311099  0.16690884  0.20239135  1
  O  O20  1  0.53799937  0.49342961  0.20423179  1
  O  O21  1  0.77923784  0.45698724  0.08192397  1
  O  O22  1  0.83165563  0.79458715  0.11376681  1
  O  O23  1  0.18494730  0.38790432  0.58736280  1
  O  O24  1  0.11911159  0.74295101  0.73370932  1
  O  O25  1  0.37333011  0.00909477  0.58157943  1
  O  O26  1  0.62666989  0.99090523  0.41842057  1
  O  O27  1  0.88088841  0.25704899  0.26629068  1
  O  O28  1  0.81505270  0.61209568  0.41263720  1
  O  O29  1  0.16834437  0.20541285  0.88623319  1
  O  O30  1  0.22076216  0.54301276  0.91807603  1
  O  O31  1  0.46200063  0.50657039  0.79576821  1
  O  O32  1  0.50688901  0.83309116  0.79760865  1
  O  O33  1  0.73358983  0.87620697  0.71039366  1
  O  O34  1  0.54786053  0.15222602  0.90855179  1
  O  O35  1  0.99316425  0.18973012  0.56594097  1
  O  O36  1  0.87909760  0.11099381  0.73130964  1
  O  O37  1  0.82954524  0.45461416  0.79396758  1
