# generated using pymatgen
data_K2Li2CoO4
_symmetry_space_group_name_H-M   'P 1'
_cell_length_a   5.60109019
_cell_length_b   8.99399323
_cell_length_c   10.40014592
_cell_angle_alpha   86.99007384
_cell_angle_beta   82.38619168
_cell_angle_gamma   89.60118078
_symmetry_Int_Tables_number   1
_chemical_formula_structural   K2Li2CoO4
_chemical_formula_sum   'K8 Li8 Co4 O16'
_cell_volume   518.58402660
_cell_formula_units_Z   4
loop_
 _symmetry_equiv_pos_site_id
 _symmetry_equiv_pos_as_xyz
  1  'x, y, z'
loop_
 _atom_site_type_symbol
 _atom_site_label
 _atom_site_symmetry_multiplicity
 _atom_site_fract_x
 _atom_site_fract_y
 _atom_site_fract_z
 _atom_site_occupancy
  K  K0  1  0.15192928  0.00375974  0.12793652  1
  K  K1  1  0.17757555  0.21142189  0.64213634  1
  K  K2  1  0.36018345  0.48566066  0.36959487  1
  K  K3  1  0.37881300  0.78153365  0.87506567  1
  K  K4  1  0.66704002  0.30850906  0.09407620  1
  K  K5  1  0.65925013  0.45232345  0.68722426  1
  K  K6  1  0.87123469  0.69077786  0.37840257  1
  K  K7  1  0.77762449  0.04763509  0.85377341  1
  Li  Li8  1  0.08876415  0.24739048  0.29370407  1
  Li  Li9  1  0.19286018  0.00272565  0.42577776  1
  Li  Li10  1  0.27613358  0.52043572  0.07350447  1
  Li  Li11  1  0.06244943  0.53114095  0.82693030  1
  Li  Li12  1  0.41097885  0.75316080  0.19590779  1
  Li  Li13  1  0.60955843  0.97462936  0.28923670  1
  Li  Li14  1  0.77843227  0.96775819  0.56023802  1
  Li  Li15  1  0.91081187  0.75476706  0.69794457  1
  Co  Co16  1  0.19828843  0.29651033  0.93856386  1
  Co  Co17  1  0.32560618  0.77765386  0.55815069  1
  Co  Co18  1  0.68414594  0.20140858  0.43336924  1
  Co  Co19  1  0.82252829  0.72018239  0.06162510  1
  O  O20  1  0.14894885  0.30682689  0.11597614  1
  O  O21  1  0.10655225  0.70448549  0.12913532  1
  O  O22  1  0.10688121  0.92189751  0.60838270  1
  O  O23  1  0.16280946  0.60881436  0.61336954  1
  O  O24  1  0.39969622  0.17612934  0.36467560  1
  O  O25  1  0.37693154  0.81145516  0.37898847  1
  O  O26  1  0.31433793  0.11783793  0.89734626  1
  O  O27  1  0.35485502  0.46968932  0.89287802  1
  O  O28  1  0.59969166  0.58794420  0.13811829  1
  O  O29  1  0.67177789  0.89518629  0.11270791  1
  O  O30  1  0.65615298  0.16478319  0.60355402  1
  O  O31  1  0.61159459  0.78280583  0.61959645  1
  O  O32  1  0.83326716  0.37505642  0.39344074  1
  O  O33  1  0.88308022  0.05027409  0.36618556  1
  O  O34  1  0.93405521  0.32753436  0.85839434  1
  O  O35  1  0.88640362  0.71842085  0.88543121  1
