# generated using pymatgen
data_Li3Fe2CoO6
_symmetry_space_group_name_H-M   'P 1'
_cell_length_a   2.93353483
_cell_length_b   6.61585862
_cell_length_c   5.91747922
_cell_angle_alpha   103.91426666
_cell_angle_beta   90.08242710
_cell_angle_gamma   102.74785413
_symmetry_Int_Tables_number   1
_chemical_formula_structural   Li3Fe2CoO6
_chemical_formula_sum   'Li3 Fe2 Co1 O6'
_cell_volume   108.54748332
_cell_formula_units_Z   1
loop_
 _symmetry_equiv_pos_site_id
 _symmetry_equiv_pos_as_xyz
  1  'x, y, z'
loop_
 _atom_site_type_symbol
 _atom_site_label
 _atom_site_symmetry_multiplicity
 _atom_site_fract_x
 _atom_site_fract_y
 _atom_site_fract_z
 _atom_site_occupancy
  Li  Li0  1  0.33675006  0.67882086  0.66890766  1
  Li  Li1  1  0.66954552  0.32590765  0.33588857  1
  Li  Li2  1  0.99817812  0.00160112  0.00708137  1
  Fe  Fe3  1  0.33389093  0.66874856  0.17224707  1
  Fe  Fe4  1  0.66546831  0.32945363  0.82837603  1
  Co  Co5  1  0.00275774  0.99970556  0.50199379  1
  O  O6  1  0.49888340  0.99305633  0.27864718  1
  O  O7  1  0.84468070  0.68589974  0.41336968  1
  O  O8  1  0.16955839  0.33855134  0.07320031  1
  O  O9  1  0.82844759  0.66071948  0.92863751  1
  O  O10  1  0.15873041  0.31387919  0.58812255  1
  O  O11  1  0.50700184  0.00622155  0.72574230  1
