# generated using pymatgen
data_Li2Fe2Si4O11
_symmetry_space_group_name_H-M   'P 1'
_cell_length_a   8.76793302
_cell_length_b   7.54028027
_cell_length_c   7.05239070
_cell_angle_alpha   104.71999288
_cell_angle_beta   101.17079952
_cell_angle_gamma   99.45609719
_symmetry_Int_Tables_number   1
_chemical_formula_structural   Li2Fe2Si4O11
_chemical_formula_sum   'Li4 Fe4 Si8 O22'
_cell_volume   431.05922677
_cell_formula_units_Z   2
loop_
 _symmetry_equiv_pos_site_id
 _symmetry_equiv_pos_as_xyz
  1  'x, y, z'
loop_
 _atom_site_type_symbol
 _atom_site_label
 _atom_site_symmetry_multiplicity
 _atom_site_fract_x
 _atom_site_fract_y
 _atom_site_fract_z
 _atom_site_occupancy
  Li  Li0  1  0.19849584  0.79591209  0.60974792  1
  Li  Li1  1  0.15079685  0.75435333  0.14451865  1
  Li  Li2  1  0.84920315  0.24564567  0.85548135  1
  Li  Li3  1  0.80150416  0.20408791  0.39025208  1
  Fe  Fe4  1  0.38934305  0.62105496  0.88193464  1
  Fe  Fe5  1  0.39815963  0.61754533  0.37098254  1
  Fe  Fe6  1  0.60184037  0.38245467  0.62901746  1
  Fe  Fe7  1  0.61065695  0.37894504  0.11806536  1
  Si  Si8  1  0.03282767  0.38959838  0.23994737  1
  Si  Si9  1  0.23270697  0.22349782  0.95784700  1
  Si  Si10  1  0.22494920  0.22188273  0.52103276  1
  Si  Si11  1  0.59597225  0.97467062  0.76813606  1
  Si  Si12  1  0.40402775  0.02532938  0.23186394  1
  Si  Si13  1  0.77505080  0.77811727  0.47896724  1
  Si  Si14  1  0.76729303  0.77650218  0.04215300  1
  Si  Si15  1  0.96717233  0.61040162  0.76005263  1
  O  O16  1  0.15461591  0.61788459  0.81611609  1
  O  O17  1  0.05887740  0.26022698  0.39900036  1
  O  O18  1  0.15535632  0.59519250  0.32344538  1
  O  O19  1  0.06722068  0.26111707  0.02503255  1
  O  O20  1  0.18153238  0.15139490  0.70965925  1
  O  O21  1  0.27353454  0.03843601  0.38043547  1
  O  O22  1  0.43517163  0.80846375  0.67708269  1
  O  O23  1  0.36902460  0.40822926  0.58225980  1
  O  O24  1  0.41506411  0.80646298  0.18310178  1
  O  O25  1  0.29214064  0.04685004  0.02179247  1
  O  O26  1  0.37334440  0.41348717  0.06137110  1
  O  O27  1  0.62665560  0.58651283  0.93862890  1
  O  O28  1  0.70785936  0.95314996  0.97820753  1
  O  O29  1  0.58493589  0.19353802  0.81689822  1
  O  O30  1  0.63097540  0.59177074  0.41774020  1
  O  O31  1  0.56482837  0.19153625  0.32291731  1
  O  O32  1  0.72646546  0.96156399  0.61956453  1
  O  O33  1  0.81846762  0.84860510  0.29034075  1
  O  O34  1  0.93277932  0.73888293  0.97496745  1
  O  O35  1  0.84464368  0.40480750  0.67655562  1
  O  O36  1  0.94112260  0.73977302  0.60099964  1
  O  O37  1  0.84538309  0.38211541  0.18388391  1
