# generated using pymatgen
data_Li2Co3SnO8
_symmetry_space_group_name_H-M   'P 1'
_cell_length_a   8.26028842
_cell_length_b   8.28240426
_cell_length_c   8.29330319
_cell_angle_alpha   89.98486712
_cell_angle_beta   90.01100387
_cell_angle_gamma   89.99604228
_symmetry_Int_Tables_number   1
_chemical_formula_structural   Li2Co3SnO8
_chemical_formula_sum   'Li8 Co12 Sn4 O32'
_cell_volume   567.38670425
_cell_formula_units_Z   4
loop_
 _symmetry_equiv_pos_site_id
 _symmetry_equiv_pos_as_xyz
  1  'x, y, z'
loop_
 _atom_site_type_symbol
 _atom_site_label
 _atom_site_symmetry_multiplicity
 _atom_site_fract_x
 _atom_site_fract_y
 _atom_site_fract_z
 _atom_site_occupancy
  Li  Li0  1  0.00095455  0.00019822  0.99901418  1
  Li  Li1  1  0.24877439  0.25132704  0.25000443  1
  Li  Li2  1  0.24799762  0.75004879  0.74964620  1
  Li  Li3  1  0.50221855  0.99983287  0.50027634  1
  Li  Li4  1  0.50087581  0.49985651  0.00109468  1
  Li  Li5  1  0.74878794  0.24871286  0.75004238  1
  Li  Li6  1  0.74786176  0.74993480  0.25034934  1
  Li  Li7  1  0.00229106  0.50006823  0.50000360  1
  Co  Co8  1  0.11532855  0.13592547  0.62425556  1
  Co  Co9  1  0.12483292  0.38585822  0.86426162  1
  Co  Co10  1  0.13442768  0.62595096  0.11422549  1
  Co  Co11  1  0.36317426  0.37529454  0.61293281  1
  Co  Co12  1  0.37504034  0.61501276  0.36508626  1
  Co  Co13  1  0.38692832  0.86272786  0.12525663  1
  Co  Co14  1  0.61530673  0.36391606  0.37591667  1
  Co  Co15  1  0.62476598  0.11411508  0.13582057  1
  Co  Co16  1  0.63451992  0.87416481  0.88571320  1
  Co  Co17  1  0.86321980  0.12466007  0.38701523  1
  Co  Co18  1  0.87500636  0.88500905  0.63479247  1
  Co  Co19  1  0.88695514  0.63736223  0.87458504  1
  Sn  Sn20  1  0.12553601  0.87351757  0.37678317  1
  Sn  Sn21  1  0.37489971  0.12445739  0.87450834  1
  Sn  Sn22  1  0.62529221  0.62648368  0.62332119  1
  Sn  Sn23  1  0.87472409  0.37567123  0.12541713  1
  O  O24  1  0.09628056  0.12695636  0.39008897  1
  O  O25  1  0.10924795  0.90141305  0.62597843  1
  O  O26  1  0.11247464  0.61778397  0.88462455  1
  O  O27  1  0.12365872  0.15154264  0.85761008  1
  O  O28  1  0.12599527  0.39238101  0.09831585  1
  O  O29  1  0.13741582  0.36571939  0.63309908  1
  O  O30  1  0.14089470  0.62395004  0.34846549  1
  O  O31  1  0.15402929  0.86072111  0.12366624  1
  O  O32  1  0.34969417  0.14290105  0.62194599  1
  O  O33  1  0.35952453  0.37786977  0.84661370  1
  O  O34  1  0.36757207  0.63726346  0.13470566  1
  O  O35  1  0.37180364  0.60671639  0.59962530  1
  O  O36  1  0.37875974  0.84973747  0.35715414  1
  O  O37  1  0.38270908  0.38419930  0.38721298  1
  O  O38  1  0.38979606  0.09625652  0.12748408  1
  O  O39  1  0.40043787  0.87151391  0.89253220  1
  O  O40  1  0.59615167  0.37299991  0.61009676  1
  O  O41  1  0.60927750  0.59844185  0.37420995  1
  O  O42  1  0.61245288  0.88223237  0.11525268  1
  O  O43  1  0.62347979  0.34840702  0.14257661  1
  O  O44  1  0.62616433  0.10773226  0.90171609  1
  O  O45  1  0.63736331  0.13405827  0.36706771  1
  O  O46  1  0.64082572  0.87614347  0.65148412  1
  O  O47  1  0.65403859  0.63939234  0.87635917  1
  O  O48  1  0.84969438  0.35702586  0.37803190  1
  O  O49  1  0.85944612  0.12216386  0.15348729  1
  O  O50  1  0.86761588  0.86285459  0.86517457  1
  O  O51  1  0.87202072  0.89315385  0.40025958  1
  O  O52  1  0.87855815  0.65035450  0.64272130  1
  O  O53  1  0.88269499  0.11577708  0.61265823  1
  O  O54  1  0.88987940  0.40378226  0.87234975  1
  O  O55  1  0.90032574  0.62858777  0.10725002  1
