# generated using pymatgen
data_LiFePO4
_symmetry_space_group_name_H-M   'P 1'
_cell_length_a   10.22301628
_cell_length_b   13.67166830
_cell_length_c   5.13599911
_cell_angle_alpha   90.00000000
_cell_angle_beta   90.00000000
_cell_angle_gamma   90.00000000
_symmetry_Int_Tables_number   1
_chemical_formula_structural   LiFePO4
_chemical_formula_sum   'Li8 Fe8 P8 O32'
_cell_volume   717.83644715
_cell_formula_units_Z   8
loop_
 _symmetry_equiv_pos_site_id
 _symmetry_equiv_pos_as_xyz
  1  'x, y, z'
loop_
 _atom_site_type_symbol
 _atom_site_label
 _atom_site_symmetry_multiplicity
 _atom_site_fract_x
 _atom_site_fract_y
 _atom_site_fract_z
 _atom_site_occupancy
  Li  Li0  1  0.03314148  0.75240169  0.05435194  1
  Li  Li1  1  0.21441094  0.00206508  0.55008049  1
  Li  Li2  1  0.28558906  0.50206508  0.55008049  1
  Li  Li3  1  0.46685852  0.25240169  0.05435194  1
  Li  Li4  1  0.53314148  0.75240169  0.94564806  1
  Li  Li5  1  0.71441094  0.00206508  0.44991951  1
  Li  Li6  1  0.78558906  0.50206508  0.44991951  1
  Li  Li7  1  0.96685852  0.25240169  0.94564806  1
  Fe  Fe8  1  0.03100311  0.50102662  0.93348077  1
  Fe  Fe9  1  0.21967667  0.74996213  0.54805145  1
  Fe  Fe10  1  0.28032333  0.24996213  0.54805145  1
  Fe  Fe11  1  0.46899689  0.00102662  0.93348077  1
  Fe  Fe12  1  0.53100311  0.50102662  0.06651923  1
  Fe  Fe13  1  0.71967667  0.74996213  0.45194855  1
  Fe  Fe14  1  0.78032333  0.24996213  0.45194855  1
  Fe  Fe15  1  0.96899689  0.00102662  0.06651923  1
  P  P16  1  0.03142459  0.37614332  0.44226700  1
  P  P17  1  0.21759245  0.12773819  0.05107992  1
  P  P18  1  0.28240755  0.62773819  0.05107992  1
  P  P19  1  0.46857541  0.87614332  0.44226700  1
  P  P20  1  0.53142459  0.37614332  0.55773300  1
  P  P21  1  0.71759245  0.12773819  0.94892008  1
  P  P22  1  0.78240755  0.62773819  0.94892008  1
  P  P23  1  0.96857541  0.87614332  0.55773300  1
  O  O24  1  0.99483120  0.87622347  0.85652247  1
  O  O25  1  0.96943078  0.46997768  0.55988030  1
  O  O26  1  0.03058012  0.78287867  0.43627044  1
  O  O27  1  0.06748483  0.12865553  0.00279116  1
  O  O28  1  0.18051157  0.37677700  0.50179060  1
  O  O29  1  0.22573050  0.53533900  0.91575350  1
  O  O30  1  0.28073261  0.22230799  0.93957527  1
  O  O31  1  0.24911838  0.12410363  0.34760188  1
  O  O32  1  0.25088162  0.62410363  0.34760188  1
  O  O33  1  0.21926739  0.72230799  0.93957527  1
  O  O34  1  0.27426950  0.03533900  0.91575350  1
  O  O35  1  0.31948843  0.87677700  0.50179060  1
  O  O36  1  0.43251517  0.62865553  0.00279116  1
  O  O37  1  0.46941988  0.28287867  0.43627044  1
  O  O38  1  0.53056922  0.96997768  0.55988030  1
  O  O39  1  0.50516880  0.37622347  0.85652247  1
  O  O40  1  0.49483120  0.87622347  0.14347753  1
  O  O41  1  0.46943078  0.46997768  0.44011970  1
  O  O42  1  0.53058012  0.78287867  0.56372956  1
  O  O43  1  0.56748483  0.12865553  0.99720884  1
  O  O44  1  0.68051157  0.37677700  0.49820940  1
  O  O45  1  0.72573050  0.53533900  0.08424650  1
  O  O46  1  0.78073261  0.22230799  0.06042473  1
  O  O47  1  0.74911838  0.12410363  0.65239812  1
  O  O48  1  0.75088162  0.62410363  0.65239812  1
  O  O49  1  0.71926739  0.72230799  0.06042473  1
  O  O50  1  0.77426950  0.03533900  0.08424650  1
  O  O51  1  0.81948843  0.87677700  0.49820940  1
  O  O52  1  0.93251517  0.62865553  0.99720884  1
  O  O53  1  0.96941988  0.28287867  0.56372956  1
  O  O54  1  0.03056922  0.96997768  0.44011970  1
  O  O55  1  0.00516880  0.37622347  0.14347753  1
