# generated using pymatgen
data_Li2V2Si4O11
_symmetry_space_group_name_H-M   'P 1'
_cell_length_a   8.96389796
_cell_length_b   7.47231701
_cell_length_c   7.00625673
_cell_angle_alpha   104.31663395
_cell_angle_beta   100.86464476
_cell_angle_gamma   99.96762787
_symmetry_Int_Tables_number   1
_chemical_formula_structural   Li2V2Si4O11
_chemical_formula_sum   'Li4 V4 Si8 O22'
_cell_volume   434.49660322
_cell_formula_units_Z   2
loop_
 _symmetry_equiv_pos_site_id
 _symmetry_equiv_pos_as_xyz
  1  'x, y, z'
loop_
 _atom_site_type_symbol
 _atom_site_label
 _atom_site_symmetry_multiplicity
 _atom_site_fract_x
 _atom_site_fract_y
 _atom_site_fract_z
 _atom_site_occupancy
  Li  Li0  1  0.19669527  0.79431603  0.61066078  1
  Li  Li1  1  0.15096814  0.75360948  0.13847897  1
  Li  Li2  1  0.84903186  0.24639052  0.86152103  1
  Li  Li3  1  0.80330473  0.20568397  0.38933922  1
  V  V4  1  0.39021390  0.62090707  0.88023913  1
  V  V5  1  0.39355040  0.60952622  0.37301498  1
  V  V6  1  0.60644960  0.39047378  0.62698502  1
  V  V7  1  0.60978610  0.37909293  0.11976087  1
  Si  Si8  1  0.03203022  0.38838010  0.23924215  1
  Si  Si9  1  0.23146071  0.22473514  0.95897029  1
  Si  Si10  1  0.22487259  0.22291499  0.51940482  1
  Si  Si11  1  0.59674582  0.97398526  0.76664674  1
  Si  Si12  1  0.40325418  0.02601474  0.23335326  1
  Si  Si13  1  0.77512741  0.77708501  0.48059518  1
  Si  Si14  1  0.76853929  0.77526486  0.04102971  1
  Si  Si15  1  0.96796978  0.61161990  0.76075785  1
  O  O16  1  0.15171339  0.62760669  0.81906533  1
  O  O17  1  0.06108787  0.25635241  0.39828655  1
  O  O18  1  0.14861507  0.59742656  0.32378356  1
  O  O19  1  0.06913151  0.25993683  0.02459063  1
  O  O20  1  0.18528968  0.15102895  0.71051682  1
  O  O21  1  0.27631567  0.04023857  0.38293954  1
  O  O22  1  0.43691233  0.80884696  0.67928329  1
  O  O23  1  0.36466678  0.41258723  0.57793975  1
  O  O24  1  0.41438389  0.80640907  0.18584781  1
  O  O25  1  0.29346859  0.04918750  0.02408615  1
  O  O26  1  0.36856502  0.41732412  0.06111343  1
  O  O27  1  0.63143498  0.58267588  0.93888657  1
  O  O28  1  0.70653141  0.95081250  0.97591385  1
  O  O29  1  0.58561611  0.19359093  0.81415219  1
  O  O30  1  0.63533322  0.58741277  0.42206025  1
  O  O31  1  0.56308767  0.19115304  0.32071671  1
  O  O32  1  0.72368433  0.95976143  0.61706046  1
  O  O33  1  0.81471032  0.84897105  0.28948318  1
  O  O34  1  0.93086849  0.74006317  0.97540937  1
  O  O35  1  0.85138493  0.40257344  0.67621644  1
  O  O36  1  0.93891213  0.74364759  0.60171345  1
  O  O37  1  0.84828661  0.37239331  0.18093467  1
