# generated using pymatgen
data_Na3Fe2(PO4)3
_symmetry_space_group_name_H-M   'P 1'
_cell_length_a   8.84505857
_cell_length_b   9.08728009
_cell_length_c   8.84505881
_cell_angle_alpha   119.12211077
_cell_angle_beta   59.99999711
_cell_angle_gamma   119.12211170
_symmetry_Int_Tables_number   1
_chemical_formula_structural   Na3Fe2(PO4)3
_chemical_formula_sum   'Na6 Fe4 P6 O24'
_cell_volume   509.28095835
_cell_formula_units_Z   2
loop_
 _symmetry_equiv_pos_site_id
 _symmetry_equiv_pos_as_xyz
  1  'x, y, z'
loop_
 _atom_site_type_symbol
 _atom_site_label
 _atom_site_symmetry_multiplicity
 _atom_site_fract_x
 _atom_site_fract_y
 _atom_site_fract_z
 _atom_site_occupancy
  Na  Na0  1  0.24987133  0.81843404  0.65898128  1
  Na  Na1  1  0.34101872  0.18156596  0.09041858  1
  Na  Na2  1  0.09041858  0.18156596  0.75012867  1
  Na  Na3  1  0.90958142  0.81843404  0.24987133  1
  Na  Na4  1  0.65898128  0.81843404  0.90958142  1
  Na  Na5  1  0.75012867  0.18156596  0.34101872  1
  Fe  Fe6  1  0.14853272  0.44559715  0.14853272  1
  Fe  Fe7  1  0.35033525  0.05100676  0.35033525  1
  Fe  Fe8  1  0.64966475  0.94899324  0.64966475  1
  Fe  Fe9  1  0.85146728  0.55440285  0.85146728  1
  P  P10  1  0.03692983  0.25298720  0.46493645  1
  P  P11  1  0.53506355  0.74701280  0.24887909  1
  P  P12  1  0.24887909  0.74701280  0.96307017  1
  P  P13  1  0.75112091  0.25298720  0.03692983  1
  P  P14  1  0.46493645  0.25298720  0.75112091  1
  P  P15  1  0.96307017  0.74701280  0.53506355  1
  O  O16  1  0.23899804  0.90503217  0.14970775  1
  O  O17  1  0.14970775  0.90503217  0.51632638  1
  O  O18  1  0.01230246  0.42292018  0.62788204  1
  O  O19  1  0.08605412  0.27160406  0.27869981  1
  O  O20  1  0.51632638  0.90503217  0.23899804  1
  O  O21  1  0.09314886  0.72839594  0.91394588  1
  O  O22  1  0.37211796  0.57707982  0.21726431  1
  O  O23  1  0.18704515  0.20520708  0.45741875  1
  O  O24  1  0.54258125  0.79479292  0.43925782  1
  O  O25  1  0.21726431  0.57707982  0.98769754  1
  O  O26  1  0.72130019  0.72839594  0.09314886  1
  O  O27  1  0.43925782  0.79479292  0.81295485  1
  O  O28  1  0.56074218  0.20520708  0.18704515  1
  O  O29  1  0.27869981  0.27160406  0.90685114  1
  O  O30  1  0.78273569  0.42292018  0.01230246  1
  O  O31  1  0.45741875  0.20520708  0.56074218  1
  O  O32  1  0.81295485  0.79479292  0.54258125  1
  O  O33  1  0.62788204  0.42292018  0.78273569  1
  O  O34  1  0.90685114  0.27160406  0.08605412  1
  O  O35  1  0.48367362  0.09496783  0.76100196  1
  O  O36  1  0.91394588  0.72839594  0.72130019  1
  O  O37  1  0.98769754  0.57707982  0.37211796  1
  O  O38  1  0.85029225  0.09496783  0.48367362  1
  O  O39  1  0.76100196  0.09496783  0.85029225  1
