# generated using pymatgen
data_V4O5F7
_symmetry_space_group_name_H-M   'P 1'
_cell_length_a   5.15835758
_cell_length_b   5.38469471
_cell_length_c   9.10663664
_cell_angle_alpha   72.85631160
_cell_angle_beta   90.61865674
_cell_angle_gamma   61.12653687
_symmetry_Int_Tables_number   1
_chemical_formula_structural   V4O5F7
_chemical_formula_sum   'V4 O5 F7'
_cell_volume   208.08699519
_cell_formula_units_Z   1
loop_
 _symmetry_equiv_pos_site_id
 _symmetry_equiv_pos_as_xyz
  1  'x, y, z'
loop_
 _atom_site_type_symbol
 _atom_site_label
 _atom_site_symmetry_multiplicity
 _atom_site_fract_x
 _atom_site_fract_y
 _atom_site_fract_z
 _atom_site_occupancy
  V  V0  1  0.73565929  0.47376582  0.25799906  1
  V  V1  1  0.46639702  -0.00044646  0.50940476  1
  V  V2  1  0.27899714  0.48859940  0.76279877  1
  V  V3  1  0.02687428  0.98322908  0.00491140  1
  O  O4  1  0.40045779  0.75940417  0.08102370  1
  O  O5  1  0.42236887  0.75719893  0.66120363  1
  O  O6  1  0.60013509  0.24923457  0.33798472  1
  O  O7  1  0.57511946  0.25592299  0.91149155  1
  O  O8  1  0.10677424  0.24218113  0.41443426  1
  F  F9  1  0.91959986  0.75212985  0.58277792  1
  F  F10  1  0.90490603  0.75579040  0.16855945  1
  F  F11  1  0.95899697  0.26615950  0.11689126  1
  F  F12  1  0.54174246  0.75548521  0.37641916  1
  F  F13  1  0.47177920  0.25093998  0.62192783  1
  F  F14  1  0.02040860  0.75398226  0.87185602  1
  F  F15  1  0.06978468  0.25642117  0.82031650  1
