# generated using pymatgen
data_V3OF11
_symmetry_space_group_name_H-M   'P 1'
_cell_length_a   5.42271272
_cell_length_b   5.27472278
_cell_length_c   14.93741325
_cell_angle_alpha   90.00000000
_cell_angle_beta   100.23461929
_cell_angle_gamma   90.00000000
_symmetry_Int_Tables_number   1
_chemical_formula_structural   V3OF11
_chemical_formula_sum   'V6 O2 F22'
_cell_volume   420.46103922
_cell_formula_units_Z   2
loop_
 _symmetry_equiv_pos_site_id
 _symmetry_equiv_pos_as_xyz
  1  'x, y, z'
loop_
 _atom_site_type_symbol
 _atom_site_label
 _atom_site_symmetry_multiplicity
 _atom_site_fract_x
 _atom_site_fract_y
 _atom_site_fract_z
 _atom_site_occupancy
  V  V0  1  0.02976806  0.96219333  0.00405499  1
  V  V1  1  0.16598026  0.49922812  0.33355569  1
  V  V2  1  0.33401974  0.99922812  0.66644431  1
  V  V3  1  0.47023194  0.46219333  0.99594501  1
  V  V4  1  0.66590147  0.99950917  0.33373456  1
  V  V5  1  0.83409853  0.49950917  0.66626544  1
  O  O6  1  0.21985812  0.27398680  0.98078186  1
  O  O7  1  0.28014188  0.77398680  0.01921814  1
  F  F8  1  0.01725340  0.19204194  0.64124496  1
  F  F9  1  0.15101681  0.69194710  0.69126240  1
  F  F10  1  0.03611159  0.08810942  0.11479574  1
  F  F11  1  0.20381935  0.41080246  0.44909430  1
  F  F12  1  0.36953408  0.08748406  0.78235351  1
  F  F13  1  0.13046592  0.58748406  0.21764649  1
  F  F14  1  0.29618065  0.91080246  0.55090570  1
  F  F15  1  0.46388841  0.58810942  0.88520426  1
  F  F16  1  0.34898319  0.19194710  0.30873760  1
  F  F17  1  0.51799700  0.30716870  0.64202621  1
  F  F18  1  0.70961443  0.23328200  0.97785339  1
  F  F19  1  0.48274660  0.69204194  0.35875504  1
  F  F20  1  0.65041563  0.80720455  0.69132681  1
  F  F21  1  0.56709231  0.44404838  0.11557157  1
  F  F22  1  0.70314854  0.08946154  0.44911185  1
  F  F23  1  0.87558807  0.41353243  0.78243413  1
  F  F24  1  0.62441193  0.91353243  0.21756587  1
  F  F25  1  0.79685146  0.58946154  0.55088815  1
  F  F26  1  0.93290769  0.94404838  0.88442843  1
  F  F27  1  0.84958437  0.30720455  0.30867319  1
  F  F28  1  0.79038557  0.73328200  0.02214661  1
  F  F29  1  0.98200300  0.80716870  0.35797379  1
