# generated using pymatgen
data_Li7Mn5O12
_symmetry_space_group_name_H-M   'P 1'
_cell_length_a   5.05452243
_cell_length_b   5.05452198
_cell_length_c   9.79505137
_cell_angle_alpha   93.80615723
_cell_angle_beta   93.80615733
_cell_angle_gamma   117.54094573
_symmetry_Int_Tables_number   1
_chemical_formula_structural   Li7Mn5O12
_chemical_formula_sum   'Li7 Mn5 O12'
_cell_volume   220.06200465
_cell_formula_units_Z   1
loop_
 _symmetry_equiv_pos_site_id
 _symmetry_equiv_pos_as_xyz
  1  'x, y, z'
loop_
 _atom_site_type_symbol
 _atom_site_label
 _atom_site_symmetry_multiplicity
 _atom_site_fract_x
 _atom_site_fract_y
 _atom_site_fract_z
 _atom_site_occupancy
  Li  Li0  1  0.41821708  0.07943470  0.24727283  1
  Li  Li1  1  0.92056530  0.58178292  0.75272717  1
  Li  Li2  1  0.08390516  0.41723916  0.24331313  1
  Li  Li3  1  0.58276084  0.91609484  0.75668687  1
  Li  Li4  1  0.74610170  0.75155008  0.24727283  1
  Li  Li5  1  0.24844992  0.25389830  0.75272717  1
  Li  Li6  1  0.33333300  0.66666700  0.00000000  1
  Mn  Mn7  1  0.00156543  0.99843457  1.00000000  1
  Mn  Mn8  1  0.66510157  0.33489843  0.00000000  1
  Mn  Mn9  1  0.50004681  0.49995319  0.50000000  1
  Mn  Mn10  1  0.16662019  0.83337981  0.50000000  1
  Mn  Mn11  1  0.83333300  0.16666700  0.50000000  1
  O  O12  1  0.99915770  0.68915748  0.10887869  1
  O  O13  1  0.56390390  0.23106711  0.61735827  1
  O  O14  1  0.72728434  0.06061834  0.11252483  1
  O  O15  1  0.23243660  0.56577060  0.61982924  1
  O  O16  1  0.35582448  0.33249070  0.10887869  1
  O  O17  1  0.89773411  0.89723690  0.61735827  1
  O  O18  1  0.76893289  0.43609610  0.38264173  1
  O  O19  1  0.31084252  0.00084230  0.89112131  1
  O  O20  1  0.43422940  0.76756340  0.38017076  1
  O  O21  1  0.93938166  0.27271566  0.88747517  1
  O  O22  1  0.10276310  0.10226589  0.38264173  1
  O  O23  1  0.66750930  0.64417552  0.89112131  1
