# generated using pymatgen
data_Li5Ti2V3O10
_symmetry_space_group_name_H-M   'P 1'
_cell_length_a   5.16958360
_cell_length_b   5.18358289
_cell_length_c   7.82616892
_cell_angle_alpha   71.56929879
_cell_angle_beta   108.33511612
_cell_angle_gamma   99.45908205
_symmetry_Int_Tables_number   1
_chemical_formula_structural   Li5Ti2V3O10
_chemical_formula_sum   'Li5 Ti2 V3 O10'
_cell_volume   188.36891827
_cell_formula_units_Z   1
loop_
 _symmetry_equiv_pos_site_id
 _symmetry_equiv_pos_as_xyz
  1  'x, y, z'
loop_
 _atom_site_type_symbol
 _atom_site_label
 _atom_site_symmetry_multiplicity
 _atom_site_fract_x
 _atom_site_fract_y
 _atom_site_fract_z
 _atom_site_occupancy
  Li  Li0  1  0.49419355  0.21642831  0.59021493  1
  Li  Li1  1  0.51810987  0.39794580  0.21825931  1
  Li  Li2  1  0.99587445  0.50042550  0.49649937  1
  Li  Li3  1  0.49694109  0.78076441  0.40386930  1
  Li  Li4  1  0.47459150  0.60044093  0.77647798  1
  Ti  Ti5  1  0.01431324  0.10467064  0.30268855  1
  Ti  Ti6  1  0.97754838  0.89589974  0.68819671  1
  V  V7  1  0.99122277  0.69081571  0.09505204  1
  V  V8  1  0.49659078  0.99609675  0.99746040  1
  V  V9  1  0.99932492  0.30781370  0.89774050  1
  O  O10  1  0.24336200  0.04138120  0.15075530  1
  O  O11  1  0.77763044  0.13719233  0.45517200  1
  O  O12  1  0.74706265  0.32578274  0.06257059  1
  O  O13  1  0.24291952  0.22378168  0.75657977  1
  O  O14  1  0.23399701  0.42441288  0.34085493  1
  O  O15  1  0.75933837  0.57405183  0.65386117  1
  O  O16  1  0.74944154  0.77265685  0.24089880  1
  O  O17  1  0.24368195  0.67034006  0.93011221  1
  O  O18  1  0.21472891  0.86317334  0.53851916  1
  O  O19  1  0.74839705  0.95662960  0.84325596  1
