# generated using pymatgen
data_Na14Ni2O9
_symmetry_space_group_name_H-M   'P 1'
_cell_length_a   6.60246331
_cell_length_b   6.66452979
_cell_length_c   9.31328891
_cell_angle_alpha   90.06156700
_cell_angle_beta   89.93646428
_cell_angle_gamma   119.51524450
_symmetry_Int_Tables_number   1
_chemical_formula_structural   Na14Ni2O9
_chemical_formula_sum   'Na14 Ni2 O9'
_cell_volume   356.62322138
_cell_formula_units_Z   1
loop_
 _symmetry_equiv_pos_site_id
 _symmetry_equiv_pos_as_xyz
  1  'x, y, z'
loop_
 _atom_site_type_symbol
 _atom_site_label
 _atom_site_symmetry_multiplicity
 _atom_site_fract_x
 _atom_site_fract_y
 _atom_site_fract_z
 _atom_site_occupancy
  Na  Na0  1  0.03598524  0.67614477  0.90789969  1
  Na  Na1  1  0.31236564  0.93660192  0.59341988  1
  Na  Na2  1  0.06551452  0.37733271  0.59310585  1
  Na  Na3  1  0.99949782  0.99934242  0.25062253  1
  Na  Na4  1  0.00051355  0.00065728  0.74935709  1
  Na  Na5  1  0.32597675  0.36072021  0.90742348  1
  Na  Na6  1  0.63820378  0.96362749  0.90839340  1
  Na  Na7  1  0.37832746  0.31308072  0.40585572  1
  Na  Na8  1  0.62168180  0.68685912  0.59419088  1
  Na  Na9  1  0.36177438  0.03643422  0.09155303  1
  Na  Na10  1  0.67406238  0.63929659  0.09255613  1
  Na  Na11  1  0.93439850  0.62269176  0.40697687  1
  Na  Na12  1  0.68768142  0.06343161  0.40662727  1
  Na  Na13  1  0.96395915  0.32379622  0.09205147  1
  Ni  Ni14  1  0.33326242  0.66900993  0.26250539  1
  Ni  Ni15  1  0.66653678  0.33083450  0.73752489  1
  O  O16  1  0.30938812  0.94564563  0.33450902  1
  O  O17  1  0.05619687  0.35730934  0.33638840  1
  O  O18  1  0.33226626  0.66677297  0.04497804  1
  O  O19  1  0.99999463  0.00001222  0.99997834  1
  O  O20  1  0.36446110  0.30423299  0.66334780  1
  O  O21  1  0.63543435  0.69566703  0.33664212  1
  O  O22  1  0.66774526  0.33329865  0.95500523  1
  O  O23  1  0.94397135  0.64280275  0.66363050  1
  O  O24  1  0.69060047  0.05439895  0.66545701  1
