# generated using pymatgen
data_K2Li2CoO4
_symmetry_space_group_name_H-M   'P 1'
_cell_length_a   5.50888889
_cell_length_b   9.12620108
_cell_length_c   10.45733805
_cell_angle_alpha   90.00000000
_cell_angle_beta   82.45520834
_cell_angle_gamma   90.00000000
_symmetry_Int_Tables_number   1
_chemical_formula_structural   K2Li2CoO4
_chemical_formula_sum   'K8 Li8 Co4 O16'
_cell_volume   521.19342407
_cell_formula_units_Z   4
loop_
 _symmetry_equiv_pos_site_id
 _symmetry_equiv_pos_as_xyz
  1  'x, y, z'
loop_
 _atom_site_type_symbol
 _atom_site_label
 _atom_site_symmetry_multiplicity
 _atom_site_fract_x
 _atom_site_fract_y
 _atom_site_fract_z
 _atom_site_occupancy
  K  K0  1  0.15468628  0.00150845  0.14150607  1
  K  K1  1  0.14538954  0.24606805  0.64371362  1
  K  K2  1  0.34531372  0.50150845  0.35849393  1
  K  K3  1  0.64538954  0.25393195  0.14371362  1
  K  K4  1  0.35461046  0.74606805  0.85628638  1
  K  K5  1  0.65468628  0.49849155  0.64150607  1
  K  K6  1  0.85461046  0.75393195  0.35628638  1
  K  K7  1  0.84531372  0.99849155  0.85849393  1
  Li  Li8  1  0.07993838  0.25665766  0.31368012  1
  Li  Li9  1  0.27897991  0.51737384  0.06924709  1
  Li  Li10  1  0.22102009  0.01737384  0.43075291  1
  Li  Li11  1  0.42006162  0.75665766  0.18631988  1
  Li  Li12  1  0.57993838  0.24334234  0.81368012  1
  Li  Li13  1  0.77897991  0.98262616  0.56924709  1
  Li  Li14  1  0.72102009  0.48262616  0.93075291  1
  Li  Li15  1  0.92006162  0.74334234  0.68631988  1
  Co  Co16  1  0.17604238  0.28629069  0.95291105  1
  Co  Co17  1  0.32395762  0.78629069  0.54708895  1
  Co  Co18  1  0.67604238  0.21370931  0.45291105  1
  Co  Co19  1  0.82395762  0.71370931  0.04708895  1
  O  O20  1  0.11930481  0.70790971  0.10740522  1
  O  O21  1  0.14918950  0.31197901  0.12756028  1
  O  O22  1  0.10880735  0.92655526  0.61557351  1
  O  O23  1  0.17812016  0.61481550  0.59218691  1
  O  O24  1  0.35081050  0.81197901  0.37243972  1
  O  O25  1  0.38069519  0.20790971  0.39259478  1
  O  O26  1  0.32187984  0.11481550  0.90781309  1
  O  O27  1  0.39119265  0.42655526  0.88442649  1
  O  O28  1  0.60880735  0.57344474  0.11557351  1
  O  O29  1  0.67812016  0.88518450  0.09218691  1
  O  O30  1  0.61930481  0.79209029  0.60740522  1
  O  O31  1  0.64918950  0.18802099  0.62756028  1
  O  O32  1  0.82187984  0.38518450  0.40781309  1
  O  O33  1  0.89119265  0.07344474  0.38442649  1
  O  O34  1  0.85081050  0.68802099  0.87243972  1
  O  O35  1  0.88069519  0.29209029  0.89259478  1
