# generated using pymatgen
data_Li3MnFeCo(PO4)3
_symmetry_space_group_name_H-M   'P 1'
_cell_length_a   10.44457226
_cell_length_b   6.09919908
_cell_length_c   14.30946357
_cell_angle_alpha   90.00000000
_cell_angle_beta   90.09860348
_cell_angle_gamma   90.00000000
_symmetry_Int_Tables_number   1
_chemical_formula_structural   Li3MnFeCo(PO4)3
_chemical_formula_sum   'Li12 Mn4 Fe4 Co4 P12 O48'
_cell_volume   911.56192814
_cell_formula_units_Z   4
loop_
 _symmetry_equiv_pos_site_id
 _symmetry_equiv_pos_as_xyz
  1  'x, y, z'
loop_
 _atom_site_type_symbol
 _atom_site_label
 _atom_site_symmetry_multiplicity
 _atom_site_fract_x
 _atom_site_fract_y
 _atom_site_fract_z
 _atom_site_occupancy
  Li  Li0  1  0.99659147  0.49966743  0.66752824  1
  Li  Li1  1  0.99863867  0.00145293  0.99931007  1
  Li  Li2  1  0.99863867  0.49854707  0.99931007  1
  Li  Li3  1  0.99955017  0.00033218  0.33311573  1
  Li  Li4  1  0.99955017  0.49966782  0.33311573  1
  Li  Li5  1  0.99659147  0.00033257  0.66752824  1
  Li  Li6  1  0.50162234  0.00047848  0.50057017  1
  Li  Li7  1  0.50162234  0.49952152  0.50057017  1
  Li  Li8  1  0.50096845  0.00048240  0.16679144  1
  Li  Li9  1  0.50096845  0.49951760  0.16679144  1
  Li  Li10  1  0.50309063  0.99928218  0.83304404  1
  Li  Li11  1  0.50309063  0.50071782  0.83304404  1
  Mn  Mn12  1  0.21819336  0.75000000  0.49291553  1
  Mn  Mn13  1  0.21831672  0.75000000  0.82575878  1
  Mn  Mn14  1  0.28152031  0.25000000  0.65982224  1
  Mn  Mn15  1  0.71916154  0.75000000  0.00730480  1
  Fe  Fe16  1  0.21802910  0.75000000  0.15857226  1
  Fe  Fe17  1  0.28182727  0.25000000  0.99275902  1
  Fe  Fe18  1  0.28189821  0.25000000  0.32503870  1
  Fe  Fe19  1  0.71907449  0.75000000  0.34128652  1
  Co  Co20  1  0.72351961  0.75000000  0.67089139  1
  Co  Co21  1  0.77770030  0.25000000  0.84034614  1
  Co  Co22  1  0.77826344  0.25000000  0.50468805  1
  Co  Co23  1  0.78163326  0.25000000  0.17320693  1
  P  P24  1  0.09130028  0.25000000  0.80624284  1
  P  P25  1  0.09409327  0.25000000  0.13973999  1
  P  P26  1  0.09152790  0.25000000  0.47131177  1
  P  P27  1  0.40655036  0.75000000  0.30573719  1
  P  P28  1  0.41070319  0.75000000  0.63938428  1
  P  P29  1  0.40532545  0.75000000  0.97360195  1
  P  P30  1  0.59534059  0.25000000  0.36021323  1
  P  P31  1  0.59442982  0.25000000  0.02793236  1
  P  P32  1  0.59779423  0.25000000  0.69460921  1
  P  P33  1  0.90433735  0.75000000  0.85910856  1
  P  P34  1  0.90530137  0.75000000  0.19431190  1
  P  P35  1  0.90266312  0.75000000  0.52822575  1
  O  O36  1  0.04303860  0.75000000  0.23635004  1
  O  O37  1  0.04062920  0.75000000  0.56942342  1
  O  O38  1  0.04137358  0.75000000  0.90221587  1
  O  O39  1  0.09621962  0.25000000  0.57853794  1
  O  O40  1  0.09707739  0.25000000  0.91390786  1
  O  O41  1  0.09751197  0.25000000  0.24712457  1
  O  O42  1  0.16467740  0.04751012  0.09498047  1
  O  O43  1  0.16467740  0.45248988  0.09498047  1
  O  O44  1  0.16188794  0.04877382  0.42607100  1
  O  O45  1  0.16188794  0.45122618  0.42607100  1
  O  O46  1  0.16140527  0.04863844  0.76079716  1
  O  O47  1  0.16140527  0.45136156  0.76079716  1
  O  O48  1  0.34019139  0.54867465  0.59437903  1
  O  O49  1  0.34019139  0.95132535  0.59437903  1
  O  O50  1  0.33519043  0.54725173  0.26174433  1
  O  O51  1  0.33519043  0.95274827  0.26174433  1
  O  O52  1  0.33458556  0.54712919  0.92964362  1
  O  O53  1  0.33458556  0.95287081  0.92964362  1
  O  O54  1  0.40442762  0.75000000  0.41300921  1
  O  O55  1  0.40368759  0.75000000  0.08127347  1
  O  O56  1  0.40565009  0.75000000  0.74669328  1
  O  O57  1  0.45770996  0.25000000  0.40178595  1
  O  O58  1  0.45580590  0.25000000  0.06769574  1
  O  O59  1  0.45967398  0.25000000  0.73591989  1
  O  O60  1  0.54394725  0.75000000  0.26397816  1
  O  O61  1  0.54216144  0.75000000  0.93141066  1
  O  O62  1  0.54917608  0.75000000  0.59898393  1
  O  O63  1  0.59885399  0.25000000  0.25288513  1
  O  O64  1  0.59930404  0.25000000  0.92049644  1
  O  O65  1  0.60000738  0.25000000  0.58667823  1
  O  O66  1  0.66454118  0.04976572  0.07408777  1
  O  O67  1  0.66674342  0.04828917  0.40530219  1
  O  O68  1  0.66766078  0.04738765  0.73961085  1
  O  O69  1  0.66766078  0.45261235  0.73961085  1
  O  O70  1  0.66454118  0.45023428  0.07408777  1
  O  O71  1  0.66674342  0.45171083  0.40530219  1
  O  O72  1  0.83466365  0.54589952  0.90258894  1
  O  O73  1  0.83466365  0.95410048  0.90258894  1
  O  O74  1  0.83460024  0.54605482  0.23822403  1
  O  O75  1  0.83185459  0.54707929  0.57323697  1
  O  O76  1  0.83460024  0.95394518  0.23822403  1
  O  O77  1  0.83185459  0.95292071  0.57323697  1
  O  O78  1  0.90198166  0.75000000  0.75158500  1
  O  O79  1  0.90152943  0.75000000  0.42055929  1
  O  O80  1  0.90400886  0.75000000  0.08695468  1
  O  O81  1  0.95300426  0.25000000  0.76638310  1
  O  O82  1  0.95555176  0.25000000  0.09926036  1
  O  O83  1  0.95223762  0.25000000  0.43183030  1
