# generated using pymatgen
data_Li4Fe3CoO8
_symmetry_space_group_name_H-M   'P 1'
_cell_length_a   5.09858731
_cell_length_b   5.89199907
_cell_length_c   5.94524736
_cell_angle_alpha   119.54595425
_cell_angle_beta   73.20159364
_cell_angle_gamma   90.06600852
_symmetry_Int_Tables_number   1
_chemical_formula_structural   Li4Fe3CoO8
_chemical_formula_sum   'Li4 Fe3 Co1 O8'
_cell_volume   146.58669235
_cell_formula_units_Z   1
loop_
 _symmetry_equiv_pos_site_id
 _symmetry_equiv_pos_as_xyz
  1  'x, y, z'
loop_
 _atom_site_type_symbol
 _atom_site_label
 _atom_site_symmetry_multiplicity
 _atom_site_fract_x
 _atom_site_fract_y
 _atom_site_fract_z
 _atom_site_occupancy
  Li  Li0  1  0.52575513  0.74496912  0.99230781  1
  Li  Li1  1  0.47425186  0.25503108  0.00769002  1
  Li  Li2  1  0.00000988  0.49999959  0.00000331  1
  Li  Li3  1  0.99999549  0.00000561  0.00000149  1
  Fe  Fe4  1  0.50004551  0.25355096  0.49988713  1
  Fe  Fe5  1  0.49994619  0.74644273  0.50011093  1
  Fe  Fe6  1  0.99999727  0.00000003  0.49999788  1
  Co  Co7  1  0.00000085  0.50000215  0.50000104  1
  O  O8  1  0.76293194  0.85294333  0.72469526  1
  O  O9  1  0.76257225  0.37049546  0.72534631  1
  O  O10  1  0.74172429  0.88490952  0.26849671  1
  O  O11  1  0.75481691  0.38809737  0.27503239  1
  O  O12  1  0.24518536  0.61190613  0.72497506  1
  O  O13  1  0.25826913  0.11508909  0.73150059  1
  O  O14  1  0.23742871  0.62950637  0.27465370  1
  O  O15  1  0.23706824  0.14705944  0.27530037  1
