# generated using pymatgen
data_MnCd4O5
_symmetry_space_group_name_H-M   'P 1'
_cell_length_a   3.33726666
_cell_length_b   11.11570005
_cell_length_c   7.49183420
_cell_angle_alpha   78.28130278
_cell_angle_beta   77.11882384
_cell_angle_gamma   90.01685402
_symmetry_Int_Tables_number   1
_chemical_formula_structural   MnCd4O5
_chemical_formula_sum   'Mn2 Cd8 O10'
_cell_volume   264.97406147
_cell_formula_units_Z   2
loop_
 _symmetry_equiv_pos_site_id
 _symmetry_equiv_pos_as_xyz
  1  'x, y, z'
loop_
 _atom_site_type_symbol
 _atom_site_label
 _atom_site_symmetry_multiplicity
 _atom_site_fract_x
 _atom_site_fract_y
 _atom_site_fract_z
 _atom_site_occupancy
  Mn  Mn0  1  0.20583337  0.60070265  0.59822340  1
  Mn  Mn1  1  0.99394518  0.00145021  0.00029264  1
  Cd  Cd2  1  0.60062984  0.80059068  0.79963034  1
  Cd  Cd3  1  0.29619392  0.89705726  0.40281077  1
  Cd  Cd4  1  0.10177355  0.30114152  0.79901969  1
  Cd  Cd5  1  0.69593550  0.09905204  0.60069591  1
  Cd  Cd6  1  0.90262737  0.70515231  0.19600682  1
  Cd  Cd7  1  0.80049323  0.40376728  0.39890045  1
  Cd  Cd8  1  0.50386602  0.50245759  0.99840501  1
  Cd  Cd9  1  0.39750541  0.19818160  0.19975531  1
  O  O10  1  0.05774511  0.64978539  0.89132209  1
  O  O11  1  0.14388733  0.95131516  0.70711795  1
  O  O12  1  0.75472202  0.74041758  0.50562916  1
  O  O13  1  0.54208937  0.14097776  0.90626483  1
  O  O14  1  0.65469654  0.46079207  0.69209107  1
  O  O15  1  0.24507856  0.25104585  0.50140429  1
  O  O16  1  0.35024210  0.55583793  0.30512407  1
  O  O17  1  0.44898039  0.86153829  0.09310224  1
  O  O18  1  0.84740457  0.04628802  0.29335928  1
  O  O19  1  0.95237460  0.35063881  0.09732169  1
