# generated using pymatgen
data_Mn2CrO4
_symmetry_space_group_name_H-M   'P 1'
_cell_length_a   6.05106247
_cell_length_b   10.64360150
_cell_length_c   6.07818009
_cell_angle_alpha   91.47907171
_cell_angle_beta   61.38203573
_cell_angle_gamma   107.82645480
_symmetry_Int_Tables_number   1
_chemical_formula_structural   Mn2CrO4
_chemical_formula_sum   'Mn8 Cr4 O16'
_cell_volume   323.70579315
_cell_formula_units_Z   4
loop_
 _symmetry_equiv_pos_site_id
 _symmetry_equiv_pos_as_xyz
  1  'x, y, z'
loop_
 _atom_site_type_symbol
 _atom_site_label
 _atom_site_symmetry_multiplicity
 _atom_site_fract_x
 _atom_site_fract_y
 _atom_site_fract_z
 _atom_site_occupancy
  Mn  Mn0  1  0.99853764  0.00072036  0.00048479  1
  Mn  Mn1  1  0.38662466  0.06275966  0.30095207  1
  Mn  Mn2  1  0.75694346  0.12438000  0.61847257  1
  Mn  Mn3  1  0.37500000  0.31250000  0.56250000  1
  Mn  Mn4  1  0.99305654  0.50062000  0.50652743  1
  Mn  Mn5  1  0.75146236  0.62427964  0.12451521  1
  Mn  Mn6  1  0.36337534  0.56224034  0.82404793  1
  Mn  Mn7  1  0.87500000  0.81250000  0.56250000  1
  Cr  Cr8  1  0.37500000  0.31250000  0.06250000  1
  Cr  Cr9  1  0.87500000  0.31250000  0.06250000  1
  Cr  Cr10  1  0.37500000  0.81250000  0.06250000  1
  Cr  Cr11  1  0.37500000  0.81250000  0.56250000  1
  O  O12  1  0.17523714  0.19564446  0.40925468  1
  O  O13  1  0.62840699  0.18638552  0.39593709  1
  O  O14  1  0.12941064  0.42163218  0.17514581  1
  O  O15  1  0.61289759  0.41607925  0.20471346  1
  O  O16  1  0.13710241  0.20892075  0.92028654  1
  O  O17  1  0.62058936  0.20336782  0.94985419  1
  O  O18  1  0.12159301  0.43861448  0.72906291  1
  O  O19  1  0.57476286  0.42935554  0.71574532  1
  O  O20  1  0.62435132  0.70356264  0.45835689  1
  O  O21  1  0.13695117  0.70876654  0.42071564  1
  O  O22  1  0.58346779  0.92852803  0.21794446  1
  O  O23  1  0.16653221  0.69647197  0.90705554  1
  O  O24  1  0.16022994  0.93877946  0.18954688  1
  O  O25  1  0.58977006  0.68622054  0.93545312  1
  O  O26  1  0.12564868  0.92143736  0.66664311  1
  O  O27  1  0.61304883  0.91623346  0.70428436  1
