# generated using pymatgen
data_Li8Fe3Co5O16
_symmetry_space_group_name_H-M   'P 1'
_cell_length_a   2.89597656
_cell_length_b   5.08732357
_cell_length_c   18.95017642
_cell_angle_alpha   85.38636571
_cell_angle_beta   90.00000000
_cell_angle_gamma   90.00000000
_symmetry_Int_Tables_number   1
_chemical_formula_structural   Li8Fe3Co5O16
_chemical_formula_sum   'Li8 Fe3 Co5 O16'
_cell_volume   278.28395087
_cell_formula_units_Z   1
loop_
 _symmetry_equiv_pos_site_id
 _symmetry_equiv_pos_as_xyz
  1  'x, y, z'
loop_
 _atom_site_type_symbol
 _atom_site_label
 _atom_site_symmetry_multiplicity
 _atom_site_fract_x
 _atom_site_fract_y
 _atom_site_fract_z
 _atom_site_occupancy
  Li  Li0  1  0.49999591  0.87501644  0.87779008  1
  Li  Li1  1  0.99998068  0.74999800  0.75000000  1
  Li  Li2  1  0.49999591  0.62498356  0.62220992  1
  Li  Li3  1  0.00000096  0.49930905  0.49701003  1
  Li  Li4  1  0.50002393  0.37466898  0.37212972  1
  Li  Li5  1  0.00004536  0.25000000  0.25000000  1
  Li  Li6  1  0.00000096  0.00069095  0.00298997  1
  Li  Li7  1  0.50002393  0.12533102  0.12787028  1
  Fe  Fe8  1  -0.00000231  0.37944140  0.88059825  1
  Fe  Fe9  1  -0.00000231  0.12055860  0.61940175  1
  Fe  Fe10  1  0.50000514  0.25000000  0.75000000  1
  Co  Co11  1  0.50000139  0.99591891  0.49447316  1
  Co  Co12  1  0.00000378  0.87405630  0.37220766  1
  Co  Co13  1  0.00000378  0.62594370  0.12779234  1
  Co  Co14  1  0.50000139  0.50408109  0.00552684  1
  Co  Co15  1  0.50000568  0.75000000  0.25000000  1
  O  O16  1  0.49999997  0.94983360  0.68341750  1
  O  O17  1  0.00000030  0.83064698  0.55220515  1
  O  O18  1  0.00000589  0.90661957  0.19157456  1
  O  O19  1  0.00000030  0.66935302  0.94779485  1
  O  O20  1  0.50000251  0.71913919  0.43035468  1
  O  O21  1  0.50000251  0.78086081  0.06964532  1
  O  O22  1  0.49999997  0.55016640  0.81658250  1
  O  O23  1  0.00000589  0.59338043  0.30842544  1
  O  O24  1  0.99999975  0.42264593  0.68646088  1
  O  O25  1  0.50000502  0.46931683  0.18619801  1
  O  O26  1  0.50000126  0.20998007  0.94342225  1
  O  O27  1  0.50000126  0.29001993  0.55657775  1
  O  O28  1  0.00000120  0.34780638  0.06367941  1
  O  O29  1  0.99999975  0.07735407  0.81353912  1
  O  O30  1  0.00000120  0.15219362  0.43632059  1
  O  O31  1  0.50000502  0.03068317  0.31380199  1
