# generated using pymatgen
data_VF4
_symmetry_space_group_name_H-M   'P 1'
_cell_length_a   4.80773644
_cell_length_b   5.62877679
_cell_length_c   5.26558765
_cell_angle_alpha   90.00000000
_cell_angle_beta   90.00000000
_cell_angle_gamma   90.01162544
_symmetry_Int_Tables_number   1
_chemical_formula_structural   VF4
_chemical_formula_sum   'V2 F8'
_cell_volume   142.49562036
_cell_formula_units_Z   2
loop_
 _symmetry_equiv_pos_site_id
 _symmetry_equiv_pos_as_xyz
  1  'x, y, z'
loop_
 _atom_site_type_symbol
 _atom_site_label
 _atom_site_symmetry_multiplicity
 _atom_site_fract_x
 _atom_site_fract_y
 _atom_site_fract_z
 _atom_site_occupancy
  V  V0  1  0.99494769  0.50006648  0.99952370  1
  V  V1  1  0.49494769  0.00006648  0.00047630  1
  F  F2  1  0.18726115  0.49433989  0.71334908  1
  F  F3  1  0.24413659  0.74990911  0.13097229  1
  F  F4  1  0.24522033  0.24735087  0.13103808  1
  F  F5  1  0.31115424  0.99430165  0.70980350  1
  F  F6  1  0.68726115  0.99433989  0.28665092  1
  F  F7  1  0.74413659  0.24990911  0.86902771  1
  F  F8  1  0.74522033  0.74735087  0.86896192  1
  F  F9  1  0.81115424  0.49430165  0.29019650  1
