# generated using pymatgen
data_VF5
_symmetry_space_group_name_H-M   'P 1'
_cell_length_a   6.56777259
_cell_length_b   7.49960595
_cell_length_c   14.89730130
_cell_angle_alpha   89.99842380
_cell_angle_beta   95.90072740
_cell_angle_gamma   90.00121865
_symmetry_Int_Tables_number   1
_chemical_formula_structural   VF5
_chemical_formula_sum   'V8 F40'
_cell_volume   729.88918995
_cell_formula_units_Z   8
loop_
 _symmetry_equiv_pos_site_id
 _symmetry_equiv_pos_as_xyz
  1  'x, y, z'
loop_
 _atom_site_type_symbol
 _atom_site_label
 _atom_site_symmetry_multiplicity
 _atom_site_fract_x
 _atom_site_fract_y
 _atom_site_fract_z
 _atom_site_occupancy
  V  V0  1  0.17044619  0.31266836  0.62381279  1
  V  V1  1  0.17042315  0.18728526  0.12379622  1
  V  V2  1  0.49913251  0.37337796  0.84621487  1
  V  V3  1  0.50085671  0.87335981  0.65379863  1
  V  V4  1  0.49914329  0.12664019  0.34620137  1
  V  V5  1  0.50086749  0.62662204  0.15378513  1
  V  V6  1  0.82957685  0.81271474  0.87620378  1
  V  V7  1  0.82955381  0.68733164  0.37618721  1
  F  F8  1  0.00108812  0.98989163  0.89081630  1
  F  F9  1  0.04337675  0.19402490  0.70392975  1
  F  F10  1  0.00107442  0.51012967  0.39080977  1
  F  F11  1  0.06419474  0.18556950  0.53277198  1
  F  F12  1  0.04332406  0.30597005  0.20393754  1
  F  F13  1  0.06418223  0.31441708  0.03277507  1
  F  F14  1  0.29843637  0.47441533  0.89805781  1
  F  F15  1  0.32210676  0.83421822  0.73219984  1
  F  F16  1  0.31510170  0.43046674  0.72991026  1
  F  F17  1  0.29843105  0.02559503  0.39807965  1
  F  F18  1  0.38444303  0.16357418  0.83959600  1
  F  F19  1  0.33995376  0.81938779  0.55741972  1
  F  F20  1  0.35946664  0.41006685  0.56258728  1
  F  F21  1  0.32208051  0.66573832  0.23221516  1
  F  F22  1  0.31507029  0.06954483  0.22993170  1
  F  F23  1  0.38762766  0.11776785  0.64794628  1
  F  F24  1  0.38439232  0.33645707  0.33959908  1
  F  F25  1  0.33994468  0.68057525  0.05742298  1
  F  F26  1  0.35944391  0.08994134  0.06261293  1
  F  F27  1  0.38760941  0.38221205  0.14794939  1
  F  F28  1  0.61239059  0.61778795  0.85205061  1
  F  F29  1  0.64055609  0.91005866  0.93738707  1
  F  F30  1  0.66005532  0.31942475  0.94257702  1
  F  F31  1  0.61560768  0.66354293  0.66040092  1
  F  F32  1  0.61237234  0.88223215  0.35205372  1
  F  F33  1  0.68492971  0.93045517  0.77006830  1
  F  F34  1  0.67791949  0.33426168  0.76778484  1
  F  F35  1  0.64053336  0.58993315  0.43741272  1
  F  F36  1  0.66004624  0.18061221  0.44258028  1
  F  F37  1  0.61555697  0.83642582  0.16040400  1
  F  F38  1  0.70156895  0.97440497  0.60192035  1
  F  F39  1  0.68489830  0.56953326  0.27008974  1
  F  F40  1  0.67789324  0.16578178  0.26780016  1
  F  F41  1  0.70156363  0.52558467  0.10194219  1
  F  F42  1  0.93581777  0.68558292  0.96722493  1
  F  F43  1  0.95667594  0.69402995  0.79606246  1
  F  F44  1  0.93580526  0.81443050  0.46722802  1
  F  F45  1  0.99892558  0.48987033  0.60919023  1
  F  F46  1  0.95662325  0.80597510  0.29607025  1
  F  F47  1  0.99891188  0.01010837  0.10918370  1
