# generated using pymatgen
data_La8Mn7O24
_symmetry_space_group_name_H-M   'P 1'
_cell_length_a   7.87100356
_cell_length_b   7.86582033
_cell_length_c   9.45134019
_cell_angle_alpha   66.65116081
_cell_angle_beta   66.71309628
_cell_angle_gamma   90.92617144
_symmetry_Int_Tables_number   1
_chemical_formula_structural   La8Mn7O24
_chemical_formula_sum   'La8 Mn7 O24'
_cell_volume   482.99097187
_cell_formula_units_Z   1
loop_
 _symmetry_equiv_pos_site_id
 _symmetry_equiv_pos_as_xyz
  1  'x, y, z'
loop_
 _atom_site_type_symbol
 _atom_site_label
 _atom_site_symmetry_multiplicity
 _atom_site_fract_x
 _atom_site_fract_y
 _atom_site_fract_z
 _atom_site_occupancy
  La  La0  1  0.38465271  0.86236389  0.75706795  1
  La  La1  1  0.13818478  0.62003064  0.23975199  1
  La  La2  1  0.61347894  0.61573473  0.23471988  1
  La  La3  1  0.86287201  0.85928680  0.75507143  1
  La  La4  1  0.86181522  0.37996936  0.76024801  1
  La  La5  1  0.61534729  0.13763611  0.24293205  1
  La  La6  1  0.13712799  0.14071320  0.24492857  1
  La  La7  1  0.38652106  0.38426527  0.76528012  1
  Mn  Mn8  1  0.00000000  0.50000000  0.00000000  1
  Mn  Mn9  1  0.25084783  0.75026402  0.50003150  1
  Mn  Mn10  1  0.75506572  0.75572181  0.48866627  1
  Mn  Mn11  1  0.50000000  0.00000000  0.00000000  1
  Mn  Mn12  1  0.74915217  0.24973598  0.49996850  1
  Mn  Mn13  1  0.24493428  0.24427819  0.51133373  1
  Mn  Mn14  1  0.00000000  0.00000000  0.00000000  1
  O  O15  1  0.73506646  0.94775801  0.03211075  1
  O  O16  1  0.34300388  0.90935899  0.25172043  1
  O  O17  1  0.91754790  0.84026066  0.24379876  1
  O  O18  1  0.45603331  0.75150891  0.02496801  1
  O  O19  1  0.19655605  0.97948036  0.53945768  1
  O  O20  1  0.51812929  0.80430464  0.46227018  1
  O  O21  1  0.98595765  0.70385410  0.53179075  1
  O  O22  1  0.21972862  0.45855693  0.03185751  1
  O  O23  1  0.83691922  0.40575576  0.25154573  1
  O  O24  1  0.05208251  0.76770745  0.96696517  1
  O  O25  1  0.61354843  0.66623862  0.72652882  1
  O  O26  1  0.29610837  0.51809296  0.46669408  1
  O  O27  1  0.38645157  0.33376138  0.27347118  1
  O  O28  1  0.70389163  0.48190704  0.53330592  1
  O  O29  1  0.94791749  0.23229255  0.03303483  1
  O  O30  1  0.16308078  0.59424424  0.74845427  1
  O  O31  1  0.01404235  0.29614590  0.46820925  1
  O  O32  1  0.78027138  0.54144307  0.96814249  1
  O  O33  1  0.48187071  0.19569536  0.53772982  1
  O  O34  1  0.54396669  0.24849109  0.97503199  1
  O  O35  1  0.80344395  0.02051964  0.46054232  1
  O  O36  1  0.08245210  0.15973934  0.75620124  1
  O  O37  1  0.65699612  0.09064101  0.74827957  1
  O  O38  1  0.26493354  0.05224199  0.96788925  1
