# generated using pymatgen
data_ErH3(SO4)3
_symmetry_space_group_name_H-M   'P 1'
_cell_length_a   5.25420687
_cell_length_b   13.74229196
_cell_length_c   12.49901351
_cell_angle_alpha   90.00000000
_cell_angle_beta   92.40024248
_cell_angle_gamma   90.00000000
_symmetry_Int_Tables_number   1
_chemical_formula_structural   ErH3(SO4)3
_chemical_formula_sum   'Er4 H12 S12 O48'
_cell_volume   901.69753443
_cell_formula_units_Z   4
loop_
 _symmetry_equiv_pos_site_id
 _symmetry_equiv_pos_as_xyz
  1  'x, y, z'
loop_
 _atom_site_type_symbol
 _atom_site_label
 _atom_site_symmetry_multiplicity
 _atom_site_fract_x
 _atom_site_fract_y
 _atom_site_fract_z
 _atom_site_occupancy
  Er  Er0  1  0.23160352  0.69542749  0.97829077  1
  Er  Er1  1  0.26839648  0.19542749  0.52170923  1
  Er  Er2  1  0.73160352  0.80457251  0.47829077  1
  Er  Er3  1  0.76839648  0.30457251  0.02170923  1
  H  H4  1  0.04236129  0.35857469  0.77860103  1
  H  H5  1  0.06493686  0.92280030  0.18437175  1
  H  H6  1  0.13569493  0.50880399  0.61816674  1
  H  H7  1  0.36430507  0.00880399  0.88183326  1
  H  H8  1  0.45763871  0.85857469  0.72139897  1
  H  H9  1  0.43506314  0.42280030  0.31562825  1
  H  H10  1  0.56493686  0.57719970  0.68437175  1
  H  H11  1  0.54236129  0.14142531  0.27860103  1
  H  H12  1  0.63569493  0.99119601  0.11816674  1
  H  H13  1  0.86430507  0.49119601  0.38183326  1
  H  H14  1  0.93506314  0.07719970  0.81562825  1
  H  H15  1  0.95763871  0.64142531  0.22139897  1
  S  S16  1  0.22689508  0.93967631  0.60911756  1
  S  S17  1  0.22824780  0.62327720  0.50638591  1
  S  S18  1  0.27175220  0.12327720  0.99361409  1
  S  S19  1  0.27310492  0.43967631  0.89088244  1
  S  S20  1  0.22541877  0.79928377  0.27082487  1
  S  S21  1  0.27458123  0.29928377  0.22917513  1
  S  S22  1  0.72541877  0.70071623  0.77082487  1
  S  S23  1  0.77458123  0.20071623  0.72917513  1
  S  S24  1  0.72689508  0.56032369  0.10911756  1
  S  S25  1  0.72824780  0.87672280  0.00638591  1
  S  S26  1  0.77175220  0.37672280  0.49361409  1
  S  S27  1  0.77310492  0.06032369  0.39088244  1
  O  O28  1  0.03613852  0.69306963  0.54211122  1
  O  O29  1  0.03942958  0.08858171  0.41326578  1
  O  O30  1  0.01646309  0.28834925  0.18305732  1
  O  O31  1  0.03014757  0.78947821  0.35120363  1
  O  O32  1  0.10249881  0.39235109  0.96558263  1
  O  O33  1  0.01984935  0.16771194  0.00441699  1
  O  O34  1  0.14430436  0.56509189  0.41484769  1
  O  O35  1  0.19926812  0.40034179  0.77576017  1
  O  O36  1  0.21530063  0.05253254  0.89351833  1
  O  O37  1  0.16546848  0.73202582  0.18142272  1
  O  O38  1  0.24435547  0.54475800  0.88437286  1
  O  O39  1  0.25564453  0.04475800  0.61562714  1
  O  O40  1  0.22353546  0.90627452  0.22773237  1
  O  O41  1  0.28469937  0.55253254  0.60648167  1
  O  O42  1  0.30073188  0.90034179  0.72423983  1
  O  O43  1  0.27646454  0.40627452  0.27226763  1
  O  O44  1  0.33453152  0.23202582  0.31857728  1
  O  O45  1  0.39750119  0.89235109  0.53441737  1
  O  O46  1  0.35569564  0.06509189  0.08515231  1
  O  O47  1  0.46386148  0.19306963  0.95788878  1
  O  O48  1  0.48015065  0.66771194  0.49558301  1
  O  O49  1  0.46985243  0.28947821  0.14879637  1
  O  O50  1  0.53943058  0.41141829  0.91326578  1
  O  O51  1  0.51646309  0.21165075  0.68305732  1
  O  O52  1  0.48353691  0.78834925  0.31694268  1
  O  O53  1  0.46056942  0.58858171  0.08673422  1
  O  O54  1  0.53014757  0.71052179  0.85120363  1
  O  O55  1  0.51984935  0.33228806  0.50441699  1
  O  O56  1  0.53613852  0.80693037  0.04211122  1
  O  O57  1  0.64430436  0.93490811  0.91484769  1
  O  O58  1  0.60249881  0.10764891  0.46558263  1
  O  O59  1  0.66546848  0.76797418  0.68142272  1
  O  O60  1  0.72353546  0.59372548  0.72773237  1
  O  O61  1  0.69926812  0.09965821  0.27576017  1
  O  O62  1  0.71530063  0.44746746  0.39351833  1
  O  O63  1  0.77646454  0.09372548  0.77226763  1
  O  O64  1  0.74435547  0.95524200  0.38437286  1
  O  O65  1  0.75564453  0.45524200  0.11562714  1
  O  O66  1  0.83453152  0.26797418  0.81857728  1
  O  O67  1  0.78469937  0.94746746  0.10648167  1
  O  O68  1  0.80073188  0.59965821  0.22423983  1
  O  O69  1  0.85569564  0.43490811  0.58515231  1
  O  O70  1  0.98015065  0.83228806  0.99558301  1
  O  O71  1  0.89750119  0.60764891  0.03441737  1
  O  O72  1  0.96985243  0.21052179  0.64879637  1
  O  O73  1  0.98353691  0.71165075  0.81694268  1
  O  O74  1  0.96056942  0.91141829  0.58673422  1
  O  O75  1  0.96386148  0.30693037  0.45788878  1
