# generated using pymatgen
data_Na5Ni2P2(CO7)2
_symmetry_space_group_name_H-M   'P 1'
_cell_length_a   8.95851632
_cell_length_b   8.38007748
_cell_length_c   8.39387989
_cell_angle_alpha   76.99316689
_cell_angle_beta   89.11628632
_cell_angle_gamma   91.29530637
_symmetry_Int_Tables_number   1
_chemical_formula_structural   Na5Ni2P2(CO7)2
_chemical_formula_sum   'Na10 Ni4 P4 C4 O28'
_cell_volume   613.69354613
_cell_formula_units_Z   2
loop_
 _symmetry_equiv_pos_site_id
 _symmetry_equiv_pos_as_xyz
  1  'x, y, z'
loop_
 _atom_site_type_symbol
 _atom_site_label
 _atom_site_symmetry_multiplicity
 _atom_site_fract_x
 _atom_site_fract_y
 _atom_site_fract_z
 _atom_site_occupancy
  Na  Na0  1  0.92353374  0.25696140  0.48168913  1
  Na  Na1  1  0.73501541  0.11365444  0.87620385  1
  Na  Na2  1  0.73187742  0.62569383  0.36012504  1
  Na  Na3  1  0.73093075  0.39299064  0.11966148  1
  Na  Na4  1  0.73578149  0.87204090  0.64098677  1
  Na  Na5  1  0.26277663  0.61896846  0.87604227  1
  Na  Na6  1  0.26935549  0.37793634  0.62605577  1
  Na  Na7  1  0.26930448  0.88751931  0.13747668  1
  Na  Na8  1  0.08451752  0.74972289  0.51303036  1
  Na  Na9  1  0.08403624  0.23272089  0.02721683  1
  Ni  Ni10  1  0.65003433  0.01453628  0.23789919  1
  Ni  Ni11  1  0.65581345  0.51144718  0.73451234  1
  Ni  Ni12  1  0.34505721  0.98821951  0.75893294  1
  Ni  Ni13  1  0.34516651  0.48119572  0.26477819  1
  P  P14  1  0.57727679  0.23188077  0.51514906  1
  P  P15  1  0.57654880  0.73398891  0.01742547  1
  P  P16  1  0.41864678  0.26980346  0.97958801  1
  P  P17  1  0.42269717  0.76636656  0.48372472  1
  C  C18  1  0.93650340  0.48057346  0.76826832  1
  C  C19  1  0.92845879  0.97846944  0.26730379  1
  C  C20  1  0.06857067  0.02069482  0.72941202  1
  C  C21  1  0.06733261  0.52015621  0.23477961  1
  O  O22  1  0.92623864  0.03154852  0.71898365  1
  O  O23  1  0.92496633  0.52344231  0.22727552  1
  O  O24  1  0.87835472  0.59351744  0.65472626  1
  O  O25  1  0.86467416  0.09368468  0.15909517  1
  O  O26  1  0.84369281  0.38149295  0.86739632  1
  O  O27  1  0.83937515  0.88104472  0.37224687  1
  O  O28  1  0.67338484  0.67465336  0.88840750  1
  O  O29  1  0.67889085  0.17095044  0.38944606  1
  O  O30  1  0.68325006  0.35604192  0.57564532  1
  O  O31  1  0.67448563  0.86303216  0.07801995  1
  O  O32  1  0.56579920  0.19887062  0.05455424  1
  O  O33  1  0.57048595  0.69208586  0.55424620  1
  O  O34  1  0.54071615  0.08494850  0.66408984  1
  O  O35  1  0.54166636  0.58525303  0.16491949  1
  O  O36  1  0.45613602  0.41263826  0.82779110  1
  O  O37  1  0.46022318  0.91012912  0.33507022  1
  O  O38  1  0.42874107  0.80738726  0.94604886  1
  O  O39  1  0.43387922  0.30896996  0.44254161  1
  O  O40  1  0.31824969  0.13793750  0.92449162  1
  O  O41  1  0.32440650  0.82199255  0.61484801  1
  O  O42  1  0.31740606  0.33729402  0.09934667  1
  O  O43  1  0.31906271  0.63931469  0.42585109  1
  O  O44  1  0.15849300  0.12248859  0.63205511  1
  O  O45  1  0.15844120  0.61925556  0.13607117  1
  O  O46  1  0.12961984  0.40908939  0.34755650  1
  O  O47  1  0.13195626  0.90638948  0.83647833  1
  O  O48  1  0.07874232  0.46528476  0.78007263  1
  O  O49  1  0.06975142  0.96767691  0.27035282  1
