# generated using pymatgen
data_Cu2(SO4)3
_symmetry_space_group_name_H-M   'P 1'
_cell_length_a   8.32382821
_cell_length_b   11.70584912
_cell_length_c   8.60412099
_cell_angle_alpha   90.00000000
_cell_angle_beta   90.00000000
_cell_angle_gamma   91.20681554
_symmetry_Int_Tables_number   1
_chemical_formula_structural   Cu2(SO4)3
_chemical_formula_sum   'Cu8 S12 O48'
_cell_volume   838.17788097
_cell_formula_units_Z   4
loop_
 _symmetry_equiv_pos_site_id
 _symmetry_equiv_pos_as_xyz
  1  'x, y, z'
loop_
 _atom_site_type_symbol
 _atom_site_label
 _atom_site_symmetry_multiplicity
 _atom_site_fract_x
 _atom_site_fract_y
 _atom_site_fract_z
 _atom_site_occupancy
  Cu  Cu0  1  0.25099329  0.89150123  0.03204427  1
  Cu  Cu1  1  0.24900671  0.60849877  0.53204427  1
  Cu  Cu2  1  0.25244887  0.38517019  0.96799578  1
  Cu  Cu3  1  0.24755113  0.11482981  0.46799578  1
  Cu  Cu4  1  0.75244887  0.88517019  0.53200422  1
  Cu  Cu5  1  0.74755113  0.61482981  0.03200422  1
  Cu  Cu6  1  0.75099329  0.39150123  0.46795573  1
  Cu  Cu7  1  0.74900671  0.10849877  0.96795573  1
  S  S8  1  0.04189791  0.49302071  0.24920247  1
  S  S9  1  0.11070727  0.84884136  0.37819511  1
  S  S10  1  0.11668209  0.14530448  0.11365505  1
  S  S11  1  0.38929273  0.65115864  0.87819511  1
  S  S12  1  0.38331791  0.35469552  0.61365505  1
  S  S13  1  0.45810209  0.00697929  0.74920247  1
  S  S14  1  0.54189791  0.99302071  0.25079753  1
  S  S15  1  0.61668209  0.64530448  0.38634495  1
  S  S16  1  0.61070727  0.34884136  0.12180489  1
  S  S17  1  0.88331791  0.85469552  0.88634495  1
  S  S18  1  0.88929273  0.15115864  0.62180489  1
  S  S19  1  0.95810209  0.50697929  0.75079753  1
  O  O20  1  0.04586599  0.44737169  0.87408571  1
  O  O21  1  0.04948864  0.90119242  0.88283626  1
  O  O22  1  0.05291458  0.60165632  0.67714346  1
  O  O23  1  0.05414245  0.19014577  0.57689618  1
  O  O24  1  0.09463226  0.58251274  0.36071560  1
  O  O25  1  0.12082333  0.83134348  0.20692181  1
  O  O26  1  0.12940708  0.97184534  0.41445695  1
  O  O27  1  0.12230890  0.24258445  0.00253750  1
  O  O28  1  0.16461906  0.18831715  0.26980208  1
  O  O29  1  0.18782544  0.44034089  0.18261574  1
  O  O30  1  0.23152861  0.78309601  0.46459037  1
  O  O31  1  0.26847139  0.71690399  0.96459037  1
  O  O32  1  0.23401795  0.05965042  0.05969708  1
  O  O33  1  0.26598205  0.44034958  0.55969708  1
  O  O34  1  0.31217456  0.05965911  0.68261574  1
  O  O35  1  0.33538094  0.31168285  0.76980208  1
  O  O36  1  0.37059292  0.52815466  0.91445695  1
  O  O37  1  0.37769010  0.25741555  0.50253750  1
  O  O38  1  0.37917667  0.66865652  0.70692181  1
  O  O39  1  0.40536774  0.91748726  0.86071560  1
  O  O40  1  0.44708542  0.89834368  0.17714346  1
  O  O41  1  0.45051136  0.59880758  0.38283626  1
  O  O42  1  0.44585755  0.30985423  0.07689618  1
  O  O43  1  0.45413401  0.05262831  0.37408571  1
  O  O44  1  0.54586599  0.94737169  0.62591429  1
  O  O45  1  0.55414245  0.69014577  0.92310382  1
  O  O46  1  0.54948864  0.40119242  0.61716374  1
  O  O47  1  0.55291458  0.10165632  0.82285654  1
  O  O48  1  0.59463226  0.08251274  0.13928440  1
  O  O49  1  0.62082333  0.33134348  0.29307819  1
  O  O50  1  0.62230890  0.74258445  0.49746250  1
  O  O51  1  0.62940708  0.47184534  0.08554305  1
  O  O52  1  0.66461906  0.68831715  0.23019792  1
  O  O53  1  0.68782544  0.94034089  0.31738426  1
  O  O54  1  0.73401795  0.55965042  0.44030292  1
  O  O55  1  0.76598205  0.94034958  0.94030292  1
  O  O56  1  0.73152861  0.28309601  0.03540963  1
  O  O57  1  0.76847139  0.21690399  0.53540963  1
  O  O58  1  0.81217456  0.55965911  0.81738426  1
  O  O59  1  0.83538094  0.81168285  0.73019792  1
  O  O60  1  0.87769110  0.75741555  0.99746250  1
  O  O61  1  0.87059292  0.02815466  0.58554305  1
  O  O62  1  0.87917667  0.16865652  0.79307819  1
  O  O63  1  0.90536774  0.41748726  0.63928440  1
  O  O64  1  0.94585755  0.80985423  0.42310382  1
  O  O65  1  0.94708542  0.39834368  0.32285654  1
  O  O66  1  0.95051136  0.09880758  0.11716374  1
  O  O67  1  0.95413401  0.55262831  0.12591429  1
