# generated using pymatgen
data_CsK2ScF6
_symmetry_space_group_name_H-M   'P 1'
_cell_length_a   6.80705974
_cell_length_b   6.80705990
_cell_length_c   6.80705989
_cell_angle_alpha   59.99999942
_cell_angle_beta   59.99999920
_cell_angle_gamma   59.99999922
_symmetry_Int_Tables_number   1
_chemical_formula_structural   CsK2ScF6
_chemical_formula_sum   'Cs1 K2 Sc1 F6'
_cell_volume   223.03021393
_cell_formula_units_Z   1
loop_
 _symmetry_equiv_pos_site_id
 _symmetry_equiv_pos_as_xyz
  1  'x, y, z'
loop_
 _atom_site_type_symbol
 _atom_site_label
 _atom_site_symmetry_multiplicity
 _atom_site_fract_x
 _atom_site_fract_y
 _atom_site_fract_z
 _atom_site_occupancy
  Cs  Cs0  1  0.50000000  0.50000000  0.50000000  1
  K  K1  1  0.25000000  0.25000000  0.25000000  1
  K  K2  1  0.75000000  0.75000000  0.75000000  1
  Sc  Sc3  1  0.00000000  0.00000000  0.00000000  1
  F  F4  1  0.21119036  0.78880964  0.21119036  1
  F  F5  1  0.78880964  0.78880964  0.21119036  1
  F  F6  1  0.78880964  0.21119036  0.78880964  1
  F  F7  1  0.78880964  0.21119036  0.21119036  1
  F  F8  1  0.21119036  0.78880964  0.78880964  1
  F  F9  1  0.21119036  0.21119036  0.78880964  1
