# generated using pymatgen
data_La11Mn12O36
_symmetry_space_group_name_H-M   'P 1'
_cell_length_a   9.66036470
_cell_length_b   9.66066361
_cell_length_c   9.53453505
_cell_angle_alpha   99.72347800
_cell_angle_beta   109.74289851
_cell_angle_gamma   60.00106001
_symmetry_Int_Tables_number   1
_chemical_formula_structural   La11Mn12O36
_chemical_formula_sum   'La11 Mn12 O36'
_cell_volume   725.31297329
_cell_formula_units_Z   1
loop_
 _symmetry_equiv_pos_site_id
 _symmetry_equiv_pos_as_xyz
  1  'x, y, z'
loop_
 _atom_site_type_symbol
 _atom_site_label
 _atom_site_symmetry_multiplicity
 _atom_site_fract_x
 _atom_site_fract_y
 _atom_site_fract_z
 _atom_site_occupancy
  La  La0  1  0.95622341  0.32514923  0.86545282  1
  La  La1  1  0.79548611  0.67374347  0.38382136  1
  La  La2  1  0.54155131  0.66684997  0.62500563  1
  La  La3  1  0.62933090  0.00095050  0.86788777  1
  La  La4  1  0.28065443  0.67378629  0.86600319  1
  La  La5  1  0.70864182  0.33269563  0.12502246  1
  La  La6  1  0.46852408  0.32520140  0.38440289  1
  La  La7  1  0.20843197  0.33317831  0.62505895  1
  La  La8  1  0.04106614  0.66784234  0.12498043  1
  La  La9  1  0.37507363  0.99986204  0.12501484  1
  La  La10  1  0.11966419  0.00097690  0.38194230  1
  Mn  Mn11  1  0.91758218  0.66839002  0.74969759  1
  Mn  Mn12  1  0.83427072  0.33065620  0.50018085  1
  Mn  Mn13  1  0.58503670  0.33066424  0.74978228  1
  Mn  Mn14  1  0.66619429  0.66681655  0.99924964  1
  Mn  Mn15  1  0.75126322  0.99982541  0.25334994  1
  Mn  Mn16  1  0.41699169  0.66681460  0.25072297  1
  Mn  Mn17  1  0.50231265  0.00094154  0.50066930  1
  Mn  Mn18  1  0.16400221  0.66839545  0.50026633  1
  Mn  Mn19  1  0.24678014  0.00092396  0.74932266  1
  Mn  Mn20  1  0.33391934  0.33349191  0.00160208  1
  Mn  Mn21  1  0.08256336  0.33349979  0.24837250  1
  Mn  Mn22  1  0.99893077  0.99981145  0.99667164  1
  O  O23  1  0.92471141  0.83996965  0.89044521  1
  O  O24  1  0.81174613  0.62081163  0.87293344  1
  O  O25  1  0.98537129  0.83998256  0.35953138  1
  O  O26  1  0.91232485  0.48133247  0.62527574  1
  O  O27  1  0.80346779  0.19894503  0.89030049  1
  O  O28  1  0.48284469  0.85364709  0.87327699  1
  O  O29  1  0.68690542  0.81120209  0.62531452  1
  O  O30  1  0.57802335  0.52638379  0.87236357  1
  O  O31  1  0.97774819  0.29444724  0.37344092  1
  O  O32  1  0.62810001  0.96076733  0.36014026  1
  O  O33  1  0.68660633  0.37681452  0.62500398  1
  O  O34  1  0.16112238  0.96081368  0.88987448  1
  O  O35  1  0.47767080  0.29443262  0.87644669  1
  O  O36  1  0.74794391  0.81131263  0.12293362  1
  O  O37  1  0.64556589  0.52639087  0.37757405  1
  O  O38  1  0.55774304  0.15886340  0.62504967  1
  O  O39  1  0.25187342  0.81116791  0.62475925  1
  O  O40  1  0.14645139  0.51845239  0.87561386  1
  O  O41  1  0.85273159  0.48097951  0.12386416  1
  O  O42  1  0.74754859  0.19895913  0.35974915  1
  O  O43  1  0.41347413  0.85375195  0.37662784  1
  O  O44  1  0.35625355  0.48138877  0.62473471  1
  O  O45  1  0.25294375  0.18673796  0.87618086  1
  O  O46  1  0.52084864  0.70835876  0.12500607  1
  O  O47  1  0.85574667  0.03862319  0.12506414  1
  O  O48  1  0.31748404  0.62085023  0.37712147  1
  O  O49  1  0.35670841  0.03670354  0.62504061  1
  O  O50  1  0.03339678  0.68312985  0.62495375  1
  O  O51  1  0.41628011  0.48091380  0.12618309  1
  O  O52  1  0.31030285  0.18677716  0.37381646  1
  O  O53  1  0.19075957  0.81126218  0.12706329  1
  O  O54  1  0.52128329  0.14754607  0.12414054  1
  O  O55  1  0.08506334  0.51851231  0.37424554  1
  O  O56  1  0.03344353  0.15889596  0.62492755  1
  O  O57  1  0.18840612  0.37315673  0.12496740  1
  O  O58  1  0.08123352  0.14744077  0.12598382  1
