# generated using pymatgen
data_Na2FePCO7
_symmetry_space_group_name_H-M   'P 1'
_cell_length_a   17.90402355
_cell_length_b   5.24545530
_cell_length_c   6.55081610
_cell_angle_alpha   89.83434025
_cell_angle_beta   90.71157610
_cell_angle_gamma   89.53649414
_symmetry_Int_Tables_number   1
_chemical_formula_structural   Na2FePCO7
_chemical_formula_sum   'Na8 Fe4 P4 C4 O28'
_cell_volume   615.14796220
_cell_formula_units_Z   4
loop_
 _symmetry_equiv_pos_site_id
 _symmetry_equiv_pos_as_xyz
  1  'x, y, z'
loop_
 _atom_site_type_symbol
 _atom_site_label
 _atom_site_symmetry_multiplicity
 _atom_site_fract_x
 _atom_site_fract_y
 _atom_site_fract_z
 _atom_site_occupancy
  Na  Na0  1  0.04070827  0.76222722  0.28042206  1
  Na  Na1  1  0.13178014  0.25109032  0.01113994  1
  Na  Na2  1  0.36789096  0.74863751  0.98694802  1
  Na  Na3  1  0.45908115  0.23724880  0.74226320  1
  Na  Na4  1  0.54109266  0.76372073  0.24100202  1
  Na  Na5  1  0.63184071  0.25238806  0.48711414  1
  Na  Na6  1  0.86840770  0.75049121  0.98963225  1
  Na  Na7  1  0.95993808  0.23800836  0.71944959  1
  Fe  Fe8  1  0.17281435  0.78372141  0.73678578  1
  Fe  Fe9  1  0.32719185  0.21621212  0.26147793  1
  Fe  Fe10  1  0.67265815  0.78351902  0.76307047  1
  Fe  Fe11  1  0.82724283  0.21575635  0.26676160  1
  P  P12  1  0.21230358  0.71064187  0.24510577  1
  P  P13  1  0.28763016  0.28924224  0.75296696  1
  P  P14  1  0.71228279  0.71060930  0.25340908  1
  P  P15  1  0.78781069  0.28888608  0.75553319  1
  C  C16  1  0.03249092  0.72983805  0.76270115  1
  C  C17  1  0.46745904  0.27040796  0.24746022  1
  C  C18  1  0.53233207  0.72980980  0.74500356  1
  C  C19  1  0.96758805  0.27012443  0.23681299  1
  O  O20  1  0.03759878  0.29907954  0.23036974  1
  O  O21  1  0.06379877  0.95606102  0.75570419  1
  O  O22  1  0.07942915  0.53646811  0.75408462  1
  O  O23  1  0.15964702  0.77351328  0.06070887  1
  O  O24  1  0.16473932  0.76280241  0.43649915  1
  O  O25  1  0.21590945  0.12763755  0.75765843  1
  O  O26  1  0.23532062  0.42382907  0.23420121  1
  O  O27  1  0.26462770  0.57605412  0.76492647  1
  O  O28  1  0.28398389  0.87242283  0.24051833  1
  O  O29  1  0.33545944  0.23774415  0.56211369  1
  O  O30  1  0.34010883  0.22569692  0.93773239  1
  O  O31  1  0.42046647  0.46391938  0.24244079  1
  O  O32  1  0.43612166  0.04416535  0.24222705  1
  O  O33  1  0.46257699  0.70211948  0.76602952  1
  O  O34  1  0.53752167  0.29874347  0.26061171  1
  O  O35  1  0.56366978  0.95572761  0.73561091  1
  O  O36  1  0.57899649  0.53594420  0.73619960  1
  O  O37  1  0.66097010  0.76110362  0.06456712  1
  O  O38  1  0.66325019  0.77585231  0.44052914  1
  O  O39  1  0.71611978  0.12752070  0.74242549  1
  O  O40  1  0.73506103  0.42339812  0.26446935  1
  O  O41  1  0.76487538  0.57585327  0.76504251  1
  O  O42  1  0.78408392  0.87143530  0.24351409  1
  O  O43  1  0.83846048  0.23926476  0.56861043  1
  O  O44  1  0.83729743  0.22291879  0.94474775  1
  O  O45  1  0.92054575  0.46332298  0.24395149  1
  O  O46  1  0.93634331  0.04375398  0.24406431  1
  O  O47  1  0.96247247  0.70106285  0.77045375  1
