# generated using pymatgen
data_Y2GeO5
_symmetry_space_group_name_H-M   'P 1'
_cell_length_a   9.37370326
_cell_length_b   7.03111003
_cell_length_c   6.81152219
_cell_angle_alpha   90.00000000
_cell_angle_beta   103.02877357
_cell_angle_gamma   90.00000000
_symmetry_Int_Tables_number   1
_chemical_formula_structural   Y2GeO5
_chemical_formula_sum   'Y8 Ge4 O20'
_cell_volume   437.37382997
_cell_formula_units_Z   4
loop_
 _symmetry_equiv_pos_site_id
 _symmetry_equiv_pos_as_xyz
  1  'x, y, z'
loop_
 _atom_site_type_symbol
 _atom_site_label
 _atom_site_symmetry_multiplicity
 _atom_site_fract_x
 _atom_site_fract_y
 _atom_site_fract_z
 _atom_site_occupancy
  Y  Y0  1  0.14228889  0.36104757  0.97554602  1
  Y  Y1  1  0.14228889  0.13895243  0.47554602  1
  Y  Y2  1  0.47202030  0.37563783  0.76992656  1
  Y  Y3  1  0.52797970  0.87563783  0.73007344  1
  Y  Y4  1  0.47202030  0.12436217  0.26992656  1
  Y  Y5  1  0.52797970  0.62436217  0.23007344  1
  Y  Y6  1  0.85771111  0.86104757  0.52445398  1
  Y  Y7  1  0.85771111  0.63895243  0.02445398  1
  Ge  Ge8  1  0.19914102  0.90432318  0.98505719  1
  Ge  Ge9  1  0.19914102  0.59567682  0.48505719  1
  Ge  Ge10  1  0.80085898  0.40432318  0.51494281  1
  Ge  Ge11  1  0.80085898  0.09567682  0.01494281  1
  O  O12  1  0.10395065  0.69664375  0.00745549  1
  O  O13  1  0.11916749  0.06886009  0.79644701  1
  O  O14  1  0.10395065  0.80335625  0.50745549  1
  O  O15  1  0.21856720  0.42235034  0.68692401  1
  O  O16  1  0.11916749  0.43113991  0.29644701  1
  O  O17  1  0.21856720  0.07764966  0.18692401  1
  O  O18  1  0.39192820  0.11739589  0.57447290  1
  O  O19  1  0.39105186  0.64032644  0.51160156  1
  O  O20  1  0.39192820  0.38260411  0.07447290  1
  O  O21  1  0.39105186  0.85967356  0.01160156  1
  O  O22  1  0.60894814  0.14032644  0.98839844  1
  O  O23  1  0.60807180  0.61739589  0.92552710  1
  O  O24  1  0.60894814  0.35967356  0.48839844  1
  O  O25  1  0.60807180  0.88260411  0.42552710  1
  O  O26  1  0.78143280  0.92235034  0.81307599  1
  O  O27  1  0.88083251  0.56886009  0.70355299  1
  O  O28  1  0.78143280  0.57764966  0.31307599  1
  O  O29  1  0.89604935  0.19664375  0.49254451  1
  O  O30  1  0.88083251  0.93113991  0.20355299  1
  O  O31  1  0.89604935  0.30335625  0.99254451  1
