# generated using pymatgen
data_Li2Mn2Si4O11
_symmetry_space_group_name_H-M   'P 1'
_cell_length_a   8.91924114
_cell_length_b   7.58928765
_cell_length_c   7.04708852
_cell_angle_alpha   104.56050040
_cell_angle_beta   100.97544864
_cell_angle_gamma   99.49426566
_symmetry_Int_Tables_number   1
_chemical_formula_structural   Li2Mn2Si4O11
_chemical_formula_sum   'Li4 Mn4 Si8 O22'
_cell_volume   441.74189214
_cell_formula_units_Z   2
loop_
 _symmetry_equiv_pos_site_id
 _symmetry_equiv_pos_as_xyz
  1  'x, y, z'
loop_
 _atom_site_type_symbol
 _atom_site_label
 _atom_site_symmetry_multiplicity
 _atom_site_fract_x
 _atom_site_fract_y
 _atom_site_fract_z
 _atom_site_occupancy
  Li  Li0  1  0.19679139  0.79364773  0.60965804  1
  Li  Li1  1  0.14846154  0.75226148  0.14214756  1
  Li  Li2  1  0.85153846  0.24773852  0.85785244  1
  Li  Li3  1  0.80320861  0.20635227  0.39034196  1
  Mn  Mn4  1  0.38842366  0.62432666  0.88182868  1
  Mn  Mn5  1  0.39749408  0.61817818  0.37048233  1
  Mn  Mn6  1  0.60250592  0.38182182  0.62951767  1
  Mn  Mn7  1  0.61157634  0.37567334  0.11817132  1
  Si  Si8  1  0.03326324  0.38861741  0.24003318  1
  Si  Si9  1  0.23119745  0.22380147  0.95793525  1
  Si  Si10  1  0.22368835  0.22192462  0.52032290  1
  Si  Si11  1  0.59848556  0.97326129  0.76772422  1
  Si  Si12  1  0.40151444  0.02673871  0.23227578  1
  Si  Si13  1  0.77631165  0.77807538  0.47967710  1
  Si  Si14  1  0.76880255  0.77619853  0.04206475  1
  Si  Si15  1  0.96673676  0.61138259  0.75996682  1
  O  O16  1  0.15091430  0.62158757  0.81620413  1
  O  O17  1  0.06042796  0.25869313  0.39829379  1
  O  O18  1  0.15157547  0.59371499  0.32270826  1
  O  O19  1  0.06850356  0.26040239  0.02550804  1
  O  O20  1  0.18201722  0.15158563  0.70985659  1
  O  O21  1  0.27392798  0.04044777  0.38154382  1
  O  O22  1  0.43767549  0.81203592  0.67819838  1
  O  O23  1  0.36454599  0.40702320  0.58091240  1
  O  O24  1  0.41456501  0.81064991  0.18465144  1
  O  O25  1  0.29269976  0.04963377  0.02272815  1
  O  O26  1  0.36888269  0.41239589  0.05972245  1
  O  O27  1  0.63111731  0.58760411  0.94027755  1
  O  O28  1  0.70730124  0.95036623  0.97727185  1
  O  O29  1  0.58543499  0.18935009  0.81534856  1
  O  O30  1  0.63545401  0.59297680  0.41908760  1
  O  O31  1  0.56232451  0.18796408  0.32180162  1
  O  O32  1  0.72607202  0.95955223  0.61845618  1
  O  O33  1  0.81798278  0.84841437  0.29014341  1
  O  O34  1  0.93149644  0.73959761  0.97449196  1
  O  O35  1  0.84842453  0.40628501  0.67729174  1
  O  O36  1  0.93957204  0.74130687  0.60170621  1
  O  O37  1  0.84908570  0.37841243  0.18379587  1
