# generated using pymatgen
data_Na2FePCO7
_symmetry_space_group_name_H-M   'P 1'
_cell_length_a   17.93641169
_cell_length_b   5.23497965
_cell_length_c   6.55367770
_cell_angle_alpha   90.00000000
_cell_angle_beta   90.00000000
_cell_angle_gamma   89.54164218
_symmetry_Int_Tables_number   1
_chemical_formula_structural   Na2FePCO7
_chemical_formula_sum   'Na8 Fe4 P4 C4 O28'
_cell_volume   615.34934643
_cell_formula_units_Z   4
loop_
 _symmetry_equiv_pos_site_id
 _symmetry_equiv_pos_as_xyz
  1  'x, y, z'
loop_
 _atom_site_type_symbol
 _atom_site_label
 _atom_site_symmetry_multiplicity
 _atom_site_fract_x
 _atom_site_fract_y
 _atom_site_fract_z
 _atom_site_occupancy
  Na  Na0  1  0.04013536  0.76356032  0.27990655  1
  Na  Na1  1  0.13126886  0.25096961  0.01107367  1
  Na  Na2  1  0.36873114  0.74903039  0.51107367  1
  Na  Na3  1  0.45986464  0.23643968  0.77990655  1
  Na  Na4  1  0.54013536  0.76356032  0.22009345  1
  Na  Na5  1  0.63126886  0.25096961  0.48892633  1
  Na  Na6  1  0.86873114  0.74903039  0.98892633  1
  Na  Na7  1  0.95986464  0.23643968  0.72009345  1
  Fe  Fe8  1  0.17283056  0.78427206  0.73440018  1
  Fe  Fe9  1  0.32716944  0.21572794  0.23440018  1
  Fe  Fe10  1  0.67283056  0.78427206  0.76559982  1
  Fe  Fe11  1  0.82716944  0.21572794  0.26559982  1
  P  P12  1  0.21230513  0.70972478  0.24507833  1
  P  P13  1  0.28769487  0.29027522  0.74507833  1
  P  P14  1  0.71230513  0.70972478  0.25492167  1
  P  P15  1  0.78769487  0.29027522  0.75492167  1
  C  C16  1  0.03286566  0.72990013  0.76405695  1
  C  C17  1  0.46713434  0.27009987  0.26405695  1
  C  C18  1  0.53286566  0.72990013  0.73594305  1
  C  C19  1  0.96713434  0.27009987  0.23594305  1
  O  O20  1  0.03757029  0.29833647  0.23358359  1
  O  O21  1  0.06399920  0.95647619  0.75988763  1
  O  O22  1  0.07947498  0.53595063  0.75829650  1
  O  O23  1  0.16310324  0.77448832  0.05691250  1
  O  O24  1  0.16148021  0.76023776  0.43307282  1
  O  O25  1  0.21598742  0.12898603  0.75643296  1
  O  O26  1  0.23508077  0.42205073  0.23517907  1
  O  O27  1  0.26491923  0.57794927  0.73517907  1
  O  O28  1  0.28401258  0.87101397  0.25643296  1
  O  O29  1  0.33689676  0.22551168  0.55691250  1
  O  O30  1  0.33851979  0.23976224  0.93307282  1
  O  O31  1  0.42052502  0.46404937  0.25829650  1
  O  O32  1  0.43600080  0.04352381  0.25988763  1
  O  O33  1  0.46242971  0.70166353  0.73358359  1
  O  O34  1  0.53757029  0.29833647  0.26641641  1
  O  O35  1  0.56399920  0.95647619  0.74011237  1
  O  O36  1  0.57947498  0.53595063  0.74170350  1
  O  O37  1  0.66148021  0.76023776  0.06692718  1
  O  O38  1  0.66310324  0.77448832  0.44308750  1
  O  O39  1  0.71598742  0.12898603  0.74356704  1
  O  O40  1  0.73508077  0.42205073  0.26482093  1
  O  O41  1  0.76491923  0.57794927  0.76482093  1
  O  O42  1  0.78401258  0.87101397  0.24356704  1
  O  O43  1  0.83851979  0.23976224  0.56692718  1
  O  O44  1  0.83689676  0.22551168  0.94308750  1
  O  O45  1  0.92052502  0.46404937  0.24170350  1
  O  O46  1  0.93600080  0.04352381  0.24011237  1
  O  O47  1  0.96242971  0.70166353  0.76641641  1
