# generated using pymatgen
data_LiNb(OF)2
_symmetry_space_group_name_H-M   'P 1'
_cell_length_a   7.85124202
_cell_length_b   5.11490996
_cell_length_c   7.49163557
_cell_angle_alpha   90.00000000
_cell_angle_beta   102.47384190
_cell_angle_gamma   90.00000000
_symmetry_Int_Tables_number   1
_chemical_formula_structural   LiNb(OF)2
_chemical_formula_sum   'Li4 Nb4 O8 F8'
_cell_volume   293.75037051
_cell_formula_units_Z   4
loop_
 _symmetry_equiv_pos_site_id
 _symmetry_equiv_pos_as_xyz
  1  'x, y, z'
loop_
 _atom_site_type_symbol
 _atom_site_label
 _atom_site_symmetry_multiplicity
 _atom_site_fract_x
 _atom_site_fract_y
 _atom_site_fract_z
 _atom_site_occupancy
  Li  Li0  1  0.37192942  0.73137597  0.64593411  1
  Li  Li1  1  0.37192942  0.76862403  0.14593411  1
  Li  Li2  1  0.62807058  0.23137597  0.85406589  1
  Li  Li3  1  0.62807058  0.26862403  0.35406589  1
  Nb  Nb4  1  0.16813918  0.23666600  0.82668275  1
  Nb  Nb5  1  0.16813918  0.26333400  0.32668275  1
  Nb  Nb6  1  0.83186082  0.73666600  0.67331725  1
  Nb  Nb7  1  0.83186082  0.76333400  0.17331725  1
  O  O8  1  0.04101146  0.93992447  0.69749250  1
  O  O9  1  0.04101146  0.56007553  0.19749250  1
  O  O10  1  0.20154153  0.38723880  0.56300339  1
  O  O11  1  0.20154153  0.11276120  0.06300339  1
  O  O12  1  0.79845847  0.88723880  0.93699661  1
  O  O13  1  0.79845847  0.61276120  0.43699661  1
  O  O14  1  0.95898854  0.43992447  0.80250750  1
  O  O15  1  0.95898854  0.06007553  0.30250750  1
  F  F16  1  0.31455478  0.56289336  0.90753375  1
  F  F17  1  0.40050205  0.06260494  0.79923101  1
  F  F18  1  0.31455478  0.93710664  0.40753375  1
  F  F19  1  0.40050205  0.43739506  0.29923101  1
  F  F20  1  0.59949795  0.56260494  0.70076899  1
  F  F21  1  0.68544522  0.06289336  0.59246625  1
  F  F22  1  0.59949795  0.93739506  0.20076899  1
  F  F23  1  0.68544522  0.43710664  0.09246625  1
