# generated using pymatgen
data_LiVSiO4
_symmetry_space_group_name_H-M   'P 1'
_cell_length_a   18.79596423
_cell_length_b   8.28365821
_cell_length_c   5.49890714
_cell_angle_alpha   90.00250128
_cell_angle_beta   90.00199328
_cell_angle_gamma   89.99916125
_symmetry_Int_Tables_number   1
_chemical_formula_structural   LiVSiO4
_chemical_formula_sum   'Li12 V12 Si12 O48'
_cell_volume   856.17623045
_cell_formula_units_Z   12
loop_
 _symmetry_equiv_pos_site_id
 _symmetry_equiv_pos_as_xyz
  1  'x, y, z'
loop_
 _atom_site_type_symbol
 _atom_site_label
 _atom_site_symmetry_multiplicity
 _atom_site_fract_x
 _atom_site_fract_y
 _atom_site_fract_z
 _atom_site_occupancy
  Li  Li0  1  0.08304820  0.57482572  0.03103181  1
  Li  Li1  1  0.08338755  0.07502578  0.47956191  1
  Li  Li2  1  0.24987720  0.91982866  0.00857243  1
  Li  Li3  1  0.25016410  0.41978335  0.50856592  1
  Li  Li4  1  0.41659373  0.57501179  0.97950164  1
  Li  Li5  1  0.41694216  0.07473679  0.53106426  1
  Li  Li6  1  0.58306545  0.92521601  0.03108368  1
  Li  Li7  1  0.58340486  0.42504538  0.47951433  1
  Li  Li8  1  0.74988429  0.58010082  0.00857137  1
  Li  Li9  1  0.75016616  0.08014556  0.50857046  1
  Li  Li10  1  0.91656031  0.92502475  0.97949714  1
  Li  Li11  1  0.91690781  0.42527085  0.53107945  1
  V  V12  1  0.99995070  0.24986905  0.00523691  1
  V  V13  1  0.00005704  0.75016849  0.50524662  1
  V  V14  1  0.16681955  0.74906366  0.50613177  1
  V  V15  1  0.16668675  0.24943857  0.00634233  1
  V  V16  1  0.33330381  0.74941785  0.50631944  1
  V  V17  1  0.33318099  0.24906024  0.00611119  1
  V  V18  1  0.49994739  0.25015027  0.00523533  1
  V  V19  1  0.50005192  0.74985083  0.50523674  1
  V  V20  1  0.66681636  0.75092736  0.50613624  1
  V  V21  1  0.66669018  0.25055079  0.00635477  1
  V  V22  1  0.83330741  0.75056935  0.50633153  1
  V  V23  1  0.83318654  0.25092294  0.00611424  1
  Si  Si24  1  0.08340250  0.90079818  0.00200788  1
  Si  Si25  1  0.08353536  0.40093096  0.50933795  1
  Si  Si26  1  0.24997610  0.59770812  0.00647111  1
  Si  Si27  1  0.25002312  0.09771217  0.50646935  1
  Si  Si28  1  0.41646921  0.90092421  0.00932898  1
  Si  Si29  1  0.41657805  0.40074691  0.50198799  1
  Si  Si30  1  0.58340024  0.59923680  0.00200326  1
  Si  Si31  1  0.58352964  0.09909515  0.50935229  1
  Si  Si32  1  0.74995602  0.90222942  0.00646996  1
  Si  Si33  1  0.75000749  0.40225104  0.50645944  1
  Si  Si34  1  0.91650942  0.59910272  0.00934779  1
  Si  Si35  1  0.91661230  0.09925976  0.50199332  1
  O  O36  1  0.98782044  0.98720858  0.50294637  1
  O  O37  1  0.01215105  0.01282787  0.00294127  1
  O  O38  1  0.01238070  0.51322199  0.50699219  1
  O  O39  1  0.08339205  0.27659213  0.74856234  1
  O  O40  1  0.08330174  0.27796945  0.26646302  1
  O  O41  1  0.08327213  0.77733744  0.24431362  1
  O  O42  1  0.08348975  0.77687577  0.76218714  1
  O  O43  1  0.15476754  0.01239840  0.00734468  1
  O  O44  1  0.15503930  0.51208727  0.50654706  1
  O  O45  1  0.17855154  0.48648553  0.00756155  1
  O  O46  1  0.17873123  0.98598946  0.50506694  1
  O  O47  1  0.25000094  0.22240169  0.26642677  1
  O  O48  1  0.24985420  0.22213203  0.74694526  1
  O  O49  1  0.25000542  0.72240521  0.76641829  1
  O  O50  1  0.25015770  0.72214249  0.24694161  1
  O  O51  1  0.32127323  0.48599910  0.00504989  1
  O  O52  1  0.32145525  0.98646392  0.50755440  1
  O  O53  1  0.34496187  0.01206862  0.00655301  1
  O  O54  1  0.34523171  0.51238876  0.50734411  1
  O  O55  1  0.41649671  0.27688537  0.26214759  1
  O  O56  1  0.41671347  0.27731705  0.74427974  1
  O  O57  1  0.41669458  0.77795402  0.76643554  1
  O  O58  1  0.41660340  0.77656788  0.24856487  1
  O  O59  1  0.48760203  0.01320069  0.00700491  1
  O  O60  1  0.48784546  0.51281881  0.50293628  1
  O  O61  1  0.51217485  0.48719915  0.00292513  1
  O  O62  1  0.51239796  0.98680400  0.50698456  1
  O  O63  1  0.58340173  0.22340524  0.74861731  1
  O  O64  1  0.58332217  0.22204404  0.26648816  1
  O  O65  1  0.58328102  0.72267264  0.24434562  1
  O  O66  1  0.58350241  0.72313441  0.76220118  1
  O  O67  1  0.65479161  0.48761438  0.00735903  1
  O  O68  1  0.65505230  0.98791065  0.50654893  1
  O  O69  1  0.67855842  0.01347855  0.00755973  1
  O  O70  1  0.67874348  0.51398465  0.50506396  1
  O  O71  1  0.74985086  0.27785485  0.74692507  1
  O  O72  1  0.75000896  0.27759234  0.26637923  1
  O  O73  1  0.75016215  0.77784476  0.24693037  1
  O  O74  1  0.75000882  0.77758316  0.76638735  1
  O  O75  1  0.82127910  0.01400172  0.00506824  1
  O  O76  1  0.82146251  0.51352514  0.50755582  1
  O  O77  1  0.84494116  0.48789617  0.00654212  1
  O  O78  1  0.84520869  0.98759807  0.50735570  1
  O  O79  1  0.91648940  0.22312988  0.26219815  1
  O  O80  1  0.91670702  0.22267515  0.74432537  1
  O  O81  1  0.91668503  0.72205376  0.76647506  1
  O  O82  1  0.91659851  0.72342548  0.24860894  1
  O  O83  1  0.98757850  0.48683196  0.00698569  1
