# generated using pymatgen
data_Na5LiMn2P2(CO7)2
_symmetry_space_group_name_H-M   'P 1'
_cell_length_a   8.94920336
_cell_length_b   6.83672751
_cell_length_c   5.16333568
_cell_angle_alpha   90.00000000
_cell_angle_beta   89.10277264
_cell_angle_gamma   90.00000000
_symmetry_Int_Tables_number   1
_chemical_formula_structural   Na5LiMn2P2(CO7)2
_chemical_formula_sum   'Na5 Li1 Mn2 P2 C2 O14'
_cell_volume   315.87100063
_cell_formula_units_Z   1
loop_
 _symmetry_equiv_pos_site_id
 _symmetry_equiv_pos_as_xyz
  1  'x, y, z'
loop_
 _atom_site_type_symbol
 _atom_site_label
 _atom_site_symmetry_multiplicity
 _atom_site_fract_x
 _atom_site_fract_y
 _atom_site_fract_z
 _atom_site_occupancy
  Na  Na0  1  0.25767417  0.00197256  0.24730695  1
  Na  Na1  1  0.25767417  0.49802744  0.24730695  1
  Na  Na2  1  0.74093768  0.50053169  0.75085963  1
  Na  Na3  1  0.74093768  0.99946831  0.75085963  1
  Na  Na4  1  0.91695795  0.75000000  0.24153772  1
  Li  Li5  1  0.09501119  0.25000000  0.74524495  1
  Mn  Mn6  1  0.35702742  0.75000000  0.77681305  1
  Mn  Mn7  1  0.63769010  0.25000000  0.22334117  1
  P  P8  1  0.40329836  0.25000000  0.70477090  1
  P  P9  1  0.58966665  0.75000000  0.29398865  1
  C  C10  1  0.05746749  0.75000000  0.73410268  1
  C  C11  1  0.95072359  0.25000000  0.27008817  1
  O  O12  1  0.08729844  0.25000000  0.34823169  1
  O  O13  1  0.11918975  0.75000000  0.96094776  1
  O  O14  1  0.14333757  0.75000000  0.52755573  1
  O  O15  1  0.30727578  0.06885124  0.78325999  1
  O  O16  1  0.30727578  0.43114876  0.78325999  1
  O  O17  1  0.42783496  0.25000000  0.40449328  1
  O  O18  1  0.43202266  0.75000000  0.17317053  1
  O  O19  1  0.55994551  0.25000000  0.83206342  1
  O  O20  1  0.57012468  0.75000000  0.59589739  1
  O  O21  1  0.68248413  0.56687152  0.21131388  1
  O  O22  1  0.68248413  0.93312848  0.21131388  1
  O  O23  1  0.84275153  0.25000000  0.44470251  1
  O  O24  1  0.91932920  0.25000000  0.02407952  1
  O  O25  1  0.91357946  0.75000000  0.71349100  1
