# generated using pymatgen
data_Li4Cr3NiO8
_symmetry_space_group_name_H-M   'P 1'
_cell_length_a   5.09707156
_cell_length_b   5.90023394
_cell_length_c   5.09262901
_cell_angle_alpha   90.00537687
_cell_angle_beta   70.21445116
_cell_angle_gamma   89.97927967
_symmetry_Int_Tables_number   1
_chemical_formula_structural   Li4Cr3NiO8
_chemical_formula_sum   'Li4 Cr3 Ni1 O8'
_cell_volume   144.11393420
_cell_formula_units_Z   1
loop_
 _symmetry_equiv_pos_site_id
 _symmetry_equiv_pos_as_xyz
  1  'x, y, z'
loop_
 _atom_site_type_symbol
 _atom_site_label
 _atom_site_symmetry_multiplicity
 _atom_site_fract_x
 _atom_site_fract_y
 _atom_site_fract_z
 _atom_site_occupancy
  Li  Li0  1  0.99997965  0.99912015  0.99994132  1
  Li  Li1  1  0.00000094  0.50073066  0.99998239  1
  Li  Li2  1  0.00001784  0.24266216  0.49995157  1
  Li  Li3  1  -0.00000772  0.75732657  0.49989709  1
  Cr  Cr4  1  0.49987243  0.24967808  0.00018993  1
  Cr  Cr5  1  0.50000461  0.75073151  0.00020370  1
  Cr  Cr6  1  0.49996894  0.49998872  0.49987930  1
  Ni  Ni7  1  0.50002369  0.99953026  0.50040497  1
  O  O8  1  0.26699905  0.00003632  0.23492448  1
  O  O9  1  0.27448102  0.50022205  0.24831289  1
  O  O10  1  0.72491811  0.26612986  0.25850588  1
  O  O11  1  0.27514550  0.26626932  0.74136731  1
  O  O12  1  0.72534003  0.73382302  0.25836131  1
  O  O13  1  0.73309319  0.99981312  0.76493442  1
  O  O14  1  0.27462750  0.73395082  0.74156241  1
  O  O15  1  0.72553523  0.49998738  0.75158203  1
