# generated using pymatgen
data_Li4MnCrO6
_symmetry_space_group_name_H-M   'P 1'
_cell_length_a   5.04342922
_cell_length_b   8.65993306
_cell_length_c   9.75427861
_cell_angle_alpha   98.20585256
_cell_angle_beta   95.26574887
_cell_angle_gamma   89.76047177
_symmetry_Int_Tables_number   1
_chemical_formula_structural   Li4MnCrO6
_chemical_formula_sum   'Li16 Mn4 Cr4 O24'
_cell_volume   419.86700774
_cell_formula_units_Z   4
loop_
 _symmetry_equiv_pos_site_id
 _symmetry_equiv_pos_as_xyz
  1  'x, y, z'
loop_
 _atom_site_type_symbol
 _atom_site_label
 _atom_site_symmetry_multiplicity
 _atom_site_fract_x
 _atom_site_fract_y
 _atom_site_fract_z
 _atom_site_occupancy
  Li  Li0  1  0.99654774  0.16737649  0.49874676  1
  Li  Li1  1  0.87473324  0.37621290  0.74972316  1
  Li  Li2  1  0.75013918  0.25004286  0.00062059  1
  Li  Li3  1  0.74071159  0.92047753  0.99959970  1
  Li  Li4  1  0.75512701  0.57996831  0.00019794  1
  Li  Li5  1  0.62384389  0.12268757  0.24996163  1
  Li  Li6  1  0.50267812  0.33195142  0.50056556  1
  Li  Li7  1  0.49992440  0.00036722  0.50008351  1
  Li  Li8  1  0.49207372  0.66784476  0.49937684  1
  Li  Li9  1  0.37413505  0.87525749  0.75024575  1
  Li  Li10  1  0.25373811  0.75077817  0.99919015  1
  Li  Li11  1  0.24281944  0.42067890  0.00010649  1
  Li  Li12  1  0.25814567  0.07858402  0.99986094  1
  Li  Li13  1  0.12378762  0.62286069  0.25008779  1
  Li  Li14  1  0.00594910  0.83122003  0.50094391  1
  Li  Li15  1  0.00345239  0.50136057  0.49977322  1
  Mn  Mn16  1  0.62538749  0.79185433  0.25036826  1
  Mn  Mn17  1  0.37326497  0.54272708  0.75019116  1
  Mn  Mn18  1  0.37613291  0.20768730  0.74984661  1
  Mn  Mn19  1  0.12567594  0.29138534  0.24979514  1
  Cr  Cr20  1  0.87213597  0.70492582  0.74847124  1
  Cr  Cr21  1  0.87765714  0.04509933  0.75160362  1
  Cr  Cr22  1  0.62245215  0.45527962  0.24981149  1
  Cr  Cr23  1  0.12287190  0.95512204  0.24969920  1
  O  O24  1  0.96651238  0.10705035  0.13780760  1
  O  O25  1  0.92731417  0.78709327  0.13880864  1
  O  O26  1  0.93191484  0.42701102  0.13423500  1
  O  O27  1  0.81755472  0.96443951  0.36313174  1
  O  O28  1  0.82406660  0.32512585  0.36340700  1
  O  O29  1  0.78590162  0.64387529  0.36262133  1
  O  O30  1  0.71819809  0.85644298  0.63835713  1
  O  O31  1  0.67775316  0.53532696  0.63877463  1
  O  O32  1  0.67757232  0.17557855  0.63722579  1
  O  O33  1  0.46664190  0.60679572  0.13816018  1
  O  O34  1  0.56683900  0.71264213  0.86235210  1
  O  O35  1  0.56811164  0.07416448  0.86577038  1
  O  O36  1  0.43190166  0.92683030  0.13465147  1
  O  O37  1  0.42672162  0.28711176  0.13861961  1
  O  O38  1  0.53802600  0.39284115  0.86175673  1
  O  O39  1  0.32412938  0.82497804  0.36323228  1
  O  O40  1  0.31762852  0.46428407  0.36288318  1
  O  O41  1  0.28615583  0.14405063  0.36203043  1
  O  O42  1  0.21053757  0.35646753  0.63850968  1
  O  O43  1  0.18160275  0.67659299  0.63472790  1
  O  O44  1  0.18404495  0.03657983  0.63732430  1
  O  O45  1  0.07263319  0.57459082  0.86286079  1
  O  O46  1  0.07198039  0.21413624  0.86082957  1
  O  O47  1  0.03287297  0.89424275  0.86305486  1
