# generated using pymatgen
data_Na5Ni2P2(CO7)2
_symmetry_space_group_name_H-M   'P 1'
_cell_length_a   8.88201651
_cell_length_b   5.25091671
_cell_length_c   13.22588522
_cell_angle_alpha   90.02679700
_cell_angle_beta   90.13314043
_cell_angle_gamma   88.07818472
_symmetry_Int_Tables_number   1
_chemical_formula_structural   Na5Ni2P2(CO7)2
_chemical_formula_sum   'Na10 Ni4 P4 C4 O28'
_cell_volume   616.48980473
_cell_formula_units_Z   2
loop_
 _symmetry_equiv_pos_site_id
 _symmetry_equiv_pos_as_xyz
  1  'x, y, z'
loop_
 _atom_site_type_symbol
 _atom_site_label
 _atom_site_symmetry_multiplicity
 _atom_site_fract_x
 _atom_site_fract_y
 _atom_site_fract_z
 _atom_site_occupancy
  Na  Na0  1  0.07942735  0.77207844  0.12926455  1
  Na  Na1  1  0.27433086  0.25788543  0.00478692  1
  Na  Na2  1  0.27525146  0.25696708  0.24429703  1
  Na  Na3  1  0.26593595  0.25313430  0.50683087  1
  Na  Na4  1  0.26587572  0.25381911  0.74370962  1
  Na  Na5  1  0.72805737  0.74734166  0.48750785  1
  Na  Na6  1  0.73233472  0.74553928  0.75444736  1
  Na  Na7  1  0.72897553  0.74374802  0.00032247  1
  Na  Na8  1  0.91718417  0.22392532  0.87508914  1
  Na  Na9  1  0.91056287  0.21809950  0.36757636  1
  Ni  Ni10  1  0.34412588  0.77554188  0.37487801  1
  Ni  Ni11  1  0.34512437  0.77788043  0.87527028  1
  Ni  Ni12  1  0.65766676  0.21965693  0.12946756  1
  Ni  Ni13  1  0.65553488  0.22274141  0.62431035  1
  P  P14  1  0.42129702  0.72096602  0.12597990  1
  P  P15  1  0.42226898  0.71951719  0.62458616  1
  P  P16  1  0.57791202  0.28269992  0.37513309  1
  P  P17  1  0.58187269  0.28105188  0.87521719  1
  C  C18  1  0.06731977  0.70806532  0.37755239  1
  C  C19  1  0.06291784  0.71159222  0.87475335  1
  C  C20  1  0.93114398  0.28866628  0.62473365  1
  C  C21  1  0.93967707  0.28826598  0.12244547  1
  O  O22  1  0.08355136  0.31616429  0.12454624  1
  O  O23  1  0.07165896  0.31418649  0.62504643  1
  O  O24  1  0.12674295  0.93350092  0.37394798  1
  O  O25  1  0.12058983  0.93628105  0.87599944  1
  O  O26  1  0.16326942  0.51359121  0.37477336  1
  O  O27  1  0.15686518  0.51512933  0.87418995  1
  O  O28  1  0.32416234  0.78831307  0.53064571  1
  O  O29  1  0.31675220  0.78777442  0.03329072  1
  O  O30  1  0.31875176  0.79022654  0.21874641  1
  O  O31  1  0.32564478  0.79075063  0.71804880  1
  O  O32  1  0.43030136  0.13620742  0.37572481  1
  O  O33  1  0.43189906  0.14050237  0.87427765  1
  O  O34  1  0.45630360  0.42750194  0.12532306  1
  O  O35  1  0.45968362  0.42487381  0.62526083  1
  O  O36  1  0.53480817  0.57404989  0.37907762  1
  O  O37  1  0.54656707  0.57516346  0.87502240  1
  O  O38  1  0.57247727  0.86143893  0.62351072  1
  O  O39  1  0.56606725  0.86960693  0.12392875  1
  O  O40  1  0.68202107  0.20979501  0.78197771  1
  O  O41  1  0.68159975  0.21003481  0.96851601  1
  O  O42  1  0.67705648  0.22596853  0.28189742  1
  O  O43  1  0.68070720  0.21490158  0.46743320  1
  O  O44  1  0.84566678  0.48236988  0.12131738  1
  O  O45  1  0.83313601  0.47986091  0.62453648  1
  O  O46  1  0.86988676  0.06671315  0.62481470  1
  O  O47  1  0.88299420  0.06297173  0.12296884  1
  O  O48  1  0.91931896  0.68439469  0.87598960  1
  O  O49  1  0.92639535  0.68260541  0.38110822  1
