# generated using pymatgen
data_Li4MnCrO6
_symmetry_space_group_name_H-M   'P 1'
_cell_length_a   5.00526589
_cell_length_b   5.00526545
_cell_length_c   19.45712339
_cell_angle_alpha   85.30799913
_cell_angle_beta   94.69200138
_cell_angle_gamma   60.52720606
_symmetry_Int_Tables_number   1
_chemical_formula_structural   Li4MnCrO6
_chemical_formula_sum   'Li16 Mn4 Cr4 O24'
_cell_volume   418.74453132
_cell_formula_units_Z   4
loop_
 _symmetry_equiv_pos_site_id
 _symmetry_equiv_pos_as_xyz
  1  'x, y, z'
loop_
 _atom_site_type_symbol
 _atom_site_label
 _atom_site_symmetry_multiplicity
 _atom_site_fract_x
 _atom_site_fract_y
 _atom_site_fract_z
 _atom_site_occupancy
  Li  Li0  1  0.99959014  0.50031785  0.49998506  1
  Li  Li1  1  0.25163957  0.25163957  0.87500000  1
  Li  Li2  1  0.15862531  0.66181821  0.74995624  1
  Li  Li3  1  0.00086702  0.49971194  0.99982462  1
  Li  Li4  1  0.24732756  0.24732756  0.37500000  1
  Li  Li5  1  0.49971194  0.00086702  0.75017538  1
  Li  Li6  1  0.15244168  0.66977809  0.24972621  1
  Li  Li7  1  0.50031785  0.99959014  0.25001494  1
  Li  Li8  1  0.33546111  0.84112829  0.99960480  1
  Li  Li9  1  0.66977809  0.15244168  0.50027379  1
  Li  Li10  1  0.33044526  0.84737899  0.49968927  1
  Li  Li11  1  0.66181821  0.15862531  0.00004376  1
  Li  Li12  1  0.84112829  0.33546111  0.75039520  1
  Li  Li13  1  0.75293803  0.75203148  0.62505158  1
  Li  Li14  1  0.84737899  0.33044526  0.25031073  1
  Li  Li15  1  0.75203148  0.75293803  0.12494842  1
  Mn  Mn16  1  0.08271971  0.08231027  0.62506534  1
  Mn  Mn17  1  0.08231027  0.08271971  0.12493466  1
  Mn  Mn18  1  0.58252143  0.58252143  0.87500000  1
  Mn  Mn19  1  0.91740968  0.91740968  0.37500000  1
  Cr  Cr20  1  0.42144601  0.42043268  0.62499528  1
  Cr  Cr21  1  0.42043268  0.42144601  0.12500472  1
  Cr  Cr22  1  0.57900642  0.57900642  0.37500000  1
  Cr  Cr23  1  0.92034222  0.92034222  0.87500000  1
  O  O24  1  0.14586398  0.35304492  0.68204774  1
  O  O25  1  0.35307642  0.14687905  0.56809668  1
  O  O26  1  0.14687905  0.35307642  0.18190332  1
  O  O27  1  0.29210598  0.56599035  0.93155360  1
  O  O28  1  0.06556779  0.79256712  0.56837455  1
  O  O29  1  0.35304492  0.14586398  0.06795226  1
  O  O30  1  0.21281621  0.92607092  0.81931642  1
  O  O31  1  0.28796831  0.57377703  0.43077756  1
  O  O32  1  0.06549623  0.79311958  0.06818671  1
  O  O33  1  0.56599035  0.29210598  0.81844640  1
  O  O34  1  0.42587482  0.71210078  0.68070723  1
  O  O35  1  0.20738207  0.93447172  0.31840035  1
  O  O36  1  0.79311958  0.06549623  0.68181329  1
  O  O37  1  0.57377703  0.28796831  0.31922244  1
  O  O38  1  0.42626320  0.71230516  0.18076888  1
  O  O39  1  0.92607092  0.21281621  0.93068358  1
  O  O40  1  0.71230516  0.42626320  0.56923112  1
  O  O41  1  0.79256712  0.06556779  0.18162545  1
  O  O42  1  0.64600728  0.85314629  0.93198712  1
  O  O43  1  0.93447172  0.20738207  0.43159965  1
  O  O44  1  0.71210078  0.42587482  0.06929277  1
  O  O45  1  0.85314629  0.64600728  0.81801288  1
  O  O46  1  0.64668246  0.85373439  0.43193513  1
  O  O47  1  0.85373439  0.64668246  0.31806487  1
