# generated using pymatgen
data_Li5Co2Ni3O10
_symmetry_space_group_name_H-M   'P 1'
_cell_length_a   20.58177110
_cell_length_b   2.86024591
_cell_length_c   5.77802197
_cell_angle_alpha   89.99999864
_cell_angle_beta   82.29121511
_cell_angle_gamma   90.00000034
_symmetry_Int_Tables_number   1
_chemical_formula_structural   Li5Co2Ni3O10
_chemical_formula_sum   'Li10 Co4 Ni6 O20'
_cell_volume   337.07193122
_cell_formula_units_Z   2
loop_
 _symmetry_equiv_pos_site_id
 _symmetry_equiv_pos_as_xyz
  1  'x, y, z'
loop_
 _atom_site_type_symbol
 _atom_site_label
 _atom_site_symmetry_multiplicity
 _atom_site_fract_x
 _atom_site_fract_y
 _atom_site_fract_z
 _atom_site_occupancy
  Li  Li0  1  0.90039211  0.50000000  0.29928228  1
  Li  Li1  1  0.80058861  0.00000000  0.09964061  1
  Li  Li2  1  0.69998229  0.50000000  0.90013241  1
  Li  Li3  1  0.59934484  0.00000000  0.70059138  1
  Li  Li4  1  0.49963010  0.50000000  0.50080558  1
  Li  Li5  1  0.40027806  1.00000000  0.30045726  1
  Li  Li6  1  0.19995209  1.00000000  0.89968435  1
  Li  Li7  1  0.29944364  0.50000000  0.09779289  1
  Li  Li8  1  0.10054100  0.50000000  0.70184364  1
  Li  Li9  1  0.99984160  0.00000000  0.49945471  1
  Co  Co10  1  0.69999311  0.50000000  0.39996195  1
  Co  Co11  1  0.29835465  0.50000000  0.59975837  1
  Co  Co12  1  0.20004245  0.00000000  0.40009928  1
  Co  Co13  1  0.10161193  0.50000000  0.20015674  1
  Ni  Ni14  1  0.90007817  0.50000000  0.80000587  1
  Ni  Ni15  1  0.79983562  1.00000000  0.59808373  1
  Ni  Ni16  1  0.60006584  0.00000000  0.20199202  1
  Ni  Ni17  1  0.39909216  1.00000000  0.79726913  1
  Ni  Ni18  1  0.49993004  0.50000000  0.00001143  1
  Ni  Ni19  1  0.00099455  0.00000000  0.00273487  1
  O  O20  1  0.99359581  0.50000000  0.76775834  1
  O  O21  1  0.90045591  1.00000000  0.56388662  1
  O  O22  1  0.89927038  0.00000000  0.03574088  1
  O  O23  1  0.80649351  0.50000000  0.83096708  1
  O  O24  1  0.69932627  0.00000000  0.62626298  1
  O  O25  1  0.79259138  0.50000000  0.36886640  1
  O  O26  1  0.59345236  0.50000000  0.96887233  1
  O  O27  1  0.70063718  1.00000000  0.17375775  1
  O  O28  1  0.60741067  0.50000000  0.43125247  1
  O  O29  1  0.50072029  1.00000000  0.76417366  1
  O  O30  1  0.49955170  0.00000000  0.23627191  1
  O  O31  1  0.29813835  0.00000000  0.82570489  1
  O  O32  1  0.39148935  0.50000000  0.56582445  1
  O  O33  1  0.40645170  0.50000000  0.03244118  1
  O  O34  1  0.29479562  0.00000000  0.37451480  1
  O  O35  1  0.10187400  0.00000000  0.97441313  1
  O  O36  1  0.20416624  0.50000000  0.62150555  1
  O  O37  1  0.10521263  0.00000000  0.42559679  1
  O  O38  1  0.19587670  0.50000000  0.17840620  1
  O  O39  1  0.00849711  0.50000000  0.23402411  1
