# generated using pymatgen
data_Li2VCrO4
_symmetry_space_group_name_H-M   'P 1'
_cell_length_a   5.22363297
_cell_length_b   9.90198508
_cell_length_c   2.97074974
_cell_angle_alpha   98.62932963
_cell_angle_beta   89.99509574
_cell_angle_gamma   84.44556705
_symmetry_Int_Tables_number   1
_chemical_formula_structural   Li2VCrO4
_chemical_formula_sum   'Li4 V2 Cr2 O8'
_cell_volume   151.19060303
_cell_formula_units_Z   2
loop_
 _symmetry_equiv_pos_site_id
 _symmetry_equiv_pos_as_xyz
  1  'x, y, z'
loop_
 _atom_site_type_symbol
 _atom_site_label
 _atom_site_symmetry_multiplicity
 _atom_site_fract_x
 _atom_site_fract_y
 _atom_site_fract_z
 _atom_site_occupancy
  Li  Li0  1  0.99997463  0.00000175  0.99991316  1
  Li  Li1  1  0.25358429  0.50095095  0.25050007  1
  Li  Li2  1  0.50000976  0.99999556  0.50009075  1
  Li  Li3  1  0.74641958  0.49904446  0.74949957  1
  V  V4  1  0.12495602  0.25024040  0.62510164  1
  V  V5  1  0.87501027  0.74975743  0.37489897  1
  Cr  Cr6  1  0.62504865  0.24972031  0.12484444  1
  Cr  Cr7  1  0.37497588  0.75027844  0.87513090  1
  O  O8  1  0.31268731  0.13702614  0.06864021  1
  O  O9  1  0.06342820  0.63669925  0.81832042  1
  O  O10  1  0.19318923  0.86356447  0.43182517  1
  O  O11  1  0.55618549  0.63690385  0.31845611  1
  O  O12  1  0.44379536  0.36309642  0.68159435  1
  O  O13  1  0.93655438  0.36331665  0.18149235  1
  O  O14  1  0.68735901  0.86295512  0.93154793  1
  O  O15  1  0.80682293  0.13644880  0.56814297  1
