# generated using pymatgen
data_NaMnPCO7
_symmetry_space_group_name_H-M   'P 1'
_cell_length_a   8.10642241
_cell_length_b   8.12357210
_cell_length_c   10.66213770
_cell_angle_alpha   70.59909530
_cell_angle_beta   109.27883001
_cell_angle_gamma   79.52813535
_symmetry_Int_Tables_number   1
_chemical_formula_structural   NaMnPCO7
_chemical_formula_sum   'Na4 Mn4 P4 C4 O28'
_cell_volume   590.69074896
_cell_formula_units_Z   4
loop_
 _symmetry_equiv_pos_site_id
 _symmetry_equiv_pos_as_xyz
  1  'x, y, z'
loop_
 _atom_site_type_symbol
 _atom_site_label
 _atom_site_symmetry_multiplicity
 _atom_site_fract_x
 _atom_site_fract_y
 _atom_site_fract_z
 _atom_site_occupancy
  Na  Na0  1  0.02166280  0.01938228  0.75438927  1
  Na  Na1  1  0.73039946  0.73014622  0.75497422  1
  Na  Na2  1  0.26960054  0.26985378  0.24502578  1
  Na  Na3  1  0.97833720  0.98061772  0.24561073  1
  Mn  Mn4  1  0.58746514  0.16313009  0.65645055  1
  Mn  Mn5  1  0.10428896  0.64539143  0.66067110  1
  Mn  Mn6  1  0.89571104  0.35460857  0.33932890  1
  Mn  Mn7  1  0.41253486  0.83686991  0.34354945  1
  P  P8  1  0.77064037  0.48180862  0.56994552  1
  P  P9  1  0.26366767  0.98435474  0.56699063  1
  P  P10  1  0.73633233  0.01564526  0.43300937  1
  P  P11  1  0.22935963  0.51819138  0.43005448  1
  C  C12  1  0.69706929  0.04634148  0.92240023  1
  C  C13  1  0.20519825  0.55072251  0.92440035  1
  C  C14  1  0.79480175  0.44927749  0.07559965  1
  C  C15  1  0.30293071  0.95365852  0.07759977  1
  O  O16  1  0.24907559  0.01057469  0.94354710  1
  O  O17  1  0.74566550  0.49578741  0.94346761  1
  O  O18  1  0.28520481  0.46879189  0.86288499  1
  O  O19  1  0.77690548  0.96965198  0.85572705  1
  O  O20  1  0.55313612  0.19184488  0.82518930  1
  O  O21  1  0.05737112  0.69622242  0.82136420  1
  O  O22  1  0.94591279  0.49790052  0.67452980  1
  O  O23  1  0.75909848  0.29805745  0.66883401  1
  O  O24  1  0.44994861  0.99354775  0.66405353  1
  O  O25  1  0.25157109  0.80509751  0.66964586  1
  O  O26  1  0.73473666  0.01929848  0.57653305  1
  O  O27  1  0.09687269  0.15092261  0.52722322  1
  O  O28  1  0.60253193  0.64824018  0.53083552  1
  O  O29  1  0.22356365  0.52001316  0.57125929  1
  O  O30  1  0.77643635  0.47998684  0.42874071  1
  O  O31  1  0.90312731  0.84907739  0.47277678  1
  O  O32  1  0.39746807  0.35175982  0.46916448  1
  O  O33  1  0.26526334  0.98070152  0.42346695  1
  O  O34  1  0.55005139  0.00645225  0.33594647  1
  O  O35  1  0.74842891  0.19490249  0.33035414  1
  O  O36  1  0.05408721  0.50209948  0.32547020  1
  O  O37  1  0.24090152  0.70194255  0.33116599  1
  O  O38  1  0.94262888  0.30377758  0.17863580  1
  O  O39  1  0.44686388  0.80815512  0.17481070  1
  O  O40  1  0.71479519  0.53120811  0.13711501  1
  O  O41  1  0.22309452  0.03034802  0.14427295  1
  O  O42  1  0.75092441  0.98942531  0.05645290  1
  O  O43  1  0.25433450  0.50421259  0.05653239  1
