# generated using pymatgen
data_Na5LiCo2P2(CO7)2
_symmetry_space_group_name_H-M   'P 1'
_cell_length_a   8.82090529
_cell_length_b   5.22199953
_cell_length_c   6.64669435
_cell_angle_alpha   90.15981437
_cell_angle_beta   89.36068395
_cell_angle_gamma   88.04211322
_symmetry_Int_Tables_number   1
_chemical_formula_structural   Na5LiCo2P2(CO7)2
_chemical_formula_sum   'Na5 Li1 Co2 P2 C2 O14'
_cell_volume   305.96578399
_cell_formula_units_Z   1
loop_
 _symmetry_equiv_pos_site_id
 _symmetry_equiv_pos_as_xyz
  1  'x, y, z'
loop_
 _atom_site_type_symbol
 _atom_site_label
 _atom_site_symmetry_multiplicity
 _atom_site_fract_x
 _atom_site_fract_y
 _atom_site_fract_z
 _atom_site_occupancy
  Na  Na0  1  0.08529843  0.77306351  0.24573336  1
  Na  Na1  1  0.27119096  0.25564022  0.49161456  1
  Na  Na2  1  0.73017179  0.74228908  0.99189935  1
  Na  Na3  1  0.72932953  0.74343961  0.50763776  1
  Na  Na4  1  0.91586960  0.22411970  0.75148375  1
  Li  Li5  1  0.28111908  0.24820422  0.00962251  1
  Co  Co6  1  0.34455120  0.78169004  0.75428792  1
  Co  Co7  1  0.65273502  0.21967802  0.25017141  1
  P  P8  1  0.41459991  0.72035207  0.24748107  1
  P  P9  1  0.57954559  0.28567861  0.75603196  1
  C  C10  1  0.05753675  0.70384999  0.75231401  1
  C  C11  1  0.94718276  0.29029416  0.24290793  1
  O  O12  1  0.09286289  0.31489787  0.23112701  1
  O  O13  1  0.11331378  0.93140103  0.74942918  1
  O  O14  1  0.15285646  0.50693500  0.75989830  1
  O  O15  1  0.31717036  0.81605173  0.06664231  1
  O  O16  1  0.31787144  0.79045920  0.43909809  1
  O  O17  1  0.42313078  0.16007902  0.76834902  1
  O  O18  1  0.43978609  0.42178456  0.23339745  1
  O  O19  1  0.55373373  0.58314608  0.75251087  1
  O  O20  1  0.56983367  0.84782654  0.25051834  1
  O  O21  1  0.67274335  0.20087613  0.56489926  1
  O  O22  1  0.68226143  0.20816040  0.93718669  1
  O  O23  1  0.85439102  0.49012816  0.24998173  1
  O  O24  1  0.88777363  0.06565823  0.24844925  1
  O  O25  1  0.91314375  0.67430078  0.74732490  1
