# generated using pymatgen
data_Li4MnCrO6
_symmetry_space_group_name_H-M   'P 1'
_cell_length_a   5.00436117
_cell_length_b   5.00436110
_cell_length_c   9.73588077
_cell_angle_alpha   85.31663934
_cell_angle_beta   94.68336041
_cell_angle_gamma   60.51185161
_symmetry_Int_Tables_number   1
_chemical_formula_structural   Li4MnCrO6
_chemical_formula_sum   'Li8 Mn2 Cr2 O12'
_cell_volume   209.43143366
_cell_formula_units_Z   2
loop_
 _symmetry_equiv_pos_site_id
 _symmetry_equiv_pos_as_xyz
  1  'x, y, z'
loop_
 _atom_site_type_symbol
 _atom_site_label
 _atom_site_symmetry_multiplicity
 _atom_site_fract_x
 _atom_site_fract_y
 _atom_site_fract_z
 _atom_site_occupancy
  Li  Li0  1  0.00000000  0.50000000  0.00000000  1
  Li  Li1  1  0.24792299  0.24792299  0.75000000  1
  Li  Li2  1  0.15481879  0.66875491  0.49944593  1
  Li  Li3  1  0.50000000  0.00000000  0.50000000  1
  Li  Li4  1  0.33124509  0.84518121  0.99944593  1
  Li  Li5  1  0.66875491  0.15481879  0.00055407  1
  Li  Li6  1  0.84518121  0.33124509  0.50055407  1
  Li  Li7  1  0.75207701  0.75207701  0.25000000  1
  Mn  Mn8  1  0.08270229  0.08270229  0.25000000  1
  Mn  Mn9  1  0.91729771  0.91729771  0.75000000  1
  Cr  Cr10  1  0.42070537  0.42070537  0.25000000  1
  Cr  Cr11  1  0.57929463  0.57929463  0.75000000  1
  O  O12  1  0.14652753  0.35309762  0.36400615  1
  O  O13  1  0.35309762  0.14652753  0.13599385  1
  O  O14  1  0.28751519  0.57368309  0.86160368  1
  O  O15  1  0.06585931  0.79226039  0.13698188  1
  O  O16  1  0.20773961  0.93414069  0.63698188  1
  O  O17  1  0.57368309  0.28751519  0.63839632  1
  O  O18  1  0.42631691  0.71248481  0.36160368  1
  O  O19  1  0.79226039  0.06585931  0.36301812  1
  O  O20  1  0.93414069  0.20773961  0.86301812  1
  O  O21  1  0.71248481  0.42631691  0.13839632  1
  O  O22  1  0.64690238  0.85347247  0.86400615  1
  O  O23  1  0.85347247  0.64690238  0.63599385  1
