# generated using pymatgen
data_Na5Fe2P2(CO7)2
_symmetry_space_group_name_H-M   'P 1'
_cell_length_a   10.39229914
_cell_length_b   8.45050766
_cell_length_c   8.52317997
_cell_angle_alpha   76.19270015
_cell_angle_beta   71.06942744
_cell_angle_gamma   107.28263579
_symmetry_Int_Tables_number   1
_chemical_formula_structural   Na5Fe2P2(CO7)2
_chemical_formula_sum   'Na10 Fe4 P4 C4 O28'
_cell_volume   627.82286322
_cell_formula_units_Z   2
loop_
 _symmetry_equiv_pos_site_id
 _symmetry_equiv_pos_as_xyz
  1  'x, y, z'
loop_
 _atom_site_type_symbol
 _atom_site_label
 _atom_site_symmetry_multiplicity
 _atom_site_fract_x
 _atom_site_fract_y
 _atom_site_fract_z
 _atom_site_occupancy
  Na  Na0  1  0.91346444  0.69275206  0.56444184  1
  Na  Na1  1  0.92400093  0.22997333  0.04580894  1
  Na  Na2  1  0.73682230  0.99463163  0.50033081  1
  Na  Na3  1  0.74065956  0.74008545  0.25833340  1
  Na  Na4  1  0.73239352  0.25288757  0.76248961  1
  Na  Na5  1  0.26760648  0.74711243  0.23751039  1
  Na  Na6  1  0.25933944  0.25991455  0.74166660  1
  Na  Na7  1  0.26317770  0.00536837  0.49966919  1
  Na  Na8  1  0.08653556  0.30724794  0.43555816  1
  Na  Na9  1  0.07599907  0.77002667  0.95419106  1
  Fe  Fe10  1  0.65207427  0.31107828  0.43155415  1
  Fe  Fe11  1  0.64636689  0.79736227  0.94555280  1
  Fe  Fe12  1  0.35363311  0.20263773  0.05444720  1
  Fe  Fe13  1  0.34792573  0.68892172  0.56844585  1
  P  P14  1  0.58433699  0.56445385  0.68888768  1
  P  P15  1  0.57735505  0.05548957  0.18610194  1
  P  P16  1  0.41566301  0.43554615  0.31111232  1
  P  P17  1  0.42264495  0.94451043  0.81389806  1
  C  C18  1  0.93968873  0.48114915  0.27687439  1
  C  C19  1  0.93351318  0.97998381  0.77261112  1
  C  C20  1  0.06648682  0.02001619  0.22738888  1
  C  C21  1  0.06031127  0.51885085  0.72312561  1
  O  O22  1  0.92435257  0.93709432  0.31128795  1
  O  O23  1  0.91883987  0.43372162  0.79489601  1
  O  O24  1  0.87522689  0.32614832  0.41051988  1
  O  O25  1  0.86980794  0.83898380  0.91906751  1
  O  O26  1  0.85528159  0.54126966  0.21854888  1
  O  O27  1  0.84340566  0.02924930  0.71565096  1
  O  O28  1  0.67347298  0.97595854  0.07263792  1
  O  O29  1  0.67460413  0.67966705  0.76734492  1
  O  O30  1  0.68660325  0.48781921  0.58603673  1
  O  O31  1  0.67717497  0.15888706  0.25996000  1
  O  O32  1  0.56593728  0.58666368  0.16423203  1
  O  O33  1  0.57079469  0.09191560  0.66397898  1
  O  O34  1  0.53865688  0.18158758  0.05807360  1
  O  O35  1  0.55218265  0.69007637  0.55603959  1
  O  O36  1  0.46134312  0.81841242  0.94192640  1
  O  O37  1  0.44781735  0.30992363  0.44396041  1
  O  O38  1  0.42920531  0.90808440  0.33602102  1
  O  O39  1  0.43406272  0.41333632  0.83576797  1
  O  O40  1  0.32282503  0.84111294  0.74004000  1
  O  O41  1  0.31339675  0.51218079  0.41396327  1
  O  O42  1  0.32539587  0.32033295  0.23265508  1
  O  O43  1  0.32652702  0.02404146  0.92736208  1
  O  O44  1  0.15659434  0.97075070  0.28434904  1
  O  O45  1  0.14471841  0.45873034  0.78145112  1
  O  O46  1  0.13019206  0.16101620  0.08093249  1
  O  O47  1  0.12477311  0.67385168  0.58948012  1
  O  O48  1  0.08115913  0.56627838  0.20510399  1
  O  O49  1  0.07564743  0.06290568  0.68871205  1
