# generated using pymatgen
data_Li2Fe3BiO8
_symmetry_space_group_name_H-M   'P 1'
_cell_length_a   6.08293425
_cell_length_b   6.08293464
_cell_length_c   6.27064111
_cell_angle_alpha   60.98537346
_cell_angle_beta   119.01463508
_cell_angle_gamma   119.99999847
_symmetry_Int_Tables_number   1
_chemical_formula_structural   Li2Fe3BiO8
_chemical_formula_sum   'Li2 Fe3 Bi1 O8'
_cell_volume   166.46903662
_cell_formula_units_Z   1
loop_
 _symmetry_equiv_pos_site_id
 _symmetry_equiv_pos_as_xyz
  1  'x, y, z'
loop_
 _atom_site_type_symbol
 _atom_site_label
 _atom_site_symmetry_multiplicity
 _atom_site_fract_x
 _atom_site_fract_y
 _atom_site_fract_z
 _atom_site_occupancy
  Li  Li0  1  0.86965238  0.13034762  0.60895613  1
  Li  Li1  1  0.13034762  0.86965238  0.39104387  1
  Fe  Fe2  1  0.50000000  0.50000000  0.00000000  1
  Fe  Fe3  1  0.50000000  0.00000000  0.00000000  1
  Fe  Fe4  1  0.00000000  0.50000000  0.00000000  1
  Bi  Bi5  1  0.50000000  0.50000000  0.50000000  1
  O  O6  1  0.74490137  0.72315511  0.76664863  1
  O  O7  1  0.74490137  0.25509863  0.76664863  1
  O  O8  1  0.26690623  0.73309377  0.80071768  1
  O  O9  1  0.27684489  0.25509863  0.76664863  1
  O  O10  1  0.72315511  0.74490137  0.23335137  1
  O  O11  1  0.73309377  0.26690623  0.19928232  1
  O  O12  1  0.25509863  0.74490137  0.23335137  1
  O  O13  1  0.25509863  0.27684489  0.23335137  1
