# generated using pymatgen
data_Li2Mn2(SO4)3
_symmetry_space_group_name_H-M   'P 1'
_cell_length_a   8.05941075
_cell_length_b   8.05941075
_cell_length_c   8.91876920
_cell_angle_alpha   68.18786662
_cell_angle_beta   111.81213338
_cell_angle_gamma   113.01575901
_symmetry_Int_Tables_number   1
_chemical_formula_structural   Li2Mn2(SO4)3
_chemical_formula_sum   'Li4 Mn4 S6 O24'
_cell_volume   477.34975170
_cell_formula_units_Z   2
loop_
 _symmetry_equiv_pos_site_id
 _symmetry_equiv_pos_as_xyz
  1  'x, y, z'
loop_
 _atom_site_type_symbol
 _atom_site_label
 _atom_site_symmetry_multiplicity
 _atom_site_fract_x
 _atom_site_fract_y
 _atom_site_fract_z
 _atom_site_occupancy
  Li  Li0  1  0.33352910  0.86970719  0.55278880  1
  Li  Li1  1  0.13029281  0.66647090  0.05278880  1
  Li  Li2  1  0.86970719  0.33352910  0.94721120  1
  Li  Li3  1  0.66647090  0.13029281  0.44721120  1
  Mn  Mn4  1  0.63476035  0.86945114  0.98471287  1
  Mn  Mn5  1  0.13054886  0.36523965  0.48471287  1
  Mn  Mn6  1  0.86945114  0.63476035  0.51528713  1
  Mn  Mn7  1  0.36523965  0.13054886  0.01528713  1
  S  S8  1  0.24649447  0.54342710  0.81973994  1
  S  S9  1  0.45657290  0.75350553  0.31973994  1
  S  S10  1  0.93835960  0.93835960  0.75000000  1
  S  S11  1  0.06164040  0.06164040  0.25000000  1
  S  S12  1  0.54342710  0.24649447  0.68026006  1
  S  S13  1  0.75350553  0.45657290  0.18026006  1
  O  O14  1  0.12108353  0.94685911  0.88269563  1
  O  O15  1  0.05314089  0.87891647  0.38269563  1
  O  O16  1  0.12459295  0.50615441  0.92509273  1
  O  O17  1  0.38013421  0.73572888  0.80846941  1
  O  O18  1  0.13039797  0.54401145  0.64029255  1
  O  O19  1  0.49384559  0.87540705  0.42509273  1
  O  O20  1  0.78729292  0.90026826  0.82374917  1
  O  O21  1  0.34406990  0.40151825  0.88096886  1
  O  O22  1  0.26427112  0.61986579  0.30846941  1
  O  O23  1  0.45598855  0.86960203  0.14029255  1
  O  O24  1  0.09973174  0.21270708  0.32374917  1
  O  O25  1  0.40151825  0.34406990  0.61903114  1
  O  O26  1  0.59848175  0.65593010  0.38096886  1
  O  O27  1  0.90026826  0.78729292  0.67625083  1
  O  O28  1  0.54401145  0.13039797  0.85970745  1
  O  O29  1  0.73572888  0.38013421  0.69153059  1
  O  O30  1  0.65593010  0.59848175  0.11903114  1
  O  O31  1  0.21270708  0.09973174  0.17625083  1
  O  O32  1  0.50615441  0.12459295  0.57490727  1
  O  O33  1  0.86960203  0.45598855  0.35970745  1
  O  O34  1  0.61986579  0.26427112  0.19153059  1
  O  O35  1  0.87540705  0.49384559  0.07490727  1
  O  O36  1  0.94685911  0.12108353  0.61730437  1
  O  O37  1  0.87891647  0.05314089  0.11730437  1
