# generated using pymatgen
data_Mn3(PO4)2
_symmetry_space_group_name_H-M   'P 1'
_cell_length_a   9.00104873
_cell_length_b   11.62096409
_cell_length_c   6.34730704
_cell_angle_alpha   90.00000000
_cell_angle_beta   99.27635709
_cell_angle_gamma   90.00000000
_symmetry_Int_Tables_number   1
_chemical_formula_structural   Mn3(PO4)2
_chemical_formula_sum   'Mn12 P8 O32'
_cell_volume   655.25108528
_cell_formula_units_Z   4
loop_
 _symmetry_equiv_pos_site_id
 _symmetry_equiv_pos_as_xyz
  1  'x, y, z'
loop_
 _atom_site_type_symbol
 _atom_site_label
 _atom_site_symmetry_multiplicity
 _atom_site_fract_x
 _atom_site_fract_y
 _atom_site_fract_z
 _atom_site_occupancy
  Mn  Mn0  1  0.06681064  0.61665695  0.63746061  1
  Mn  Mn1  1  0.06681064  0.88334305  0.13746061  1
  Mn  Mn2  1  0.27439265  0.92307210  0.66652797  1
  Mn  Mn3  1  0.27439265  0.57692790  0.16652797  1
  Mn  Mn4  1  0.36439345  0.30660081  0.62236693  1
  Mn  Mn5  1  0.36439345  0.19339919  0.12236693  1
  Mn  Mn6  1  0.63560655  0.80660081  0.87763307  1
  Mn  Mn7  1  0.63560655  0.69339919  0.37763307  1
  Mn  Mn8  1  0.72560735  0.42307210  0.83347203  1
  Mn  Mn9  1  0.72560735  0.07692790  0.33347203  1
  Mn  Mn10  1  0.93318936  0.11665695  0.86253939  1
  Mn  Mn11  1  0.93318936  0.38334305  0.36253939  1
  P  P12  1  0.09159509  0.36345749  0.88823567  1
  P  P13  1  0.09159509  0.13654251  0.38823567  1
  P  P14  1  0.39547525  0.58760142  0.69325135  1
  P  P15  1  0.39547525  0.91239858  0.19325135  1
  P  P16  1  0.60452475  0.08760142  0.80674865  1
  P  P17  1  0.60452475  0.41239858  0.30674865  1
  P  P18  1  0.90840491  0.86345749  0.61176433  1
  P  P19  1  0.90840491  0.63654251  0.11176433  1
  O  O20  1  0.05769065  0.79661178  0.60333656  1
  O  O21  1  0.07229155  0.43446919  0.67581885  1
  O  O22  1  0.05769065  0.70338822  0.10333656  1
  O  O23  1  0.07229155  0.06553081  0.17581885  1
  O  O24  1  0.13001963  0.06386257  0.59259994  1
  O  O25  1  0.13001963  0.43613743  0.09259994  1
  O  O26  1  0.22256714  0.27707636  0.87243565  1
  O  O27  1  0.27501576  0.91405447  0.98693914  1
  O  O28  1  0.22256714  0.22292364  0.37243565  1
  O  O29  1  0.30198808  0.62616613  0.86655766  1
  O  O30  1  0.27501576  0.58594553  0.48693914  1
  O  O31  1  0.30198808  0.87383387  0.36655766  1
  O  O32  1  0.46757434  0.46635731  0.73957896  1
  O  O33  1  0.48064655  0.17782710  0.82870533  1
  O  O34  1  0.46757434  0.03364269  0.23957896  1
  O  O35  1  0.51935345  0.67782710  0.67129467  1
  O  O36  1  0.48064655  0.32217290  0.32870533  1
  O  O37  1  0.53242566  0.96635731  0.76042104  1
  O  O38  1  0.51935345  0.82217290  0.17129467  1
  O  O39  1  0.53242566  0.53364269  0.26042104  1
  O  O40  1  0.69801192  0.12616613  0.63344234  1
  O  O41  1  0.72498424  0.41405447  0.51306086  1
  O  O42  1  0.69801192  0.37383387  0.13344234  1
  O  O43  1  0.77743286  0.77707636  0.62756435  1
  O  O44  1  0.72498424  0.08594553  0.01306086  1
  O  O45  1  0.77743286  0.72292364  0.12756435  1
  O  O46  1  0.86998037  0.56386257  0.90740006  1
  O  O47  1  0.86998037  0.93613743  0.40740006  1
  O  O48  1  0.92770845  0.93446919  0.82418115  1
  O  O49  1  0.94230935  0.29661178  0.89666344  1
  O  O50  1  0.92770845  0.56553081  0.32418115  1
  O  O51  1  0.94230935  0.20338822  0.39666344  1
