# generated using pymatgen
data_DyWO4
_symmetry_space_group_name_H-M   'P 1'
_cell_length_a   5.20378712
_cell_length_b   5.55841666
_cell_length_c   5.32917014
_cell_angle_alpha   90.00000000
_cell_angle_beta   82.93363767
_cell_angle_gamma   90.00000000
_symmetry_Int_Tables_number   1
_chemical_formula_structural   DyWO4
_chemical_formula_sum   'Dy2 W2 O8'
_cell_volume   152.97443479
_cell_formula_units_Z   2
loop_
 _symmetry_equiv_pos_site_id
 _symmetry_equiv_pos_as_xyz
  1  'x, y, z'
loop_
 _atom_site_type_symbol
 _atom_site_label
 _atom_site_symmetry_multiplicity
 _atom_site_fract_x
 _atom_site_fract_y
 _atom_site_fract_z
 _atom_site_occupancy
  Dy  Dy0  1  0.50000000  0.27003294  0.75000000  1
  Dy  Dy1  1  0.50000000  0.72996706  0.25000000  1
  W  W2  1  0.00000000  0.81170197  0.75000000  1
  W  W3  1  0.00000000  0.18829803  0.25000000  1
  O  O4  1  0.23144525  0.06840292  0.49838837  1
  O  O5  1  0.23144525  0.93159708  0.99838837  1
  O  O6  1  0.25902284  0.58984773  0.60838964  1
  O  O7  1  0.25902284  0.41015227  0.10838964  1
  O  O8  1  0.74097716  0.58984773  0.89161036  1
  O  O9  1  0.74097716  0.41015227  0.39161036  1
  O  O10  1  0.76855475  0.06840292  0.00161163  1
  O  O11  1  0.76855475  0.93159708  0.50161163  1
