# generated using pymatgen
data_Mn4P2O9
_symmetry_space_group_name_H-M   'P 1'
_cell_length_a   6.77522010
_cell_length_b   11.70624061
_cell_length_c   9.65328024
_cell_angle_alpha   90.00000000
_cell_angle_beta   103.80755547
_cell_angle_gamma   90.00000000
_symmetry_Int_Tables_number   1
_chemical_formula_structural   Mn4P2O9
_chemical_formula_sum   'Mn16 P8 O36'
_cell_volume   743.50001689
_cell_formula_units_Z   4
loop_
 _symmetry_equiv_pos_site_id
 _symmetry_equiv_pos_as_xyz
  1  'x, y, z'
loop_
 _atom_site_type_symbol
 _atom_site_label
 _atom_site_symmetry_multiplicity
 _atom_site_fract_x
 _atom_site_fract_y
 _atom_site_fract_z
 _atom_site_occupancy
  Mn  Mn0  1  0.04285800  0.59990125  0.88104475  1
  Mn  Mn1  1  0.04285800  0.90009875  0.38104475  1
  Mn  Mn2  1  0.23618867  0.38075023  0.75264874  1
  Mn  Mn3  1  0.18544881  0.60333705  0.53373112  1
  Mn  Mn4  1  0.23618867  0.11924977  0.25264874  1
  Mn  Mn5  1  0.18544881  0.89666295  0.03373112  1
  Mn  Mn6  1  0.46838411  0.13186238  0.67954345  1
  Mn  Mn7  1  0.53161589  0.63186238  0.82045655  1
  Mn  Mn8  1  0.46838411  0.36813762  0.17954245  1
  Mn  Mn9  1  0.53161589  0.86813762  0.32045655  1
  Mn  Mn10  1  0.81455119  0.10333705  0.96626888  1
  Mn  Mn11  1  0.76381133  0.88075023  0.74735126  1
  Mn  Mn12  1  0.81455119  0.39666295  0.46626888  1
  Mn  Mn13  1  0.76381133  0.61924977  0.24735126  1
  Mn  Mn14  1  0.95714200  0.09990125  0.61895525  1
  Mn  Mn15  1  0.95714200  0.40009875  0.11895525  1
  P  P16  1  0.29451125  0.17141601  0.92543294  1
  P  P17  1  0.23917553  0.87017349  0.68470514  1
  P  P18  1  0.29451125  0.32858399  0.42543294  1
  P  P19  1  0.23917553  0.62982651  0.18470514  1
  P  P20  1  0.76082447  0.37017349  0.81529486  1
  P  P21  1  0.70548875  0.67141601  0.57456706  1
  P  P22  1  0.76082447  0.12982651  0.31529486  1
  P  P23  1  0.70548875  0.82858399  0.07456706  1
  O  O24  1  0.10809837  0.87987673  0.79641889  1
  O  O25  1  0.18083106  0.19120612  0.76417346  1
  O  O26  1  0.14000607  0.78720247  0.56015455  1
  O  O27  1  0.24716645  0.55812423  0.76524754  1
  O  O28  1  0.16521622  0.40251320  0.50646751  1
  O  O29  1  0.32647214  0.29523319  0.98381252  1
  O  O30  1  0.10809837  0.62012327  0.29641889  1
  O  O31  1  0.23052688  0.98989596  0.60626834  1
  O  O32  1  0.18083106  0.30879388  0.26417346  1
  O  O33  1  0.14000607  0.71279753  0.06015455  1
  O  O34  1  0.24716645  0.94187577  0.26524754  1
  O  O35  1  0.16521622  0.09748680  0.00646751  1
  O  O36  1  0.32647214  0.20476681  0.48381252  1
  O  O37  1  0.49176771  0.10948189  0.91827980  1
  O  O38  1  0.23052688  0.51010404  0.10626834  1
  O  O39  1  0.45633188  0.83103746  0.75596672  1
  O  O40  1  0.54366812  0.33103746  0.74403328  1
  O  O41  1  0.50823229  0.60948189  0.58172020  1
  O  O42  1  0.49176771  0.39051811  0.41827980  1
  O  O43  1  0.45633188  0.66896254  0.25596672  1
  O  O44  1  0.54366812  0.16896254  0.24403328  1
  O  O45  1  0.76947312  0.48989596  0.89373166  1
  O  O46  1  0.50823229  0.89051811  0.08172020  1
  O  O47  1  0.67352786  0.79523319  0.51618748  1
  O  O48  1  0.83478378  0.90251320  0.99353249  1
  O  O49  1  0.75283355  0.05812423  0.73475246  1
  O  O50  1  0.85999393  0.28720247  0.93984545  1
  O  O51  1  0.81916894  0.69120612  0.73582654  1
  O  O52  1  0.76947312  0.01010404  0.39373166  1
  O  O53  1  0.89190163  0.37987673  0.70358111  1
  O  O54  1  0.67352786  0.70476681  0.01618748  1
  O  O55  1  0.83478378  0.59748680  0.49353249  1
  O  O56  1  0.75283355  0.44187577  0.23475246  1
  O  O57  1  0.85999393  0.21279753  0.43984545  1
  O  O58  1  0.81916894  0.80879388  0.23582654  1
  O  O59  1  0.89190163  0.12012327  0.20358111  1
