# generated using pymatgen
data_Na5Fe2P2(CO7)2
_symmetry_space_group_name_H-M   'P 1'
_cell_length_a   8.97398004
_cell_length_b   10.46054305
_cell_length_c   6.68730983
_cell_angle_alpha   89.74233984
_cell_angle_beta   90.59874427
_cell_angle_gamma   89.73563317
_symmetry_Int_Tables_number   1
_chemical_formula_structural   Na5Fe2P2(CO7)2
_chemical_formula_sum   'Na10 Fe4 P4 C4 O28'
_cell_volume   627.70841704
_cell_formula_units_Z   2
loop_
 _symmetry_equiv_pos_site_id
 _symmetry_equiv_pos_as_xyz
  1  'x, y, z'
loop_
 _atom_site_type_symbol
 _atom_site_label
 _atom_site_symmetry_multiplicity
 _atom_site_fract_x
 _atom_site_fract_y
 _atom_site_fract_z
 _atom_site_occupancy
  Na  Na0  1  0.07470037  0.38637379  0.26802984  1
  Na  Na1  1  0.08944633  0.87609394  0.26072706  1
  Na  Na2  1  0.26466875  0.12059483  0.00300152  1
  Na  Na3  1  0.26542394  0.12088150  0.49557390  1
  Na  Na4  1  0.26094905  0.62940629  0.01093290  1
  Na  Na5  1  0.73905095  0.37059371  0.98906710  1
  Na  Na6  1  0.73457606  0.87911850  0.50442610  1
  Na  Na7  1  0.73533125  0.87940517  0.99699848  1
  Na  Na8  1  0.91055367  0.12390606  0.73927294  1
  Na  Na9  1  0.92529963  0.61362621  0.73197016  1
  Fe  Fe10  1  0.35314803  0.39876175  0.73814418  1
  Fe  Fe11  1  0.34734917  0.88379825  0.74653347  1
  Fe  Fe12  1  0.65265083  0.11620175  0.25346653  1
  Fe  Fe13  1  0.64685197  0.60123825  0.26185582  1
  P  P14  1  0.41487182  0.35544032  0.24664836  1
  P  P15  1  0.42353575  0.85220826  0.24781185  1
  P  P16  1  0.57646425  0.14779174  0.75218815  1
  P  P17  1  0.58512818  0.64455968  0.75335164  1
  C  C18  1  0.07155986  0.36302978  0.75980708  1
  C  C19  1  0.05458194  0.86685520  0.75462283  1
  C  C20  1  0.94541806  0.13314480  0.24537717  1
  C  C21  1  0.92844014  0.63697022  0.24019292  1
  O  O22  1  0.08947665  0.14233984  0.24772265  1
  O  O23  1  0.06822127  0.64927785  0.22852695  1
  O  O24  1  0.13561788  0.47530178  0.75679719  1
  O  O25  1  0.11710990  0.97967405  0.74409363  1
  O  O26  1  0.16471098  0.26546571  0.74611732  1
  O  O27  1  0.13750149  0.76533202  0.76385180  1
  O  O28  1  0.31736852  0.39501339  0.06111643  1
  O  O29  1  0.32317206  0.38669000  0.43800287  1
  O  O30  1  0.32135160  0.88118029  0.06389063  1
  O  O31  1  0.32592090  0.88408685  0.43087079  1
  O  O32  1  0.42929816  0.07214723  0.75328634  1
  O  O33  1  0.43423742  0.57228788  0.75554644  1
  O  O34  1  0.44457579  0.20996236  0.24263344  1
  O  O35  1  0.46738106  0.70562375  0.24126175  1
  O  O36  1  0.53261894  0.29437625  0.75873825  1
  O  O37  1  0.55542421  0.79003764  0.75736656  1
  O  O38  1  0.56576258  0.42771212  0.24445356  1
  O  O39  1  0.57070184  0.92785277  0.24671366  1
  O  O40  1  0.67407910  0.11591315  0.56912921  1
  O  O41  1  0.67864840  0.11881971  0.93610937  1
  O  O42  1  0.67682794  0.61331000  0.56199713  1
  O  O43  1  0.68263148  0.60498661  0.93888357  1
  O  O44  1  0.86249851  0.23466798  0.23614820  1
  O  O45  1  0.83528902  0.73453429  0.25388268  1
  O  O46  1  0.88289010  0.02032595  0.25590637  1
  O  O47  1  0.86438212  0.52469822  0.24320281  1
  O  O48  1  0.93177873  0.35072215  0.77147305  1
  O  O49  1  0.91052335  0.85766016  0.75227735  1
