# generated using pymatgen
data_Li2Mn3O7
_symmetry_space_group_name_H-M   'P 1'
_cell_length_a   6.48037817
_cell_length_b   6.11152941
_cell_length_c   7.65529413
_cell_angle_alpha   101.82653644
_cell_angle_beta   113.38289180
_cell_angle_gamma   105.41302404
_symmetry_Int_Tables_number   1
_chemical_formula_structural   Li2Mn3O7
_chemical_formula_sum   'Li4 Mn6 O14'
_cell_volume   251.22835559
_cell_formula_units_Z   2
loop_
 _symmetry_equiv_pos_site_id
 _symmetry_equiv_pos_as_xyz
  1  'x, y, z'
loop_
 _atom_site_type_symbol
 _atom_site_label
 _atom_site_symmetry_multiplicity
 _atom_site_fract_x
 _atom_site_fract_y
 _atom_site_fract_z
 _atom_site_occupancy
  Li  Li0  1  0.31410409  0.68089623  0.46931834  1
  Li  Li1  1  0.35266205  0.85030248  0.08417693  1
  Li  Li2  1  0.64733795  0.14969752  0.91582307  1
  Li  Li3  1  0.68589591  0.31910377  0.53068166  1
  Mn  Mn4  1  0.21859175  0.22160886  0.64078905  1
  Mn  Mn5  1  0.07737748  0.07947300  0.22119371  1
  Mn  Mn6  1  0.64514394  0.63960897  0.92242471  1
  Mn  Mn7  1  0.35485606  0.36039103  0.07757529  1
  Mn  Mn8  1  0.92262252  0.92052700  0.77880629  1
  Mn  Mn9  1  0.78140825  0.77839114  0.35921095  1
  O  O10  1  0.13096392  0.92505765  0.42470242  1
  O  O11  1  0.30705142  0.51047992  0.86320376  1
  O  O12  1  0.13770812  0.34444068  0.43102402  1
  O  O13  1  0.01455669  0.21994208  0.00888122  1
  O  O14  1  0.27145031  0.07150085  0.85510581  1
  O  O15  1  0.60328781  0.81626862  0.74375977  1
  O  O16  1  0.44386479  0.66138359  0.27209673  1
  O  O17  1  0.55613521  0.33861641  0.72790327  1
  O  O18  1  0.39671219  0.18373138  0.25624023  1
  O  O19  1  0.72854969  0.92849915  0.14489419  1
  O  O20  1  0.98544331  0.78005792  0.99111878  1
  O  O21  1  0.86229188  0.65555932  0.56897598  1
  O  O22  1  0.69294858  0.48952008  0.13679624  1
  O  O23  1  0.86903608  0.07494235  0.57529758  1
