# generated using pymatgen
data_Li24Ti7Cr5O36
_symmetry_space_group_name_H-M   'P 1'
_cell_length_a   5.05627077
_cell_length_b   13.45654812
_cell_length_c   9.79860823
_cell_angle_alpha   97.38080280
_cell_angle_beta   94.54178128
_cell_angle_gamma   100.79342338
_symmetry_Int_Tables_number   1
_chemical_formula_structural   Li24Ti7Cr5O36
_chemical_formula_sum   'Li24 Ti7 Cr5 O36'
_cell_volume   645.81804920
_cell_formula_units_Z   1
loop_
 _symmetry_equiv_pos_site_id
 _symmetry_equiv_pos_as_xyz
  1  'x, y, z'
loop_
 _atom_site_type_symbol
 _atom_site_label
 _atom_site_symmetry_multiplicity
 _atom_site_fract_x
 _atom_site_fract_y
 _atom_site_fract_z
 _atom_site_occupancy
  Li  Li0  1  0.84167088  0.16605150  0.99846855  1
  Li  Li1  1  0.95483283  0.38794835  0.99886010  1
  Li  Li2  1  0.00057481  0.74874393  0.24985519  1
  Li  Li3  1  0.66602890  0.08445150  0.25034586  1
  Li  Li4  1  0.95258825  0.88810702  0.50108223  1
  Li  Li5  1  0.61398920  0.21944813  0.49801020  1
  Li  Li6  1  0.83899037  0.66636536  0.49767035  1
  Li  Li7  1  0.50698460  0.99917273  0.50104659  1
  Li  Li8  1  0.71487956  0.44624817  0.49870455  1
  Li  Li9  1  0.66675581  0.58354456  0.75012880  1
  Li  Li10  1  0.50243235  0.49824353  0.00130172  1
  Li  Li11  1  0.71360371  0.94744246  0.99910216  1
  Li  Li12  1  0.37520398  0.27959084  0.00121337  1
  Li  Li13  1  0.61813625  0.72097771  0.99928875  1
  Li  Li14  1  0.28191930  0.05411282  0.99961020  1
  Li  Li15  1  0.33287061  0.41536578  0.24985014  1
  Li  Li16  1  0.28309122  0.55393535  0.50103736  1
  Li  Li17  1  0.16868014  0.33261829  0.50137375  1
  Li  Li18  1  0.37562871  0.77952032  0.50094091  1
  Li  Li19  1  0.04753897  0.11329067  0.50047323  1
  Li  Li20  1  0.33267237  0.91532189  0.74968703  1
  Li  Li21  1  0.16939787  0.83241675  0.99962811  1
  Li  Li22  1  0.00311023  0.25036162  0.75042062  1
  Li  Li23  1  0.04526969  0.61233047  0.99977771  1
  Ti  Ti24  1  0.76989067  0.30622138  0.24320652  1
  Ti  Ti25  1  0.76734711  0.80535286  0.74352707  1
  Ti  Ti26  1  0.56007897  0.36131002  0.75198795  1
  Ti  Ti27  1  0.44589305  0.13980695  0.75293914  1
  Ti  Ti28  1  0.56012054  0.86038142  0.24696643  1
  Ti  Ti29  1  0.44522579  0.63924466  0.25356246  1
  Ti  Ti30  1  0.11802497  0.97424306  0.25505161  1
  Cr  Cr31  1  0.89401100  0.02647123  0.75014344  1
  Cr  Cr32  1  0.89360076  0.52642997  0.24972718  1
  Cr  Cr33  1  0.21571344  0.19407917  0.25130199  1
  Cr  Cr34  1  0.21229713  0.69270751  0.74991023  1
  Cr  Cr35  1  0.11873217  0.47442804  0.75124972  1
  O  O36  1  0.00184575  0.07550436  0.13919064  1
  O  O37  1  0.93808906  0.21512067  0.36510859  1
  O  O38  1  0.00007172  0.57564552  0.63916361  1
  O  O39  1  0.86148805  0.35932008  0.63763876  1
  O  O40  1  0.73990073  0.11706851  0.63668511  1
  O  O41  1  0.66104680  0.40329766  0.13512190  1
  O  O42  1  0.93636333  0.71469601  0.86537625  1
  O  O43  1  0.81387723  0.47831121  0.86138723  1
  O  O44  1  0.59834738  0.04698607  0.86384420  1
  O  O45  1  0.85697318  0.85708293  0.13549993  1
  O  O46  1  0.73882247  0.61660546  0.13608126  1
  O  O47  1  0.51927515  0.18933786  0.13854453  1
  O  O48  1  0.66840037  0.26272196  0.86494341  1
  O  O49  1  0.80900158  0.97732710  0.36298584  1
  O  O50  1  0.59844296  0.54678252  0.36387986  1
  O  O51  1  0.47305254  0.30900605  0.36258043  1
  O  O52  1  0.66793614  0.76227834  0.36371232  1
  O  O53  1  0.33942819  0.09482360  0.36427902  1
  O  O54  1  0.66008117  0.90293661  0.63539596  1
  O  O55  1  0.33657482  0.23767791  0.63662007  1
  O  O56  1  0.51898695  0.68849890  0.63791543  1
  O  O57  1  0.39722856  0.45293474  0.63476221  1
  O  O58  1  0.18133725  0.02205566  0.63771206  1
  O  O59  1  0.33300058  0.73660198  0.13626993  1
  O  O60  1  0.47193044  0.80749962  0.86219561  1
  O  O61  1  0.26640810  0.38154234  0.86614063  1
  O  O62  1  0.14630255  0.14447433  0.86404849  1
  O  O63  1  0.40390397  0.95170186  0.13346526  1
  O  O64  1  0.18131868  0.52183412  0.13777473  1
  O  O65  1  0.06878053  0.28640994  0.13439401  1
  O  O66  1  0.33249485  0.59146658  0.86160492  1
  O  O67  1  0.26205577  0.88214231  0.36557163  1
  O  O68  1  0.14568685  0.64426377  0.36425196  1
  O  O69  1  0.99840735  0.43213278  0.36227412  1
  O  O70  1  0.06714861  0.78562263  0.63388092  1
  O  O71  1  0.99820314  0.93200600  0.86224396  1
