# generated using pymatgen
data_Na2Ge2O5
_symmetry_space_group_name_H-M   'P 1'
_cell_length_a   8.53849630
_cell_length_b   5.00855726
_cell_length_c   12.32295987
_cell_angle_alpha   90.00000000
_cell_angle_beta   90.00000000
_cell_angle_gamma   90.00000000
_symmetry_Int_Tables_number   1
_chemical_formula_structural   Na2Ge2O5
_chemical_formula_sum   'Na8 Ge8 O20'
_cell_volume   526.99812730
_cell_formula_units_Z   4
loop_
 _symmetry_equiv_pos_site_id
 _symmetry_equiv_pos_as_xyz
  1  'x, y, z'
loop_
 _atom_site_type_symbol
 _atom_site_label
 _atom_site_symmetry_multiplicity
 _atom_site_fract_x
 _atom_site_fract_y
 _atom_site_fract_z
 _atom_site_occupancy
  Na  Na0  1  0.06627068  0.56732485  0.22825752  1
  Na  Na1  1  0.18687248  0.60187410  0.69435673  1
  Na  Na2  1  0.31312752  0.10187410  0.19435673  1
  Na  Na3  1  0.43372932  0.06732485  0.72825752  1
  Na  Na4  1  0.56627068  0.56732485  0.27174248  1
  Na  Na5  1  0.68687248  0.60187410  0.80564327  1
  Na  Na6  1  0.81312752  0.10187410  0.30564327  1
  Na  Na7  1  0.93372932  0.06732485  0.77174248  1
  Ge  Ge8  1  0.04942865  0.52364765  0.92808187  1
  Ge  Ge9  1  0.11019147  0.14168743  0.52574221  1
  Ge  Ge10  1  0.38980853  0.64168743  0.02574221  1
  Ge  Ge11  1  0.45057135  0.02364765  0.42808187  1
  Ge  Ge12  1  0.54942865  0.52364765  0.57191813  1
  Ge  Ge13  1  0.61019147  0.14168743  0.97425779  1
  Ge  Ge14  1  0.88980853  0.64168743  0.47425779  1
  Ge  Ge15  1  0.95057135  0.02364765  0.07191813  1
  O  O16  1  0.03839355  0.09541490  0.19356177  1
  O  O17  1  0.02725226  0.16878085  0.95050566  1
  O  O18  1  0.07114707  0.49679518  0.51895898  1
  O  O19  1  0.16649567  0.07113789  0.65683033  1
  O  O20  1  0.24438158  0.08250917  0.41601122  1
  O  O21  1  0.25561842  0.58250917  0.91601122  1
  O  O22  1  0.33350433  0.57113789  0.15683033  1
  O  O23  1  0.42885293  0.99679518  0.01895898  1
  O  O24  1  0.47274774  0.66878085  0.45050566  1
  O  O25  1  0.46160645  0.59541490  0.69356177  1
  O  O26  1  0.53839355  0.09541490  0.30643823  1
  O  O27  1  0.52725226  0.16878085  0.54949434  1
  O  O28  1  0.57114707  0.49679518  0.98104102  1
  O  O29  1  0.66649567  0.07113789  0.84316967  1
  O  O30  1  0.74438158  0.08250917  0.08398878  1
  O  O31  1  0.75561842  0.58250917  0.58398878  1
  O  O32  1  0.83350433  0.57113789  0.34316967  1
  O  O33  1  0.92885293  0.99679518  0.48104102  1
  O  O34  1  0.97274774  0.66878085  0.04949434  1
  O  O35  1  0.96160645  0.59541490  0.80643823  1
