# generated using pymatgen
data_Li24Ti7Cr5O36
_symmetry_space_group_name_H-M   'P 1'
_cell_length_a   5.05806005
_cell_length_b   13.44988311
_cell_length_c   9.79891306
_cell_angle_alpha   97.14326759
_cell_angle_beta   94.61965030
_cell_angle_gamma   100.58667477
_symmetry_Int_Tables_number   1
_chemical_formula_structural   Li24Ti7Cr5O36
_chemical_formula_sum   'Li24 Ti7 Cr5 O36'
_cell_volume   646.52684133
_cell_formula_units_Z   1
loop_
 _symmetry_equiv_pos_site_id
 _symmetry_equiv_pos_as_xyz
  1  'x, y, z'
loop_
 _atom_site_type_symbol
 _atom_site_label
 _atom_site_symmetry_multiplicity
 _atom_site_fract_x
 _atom_site_fract_y
 _atom_site_fract_z
 _atom_site_occupancy
  Li  Li0  1  0.84221092  0.16464516  0.99971563  1
  Li  Li1  1  0.94734406  0.38757878  0.99989279  1
  Li  Li2  1  0.99949801  0.74850604  0.25061380  1
  Li  Li3  1  0.66796093  0.08408410  0.24953129  1
  Li  Li4  1  0.95587063  0.88811766  0.50142006  1
  Li  Li5  1  0.61625559  0.22145897  0.50034063  1
  Li  Li6  1  0.83445785  0.66618147  0.50016685  1
  Li  Li7  1  0.50477908  0.00019493  0.49947507  1
  Li  Li8  1  0.71249242  0.44717289  0.50075894  1
  Li  Li9  1  0.66975587  0.58368177  0.75045299  1
  Li  Li10  1  0.50918156  0.49827870  0.99892799  1
  Li  Li11  1  0.71022138  0.94603783  0.99798373  1
  Li  Li12  1  0.37891350  0.28130924  0.99992239  1
  Li  Li13  1  0.62098875  0.72037276  0.99803089  1
  Li  Li14  1  0.28525865  0.05549102  0.00121440  1
  Li  Li15  1  0.33495763  0.41594287  0.24984846  1
  Li  Li16  1  0.28051899  0.55264234  0.49902915  1
  Li  Li17  1  0.17715174  0.33114658  0.50037999  1
  Li  Li18  1  0.37987000  0.77885477  0.49937707  1
  Li  Li19  1  0.04232982  0.11320518  0.49953230  1
  Li  Li20  1  0.33328292  0.91692808  0.75026774  1
  Li  Li21  1  0.16445607  0.83238061  0.00097327  1
  Li  Li22  1  0.99921557  0.24874885  0.74942320  1
  Li  Li23  1  0.04499175  0.61316209  0.00190733  1
  Ti  Ti24  1  0.77464100  0.30667006  0.25007963  1
  Ti  Ti25  1  0.43465464  0.13908612  0.74390705  1
  Ti  Ti26  1  0.55283090  0.86069665  0.25051411  1
  Ti  Ti27  1  0.44543403  0.63897668  0.25305349  1
  Ti  Ti28  1  0.22539973  0.69437867  0.75138526  1
  Ti  Ti29  1  0.11305044  0.47285555  0.75369298  1
  Ti  Ti30  1  0.10425435  0.97336081  0.24626662  1
  Cr  Cr31  1  0.87987033  0.02633185  0.74938196  1
  Cr  Cr32  1  0.89343590  0.52633383  0.24956459  1
  Cr  Cr33  1  0.78400615  0.80786368  0.75163224  1
  Cr  Cr34  1  0.56149824  0.35974087  0.74981225  1
  Cr  Cr35  1  0.22596738  0.19404325  0.25043836  1
  O  O36  1  0.99418152  0.07077326  0.13620719  1
  O  O37  1  0.93340596  0.21445570  0.36346693  1
  O  O38  1  0.00312773  0.57146008  0.63667479  1
  O  O39  1  0.84798688  0.35557976  0.63778117  1
  O  O40  1  0.73359959  0.11916636  0.63351953  1
  O  O41  1  0.66355047  0.40358979  0.13658874  1
  O  O42  1  0.93279282  0.71478623  0.86659785  1
  O  O43  1  0.81210627  0.47733746  0.86337915  1
  O  O44  1  0.60404794  0.04821206  0.86505058  1
  O  O45  1  0.85861763  0.85704873  0.13659776  1
  O  O46  1  0.73939343  0.61682460  0.13640067  1
  O  O47  1  0.51503104  0.18960856  0.13715428  1
  O  O48  1  0.66489514  0.26484413  0.86217072  1
  O  O49  1  0.80943720  0.97724164  0.36354125  1
  O  O50  1  0.59859968  0.54652538  0.36405100  1
  O  O51  1  0.47881921  0.31108940  0.36394417  1
  O  O52  1  0.66778827  0.76176134  0.36379862  1
  O  O53  1  0.33525329  0.09901419  0.36153467  1
  O  O54  1  0.66815829  0.90916026  0.63930289  1
  O  O55  1  0.32698347  0.23691631  0.63568810  1
  O  O56  1  0.52817113  0.69265751  0.63853510  1
  O  O57  1  0.40554607  0.45036118  0.63638818  1
  O  O58  1  0.18630216  0.02248664  0.63760945  1
  O  O59  1  0.33324028  0.73753549  0.13652164  1
  O  O60  1  0.48083059  0.81143806  0.86145472  1
  O  O61  1  0.26481131  0.37986164  0.86382758  1
  O  O62  1  0.13853728  0.14078980  0.86185436  1
  O  O63  1  0.40369188  0.95205924  0.13375093  1
  O  O64  1  0.18214372  0.52199995  0.13821704  1
  O  O65  1  0.07255964  0.28400582  0.13595602  1
  O  O66  1  0.33475581  0.59545461  0.86523218  1
  O  O67  1  0.26536111  0.88280509  0.36634425  1
  O  O68  1  0.14548425  0.64393579  0.36368112  1
  O  O69  1  0.00094517  0.43137371  0.36266335  1
  O  O70  1  0.06403585  0.78644292  0.63510003  1
  O  O71  1  0.99880015  0.92493461  0.86049548  1
