# generated using pymatgen
data_Li24Ti7Cr5O36
_symmetry_space_group_name_H-M   'P 1'
_cell_length_a   5.05812983
_cell_length_b   13.47155766
_cell_length_c   9.81175310
_cell_angle_alpha   97.47881778
_cell_angle_beta   94.48824815
_cell_angle_gamma   100.95919767
_symmetry_Int_Tables_number   1
_chemical_formula_structural   Li24Ti7Cr5O36
_chemical_formula_sum   'Li24 Ti7 Cr5 O36'
_cell_volume   647.15108965
_cell_formula_units_Z   1
loop_
 _symmetry_equiv_pos_site_id
 _symmetry_equiv_pos_as_xyz
  1  'x, y, z'
loop_
 _atom_site_type_symbol
 _atom_site_label
 _atom_site_symmetry_multiplicity
 _atom_site_fract_x
 _atom_site_fract_y
 _atom_site_fract_z
 _atom_site_occupancy
  Li  Li0  1  0.83328078  0.16691536  0.99961575  1
  Li  Li1  1  0.95768891  0.38872067  0.99988980  1
  Li  Li2  1  0.00048725  0.74896706  0.24992917  1
  Li  Li3  1  0.66539349  0.08394869  0.25063058  1
  Li  Li4  1  0.95327646  0.88708517  0.49971959  1
  Li  Li5  1  0.61205181  0.21906456  0.49938572  1
  Li  Li6  1  0.83754073  0.66658862  0.49799086  1
  Li  Li7  1  0.49918759  0.00051395  0.50138948  1
  Li  Li8  1  0.71513473  0.44640932  0.49882741  1
  Li  Li9  1  0.66668003  0.58301894  0.75002937  1
  Li  Li10  1  0.50196512  0.49820009  0.00099568  1
  Li  Li11  1  0.71225251  0.94663422  0.00002182  1
  Li  Li12  1  0.37543120  0.27837851  0.99969991  1
  Li  Li13  1  0.61719491  0.72105762  0.99966102  1
  Li  Li14  1  0.28786452  0.05446401  0.99879374  1
  Li  Li15  1  0.33321597  0.41577445  0.24968453  1
  Li  Li16  1  0.28394537  0.55400354  0.50126522  1
  Li  Li17  1  0.16672880  0.33254806  0.50141986  1
  Li  Li18  1  0.37845967  0.77991881  0.50206155  1
  Li  Li19  1  0.05472618  0.11407942  0.50036635  1
  Li  Li20  1  0.33234330  0.91643812  0.75001657  1
  Li  Li21  1  0.16813642  0.83312095  0.99885670  1
  Li  Li22  1  0.00350334  0.25146688  0.74992059  1
  Li  Li23  1  0.04631958  0.61224292  0.00005818  1
  Ti  Ti24  1  0.89250378  0.02778356  0.75348198  1
  Ti  Ti25  1  0.77088856  0.30611542  0.24413773  1
  Ti  Ti26  1  0.77248938  0.80514801  0.74648805  1
  Ti  Ti27  1  0.55519487  0.36022206  0.74937586  1
  Ti  Ti28  1  0.55819507  0.86018719  0.24831891  1
  Ti  Ti29  1  0.44629224  0.63885803  0.25312224  1
  Ti  Ti30  1  0.11613122  0.97399297  0.25375238  1
  Cr  Cr31  1  0.89427126  0.52662449  0.24995503  1
  Cr  Cr32  1  0.44914605  0.14014790  0.74965288  1
  Cr  Cr33  1  0.21602493  0.19406899  0.25041226  1
  Cr  Cr34  1  0.21413045  0.69228486  0.74884654  1
  Cr  Cr35  1  0.11724319  0.47410747  0.75226034  1
  O  O36  1  0.00176634  0.07510747  0.13847012  1
  O  O37  1  0.93798748  0.21528362  0.36446078  1
  O  O38  1  0.00018147  0.57483317  0.63946392  1
  O  O39  1  0.86099022  0.35895755  0.63759214  1
  O  O40  1  0.72962757  0.11961335  0.63609299  1
  O  O41  1  0.66308754  0.40366807  0.13576076  1
  O  O42  1  0.93583650  0.71377342  0.86476190  1
  O  O43  1  0.81472050  0.47732390  0.86139713  1
  O  O44  1  0.59796898  0.04776767  0.86612263  1
  O  O45  1  0.85628804  0.85680841  0.13589553  1
  O  O46  1  0.73938853  0.61630960  0.13606440  1
  O  O47  1  0.51911276  0.18969443  0.13816976  1
  O  O48  1  0.66533532  0.25945773  0.86212679  1
  O  O49  1  0.80964416  0.97739574  0.36362957  1
  O  O50  1  0.59824744  0.54688145  0.36437713  1
  O  O51  1  0.47304171  0.30902872  0.36250478  1
  O  O52  1  0.66751675  0.76229373  0.36393166  1
  O  O53  1  0.33869494  0.09523155  0.36298679  1
  O  O54  1  0.66691536  0.90437538  0.63576505  1
  O  O55  1  0.33118783  0.23899799  0.63656579  1
  O  O56  1  0.51864868  0.68826110  0.63821197  1
  O  O57  1  0.39660308  0.45235232  0.63479161  1
  O  O58  1  0.19411163  0.02487176  0.63817390  1
  O  O59  1  0.33281063  0.73640743  0.13646264  1
  O  O60  1  0.47174810  0.80736255  0.86157431  1
  O  O61  1  0.26612547  0.38134979  0.86681282  1
  O  O62  1  0.14800643  0.14449826  0.86152910  1
  O  O63  1  0.40422068  0.95149035  0.13390026  1
  O  O64  1  0.18317376  0.52198639  0.13762177  1
  O  O65  1  0.06842449  0.28604058  0.13391110  1
  O  O66  1  0.33324809  0.59144459  0.86118536  1
  O  O67  1  0.26151197  0.88222956  0.36572774  1
  O  O68  1  0.14405185  0.64364084  0.36340580  1
  O  O69  1  0.99856594  0.43180749  0.36234176  1
  O  O70  1  0.06766398  0.78529723  0.63388596  1
  O  O71  1  0.99822613  0.92905490  0.86428761  1
