# generated using pymatgen
data_Li7MgNi7O16
_symmetry_space_group_name_H-M   'P 1'
_cell_length_a   5.02092765
_cell_length_b   5.74454615
_cell_length_c   9.93904454
_cell_angle_alpha   72.11645294
_cell_angle_beta   100.82303318
_cell_angle_gamma   90.07699414
_symmetry_Int_Tables_number   1
_chemical_formula_structural   Li7MgNi7O16
_chemical_formula_sum   'Li7 Mg1 Ni7 O16'
_cell_volume   267.48037961
_cell_formula_units_Z   1
loop_
 _symmetry_equiv_pos_site_id
 _symmetry_equiv_pos_as_xyz
  1  'x, y, z'
loop_
 _atom_site_type_symbol
 _atom_site_label
 _atom_site_symmetry_multiplicity
 _atom_site_fract_x
 _atom_site_fract_y
 _atom_site_fract_z
 _atom_site_occupancy
  Li  Li0  1  0.49762202  0.24754711  0.99292234  1
  Li  Li1  1  0.48790164  0.75539869  0.99837372  1
  Li  Li2  1  0.75324854  0.37871025  0.24863002  1
  Li  Li3  1  0.00237798  0.00245289  0.50707766  1
  Li  Li4  1  0.01209836  0.49460131  0.50162628  1
  Li  Li5  1  0.74675146  0.87128975  0.25136998  1
  Li  Li6  1  0.25000000  0.62500000  0.75000000  1
  Mg  Mg7  1  0.25000000  0.12500000  0.25000000  1
  Ni  Ni8  1  0.99653239  0.00400447  0.99911542  1
  Ni  Ni9  1  0.98601777  0.50701383  0.00119697  1
  Ni  Ni10  1  0.25000000  0.62500000  0.25000000  1
  Ni  Ni11  1  0.50346761  0.24599553  0.50088458  1
  Ni  Ni12  1  0.51398223  0.74298617  0.49880303  1
  Ni  Ni13  1  0.75693737  0.37558799  0.75041327  1
  Ni  Ni14  1  0.74306263  0.87441201  0.74958673  1
  O  O15  1  0.33005907  0.45433480  0.12206205  1
  O  O16  1  0.88059034  0.20465791  0.11472170  1
  O  O17  1  0.61940966  0.04534209  0.38527830  1
  O  O18  1  0.16316898  0.32301141  0.37726263  1
  O  O19  1  0.87676492  0.68013421  0.11518337  1
  O  O20  1  0.33683102  0.92698859  0.12273737  1
  O  O21  1  0.62323508  0.56986579  0.38481663  1
  O  O22  1  0.16994093  0.79566520  0.37793795  1
  O  O23  1  0.83412663  0.16731413  0.62524412  1
  O  O24  1  0.41557882  0.45128610  0.61658015  1
  O  O25  1  0.09528543  0.33814100  0.88560011  1
  O  O26  1  0.84912127  0.66901549  0.62572178  1
  O  O27  1  0.66587337  0.08268587  0.87475588  1
  O  O28  1  0.40471457  0.91185900  0.61439989  1
  O  O29  1  0.65087873  0.58098451  0.87427822  1
  O  O30  1  0.08442118  0.79871390  0.88341985  1
