# generated using pymatgen
data_Li4TiCrO6
_symmetry_space_group_name_H-M   'P 1'
_cell_length_a   5.07038045
_cell_length_b   8.78286222
_cell_length_c   9.80636218
_cell_angle_alpha   98.55692674
_cell_angle_beta   94.79277046
_cell_angle_gamma   90.17339631
_symmetry_Int_Tables_number   1
_chemical_formula_structural   Li4TiCrO6
_chemical_formula_sum   'Li16 Ti4 Cr4 O24'
_cell_volume   430.27730791
_cell_formula_units_Z   4
loop_
 _symmetry_equiv_pos_site_id
 _symmetry_equiv_pos_as_xyz
  1  'x, y, z'
loop_
 _atom_site_type_symbol
 _atom_site_label
 _atom_site_symmetry_multiplicity
 _atom_site_fract_x
 _atom_site_fract_y
 _atom_site_fract_z
 _atom_site_occupancy
  Li  Li0  1  0.99223548  0.16926256  0.49713541  1
  Li  Li1  1  0.87351134  0.37526435  0.75014242  1
  Li  Li2  1  0.75364327  0.25130314  0.00044468  1
  Li  Li3  1  0.74276732  0.92046482  0.00024529  1
  Li  Li4  1  0.75236614  0.57787631  0.99858523  1
  Li  Li5  1  0.62263594  0.12572275  0.25133092  1
  Li  Li6  1  0.50712179  0.33155345  0.49977261  1
  Li  Li7  1  0.49642469  0.00139022  0.49994761  1
  Li  Li8  1  0.48959555  0.66870355  0.50074284  1
  Li  Li9  1  0.37410917  0.87305013  0.74965587  1
  Li  Li10  1  0.25588168  0.74848778  0.00005971  1
  Li  Li11  1  0.23907040  0.41899622  0.00113511  1
  Li  Li12  1  0.25814799  0.08196326  0.00145506  1
  Li  Li13  1  0.12430131  0.62375947  0.24956251  1
  Li  Li14  1  0.00676086  0.82952876  0.49877746  1
  Li  Li15  1  0.00913882  0.49774358  0.49850976  1
  Ti  Ti16  1  0.87167896  0.70773120  0.74652804  1
  Ti  Ti17  1  0.88056642  0.04145639  0.74843819  1
  Ti  Ti18  1  0.62230824  0.46131890  0.24727934  1
  Ti  Ti19  1  0.38090175  0.21097393  0.75479376  1
  Cr  Cr20  1  0.62885530  0.79704761  0.25097464  1
  Cr  Cr21  1  0.37026822  0.54031574  0.75017753  1
  Cr  Cr22  1  0.12919641  0.95306234  0.25149394  1
  Cr  Cr23  1  0.12147021  0.28809034  0.24961470  1
  O  O24  1  0.96768338  0.10825344  0.14067999  1
  O  O25  1  0.93353258  0.79122374  0.13754421  1
  O  O26  1  0.92513560  0.42826675  0.13375022  1
  O  O27  1  0.81587033  0.96195389  0.36206809  1
  O  O28  1  0.82987246  0.32172540  0.36437655  1
  O  O29  1  0.78351384  0.64684756  0.36231469  1
  O  O30  1  0.71144435  0.85558689  0.63580566  1
  O  O31  1  0.67365551  0.53254202  0.63843975  1
  O  O32  1  0.67694909  0.17762710  0.63427260  1
  O  O33  1  0.46417773  0.60958681  0.13776592  1
  O  O34  1  0.56917876  0.71317261  0.86177094  1
  O  O35  1  0.57115088  0.07322165  0.86647527  1
  O  O36  1  0.43516881  0.92375333  0.13646408  1
  O  O37  1  0.42490437  0.28334983  0.13824506  1
  O  O38  1  0.54141577  0.39300321  0.86455907  1
  O  O39  1  0.31693901  0.82578426  0.36427226  1
  O  O40  1  0.31907574  0.46247146  0.36212677  1
  O  O41  1  0.28503520  0.13908072  0.36196520  1
  O  O42  1  0.21402522  0.36194140  0.63883483  1
  O  O43  1  0.17447974  0.67893429  0.63361882  1
  O  O44  1  0.17679555  0.03541305  0.63612102  1
  O  O45  1  0.08085140  0.57108601  0.86420148  1
  O  O46  1  0.07093344  0.21628239  0.86379456  1
  O  O47  1  0.03525400  0.89382540  0.86373333  1
