# generated using pymatgen
data_Li24Ti7Cr5O36
_symmetry_space_group_name_H-M   'P 1'
_cell_length_a   5.07264456
_cell_length_b   13.41193628
_cell_length_c   9.79981481
_cell_angle_alpha   97.18828857
_cell_angle_beta   94.84197958
_cell_angle_gamma   100.68346831
_symmetry_Int_Tables_number   1
_chemical_formula_structural   Li24Ti7Cr5O36
_chemical_formula_sum   'Li24 Ti7 Cr5 O36'
_cell_volume   646.04309429
_cell_formula_units_Z   1
loop_
 _symmetry_equiv_pos_site_id
 _symmetry_equiv_pos_as_xyz
  1  'x, y, z'
loop_
 _atom_site_type_symbol
 _atom_site_label
 _atom_site_symmetry_multiplicity
 _atom_site_fract_x
 _atom_site_fract_y
 _atom_site_fract_z
 _atom_site_occupancy
  Li  Li0  1  0.83293516  0.16670792  0.99926220  1
  Li  Li1  1  0.95314881  0.38763856  0.99980559  1
  Li  Li2  1  0.99906591  0.74873150  0.24981144  1
  Li  Li3  1  0.66754100  0.08433408  0.24979459  1
  Li  Li4  1  0.95276689  0.88730151  0.50004645  1
  Li  Li5  1  0.61581311  0.21972875  0.50107774  1
  Li  Li6  1  0.83900891  0.66569771  0.49964249  1
  Li  Li7  1  0.49770802  0.00065425  0.50155519  1
  Li  Li8  1  0.71330116  0.44625869  0.49958748  1
  Li  Li9  1  0.66723710  0.58415668  0.74982558  1
  Li  Li10  1  0.50644691  0.49930955  0.00040534  1
  Li  Li11  1  0.71489299  0.94652772  0.99945474  1
  Li  Li12  1  0.38003437  0.27833686  0.99887626  1
  Li  Li13  1  0.61479186  0.71934002  0.99870289  1
  Li  Li14  1  0.28837791  0.05522083  0.00075283  1
  Li  Li15  1  0.33245100  0.41599401  0.25036073  1
  Li  Li16  1  0.27967206  0.55296717  0.49983608  1
  Li  Li17  1  0.16713491  0.33327622  0.49951950  1
  Li  Li18  1  0.38361547  0.78026430  0.50055357  1
  Li  Li19  1  0.05149380  0.11371297  0.49992845  1
  Li  Li20  1  0.33251019  0.91685749  0.74997749  1
  Li  Li21  1  0.16319404  0.83402834  0.99942725  1
  Li  Li22  1  0.99859583  0.24964337  0.75031986  1
  Li  Li23  1  0.04749924  0.61281617  0.00100616  1
  Ti  Ti24  1  0.88799158  0.02458197  0.74723380  1
  Ti  Ti25  1  0.77888626  0.30593134  0.25322393  1
  Ti  Ti26  1  0.56233386  0.36068247  0.75320314  1
  Ti  Ti27  1  0.55563064  0.86118409  0.25021162  1
  Ti  Ti28  1  0.44341642  0.63860790  0.24893464  1
  Ti  Ti29  1  0.11472378  0.47483097  0.74913141  1
  Ti  Ti30  1  0.10760126  0.97333635  0.24831467  1
  Cr  Cr31  1  0.88722702  0.52595072  0.25000512  1
  Cr  Cr32  1  0.77418329  0.80189435  0.74945483  1
  Cr  Cr33  1  0.43987394  0.13910239  0.75054651  1
  Cr  Cr34  1  0.22582107  0.19390744  0.24959628  1
  Cr  Cr35  1  0.22492799  0.69845255  0.75034946  1
  O  O36  1  0.99587564  0.07146548  0.13633747  1
  O  O37  1  0.93461696  0.21395576  0.36443489  1
  O  O38  1  0.00078039  0.57416049  0.63841528  1
  O  O39  1  0.85631130  0.35702030  0.63607716  1
  O  O40  1  0.73240580  0.11876973  0.63653641  1
  O  O41  1  0.66738333  0.40623166  0.13768748  1
  O  O42  1  0.92376072  0.71761350  0.86403483  1
  O  O43  1  0.80921675  0.47747889  0.86393587  1
  O  O44  1  0.59382136  0.04881665  0.86398898  1
  O  O45  1  0.85653385  0.85696853  0.13628035  1
  O  O46  1  0.73516040  0.61877502  0.13425441  1
  O  O47  1  0.51541812  0.18930066  0.13772942  1
  O  O48  1  0.67307248  0.26320936  0.86442873  1
  O  O49  1  0.81020451  0.97769495  0.36368597  1
  O  O50  1  0.60480315  0.54697179  0.36436930  1
  O  O51  1  0.47737217  0.31069073  0.36321565  1
  O  O52  1  0.66776311  0.76183303  0.36402855  1
  O  O53  1  0.33659433  0.09803155  0.36184063  1
  O  O54  1  0.66568365  0.90193669  0.63709085  1
  O  O55  1  0.33055221  0.23418175  0.63844818  1
  O  O56  1  0.53170387  0.69242234  0.63778162  1
  O  O57  1  0.40228126  0.45148650  0.63363800  1
  O  O58  1  0.18656812  0.02126346  0.63534741  1
  O  O59  1  0.33143041  0.73754669  0.13606689  1
  O  O60  1  0.46758706  0.80765612  0.86172482  1
  O  O61  1  0.26387502  0.38252566  0.86609599  1
  O  O62  1  0.15230660  0.14360456  0.86211843  1
  O  O63  1  0.40346398  0.95211339  0.13368796  1
  O  O64  1  0.18360799  0.52213263  0.13866313  1
  O  O65  1  0.07177910  0.28454542  0.13554199  1
  O  O66  1  0.33503882  0.59803377  0.86210538  1
  O  O67  1  0.26420390  0.88250713  0.36589365  1
  O  O68  1  0.14202230  0.64251082  0.36265157  1
  O  O69  1  0.00242518  0.42846003  0.36393552  1
  O  O70  1  0.07603308  0.78318155  0.63559446  1
  O  O71  1  0.99648840  0.92693823  0.86259449  1
