# generated using pymatgen
data_NaMnAsCO7
_symmetry_space_group_name_H-M   'P 1'
_cell_length_a   9.28753219
_cell_length_b   6.43960271
_cell_length_c   5.39854278
_cell_angle_alpha   90.00000000
_cell_angle_beta   87.06733612
_cell_angle_gamma   90.00000000
_symmetry_Int_Tables_number   1
_chemical_formula_structural   NaMnAsCO7
_chemical_formula_sum   'Na2 Mn2 As2 C2 O14'
_cell_volume   322.45328668
_cell_formula_units_Z   2
loop_
 _symmetry_equiv_pos_site_id
 _symmetry_equiv_pos_as_xyz
  1  'x, y, z'
loop_
 _atom_site_type_symbol
 _atom_site_label
 _atom_site_symmetry_multiplicity
 _atom_site_fract_x
 _atom_site_fract_y
 _atom_site_fract_z
 _atom_site_occupancy
  Na  Na0  1  0.22530650  0.48050147  0.23486062  1
  Na  Na1  1  0.77469350  0.98050147  0.76513938  1
  Mn  Mn2  1  0.33769684  0.75810393  0.78762567  1
  Mn  Mn3  1  0.66230316  0.25810393  0.21237433  1
  As  As4  1  0.43571778  0.25218236  0.71952067  1
  As  As5  1  0.56428222  0.75218236  0.28047933  1
  C  C6  1  0.08118728  0.74622519  0.72424290  1
  C  C7  1  0.91881272  0.24622519  0.27575710  1
  O  O8  1  0.04877182  0.24835559  0.30878875  1
  O  O9  1  0.13913956  0.74853171  0.94276319  1
  O  O10  1  0.18417921  0.74358302  0.54404929  1
  O  O11  1  0.31824983  0.05309829  0.79187038  1
  O  O12  1  0.32366753  0.45589244  0.80214748  1
  O  O13  1  0.40832656  0.74394487  0.12699560  1
  O  O14  1  0.47819996  0.26743312  0.40399016  1
  O  O15  1  0.52180004  0.76743312  0.59600984  1
  O  O16  1  0.59167344  0.24394487  0.87300440  1
  O  O17  1  0.67633247  0.95589244  0.19785252  1
  O  O18  1  0.68175017  0.55309829  0.20812962  1
  O  O19  1  0.81582079  0.24358302  0.45595071  1
  O  O20  1  0.86086044  0.24853171  0.05723681  1
  O  O21  1  0.95122818  0.74835559  0.69121125  1
