# generated using pymatgen
data_Na5LiNi2P2(CO7)2
_symmetry_space_group_name_H-M   'P 1'
_cell_length_a   8.77295396
_cell_length_b   5.19011074
_cell_length_c   6.61625364
_cell_angle_alpha   90.11329720
_cell_angle_beta   89.47198885
_cell_angle_gamma   88.05753933
_symmetry_Int_Tables_number   1
_chemical_formula_structural   Na5LiNi2P2(CO7)2
_chemical_formula_sum   'Na5 Li1 Ni2 P2 C2 O14'
_cell_volume   301.06856238
_cell_formula_units_Z   1
loop_
 _symmetry_equiv_pos_site_id
 _symmetry_equiv_pos_as_xyz
  1  'x, y, z'
loop_
 _atom_site_type_symbol
 _atom_site_label
 _atom_site_symmetry_multiplicity
 _atom_site_fract_x
 _atom_site_fract_y
 _atom_site_fract_z
 _atom_site_occupancy
  Na  Na0  1  0.08549392  0.77591317  0.24782881  1
  Na  Na1  1  0.27409809  0.25771134  0.49017570  1
  Na  Na2  1  0.72626382  0.74194069  0.50900966  1
  Na  Na3  1  0.72661349  0.74097289  0.99074379  1
  Na  Na4  1  0.91574791  0.22312201  0.75091247  1
  Li  Li5  1  0.28131076  0.25393734  0.00516128  1
  Ni  Ni6  1  0.34393831  0.78117691  0.75315187  1
  Ni  Ni7  1  0.65437626  0.22029053  0.24970127  1
  P  P8  1  0.41552284  0.72097464  0.24782136  1
  P  P9  1  0.58034566  0.28265063  0.75401366  1
  C  C10  1  0.06095690  0.70726754  0.75255238  1
  C  C11  1  0.94254648  0.28878983  0.24575208  1
  O  O12  1  0.08823869  0.31700321  0.23826697  1
  O  O13  1  0.11679201  0.93610045  0.74965394  1
  O  O14  1  0.15746481  0.50968193  0.75848607  1
  O  O15  1  0.31638229  0.80750344  0.06484686  1
  O  O16  1  0.31684528  0.79087992  0.43808775  1
  O  O17  1  0.42521688  0.14930069  0.76404404  1
  O  O18  1  0.44629484  0.42165459  0.23834645  1
  O  O19  1  0.54887427  0.58029413  0.75134051  1
  O  O20  1  0.56927870  0.85642024  0.25041961  1
  O  O21  1  0.67743592  0.20320370  0.56433791  1
  O  O22  1  0.68310781  0.20788963  0.93674979  1
  O  O23  1  0.84683631  0.48713283  0.24989545  1
  O  O24  1  0.88421678  0.06138944  0.24963054  1
  O  O25  1  0.91579996  0.67679829  0.74907077  1
