# generated using pymatgen
data_Gd3NbO7
_symmetry_space_group_name_H-M   'P 1'
_cell_length_a   7.58103193
_cell_length_b   10.76848685
_cell_length_c   7.56820901
_cell_angle_alpha   90.07348099
_cell_angle_beta   89.99909570
_cell_angle_gamma   89.99906700
_symmetry_Int_Tables_number   1
_chemical_formula_structural   Gd3NbO7
_chemical_formula_sum   'Gd12 Nb4 O28'
_cell_volume   617.83963911
_cell_formula_units_Z   4
loop_
 _symmetry_equiv_pos_site_id
 _symmetry_equiv_pos_as_xyz
  1  'x, y, z'
loop_
 _atom_site_type_symbol
 _atom_site_label
 _atom_site_symmetry_multiplicity
 _atom_site_fract_x
 _atom_site_fract_y
 _atom_site_fract_z
 _atom_site_occupancy
  Gd  Gd0  1  0.01043363  0.24990067  0.79134610  1
  Gd  Gd1  1  0.24898156  0.52143497  0.96217182  1
  Gd  Gd2  1  0.24888915  0.97853829  0.96210668  1
  Gd  Gd3  1  0.25102201  0.02143510  0.46218377  1
  Gd  Gd4  1  0.25111387  0.47853373  0.46210034  1
  Gd  Gd5  1  0.48956719  0.74995352  0.29130344  1
  Gd  Gd6  1  0.51043333  0.25004608  0.70870793  1
  Gd  Gd7  1  0.74888278  0.52146942  0.53790311  1
  Gd  Gd8  1  0.74898347  0.97856426  0.53781869  1
  Gd  Gd9  1  0.75110637  0.02146066  0.03788656  1
  Gd  Gd10  1  0.75101617  0.47856305  0.03782981  1
  Gd  Gd11  1  0.98955799  0.75010102  0.20866059  1
  Nb  Nb12  1  0.99742572  0.74999602  0.74340134  1
  Nb  Nb13  1  0.50260709  0.24991056  0.24346722  1
  Nb  Nb14  1  0.49739119  0.75009140  0.75653707  1
  Nb  Nb15  1  0.00257893  0.25000090  0.25660638  1
  O  O16  1  0.03497920  0.12485323  0.04774023  1
  O  O17  1  0.03495451  0.37490565  0.04743472  1
  O  O18  1  0.04085859  0.61406674  0.58103420  1
  O  O19  1  0.04083293  0.88577847  0.58076841  1
  O  O20  1  0.24863062  0.25013287  0.33074892  1
  O  O21  1  0.25344353  0.11707622  0.72972610  1
  O  O22  1  0.25339606  0.38280980  0.72917913  1
  O  O23  1  0.24656042  0.61712306  0.22968237  1
  O  O24  1  0.24661803  0.88285869  0.22913678  1
  O  O25  1  0.25137672  0.75020824  0.83081147  1
  O  O26  1  0.45917669  0.11404265  0.08103885  1
  O  O27  1  0.45916871  0.38578978  0.08076625  1
  O  O28  1  0.46499582  0.62488308  0.54774924  1
  O  O29  1  0.46504293  0.87491019  0.54742506  1
  O  O30  1  0.53495909  0.12509421  0.45258522  1
  O  O31  1  0.53499143  0.37512223  0.45225854  1
  O  O32  1  0.54083785  0.61420309  0.91922447  1
  O  O33  1  0.54085035  0.88595770  0.91895007  1
  O  O34  1  0.74862392  0.24980212  0.16920241  1
  O  O35  1  0.75340300  0.11713014  0.77087020  1
  O  O36  1  0.75346753  0.38286387  0.77032055  1
  O  O37  1  0.74657722  0.61719386  0.27081721  1
  O  O38  1  0.74652552  0.88294214  0.27026389  1
  O  O39  1  0.75137276  0.74986009  0.66923683  1
  O  O40  1  0.95916709  0.11422036  0.41922754  1
  O  O41  1  0.95915293  0.38593945  0.41895386  1
  O  O42  1  0.96504733  0.62508886  0.95256190  1
  O  O43  1  0.96499877  0.87514357  0.95225473  1
