# generated using pymatgen
data_Li7Ca8Nb12O40
_symmetry_space_group_name_H-M   'P 1'
_cell_length_a   5.58942439
_cell_length_b   5.58920210
_cell_length_c   26.75144950
_cell_angle_alpha   89.98388550
_cell_angle_beta   90.31825749
_cell_angle_gamma   90.04509379
_symmetry_Int_Tables_number   1
_chemical_formula_structural   Li7Ca8Nb12O40
_chemical_formula_sum   'Li7 Ca8 Nb12 O40'
_cell_volume   835.71340258
_cell_formula_units_Z   1
loop_
 _symmetry_equiv_pos_site_id
 _symmetry_equiv_pos_as_xyz
  1  'x, y, z'
loop_
 _atom_site_type_symbol
 _atom_site_label
 _atom_site_symmetry_multiplicity
 _atom_site_fract_x
 _atom_site_fract_y
 _atom_site_fract_z
 _atom_site_occupancy
  Li  Li0  1  0.24796993  0.74497222  0.75077866  1
  Li  Li1  1  0.25211365  0.24253675  0.73932392  1
  Li  Li2  1  0.25148486  0.25719287  0.24050345  1
  Li  Li3  1  0.74968407  0.24552990  0.75069941  1
  Li  Li4  1  0.74882869  0.74442019  0.76014221  1
  Li  Li5  1  0.74643412  0.75758983  0.25996406  1
  Li  Li6  1  0.75136690  0.25530349  0.24931540  1
  Ca  Ca7  1  0.01043419  0.00884329  0.58231504  1
  Ca  Ca8  1  0.00865062  0.49166819  0.08405611  1
  Ca  Ca9  1  0.48994364  0.48835978  0.57850871  1
  Ca  Ca10  1  0.51012647  0.98851873  0.92160536  1
  Ca  Ca11  1  0.49000099  0.01284833  0.08047488  1
  Ca  Ca12  1  0.51134614  0.51171124  0.41949921  1
  Ca  Ca13  1  0.98958578  0.50895060  0.91765590  1
  Ca  Ca14  1  0.99002349  0.99270310  0.41602619  1
  Nb  Nb15  1  0.00528345  0.99928808  0.84624160  1
  Nb  Nb16  1  0.99954887  0.50052053  0.49978444  1
  Nb  Nb17  1  0.00627657  0.50023718  0.34467292  1
  Nb  Nb18  1  0.00045758  0.00050754  0.00025497  1
  Nb  Nb19  1  0.49785718  0.49180735  0.84625046  1
  Nb  Nb20  1  0.49676901  0.00980921  0.34474808  1
  Nb  Nb21  1  0.50047622  0.99958674  0.49977524  1
  Nb  Nb22  1  0.50224269  0.99130217  0.65381452  1
  Nb  Nb23  1  0.49943590  0.49956306  0.00024415  1
  Nb  Nb24  1  0.50299461  0.50964111  0.15528863  1
  Nb  Nb25  1  0.99477464  0.49886697  0.65388406  1
  Nb  Nb26  1  0.99388606  0.99964732  0.15533390  1
  O  O27  1  0.03036572  0.02388748  0.77568478  1
  O  O28  1  0.01556639  0.45232737  0.27666477  1
  O  O29  1  0.05019023  0.43764568  0.57297463  1
  O  O30  1  0.05086163  0.06347484  0.07122216  1
  O  O31  1  0.19568666  0.30394787  0.98324516  1
  O  O32  1  0.19438663  0.19474579  0.48487901  1
  O  O33  1  0.24651962  0.74568651  0.64026592  1
  O  O34  1  0.25100040  0.74356397  0.85952360  1
  O  O35  1  0.24923003  0.24569680  0.65963899  1
  O  O36  1  0.25371382  0.24385008  0.86935448  1
  O  O37  1  0.24667350  0.75402850  0.13886827  1
  O  O38  1  0.25153230  0.75607621  0.36119379  1
  O  O39  1  0.24936586  0.25387658  0.15851064  1
  O  O40  1  0.25333668  0.25615938  0.36954890  1
  O  O41  1  0.31060970  0.68884772  0.50079820  1
  O  O42  1  0.31085155  0.81029343  0.99899629  1
  O  O43  1  0.43899635  0.04825429  0.57296020  1
  O  O44  1  0.43822072  0.44998270  0.07118059  1
  O  O45  1  0.47142279  0.46488909  0.77568413  1
  O  O46  1  0.48662417  0.05775775  0.27666121  1
  O  O47  1  0.52789294  0.96577349  0.72443324  1
  O  O48  1  0.55160395  0.52093939  0.22337514  1
  O  O49  1  0.56148313  0.54846243  0.92703096  1
  O  O50  1  0.56218088  0.95133528  0.42877556  1
  O  O51  1  0.68876172  0.31065096  0.50099612  1
  O  O52  1  0.68976119  0.18915656  0.99916846  1
  O  O53  1  0.74653951  0.74378829  0.63090549  1
  O  O54  1  0.75050251  0.74631386  0.84032735  1
  O  O55  1  0.74871278  0.24358743  0.64023823  1
  O  O56  1  0.75383614  0.24635428  0.85941281  1
  O  O57  1  0.74640918  0.75603869  0.13034111  1
  O  O58  1  0.75072855  0.75433436  0.34159210  1
  O  O59  1  0.74855341  0.25604079  0.13815989  1
  O  O60  1  0.75310832  0.25469591  0.36206806  1
  O  O61  1  0.80451837  0.80412551  0.51659815  1
  O  O62  1  0.80539628  0.69497433  0.01523642  1
  O  O63  1  0.94946561  0.93757996  0.92702069  1
  O  O64  1  0.94846623  0.56267211  0.42877897  1
  O  O65  1  0.96978971  0.52412188  0.72440655  1
  O  O66  1  0.94673353  0.98973765  0.22333148  1
