# generated using pymatgen
data_Rb3GaBr6
_symmetry_space_group_name_H-M   'P 1'
_cell_length_a   8.21934057
_cell_length_b   8.21934098
_cell_length_c   8.21934096
_cell_angle_alpha   59.99999869
_cell_angle_beta   59.99999811
_cell_angle_gamma   59.99999821
_symmetry_Int_Tables_number   1
_chemical_formula_structural   Rb3GaBr6
_chemical_formula_sum   'Rb3 Ga1 Br6'
_cell_volume   392.64127919
_cell_formula_units_Z   1
loop_
 _symmetry_equiv_pos_site_id
 _symmetry_equiv_pos_as_xyz
  1  'x, y, z'
loop_
 _atom_site_type_symbol
 _atom_site_label
 _atom_site_symmetry_multiplicity
 _atom_site_fract_x
 _atom_site_fract_y
 _atom_site_fract_z
 _atom_site_occupancy
  Rb  Rb0  1  0.25000000  0.25000000  0.25000000  1
  Rb  Rb1  1  0.75000000  0.75000000  0.75000000  1
  Rb  Rb2  1  0.50000000  0.50000000  0.50000000  1
  Ga  Ga3  1  -0.00000000  0.00000000  -0.00000000  1
  Br  Br4  1  0.22100587  0.77899413  0.22100587  1
  Br  Br5  1  0.77899413  0.77899413  0.22100587  1
  Br  Br6  1  0.77899413  0.22100587  0.77899413  1
  Br  Br7  1  0.77899413  0.22100587  0.22100587  1
  Br  Br8  1  0.22100587  0.77899413  0.77899413  1
  Br  Br9  1  0.22100587  0.22100587  0.77899413  1
