# generated using pymatgen
data_Li3MnFe3O8
_symmetry_space_group_name_H-M   'P 1'
_cell_length_a   10.39892074
_cell_length_b   10.39896131
_cell_length_c   14.72369146
_cell_angle_alpha   19.27860354
_cell_angle_beta   19.27857481
_cell_angle_gamma   33.22916843
_symmetry_Int_Tables_number   1
_chemical_formula_structural   Li3MnFe3O8
_chemical_formula_sum   'Li3 Mn1 Fe3 O8'
_cell_volume   150.30280665
_cell_formula_units_Z   1
loop_
 _symmetry_equiv_pos_site_id
 _symmetry_equiv_pos_as_xyz
  1  'x, y, z'
loop_
 _atom_site_type_symbol
 _atom_site_label
 _atom_site_symmetry_multiplicity
 _atom_site_fract_x
 _atom_site_fract_y
 _atom_site_fract_z
 _atom_site_occupancy
  Li  Li0  1  -0.00000035  0.49999979  0.50000034  1
  Li  Li1  1  0.49999870  -0.00000012  0.50000069  1
  Li  Li2  1  0.50000121  0.50000153  0.49999791  1
  Mn  Mn3  1  0.00000294  -0.00000849  0.00000493  1
  Fe  Fe4  1  0.99999917  0.50000373  0.99999548  1
  Fe  Fe5  1  0.50000073  -0.00000314  0.00000114  1
  Fe  Fe6  1  0.49999905  0.50000192  -0.00000021  1
  O  O7  1  0.99999647  0.99999642  0.25808605  1
  O  O8  1  0.99998733  0.52718756  0.24283642  1
  O  O9  1  0.52717912  0.99999103  0.24284094  1
  O  O10  1  0.00000265  0.00000449  0.74191320  1
  O  O11  1  0.47282587  0.47282826  0.29718641  1
  O  O12  1  0.00001266  0.47281550  0.75716126  1
  O  O13  1  0.47282293  0.00001269  0.75715603  1
  O  O14  1  0.52717052  0.52716983  0.70281741  1
