# generated using pymatgen
data_In2WO6
_symmetry_space_group_name_H-M   'P 1'
_cell_length_a   9.07141881
_cell_length_b   20.89367076
_cell_length_c   4.90405946
_cell_angle_alpha   90.00035768
_cell_angle_beta   89.99974563
_cell_angle_gamma   90.00034605
_symmetry_Int_Tables_number   1
_chemical_formula_structural   In2WO6
_chemical_formula_sum   'In16 W8 O48'
_cell_volume   929.49207661
_cell_formula_units_Z   8
loop_
 _symmetry_equiv_pos_site_id
 _symmetry_equiv_pos_as_xyz
  1  'x, y, z'
loop_
 _atom_site_type_symbol
 _atom_site_label
 _atom_site_symmetry_multiplicity
 _atom_site_fract_x
 _atom_site_fract_y
 _atom_site_fract_z
 _atom_site_occupancy
  In  In0  1  0.13132803  0.43840129  0.48382904  1
  In  In1  1  0.13929089  0.67124582  0.48474941  1
  In  In2  1  0.20582852  0.93327691  0.51374515  1
  In  In3  1  0.19336260  0.19980635  0.50030339  1
  In  In4  1  0.30665105  0.80018799  0.00030851  1
  In  In5  1  0.29416443  0.06671450  0.01376662  1
  In  In6  1  0.36071417  0.32875657  0.98474918  1
  In  In7  1  0.36866161  0.56160695  0.98383313  1
  In  In8  1  0.63132872  0.06160413  0.51617209  1
  In  In9  1  0.63928187  0.82875343  0.51524728  1
  In  In10  1  0.70582579  0.56672028  0.48624768  1
  In  In11  1  0.69336768  0.30019169  0.49970086  1
  In  In12  1  0.80665583  0.69980870  0.99968893  1
  In  In13  1  0.79417547  0.43327083  0.98624253  1
  In  In14  1  0.86070862  0.17124588  0.01525200  1
  In  In15  1  0.86866732  0.93839695  0.01616512  1
  W  W16  1  0.00415907  0.56053036  0.97825319  1
  W  W17  1  0.00889697  0.31131362  0.98583618  1
  W  W18  1  0.49106911  0.68868617  0.48584511  1
  W  W19  1  0.49584467  0.43948590  0.47825024  1
  W  W20  1  0.50414532  0.93947376  0.02174500  1
  W  W21  1  0.50892783  0.18868185  0.01415483  1
  W  W22  1  0.99110810  0.81130667  0.51417708  1
  W  W23  1  0.99584349  0.06051891  0.52176009  1
  O  O24  1  0.01928361  0.23489602  0.21680847  1
  O  O25  1  0.02180100  0.13848457  0.73602886  1
  O  O26  1  0.01698399  0.88758112  0.74266037  1
  O  O27  1  0.01996339  0.98506593  0.29097345  1
  O  O28  1  0.14493462  0.10702062  0.29731846  1
  O  O29  1  0.14757213  0.01845960  0.74606664  1
  O  O30  1  0.15070032  0.84713357  0.28709086  1
  O  O31  1  0.13351599  0.76392945  0.73265722  1
  O  O32  1  0.15816085  0.35535982  0.20672283  1
  O  O33  1  0.16435208  0.59424121  0.19696561  1
  O  O34  1  0.15826925  0.52542431  0.75323528  1
  O  O35  1  0.17471719  0.28209608  0.76320870  1
  O  O36  1  0.32529611  0.71789964  0.26321481  1
  O  O37  1  0.34173639  0.47456936  0.25325036  1
  O  O38  1  0.33564089  0.40575256  0.69697859  1
  O  O39  1  0.34184271  0.64464528  0.70672248  1
  O  O40  1  0.36646027  0.23607750  0.23268193  1
  O  O41  1  0.34929810  0.15286390  0.78707178  1
  O  O42  1  0.35242608  0.98154504  0.24607622  1
  O  O43  1  0.35505869  0.89298566  0.79733734  1
  O  O44  1  0.48003489  0.01493787  0.79097313  1
  O  O45  1  0.48301360  0.11242590  0.24266273  1
  O  O46  1  0.47820429  0.86152006  0.23601789  1
  O  O47  1  0.48071938  0.76510689  0.71679643  1
  O  O48  1  0.51928866  0.26510696  0.78319776  1
  O  O49  1  0.52179931  0.36151325  0.26397938  1
  O  O50  1  0.51698668  0.61242290  0.25732825  1
  O  O51  1  0.51996240  0.51493246  0.70901215  1
  O  O52  1  0.64493524  0.39298288  0.70267203  1
  O  O53  1  0.64757012  0.48153934  0.25394102  1
  O  O54  1  0.65070960  0.65286741  0.71291494  1
  O  O55  1  0.63353401  0.73607672  0.26731500  1
  O  O56  1  0.65816084  0.14464743  0.79326336  1
  O  O57  1  0.66435939  0.90575616  0.80301489  1
  O  O58  1  0.65826787  0.97457500  0.24676510  1
  O  O59  1  0.67470987  0.21790009  0.23678861  1
  O  O60  1  0.82528601  0.78210029  0.73679905  1
  O  O61  1  0.84173103  0.02542946  0.74675283  1
  O  O62  1  0.83564691  0.09424293  0.30301861  1
  O  O63  1  0.84183662  0.85535749  0.29325895  1
  O  O64  1  0.86647814  0.26392539  0.76733399  1
  O  O65  1  0.84929860  0.34713226  0.21290888  1
  O  O66  1  0.85242062  0.51845304  0.75392191  1
  O  O67  1  0.85506104  0.60701691  0.20268166  1
  O  O68  1  0.98002894  0.48506236  0.20904346  1
  O  O69  1  0.98301968  0.38757354  0.75734495  1
  O  O70  1  0.97820307  0.63848267  0.76398735  1
  O  O71  1  0.98071239  0.73489555  0.28321279  1
