# generated using pymatgen
data_LiNi3O4
_symmetry_space_group_name_H-M   'P 1'
_cell_length_a   5.13158037
_cell_length_b   10.20817927
_cell_length_c   9.78042641
_cell_angle_alpha   16.64516756
_cell_angle_beta   29.53582929
_cell_angle_gamma   33.53069391
_symmetry_Int_Tables_number   1
_chemical_formula_structural   LiNi3O4
_chemical_formula_sum   'Li1 Ni3 O4'
_cell_volume   72.34608765
_cell_formula_units_Z   1
loop_
 _symmetry_equiv_pos_site_id
 _symmetry_equiv_pos_as_xyz
  1  'x, y, z'
loop_
 _atom_site_type_symbol
 _atom_site_label
 _atom_site_symmetry_multiplicity
 _atom_site_fract_x
 _atom_site_fract_y
 _atom_site_fract_z
 _atom_site_occupancy
  Li  Li0  1  0.50000000  0.50000000  0.50000000  1
  Ni  Ni1  1  0.00000000  0.00000000  0.00000000  1
  Ni  Ni2  1  0.50000000  0.00000000  0.50000000  1
  Ni  Ni3  1  0.00000000  0.50000000  0.00000000  1
  O  O4  1  0.23139456  0.00000000  0.26828432  1
  O  O5  1  0.24782144  0.50000000  0.25078336  1
  O  O6  1  0.76860544  0.00000000  0.73171568  1
  O  O7  1  0.75217856  0.50000000  0.74921664  1
