# generated using pymatgen
data_K2WO4
_symmetry_space_group_name_H-M   'P 1'
_cell_length_a   6.35505893
_cell_length_b   8.24063367
_cell_length_c   12.17732474
_cell_angle_alpha   90.00000000
_cell_angle_beta   116.00580040
_cell_angle_gamma   90.00000000
_symmetry_Int_Tables_number   1
_chemical_formula_structural   K2WO4
_chemical_formula_sum   'K8 W4 O16'
_cell_volume   573.15332844
_cell_formula_units_Z   4
loop_
 _symmetry_equiv_pos_site_id
 _symmetry_equiv_pos_as_xyz
  1  'x, y, z'
loop_
 _atom_site_type_symbol
 _atom_site_label
 _atom_site_symmetry_multiplicity
 _atom_site_fract_x
 _atom_site_fract_y
 _atom_site_fract_z
 _atom_site_occupancy
  K  K0  1  0.21605286  0.74841773  0.90718168  1
  K  K1  1  0.47718441  0.48902747  0.72890852  1
  K  K2  1  0.21605286  0.75158227  0.40718168  1
  K  K3  1  0.52281559  0.98902747  0.77109148  1
  K  K4  1  0.47718441  0.01097253  0.22890852  1
  K  K5  1  0.78394714  0.24841773  0.59281832  1
  K  K6  1  0.52281559  0.51097253  0.27109148  1
  K  K7  1  0.78394714  0.25158227  0.09281832  1
  W  W8  1  0.13065188  0.26687779  0.93118633  1
  W  W9  1  0.13065188  0.23312221  0.43118633  1
  W  W10  1  0.86934812  0.76687779  0.56881367  1
  W  W11  1  0.86934812  0.73312221  0.06881367  1
  O  O12  1  0.25469819  0.07646147  0.91427352  1
  O  O13  1  0.23539538  0.42823901  0.86686967  1
  O  O14  1  0.22506774  0.19981419  0.59410614  1
  O  O15  1  0.18993114  0.75632052  0.64510513  1
  O  O16  1  0.25469819  0.42353853  0.41427352  1
  O  O17  1  0.23539538  0.07176099  0.36686967  1
  O  O18  1  0.81006886  0.25632052  0.85489487  1
  O  O19  1  0.77493226  0.69981419  0.90589386  1
  O  O20  1  0.22506774  0.30018581  0.09410614  1
  O  O21  1  0.18993114  0.74367948  0.14510513  1
  O  O22  1  0.76460462  0.92823901  0.63313033  1
  O  O23  1  0.74530181  0.57646147  0.58572648  1
  O  O24  1  0.81006886  0.24367948  0.35489487  1
  O  O25  1  0.77493226  0.80018581  0.40589386  1
  O  O26  1  0.76460462  0.57176099  0.13313033  1
  O  O27  1  0.74530181  0.92353853  0.08572648  1
