# generated using pymatgen
data_Li24Ti7Cr5O36
_symmetry_space_group_name_H-M   'P 1'
_cell_length_a   5.06305657
_cell_length_b   13.44869724
_cell_length_c   9.80866798
_cell_angle_alpha   97.56768724
_cell_angle_beta   94.62804660
_cell_angle_gamma   101.06543690
_symmetry_Int_Tables_number   1
_chemical_formula_structural   Li24Ti7Cr5O36
_chemical_formula_sum   'Li24 Ti7 Cr5 O36'
_cell_volume   645.89525078
_cell_formula_units_Z   1
loop_
 _symmetry_equiv_pos_site_id
 _symmetry_equiv_pos_as_xyz
  1  'x, y, z'
loop_
 _atom_site_type_symbol
 _atom_site_label
 _atom_site_symmetry_multiplicity
 _atom_site_fract_x
 _atom_site_fract_y
 _atom_site_fract_z
 _atom_site_occupancy
  Li  Li0  1  0.83979275  0.16605032  0.99882217  1
  Li  Li1  1  0.95609353  0.38875639  0.99933620  1
  Li  Li2  1  0.00027234  0.75014928  0.25012952  1
  Li  Li3  1  0.66603559  0.08407719  0.25010028  1
  Li  Li4  1  0.95272436  0.88791764  0.50144752  1
  Li  Li5  1  0.61450064  0.21940578  0.49814711  1
  Li  Li6  1  0.82842269  0.66661224  0.49996988  1
  Li  Li7  1  0.50472439  0.00051190  0.49935990  1
  Li  Li8  1  0.71916427  0.44832285  0.50030205  1
  Li  Li9  1  0.67014271  0.58432471  0.74975795  1
  Li  Li10  1  0.49761762  0.49912045  0.99965374  1
  Li  Li11  1  0.71197935  0.94564437  0.99844397  1
  Li  Li12  1  0.37597712  0.27917729  0.00105662  1
  Li  Li13  1  0.62281085  0.72173348  0.99822205  1
  Li  Li14  1  0.28437477  0.05489280  0.00128817  1
  Li  Li15  1  0.33230345  0.41617890  0.24978614  1
  Li  Li16  1  0.28175155  0.55198050  0.50103542  1
  Li  Li17  1  0.16887596  0.33240389  0.50102303  1
  Li  Li18  1  0.38321826  0.78024651  0.50028704  1
  Li  Li19  1  0.04664611  0.11278753  0.50022674  1
  Li  Li20  1  0.33347960  0.91662914  0.75029289  1
  Li  Li21  1  0.16388811  0.83281729  0.00134964  1
  Li  Li22  1  0.99938550  0.24968793  0.74987144  1
  Li  Li23  1  0.04876484  0.61163355  0.00067453  1
  Ti  Ti24  1  0.77418611  0.30688116  0.24564820  1
  Ti  Ti25  1  0.55960665  0.36128800  0.75415481  1
  Ti  Ti26  1  0.44007419  0.13861793  0.74670093  1
  Ti  Ti27  1  0.55799212  0.85931591  0.24786127  1
  Ti  Ti28  1  0.44415821  0.63534733  0.24979316  1
  Ti  Ti29  1  0.22001296  0.69344281  0.74912705  1
  Ti  Ti30  1  0.11642373  0.97427683  0.25447579  1
  Cr  Cr31  1  0.88172357  0.02581411  0.74912556  1
  Cr  Cr32  1  0.89149194  0.52866586  0.25147570  1
  Cr  Cr33  1  0.78256780  0.80733618  0.75197718  1
  Cr  Cr34  1  0.21717151  0.19436693  0.25049886  1
  Cr  Cr35  1  0.11594795  0.47305003  0.74899844  1
  O  O36  1  0.00181876  0.07449704  0.13848064  1
  O  O37  1  0.93667486  0.21556961  0.36400817  1
  O  O38  1  0.99752833  0.57199328  0.63610173  1
  O  O39  1  0.86034961  0.35815881  0.63774149  1
  O  O40  1  0.73439367  0.11877197  0.63415691  1
  O  O41  1  0.66678340  0.40646209  0.13751960  1
  O  O42  1  0.93234790  0.71464334  0.86678770  1
  O  O43  1  0.81460349  0.47823663  0.86147305  1
  O  O44  1  0.60349241  0.04729367  0.86489018  1
  O  O45  1  0.85646929  0.85653390  0.13597821  1
  O  O46  1  0.74252720  0.61569968  0.13617886  1
  O  O47  1  0.51926518  0.18967502  0.13753837  1
  O  O48  1  0.66517102  0.26262616  0.86483904  1
  O  O49  1  0.81029626  0.97769092  0.36359771  1
  O  O50  1  0.59135379  0.54783209  0.36678941  1
  O  O51  1  0.47315109  0.30869420  0.36213403  1
  O  O52  1  0.66687999  0.76228997  0.36350862  1
  O  O53  1  0.33962985  0.09579107  0.36379213  1
  O  O54  1  0.66657637  0.90785982  0.63925659  1
  O  O55  1  0.33362008  0.23757356  0.63589952  1
  O  O56  1  0.52629232  0.69208238  0.63767669  1
  O  O57  1  0.39623464  0.45282805  0.63556670  1
  O  O58  1  0.18546883  0.02149580  0.63819393  1
  O  O59  1  0.33206799  0.73638131  0.13617900  1
  O  O60  1  0.48157844  0.81070740  0.86187665  1
  O  O61  1  0.26442287  0.38075603  0.86539298  1
  O  O62  1  0.13935934  0.14098142  0.86194125  1
  O  O63  1  0.40307996  0.95175295  0.13390210  1
  O  O64  1  0.19337616  0.52217434  0.13614516  1
  O  O65  1  0.06903523  0.28551974  0.13400842  1
  O  O66  1  0.33255644  0.59256733  0.86207808  1
  O  O67  1  0.26238745  0.88192582  0.36616092  1
  O  O68  1  0.13472012  0.64145834  0.36249806  1
  O  O69  1  0.99923821  0.43120470  0.36139396  1
  O  O70  1  0.06326128  0.78553897  0.63502085  1
  O  O71  1  0.99968607  0.92526858  0.86087037  1
