# generated using pymatgen
data_MnO2
_symmetry_space_group_name_H-M   'P 1'
_cell_length_a   2.92580990
_cell_length_b   10.31265998
_cell_length_c   2.92551889
_cell_angle_alpha   90.00018120
_cell_angle_beta   60.00313065
_cell_angle_gamma   98.11247873
_symmetry_Int_Tables_number   1
_chemical_formula_structural   MnO2
_chemical_formula_sum   'Mn2 O4'
_cell_volume   75.42597571
_cell_formula_units_Z   2
loop_
 _symmetry_equiv_pos_site_id
 _symmetry_equiv_pos_as_xyz
  1  'x, y, z'
loop_
 _atom_site_type_symbol
 _atom_site_label
 _atom_site_symmetry_multiplicity
 _atom_site_fract_x
 _atom_site_fract_y
 _atom_site_fract_z
 _atom_site_occupancy
  Mn  Mn0  1  0.00005513  0.50002428  0.49998221  1
  Mn  Mn1  1  0.99994074  0.99997626  0.00002395  1
  O  O2  1  0.27079766  0.90570405  0.36459110  1
  O  O3  1  0.39600517  0.59447999  0.80200541  1
  O  O4  1  0.60409431  0.40556796  0.19795853  1
  O  O5  1  0.72910699  0.09424845  0.63543880  1
