# generated using pymatgen
data_V(SO4)2
_symmetry_space_group_name_H-M   'P 1'
_cell_length_a   8.89262298
_cell_length_b   8.89262304
_cell_length_c   8.89262291
_cell_angle_alpha   56.19744370
_cell_angle_beta   56.19743925
_cell_angle_gamma   56.19743757
_symmetry_Int_Tables_number   1
_chemical_formula_structural   V(SO4)2
_chemical_formula_sum   'V3 S6 O24'
_cell_volume   453.48443758
_cell_formula_units_Z   3
loop_
 _symmetry_equiv_pos_site_id
 _symmetry_equiv_pos_as_xyz
  1  'x, y, z'
loop_
 _atom_site_type_symbol
 _atom_site_label
 _atom_site_symmetry_multiplicity
 _atom_site_fract_x
 _atom_site_fract_y
 _atom_site_fract_z
 _atom_site_occupancy
  V  V0  1  0.35469600  0.35469600  0.35469600  1
  V  V1  1  0.64434889  0.64434889  0.64434889  1
  V  V2  1  0.85213095  0.85213095  0.85213095  1
  S  S3  1  0.03533097  0.74501445  0.47003874  1
  S  S4  1  0.47003874  0.03533097  0.74501445  1
  S  S5  1  0.74501445  0.47003874  0.03533097  1
  S  S6  1  0.25628092  0.52970312  0.96101038  1
  S  S7  1  0.52970312  0.96101038  0.25628092  1
  S  S8  1  0.96101038  0.25628092  0.52970312  1
  O  O9  1  0.11785564  0.29466242  0.51114557  1
  O  O10  1  0.29466242  0.51114557  0.11785564  1
  O  O11  1  0.00859882  0.93661901  0.33121759  1
  O  O12  1  0.51114557  0.11785564  0.29466242  1
  O  O13  1  0.02098750  0.71559983  0.65932683  1
  O  O14  1  0.22697877  0.59606977  0.40173287  1
  O  O15  1  0.40173287  0.22697877  0.59606977  1
  O  O16  1  0.33121759  0.00859882  0.93661901  1
  O  O17  1  0.59606977  0.40173287  0.22697877  1
  O  O18  1  0.05929126  0.67851213  0.97431514  1
  O  O19  1  0.28901823  0.35092512  0.96657805  1
  O  O20  1  0.35092512  0.96657805  0.28901823  1
  O  O21  1  0.65932683  0.02098750  0.71559983  1
  O  O22  1  0.71559983  0.65932683  0.02098750  1
  O  O23  1  0.93661901  0.33121759  0.00859882  1
  O  O24  1  0.39751250  0.62285334  0.76800774  1
  O  O25  1  0.67851213  0.97431514  0.05929126  1
  O  O26  1  0.62285334  0.76800774  0.39751250  1
  O  O27  1  0.76800774  0.39751250  0.62285334  1
  O  O28  1  0.96657805  0.28901823  0.35092512  1
  O  O29  1  0.51649293  0.88578405  0.67371945  1
  O  O30  1  0.97431514  0.05929126  0.67851213  1
  O  O31  1  0.67371945  0.51649293  0.88578405  1
  O  O32  1  0.88578405  0.67371945  0.51649293  1
