# generated using pymatgen
data_LuP5O14
_symmetry_space_group_name_H-M   'P 1'
_cell_length_a   8.76049923
_cell_length_b   12.80245075
_cell_length_c   8.93554242
_cell_angle_alpha   90.00000000
_cell_angle_beta   90.00000000
_cell_angle_gamma   90.00000000
_symmetry_Int_Tables_number   1
_chemical_formula_structural   LuP5O14
_chemical_formula_sum   'Lu4 P20 O56'
_cell_volume   1002.17344412
_cell_formula_units_Z   4
loop_
 _symmetry_equiv_pos_site_id
 _symmetry_equiv_pos_as_xyz
  1  'x, y, z'
loop_
 _atom_site_type_symbol
 _atom_site_label
 _atom_site_symmetry_multiplicity
 _atom_site_fract_x
 _atom_site_fract_y
 _atom_site_fract_z
 _atom_site_occupancy
  Lu  Lu0  1  0.02172620  0.25000000  0.06095174  1
  Lu  Lu1  1  0.47827380  0.75000000  0.56095174  1
  Lu  Lu2  1  0.52172620  0.25000000  0.43904826  1
  Lu  Lu3  1  0.97827380  0.75000000  0.93904826  1
  P  P4  1  0.00513582  0.58340962  0.29749475  1
  P  P5  1  0.00513582  0.91659038  0.29749475  1
  P  P6  1  0.06912340  0.75000000  0.51350342  1
  P  P7  1  0.25439306  0.06846886  0.27538000  1
  P  P8  1  0.25439306  0.43153114  0.27538000  1
  P  P9  1  0.24560694  0.56846886  0.77538000  1
  P  P10  1  0.24560694  0.93153114  0.77538000  1
  P  P11  1  0.43087660  0.25000000  0.01350342  1
  P  P12  1  0.49486418  0.41659038  0.79749575  1
  P  P13  1  0.49486418  0.08340962  0.79749575  1
  P  P14  1  0.50513582  0.91659038  0.20250525  1
  P  P15  1  0.50513582  0.58340962  0.20250525  1
  P  P16  1  0.56912340  0.75000000  0.98649658  1
  P  P17  1  0.75439306  0.06846886  0.22462000  1
  P  P18  1  0.75439306  0.43153114  0.22462000  1
  P  P19  1  0.74560694  0.56846886  0.72462000  1
  P  P20  1  0.74560694  0.93153114  0.72462000  1
  P  P21  1  0.93087660  0.25000000  0.48649658  1
  P  P22  1  0.99486418  0.08340962  0.70250425  1
  P  P23  1  0.99486418  0.41659038  0.70250425  1
  O  O24  1  0.99808856  0.13748937  0.84810809  1
  O  O25  1  0.99808856  0.36251063  0.84810809  1
  O  O26  1  0.03176870  0.75000000  0.67499738  1
  O  O27  1  0.02770063  0.15375374  0.56134393  1
  O  O28  1  0.02770063  0.34624626  0.56134393  1
  O  O29  1  0.11755715  0.50498773  0.67896414  1
  O  O30  1  0.11755715  0.99501227  0.67896414  1
  O  O31  1  0.15317164  0.11903049  0.16267927  1
  O  O32  1  0.15317164  0.38096951  0.16267927  1
  O  O33  1  0.16140510  0.53020340  0.34568720  1
  O  O34  1  0.16140510  0.96979660  0.34568720  1
  O  O35  1  0.17186786  0.62735440  0.89917218  1
  O  O36  1  0.17186786  0.87264560  0.89917218  1
  O  O37  1  0.22840388  0.75000000  0.45376791  1
  O  O38  1  0.27159612  0.25000000  0.95376791  1
  O  O39  1  0.32813214  0.12735440  0.39917218  1
  O  O40  1  0.32813214  0.37264560  0.39917218  1
  O  O41  1  0.33859490  0.03020340  0.84568720  1
  O  O42  1  0.33859490  0.46979660  0.84568720  1
  O  O43  1  0.34682836  0.61903049  0.66267927  1
  O  O44  1  0.34682836  0.88096951  0.66267927  1
  O  O45  1  0.38244285  0.00498773  0.17896414  1
  O  O46  1  0.38244285  0.49501227  0.17896414  1
  O  O47  1  0.47229937  0.65375374  0.06134393  1
  O  O48  1  0.47229937  0.84624626  0.06134393  1
  O  O49  1  0.46823130  0.25000000  0.17499738  1
  O  O50  1  0.50191144  0.63748937  0.34810809  1
  O  O51  1  0.50191144  0.86251063  0.34810809  1
  O  O52  1  0.49808856  0.13748937  0.65189191  1
  O  O53  1  0.49808856  0.36251063  0.65189191  1
  O  O54  1  0.53176870  0.75000000  0.82500262  1
  O  O55  1  0.52770063  0.15375374  0.93865607  1
  O  O56  1  0.52770063  0.34624626  0.93865607  1
  O  O57  1  0.61755715  0.50498773  0.82103586  1
  O  O58  1  0.61755715  0.99501227  0.82103586  1
  O  O59  1  0.65317164  0.11903049  0.33732073  1
  O  O60  1  0.65317164  0.38096951  0.33732073  1
  O  O61  1  0.66140510  0.53020340  0.15431280  1
  O  O62  1  0.66140510  0.96979660  0.15431280  1
  O  O63  1  0.67186786  0.62735440  0.60082782  1
  O  O64  1  0.67186786  0.87264560  0.60082782  1
  O  O65  1  0.72840388  0.75000000  0.04623209  1
  O  O66  1  0.77159612  0.25000000  0.54623209  1
  O  O67  1  0.82813214  0.12735440  0.10082782  1
  O  O68  1  0.82813214  0.37264560  0.10082782  1
  O  O69  1  0.83859490  0.03020340  0.65431280  1
  O  O70  1  0.83859490  0.46979660  0.65431280  1
  O  O71  1  0.84682836  0.88096951  0.83732073  1
  O  O72  1  0.84682836  0.61903049  0.83732073  1
  O  O73  1  0.88244285  0.00498773  0.32103586  1
  O  O74  1  0.88244285  0.49501227  0.32103586  1
  O  O75  1  0.97229937  0.65375374  0.43865607  1
  O  O76  1  0.97229937  0.84624626  0.43865607  1
  O  O77  1  0.96823130  0.25000000  0.32500262  1
  O  O78  1  0.00191144  0.63748937  0.15189191  1
  O  O79  1  0.00191144  0.86251063  0.15189191  1
