# generated using pymatgen
data_In2Co2O7
_symmetry_space_group_name_H-M   'P 1'
_cell_length_a   6.88130535
_cell_length_b   6.87314462
_cell_length_c   6.86856580
_cell_angle_alpha   59.98912865
_cell_angle_beta   60.04313169
_cell_angle_gamma   59.95709471
_symmetry_Int_Tables_number   1
_chemical_formula_structural   In2Co2O7
_chemical_formula_sum   'In4 Co4 O14'
_cell_volume   229.68991968
_cell_formula_units_Z   2
loop_
 _symmetry_equiv_pos_site_id
 _symmetry_equiv_pos_as_xyz
  1  'x, y, z'
loop_
 _atom_site_type_symbol
 _atom_site_label
 _atom_site_symmetry_multiplicity
 _atom_site_fract_x
 _atom_site_fract_y
 _atom_site_fract_z
 _atom_site_occupancy
  In  In0  1  0.00000321  -0.00000014  0.00000380  1
  In  In1  1  0.50000713  0.99997733  0.00000284  1
  In  In2  1  0.99997908  0.50001452  0.99998106  1
  In  In3  1  0.99997991  0.99998983  0.50000329  1
  Co  Co4  1  0.50002194  0.50000135  0.99995623  1
  Co  Co5  1  0.49997967  0.00002342  0.49997281  1
  Co  Co6  1  -0.00000617  0.49999340  0.50001625  1
  Co  Co7  1  0.50001798  0.50001848  0.49999890  1
  O  O8  1  0.12527266  0.12497794  0.12486188  1
  O  O9  1  0.57891908  0.17272102  0.16906808  1
  O  O10  1  0.57928677  0.17125917  0.57956258  1
  O  O11  1  0.16927471  0.57971742  0.17173733  1
  O  O12  1  0.57942178  0.57830040  0.17183015  1
  O  O13  1  0.17349851  0.16865765  0.57918523  1
  O  O14  1  0.83072626  0.41992291  0.42128373  1
  O  O15  1  0.16928600  0.58000783  0.57881336  1
  O  O16  1  0.82650320  0.83132842  0.42086717  1
  O  O17  1  0.42065288  0.82876139  0.42049449  1
  O  O18  1  0.42059970  0.42180396  0.82810188  1
  O  O19  1  0.83070380  0.42028737  0.82828940  1
  O  O20  1  0.42111782  0.82719288  0.83084882  1
  O  O21  1  0.87475408  0.87504345  0.87512074  1
