# generated using pymatgen
data_Li8Ti16CuS32
_symmetry_space_group_name_H-M   'P 1'
_cell_length_a   7.04430505
_cell_length_b   7.03955212
_cell_length_c   23.44277534
_cell_angle_alpha   98.43071960
_cell_angle_beta   90.19516448
_cell_angle_gamma   119.95666905
_symmetry_Int_Tables_number   1
_chemical_formula_structural   Li8Ti16CuS32
_chemical_formula_sum   'Li8 Ti16 Cu1 S32'
_cell_volume   992.31907810
_cell_formula_units_Z   1
loop_
 _symmetry_equiv_pos_site_id
 _symmetry_equiv_pos_as_xyz
  1  'x, y, z'
loop_
 _atom_site_type_symbol
 _atom_site_label
 _atom_site_symmetry_multiplicity
 _atom_site_fract_x
 _atom_site_fract_y
 _atom_site_fract_z
 _atom_site_occupancy
  Li  Li0  1  0.88078393  0.75614332  0.13682790  1
  Li  Li1  1  0.50004951  0.50066308  0.49958250  1
  Li  Li2  1  0.74884041  0.00141756  0.25026536  1
  Li  Li3  1  0.37193210  0.74795092  0.62388684  1
  Li  Li4  1  0.62493445  0.24995051  0.37518903  1
  Li  Li5  1  0.24861770  0.00119878  0.74979686  1
  Li  Li6  1  0.12682860  0.25369403  0.87654155  1
  Li  Li7  1  0.75205315  0.00045328  0.74973933  1
  Ti  Ti8  1  0.36964920  0.74349254  0.12554339  1
  Ti  Ti9  1  0.12515996  0.75034467  0.37510149  1
  Ti  Ti10  1  0.37337586  0.25169112  0.12531554  1
  Ti  Ti11  1  0.50015440  0.99794884  0.99603562  1
  Ti  Ti12  1  0.25182052  0.50068829  0.25257235  1
  Ti  Ti13  1  0.88196755  0.25563848  0.12541459  1
  Ti  Ti14  1  0.12486907  0.24974220  0.37505821  1
  Ti  Ti15  1  0.62532884  0.75036582  0.37514129  1
  Ti  Ti16  1  0.99786838  0.99876701  0.49890863  1
  Ti  Ti17  1  0.37256537  0.24825187  0.62366881  1
  Ti  Ti18  1  0.87642724  0.74788799  0.62385958  1
  Ti  Ti19  1  0.13315979  0.75153026  0.87530985  1
  Ti  Ti20  1  0.87608064  0.25225324  0.62383668  1
  Ti  Ti21  1  0.61865133  0.75170368  0.87526283  1
  Ti  Ti22  1  0.74962979  0.50117180  0.75111795  1
  Ti  Ti23  1  0.62256880  0.24494356  0.87493363  1
  Cu  Cu24  1  0.84173193  0.68578784  0.02670457  1
  S  S25  1  0.19935726  0.88197075  0.06308375  1
  S  S26  1  0.68181429  0.88186461  0.06347898  1
  S  S27  1  0.18909236  0.37723862  0.06601963  1
  S  S28  1  0.06949277  0.61805244  0.18786238  1
  S  S29  1  0.06934122  0.13629025  0.18791621  1
  S  S30  1  0.55154677  0.61836258  0.18787460  1
  S  S31  1  0.68124154  0.36401467  0.06301316  1
  S  S32  1  0.43206267  0.86773544  0.31333524  1
  S  S33  1  0.43306566  0.38064215  0.31370842  1
  S  S34  1  0.18271050  0.88173631  0.56293647  1
  S  S35  1  0.31092406  0.62308913  0.43426443  1
  S  S36  1  0.56142389  0.12158050  0.18325166  1
  S  S37  1  0.93889212  0.87699208  0.31572085  1
  S  S38  1  0.81828246  0.63305929  0.43693036  1
  S  S39  1  0.30328522  0.11848118  0.43694152  1
  S  S40  1  0.05282207  0.61829900  0.68686579  1
  S  S41  1  0.94579477  0.38138407  0.31337975  1
  S  S42  1  0.69693721  0.88145476  0.56296074  1
  S  S43  1  0.18195747  0.36661971  0.56254450  1
  S  S44  1  0.06148689  0.12362245  0.68425331  1
  S  S45  1  0.68767531  0.37610369  0.56510129  1
  S  S46  1  0.81747836  0.11910356  0.43660688  1
  S  S47  1  0.56698365  0.61898662  0.68638067  1
  S  S48  1  0.43687270  0.87450478  0.81374804  1
  S  S49  1  0.31692075  0.63295386  0.93711700  1
  S  S50  1  0.56696181  0.13261324  0.68663889  1
  S  S51  1  0.44580568  0.38033325  0.81303179  1
  S  S52  1  0.93384339  0.86820401  0.81335069  1
  S  S53  1  0.93390853  0.38003658  0.81318726  1
  S  S54  1  0.81129667  0.62125907  0.93132648  1
  S  S55  1  0.31662433  0.11862084  0.93630042  1
  S  S56  1  0.80280010  0.11860881  0.93651046  1
