# generated using pymatgen
data_Na5LiFe2P2(CO7)2
_symmetry_space_group_name_H-M   'P 1'
_cell_length_a   8.98739078
_cell_length_b   6.60764794
_cell_length_c   10.38563941
_cell_angle_alpha   90.00000000
_cell_angle_beta   88.93683866
_cell_angle_gamma   90.00000000
_symmetry_Int_Tables_number   1
_chemical_formula_structural   Na5LiFe2P2(CO7)2
_chemical_formula_sum   'Na10 Li2 Fe4 P4 C4 O28'
_cell_volume   616.65036128
_cell_formula_units_Z   2
loop_
 _symmetry_equiv_pos_site_id
 _symmetry_equiv_pos_as_xyz
  1  'x, y, z'
loop_
 _atom_site_type_symbol
 _atom_site_label
 _atom_site_symmetry_multiplicity
 _atom_site_fract_x
 _atom_site_fract_y
 _atom_site_fract_z
 _atom_site_occupancy
  Na  Na0  1  0.08250001  0.24999371  0.87937984  1
  Na  Na1  1  0.08329290  0.25220768  0.38104908  1
  Na  Na2  1  0.25973713  0.00195162  0.62471381  1
  Na  Na3  1  0.26105016  0.00058164  0.12464341  1
  Na  Na4  1  0.26082039  0.49872979  0.12449563  1
  Na  Na5  1  0.74026287  0.50195162  0.87528619  1
  Na  Na6  1  0.73894984  0.50058164  0.37535659  1
  Na  Na7  1  0.73917961  0.99872979  0.37550437  1
  Na  Na8  1  0.91749999  0.74999371  0.62062016  1
  Na  Na9  1  0.91670710  0.75220768  0.11895092  1
  Li  Li10  1  0.26987702  0.49585934  0.62206213  1
  Li  Li11  1  0.73012298  0.99585934  0.87793787  1
  Fe  Fe12  1  0.35530105  0.74933466  0.89130093  1
  Fe  Fe13  1  0.35471315  0.74800572  0.39406905  1
  Fe  Fe14  1  0.64469895  0.24933466  0.60869907  1
  Fe  Fe15  1  0.64528685  0.24800572  0.10593095  1
  P  P16  1  0.41478047  0.24904567  0.84813692  1
  P  P17  1  0.41361708  0.24926327  0.35162094  1
  P  P18  1  0.58521953  0.74904567  0.65186308  1
  P  P19  1  0.58638292  0.74926327  0.14837906  1
  C  C20  1  0.05648103  0.75375214  0.86491018  1
  C  C21  1  0.05993314  0.74934165  0.36648562  1
  C  C22  1  0.94351897  0.25375214  0.63508982  1
  C  C23  1  0.94006686  0.24934165  0.13351438  1
  O  O24  1  0.08741030  0.26801198  0.64166387  1
  O  O25  1  0.08350459  0.24982298  0.14119059  1
  O  O26  1  0.12039479  0.74958789  0.97664521  1
  O  O27  1  0.12285438  0.74912208  0.47847530  1
  O  O28  1  0.13937781  0.74338671  0.76085693  1
  O  O29  1  0.14312155  0.74895874  0.26251316  1
  O  O30  1  0.31789289  0.06161785  0.88769352  1
  O  O31  1  0.32475332  0.43690475  0.89681752  1
  O  O32  1  0.31898620  0.06057573  0.39247456  1
  O  O33  1  0.31820953  0.43607000  0.39536505  1
  O  O34  1  0.42807326  0.26142672  0.69798148  1
  O  O35  1  0.42834030  0.73615531  0.59337437  1
  O  O36  1  0.43326503  0.25073346  0.20199448  1
  O  O37  1  0.43284573  0.74955993  0.08557385  1
  O  O38  1  0.57165970  0.23615531  0.90662563  1
  O  O39  1  0.57192674  0.76142672  0.80201852  1
  O  O40  1  0.56715427  0.24955993  0.41442615  1
  O  O41  1  0.56673497  0.75073346  0.29800552  1
  O  O42  1  0.68210711  0.56161785  0.61230648  1
  O  O43  1  0.67524668  0.93690475  0.60318248  1
  O  O44  1  0.68101380  0.56057573  0.10752544  1
  O  O45  1  0.68179047  0.93607000  0.10463495  1
  O  O46  1  0.86062219  0.24338671  0.73914307  1
  O  O47  1  0.85687845  0.24895874  0.23748684  1
  O  O48  1  0.87960521  0.24958789  0.52335479  1
  O  O49  1  0.87714562  0.24912208  0.02152470  1
  O  O50  1  0.91258970  0.76801198  0.85833613  1
  O  O51  1  0.91649541  0.74982298  0.35880941  1
