# generated using pymatgen
data_Na5LiFe2P2(CO7)2
_symmetry_space_group_name_H-M   'P 1'
_cell_length_a   8.98746577
_cell_length_b   6.59028983
_cell_length_c   10.39780760
_cell_angle_alpha   90.00000000
_cell_angle_beta   88.85200172
_cell_angle_gamma   90.00000000
_symmetry_Int_Tables_number   1
_chemical_formula_structural   Na5LiFe2P2(CO7)2
_chemical_formula_sum   'Na10 Li2 Fe4 P4 C4 O28'
_cell_volume   615.73857230
_cell_formula_units_Z   2
loop_
 _symmetry_equiv_pos_site_id
 _symmetry_equiv_pos_as_xyz
  1  'x, y, z'
loop_
 _atom_site_type_symbol
 _atom_site_label
 _atom_site_symmetry_multiplicity
 _atom_site_fract_x
 _atom_site_fract_y
 _atom_site_fract_z
 _atom_site_occupancy
  Na  Na0  1  0.08151439  0.24680152  0.88019174  1
  Na  Na1  1  0.08151439  0.25319848  0.38019174  1
  Na  Na2  1  0.26062563  0.00133433  0.62485521  1
  Na  Na3  1  0.26063236  0.49909609  0.62471001  1
  Na  Na4  1  0.26063236  0.00090391  0.12471001  1
  Na  Na5  1  0.26062563  0.49866567  0.12485521  1
  Na  Na6  1  0.73992230  0.50209194  0.87535446  1
  Na  Na7  1  0.73992230  0.99790806  0.37535446  1
  Na  Na8  1  0.91588329  0.75048334  0.61978966  1
  Na  Na9  1  0.91588329  0.74951666  0.11978966  1
  Li  Li10  1  0.72890323  0.99618706  0.87735649  1
  Li  Li11  1  0.72890323  0.50381294  0.37735649  1
  Fe  Fe12  1  0.35637309  0.74952103  0.89271899  1
  Fe  Fe13  1  0.35637309  0.75047897  0.39271899  1
  Fe  Fe14  1  0.64697836  0.25220002  0.60672910  1
  Fe  Fe15  1  0.64697836  0.24779998  0.10672910  1
  P  P16  1  0.41716182  0.24564698  0.84906754  1
  P  P17  1  0.41716182  0.25435302  0.34906754  1
  P  P18  1  0.58890778  0.75410917  0.64957607  1
  P  P19  1  0.58890778  0.74589083  0.14957607  1
  C  C20  1  0.05469888  0.75670048  0.86607059  1
  C  C21  1  0.05469888  0.74329952  0.36607059  1
  C  C22  1  0.93982343  0.24813561  0.63556550  1
  C  C23  1  0.93982343  0.25186439  0.13556550  1
  O  O24  1  0.08355476  0.24989618  0.64313532  1
  O  O25  1  0.08355476  0.25010382  0.14313532  1
  O  O26  1  0.11972758  0.74945212  0.97724505  1
  O  O27  1  0.11972758  0.75054788  0.47724505  1
  O  O28  1  0.13741358  0.74871824  0.76152776  1
  O  O29  1  0.13741358  0.75128176  0.26152776  1
  O  O30  1  0.31814312  0.06073092  0.89014866  1
  O  O31  1  0.32667538  0.43652774  0.89378170  1
  O  O32  1  0.32667538  0.06347226  0.39378170  1
  O  O33  1  0.31814312  0.43926908  0.39014866  1
  O  O34  1  0.43432508  0.25014441  0.69970946  1
  O  O35  1  0.43344076  0.75037843  0.58881536  1
  O  O36  1  0.43432508  0.24985559  0.19970946  1
  O  O37  1  0.43344076  0.74962157  0.08881536  1
  O  O38  1  0.57286091  0.23384354  0.90959364  1
  O  O39  1  0.57287181  0.76195367  0.79978869  1
  O  O40  1  0.57286091  0.26615646  0.40959364  1
  O  O41  1  0.57287181  0.73804633  0.29978869  1
  O  O42  1  0.68265682  0.56463580  0.60814755  1
  O  O43  1  0.68189381  0.94034014  0.60330800  1
  O  O44  1  0.68189381  0.55965986  0.10330800  1
  O  O45  1  0.68265682  0.93536420  0.10814755  1
  O  O46  1  0.85613807  0.24446252  0.73954472  1
  O  O47  1  0.85613807  0.25553748  0.23954472  1
  O  O48  1  0.87775115  0.25071851  0.52332457  1
  O  O49  1  0.87775115  0.24928149  0.02332457  1
  O  O50  1  0.91112163  0.77096090  0.85994317  1
  O  O51  1  0.91112163  0.72903910  0.35994317  1
