# generated using pymatgen
data_Na5LiFe2P2(CO7)2
_symmetry_space_group_name_H-M   'P 1'
_cell_length_a   8.98842298
_cell_length_b   6.60255099
_cell_length_c   10.38355669
_cell_angle_alpha   90.19428956
_cell_angle_beta   89.02930007
_cell_angle_gamma   89.43764260
_symmetry_Int_Tables_number   1
_chemical_formula_structural   Na5LiFe2P2(CO7)2
_chemical_formula_sum   'Na10 Li2 Fe4 P4 C4 O28'
_cell_volume   616.10595314
_cell_formula_units_Z   2
loop_
 _symmetry_equiv_pos_site_id
 _symmetry_equiv_pos_as_xyz
  1  'x, y, z'
loop_
 _atom_site_type_symbol
 _atom_site_label
 _atom_site_symmetry_multiplicity
 _atom_site_fract_x
 _atom_site_fract_y
 _atom_site_fract_z
 _atom_site_occupancy
  Na  Na0  1  0.08243903  0.24609219  0.87946441  1
  Na  Na1  1  0.08315506  0.24860755  0.38098488  1
  Na  Na2  1  0.26002940  0.49865622  0.62427810  1
  Na  Na3  1  0.26050844  0.00106472  0.12466215  1
  Na  Na4  1  0.26106285  0.49928100  0.12424297  1
  Na  Na5  1  0.73997060  0.50134378  0.87572190  1
  Na  Na6  1  0.73893715  0.50071900  0.37575703  1
  Na  Na7  1  0.73949156  0.99893528  0.37533785  1
  Na  Na8  1  0.91756097  0.75390781  0.62053559  1
  Na  Na9  1  0.91684494  0.75139245  0.11901512  1
  Li  Li10  1  0.26829024  0.00403150  0.62258820  1
  Li  Li11  1  0.73170976  0.99596850  0.87741180  1
  Fe  Fe12  1  0.35558806  0.75009003  0.89117796  1
  Fe  Fe13  1  0.35506245  0.75193837  0.39377229  1
  Fe  Fe14  1  0.64441194  0.24990997  0.60882204  1
  Fe  Fe15  1  0.64493755  0.24806163  0.10622771  1
  P  P16  1  0.41474348  0.24332271  0.84827924  1
  P  P17  1  0.41355202  0.24988140  0.35140628  1
  P  P18  1  0.58525652  0.75667729  0.65172076  1
  P  P19  1  0.58644798  0.75011860  0.14859372  1
  C  C20  1  0.05734056  0.75712371  0.86544052  1
  C  C21  1  0.06031096  0.75071127  0.36657251  1
  C  C22  1  0.94265944  0.24287629  0.63455948  1
  C  C23  1  0.93968904  0.24928873  0.13342749  1
  O  O24  1  0.08722798  0.23484884  0.64144033  1
  O  O25  1  0.08336443  0.25158644  0.14126896  1
  O  O26  1  0.12098108  0.75018129  0.97702541  1
  O  O27  1  0.12308018  0.75188238  0.47886697  1
  O  O28  1  0.14028581  0.75512565  0.76137863  1
  O  O29  1  0.14326796  0.75183963  0.26287087  1
  O  O30  1  0.31794851  0.06138454  0.89356375  1
  O  O31  1  0.32449289  0.43685802  0.89063971  1
  O  O32  1  0.31856263  0.06432325  0.39526821  1
  O  O33  1  0.31885375  0.44007963  0.39202065  1
  O  O34  1  0.42830747  0.23847907  0.69815493  1
  O  O35  1  0.42829566  0.76391708  0.59225769  1
  O  O36  1  0.43295595  0.24721313  0.20191730  1
  O  O37  1  0.43273567  0.74996597  0.08541674  1
  O  O38  1  0.57170434  0.23608292  0.90774231  1
  O  O39  1  0.57169253  0.76152093  0.80184507  1
  O  O40  1  0.56726433  0.25003403  0.41458326  1
  O  O41  1  0.56704405  0.75278687  0.29808270  1
  O  O42  1  0.67550711  0.56314198  0.60936029  1
  O  O43  1  0.68205149  0.93861546  0.60643625  1
  O  O44  1  0.68114625  0.55992037  0.10797935  1
  O  O45  1  0.68143737  0.93567675  0.10473179  1
  O  O46  1  0.85971419  0.24487435  0.73862137  1
  O  O47  1  0.85673204  0.24816037  0.23712913  1
  O  O48  1  0.87901892  0.24981971  0.52297459  1
  O  O49  1  0.87691982  0.24811762  0.02113303  1
  O  O50  1  0.91277202  0.76515116  0.85855967  1
  O  O51  1  0.91663557  0.74841356  0.35873104  1
