# generated using pymatgen
data_LiMn(SO4)2
_symmetry_space_group_name_H-M   'P 1'
_cell_length_a   9.17938181
_cell_length_b   8.98162311
_cell_length_c   8.95800163
_cell_angle_alpha   55.21014625
_cell_angle_beta   56.20046353
_cell_angle_gamma   54.85986475
_symmetry_Int_Tables_number   1
_chemical_formula_structural   LiMn(SO4)2
_chemical_formula_sum   'Li3 Mn3 S6 O24'
_cell_volume   466.56333789
_cell_formula_units_Z   3
loop_
 _symmetry_equiv_pos_site_id
 _symmetry_equiv_pos_as_xyz
  1  'x, y, z'
loop_
 _atom_site_type_symbol
 _atom_site_label
 _atom_site_symmetry_multiplicity
 _atom_site_fract_x
 _atom_site_fract_y
 _atom_site_fract_z
 _atom_site_occupancy
  Li  Li0  1  0.17336377  0.12746083  0.16390882  1
  Li  Li1  1  0.18397225  0.40800280  0.77987505  1
  Li  Li2  1  0.78410315  0.17507678  0.40544181  1
  Mn  Mn3  1  0.34128830  0.35706823  0.35165198  1
  Mn  Mn4  1  0.64250776  0.64435473  0.64649667  1
  Mn  Mn5  1  0.84696164  0.85128063  0.85346895  1
  S  S6  1  0.04092198  0.74072160  0.46204461  1
  S  S7  1  0.46644102  0.04296120  0.74113200  1
  S  S8  1  0.75743903  0.47234513  0.02485758  1
  S  S9  1  0.24760615  0.54555723  0.95267807  1
  S  S10  1  0.53438691  0.96178582  0.26153320  1
  S  S11  1  0.94419007  0.24498281  0.55339349  1
  O  O12  1  0.09591818  0.28283139  0.52343406  1
  O  O13  1  0.30467972  0.50828302  0.10261514  1
  O  O14  1  0.01117684  0.94694651  0.34006786  1
  O  O15  1  0.51715387  0.11190878  0.30594948  1
  O  O16  1  0.03746255  0.69343563  0.65497962  1
  O  O17  1  0.23629058  0.61452000  0.36890552  1
  O  O18  1  0.37245698  0.24744986  0.60940482  1
  O  O19  1  0.34806618  0.02450151  0.93897734  1
  O  O20  1  0.64521751  0.37923014  0.22407350  1
  O  O21  1  0.04389810  0.67904152  0.99215108  1
  O  O22  1  0.27430195  0.36203547  0.96329127  1
  O  O23  1  0.35223380  0.97734420  0.29941231  1
  O  O24  1  0.65791211  0.03549024  0.68952095  1
  O  O25  1  0.71682460  0.66890447  0.00955717  1
  O  O26  1  0.95925467  0.34971093  0.98307994  1
  O  O27  1  0.36595312  0.64218592  0.76317343  1
  O  O28  1  0.66530348  0.98481356  0.06130255  1
  O  O29  1  0.63521209  0.76235662  0.38811818  1
  O  O30  1  0.75322758  0.37362915  0.64481837  1
  O  O31  1  0.95141798  0.26655264  0.37429174  1
  O  O32  1  0.49050740  0.89974992  0.68924760  1
  O  O33  1  0.97223455  0.03640675  0.69769225  1
  O  O34  1  0.68295907  0.50328531  0.89389866  1
  O  O35  1  0.90055807  0.68799169  0.49075692  1
