# generated using pymatgen
data_Zr2(PO4)3
_symmetry_space_group_name_H-M   'P 1'
_cell_length_a   9.13053754
_cell_length_b   9.13053754
_cell_length_c   9.13053762
_cell_angle_alpha   59.77397973
_cell_angle_beta   59.77397973
_cell_angle_gamma   59.77398463
_symmetry_Int_Tables_number   1
_chemical_formula_structural   Zr2(PO4)3
_chemical_formula_sum   'Zr4 P6 O24'
_cell_volume   535.47556996
_cell_formula_units_Z   2
loop_
 _symmetry_equiv_pos_site_id
 _symmetry_equiv_pos_as_xyz
  1  'x, y, z'
loop_
 _atom_site_type_symbol
 _atom_site_label
 _atom_site_symmetry_multiplicity
 _atom_site_fract_x
 _atom_site_fract_y
 _atom_site_fract_z
 _atom_site_occupancy
  Zr  Zr0  1  0.13890552  0.13890552  0.13890552  1
  Zr  Zr1  1  0.36109448  0.36109448  0.36109448  1
  Zr  Zr2  1  0.86109448  0.86109448  0.86109448  1
  Zr  Zr3  1  0.63890552  0.63890552  0.63890552  1
  P  P4  1  0.03527723  0.75000000  0.46472277  1
  P  P5  1  0.53527723  0.96472277  0.25000000  1
  P  P6  1  0.25000000  0.53527723  0.96472277  1
  P  P7  1  0.75000000  0.46472277  0.03527723  1
  P  P8  1  0.46472277  0.03527723  0.75000000  1
  P  P9  1  0.96472277  0.25000000  0.53527723  1
  O  O10  1  0.06053470  0.91179394  0.28933934  1
  O  O11  1  0.99958662  0.79333917  0.62457660  1
  O  O12  1  0.08820606  0.71066066  0.93946530  1
  O  O13  1  0.37542340  0.00041338  0.20666083  1
  O  O14  1  0.50041338  0.87542340  0.70666083  1
  O  O15  1  0.21066066  0.58820606  0.43946530  1
  O  O16  1  0.56053470  0.78933934  0.41179394  1
  O  O17  1  0.71066066  0.93946530  0.08820606  1
  O  O18  1  0.29333917  0.49958662  0.12457660  1
  O  O19  1  0.20666083  0.37542340  0.00041338  1
  O  O20  1  0.12457660  0.29333917  0.49958662  1
  O  O21  1  0.41179394  0.56053470  0.78933934  1
  O  O22  1  0.58820606  0.43946530  0.21066066  1
  O  O23  1  0.87542340  0.70666083  0.50041338  1
  O  O24  1  0.79333917  0.62457660  0.99958662  1
  O  O25  1  0.70666083  0.50041338  0.87542340  1
  O  O26  1  0.28933934  0.06053470  0.91179394  1
  O  O27  1  0.43946530  0.21066066  0.58820606  1
  O  O28  1  0.78933934  0.41179394  0.56053470  1
  O  O29  1  0.49958662  0.12457660  0.29333917  1
  O  O30  1  0.62457660  0.99958662  0.79333917  1
  O  O31  1  0.91179394  0.28933934  0.06053470  1
  O  O32  1  0.00041338  0.20666083  0.37542340  1
  O  O33  1  0.93946530  0.08820606  0.71066066  1
