# generated using pymatgen
data_Na5LiFe2P2(CO7)2
_symmetry_space_group_name_H-M   'P 1'
_cell_length_a   8.98314522
_cell_length_b   6.61630848
_cell_length_c   10.38656780
_cell_angle_alpha   90.00000000
_cell_angle_beta   88.98189789
_cell_angle_gamma   90.00000000
_symmetry_Int_Tables_number   1
_chemical_formula_structural   Na5LiFe2P2(CO7)2
_chemical_formula_sum   'Na10 Li2 Fe4 P4 C4 O28'
_cell_volume   617.23089996
_cell_formula_units_Z   2
loop_
 _symmetry_equiv_pos_site_id
 _symmetry_equiv_pos_as_xyz
  1  'x, y, z'
loop_
 _atom_site_type_symbol
 _atom_site_label
 _atom_site_symmetry_multiplicity
 _atom_site_fract_x
 _atom_site_fract_y
 _atom_site_fract_z
 _atom_site_occupancy
  Na  Na0  1  0.08301384  0.24968829  0.88092070  1
  Na  Na1  1  0.08271169  0.25225209  0.37955610  1
  Na  Na2  1  0.26080490  0.00077918  0.62417779  1
  Na  Na3  1  0.26051122  0.49897257  0.62443089  1
  Na  Na4  1  0.26014127  0.00169858  0.12462226  1
  Na  Na5  1  0.73985873  0.50169858  0.87537774  1
  Na  Na6  1  0.73919510  0.50077918  0.37582221  1
  Na  Na7  1  0.73948878  0.99897257  0.37556911  1
  Na  Na8  1  0.91728831  0.75225209  0.62044390  1
  Na  Na9  1  0.91698616  0.74968829  0.11907930  1
  Li  Li10  1  0.26888594  0.49621244  0.12311124  1
  Li  Li11  1  0.73111406  0.99621244  0.87688876  1
  Fe  Fe12  1  0.35538040  0.74791650  0.89353011  1
  Fe  Fe13  1  0.35543192  0.74975158  0.39141738  1
  Fe  Fe14  1  0.64456808  0.24975158  0.60858262  1
  Fe  Fe15  1  0.64461960  0.24791650  0.10646989  1
  P  P16  1  0.41576787  0.24610241  0.85105518  1
  P  P17  1  0.41202174  0.25265872  0.34895248  1
  P  P18  1  0.58797826  0.75265872  0.65104752  1
  P  P19  1  0.58423213  0.74610241  0.14894482  1
  C  C20  1  0.05652384  0.75458510  0.86679526  1
  C  C21  1  0.06055934  0.74785974  0.36468692  1
  C  C22  1  0.93944066  0.24785974  0.63531308  1
  C  C23  1  0.94347616  0.25458510  0.13320474  1
  O  O24  1  0.08262552  0.24974670  0.64308923  1
  O  O25  1  0.08739659  0.26633836  0.13979598  1
  O  O26  1  0.12131721  0.74873811  0.97852310  1
  O  O27  1  0.12331748  0.75012500  0.47742617  1
  O  O28  1  0.13944411  0.74794289  0.76253497  1
  O  O29  1  0.14484485  0.74416223  0.26097186  1
  O  O30  1  0.31904907  0.05986338  0.89128198  1
  O  O31  1  0.32444544  0.43455470  0.89727011  1
  O  O32  1  0.31839088  0.06272471  0.38821118  1
  O  O33  1  0.31798538  0.43815738  0.39428040  1
  O  O34  1  0.43264950  0.25182123  0.70138148  1
  O  O35  1  0.43362922  0.74989404  0.58815506  1
  O  O36  1  0.42916404  0.26082204  0.19865187  1
  O  O37  1  0.42741316  0.73663204  0.08917624  1
  O  O38  1  0.57258684  0.23663204  0.91082376  1
  O  O39  1  0.57083596  0.76082204  0.80134813  1
  O  O40  1  0.56637078  0.24989404  0.41184494  1
  O  O41  1  0.56735050  0.75182123  0.29861852  1
  O  O42  1  0.68160912  0.56272471  0.61178882  1
  O  O43  1  0.68201462  0.93815738  0.60571960  1
  O  O44  1  0.68095093  0.55986238  0.10871802  1
  O  O45  1  0.67555456  0.93455470  0.10272989  1
  O  O46  1  0.85515515  0.24416223  0.73902814  1
  O  O47  1  0.86055589  0.24794289  0.23746503  1
  O  O48  1  0.87668252  0.25012500  0.52257383  1
  O  O49  1  0.87868279  0.24873811  0.02147690  1
  O  O50  1  0.91260341  0.76633836  0.86020402  1
  O  O51  1  0.91737448  0.74974670  0.35691077  1
