# generated using pymatgen
data_CdGe2O5
_symmetry_space_group_name_H-M   'P 1'
_cell_length_a   5.45570156
_cell_length_b   5.60612117
_cell_length_c   7.05155801
_cell_angle_alpha   105.36140546
_cell_angle_beta   103.00143834
_cell_angle_gamma   106.14216762
_symmetry_Int_Tables_number   1
_chemical_formula_structural   CdGe2O5
_chemical_formula_sum   'Cd2 Ge4 O10'
_cell_volume   189.10280673
_cell_formula_units_Z   2
loop_
 _symmetry_equiv_pos_site_id
 _symmetry_equiv_pos_as_xyz
  1  'x, y, z'
loop_
 _atom_site_type_symbol
 _atom_site_label
 _atom_site_symmetry_multiplicity
 _atom_site_fract_x
 _atom_site_fract_y
 _atom_site_fract_z
 _atom_site_occupancy
  O  O0  1  0.29074428  0.87278363  0.58937116  1
  O  O1  1  0.70925572  0.12721637  0.41062884  1
  O  O2  1  0.62906433  0.77569916  0.94534095  1
  O  O3  1  0.37093567  0.22430084  0.05465905  1
  O  O4  1  0.07342099  0.67904253  0.88433059  1
  O  O5  1  0.92657901  0.32095747  0.11566941  1
  O  O6  1  0.08535548  0.94468701  0.25279854  1
  O  O7  1  0.91464452  0.05531299  0.74720146  1
  O  O8  1  0.72387159  0.64544509  0.39776099  1
  O  O9  1  0.27612841  0.35455491  0.60223901  1
  Ge  Ge10  1  0.68467895  0.31923044  0.24871712  1
  Ge  Ge11  1  0.31532105  0.68076956  0.75128288  1
  Ge  Ge12  1  0.00000000  0.00000000  0.50000000  1
  Ge  Ge13  1  0.00000000  0.00000000  0.00000000  1
  Cd  Cd14  1  0.66648022  0.31417237  0.76238660  1
  Cd  Cd15  1  0.33351978  0.68582763  0.23761340  1
