# generated using pymatgen
data_LiTi2(PO4)3
_symmetry_space_group_name_H-M   'P 1'
_cell_length_a   8.38986204
_cell_length_b   8.98265877
_cell_length_c   8.41369749
_cell_angle_alpha   117.93706378
_cell_angle_beta   60.01658930
_cell_angle_gamma   117.88735497
_symmetry_Int_Tables_number   1
_chemical_formula_structural   LiTi2(PO4)3
_chemical_formula_sum   'Li2 Ti4 P6 O24'
_cell_volume   462.05774606
_cell_formula_units_Z   2
loop_
 _symmetry_equiv_pos_site_id
 _symmetry_equiv_pos_as_xyz
  1  'x, y, z'
loop_
 _atom_site_type_symbol
 _atom_site_label
 _atom_site_symmetry_multiplicity
 _atom_site_fract_x
 _atom_site_fract_y
 _atom_site_fract_z
 _atom_site_occupancy
  Li  Li0  1  0.92349648  0.86785517  0.26053168  1
  Li  Li1  1  0.68984977  0.87208157  0.92571799  1
  Ti  Ti2  1  0.14011157  0.42826259  0.14554525  1
  Ti  Ti3  1  0.63568865  0.94483448  0.65167265  1
  Ti  Ti4  1  0.35247644  0.06241389  0.36000340  1
  Ti  Ti5  1  0.85808006  0.56196990  0.84936560  1
  P  P6  1  0.03494346  0.24584284  0.46003781  1
  P  P7  1  0.53413870  0.74980261  0.24705630  1
  P  P8  1  0.24577126  0.74947677  0.97105535  1
  P  P9  1  0.74861945  0.24628496  0.03374913  1
  P  P10  1  0.46296002  0.25270535  0.75458322  1
  P  P11  1  0.96920948  0.75421214  0.53461923  1
  O  O12  1  0.20731250  0.89820764  0.16719645  1
  O  O13  1  0.16607273  0.90212846  0.51323236  1
  O  O14  1  0.99704997  0.41552383  0.62457633  1
  O  O15  1  0.10918394  0.27371356  0.26663721  1
  O  O16  1  0.10246635  0.71946074  0.88711921  1
  O  O17  1  0.52184045  0.89604356  0.20647631  1
  O  O18  1  0.37753076  0.57567576  0.20765685  1
  O  O19  1  0.18382219  0.20110693  0.47358415  1
  O  O20  1  0.52397695  0.80926261  0.45710179  1
  O  O21  1  0.20931652  0.57834703  0.99892746  1
  O  O22  1  0.73992711  0.73144527  0.11081207  1
  O  O23  1  0.45906399  0.80502392  0.83202449  1
  O  O24  1  0.54245439  0.19601226  0.18183694  1
  O  O25  1  0.26730835  0.27618847  0.89972760  1
  O  O26  1  0.78639156  0.41426826  0.99624474  1
  O  O27  1  0.47538401  0.19714136  0.54538517  1
  O  O28  1  0.82619537  0.80413761  0.51483545  1
  O  O29  1  0.62512770  0.42715659  0.79254985  1
  O  O30  1  0.89635355  0.27881148  0.11149965  1
  O  O31  1  0.49303493  0.10526057  0.77607999  1
  O  O32  1  0.87923218  0.73480517  0.73917834  1
  O  O33  1  0.99743647  0.57906681  0.37979714  1
  O  O34  1  0.84698403  0.08631085  0.47273455  1
  O  O35  1  0.77028565  0.08638100  0.84492130  1
