# generated using pymatgen
data_Na5Li3V8O24
_symmetry_space_group_name_H-M   'P 1'
_cell_length_a   7.03230970
_cell_length_b   7.03230970
_cell_length_c   11.82896050
_cell_angle_alpha   75.68210510
_cell_angle_beta   104.31789490
_cell_angle_gamma   96.90376237
_symmetry_Int_Tables_number   1
_chemical_formula_structural   Na5Li3V8O24
_chemical_formula_sum   'Na5 Li3 V8 O24'
_cell_volume   548.11850232
_cell_formula_units_Z   1
loop_
 _symmetry_equiv_pos_site_id
 _symmetry_equiv_pos_as_xyz
  1  'x, y, z'
loop_
 _atom_site_type_symbol
 _atom_site_label
 _atom_site_symmetry_multiplicity
 _atom_site_fract_x
 _atom_site_fract_y
 _atom_site_fract_z
 _atom_site_occupancy
  Na  Na0  1  0.71272132  0.71272132  0.87500000  1
  Na  Na1  1  0.28826551  0.28929917  0.62625276  1
  Na  Na2  1  0.71009238  0.71009238  0.37500000  1
  Na  Na3  1  0.08322768  0.08322768  0.37500000  1
  Na  Na4  1  0.28929917  0.28826551  0.12374724  1
  Li  Li5  1  0.08744455  0.08744455  0.87500000  1
  Li  Li6  1  0.91163194  0.91136082  0.62667453  1
  Li  Li7  1  0.91136082  0.91163194  0.12332547  1
  V  V8  1  0.19667745  0.61918635  0.87396643  1
  V  V9  1  0.38384486  0.80188720  0.62693460  1
  V  V10  1  0.19719241  0.62201022  0.37330606  1
  V  V11  1  0.38068718  0.80326690  0.12364645  1
  V  V12  1  0.61918635  0.19667745  0.87603357  1
  V  V13  1  0.80326690  0.38068718  0.62635355  1
  V  V14  1  0.62201022  0.19719241  0.37669394  1
  V  V15  1  0.80188720  0.38384486  0.12306540  1
  O  O16  1  0.02357881  0.78648159  0.82428837  1
  O  O17  1  0.21760176  0.97463641  0.58378363  1
  O  O18  1  0.01756037  0.78122386  0.31866263  1
  O  O19  1  0.09593841  0.38938682  0.90077130  1
  O  O20  1  0.35423024  0.64120928  0.76884206  1
  O  O21  1  0.21374683  0.97648921  0.07432344  1
  O  O22  1  0.61366272  0.90271275  0.65331769  1
  O  O23  1  0.35529495  0.65399083  0.51604313  1
  O  O24  1  0.09493015  0.39528915  0.40614314  1
  O  O25  1  0.35232286  0.64291012  0.26670652  1
  O  O26  1  0.64120928  0.35423024  0.98115794  1
  O  O27  1  0.61060999  0.90412889  0.15070632  1
  O  O28  1  0.38938682  0.09593841  0.84922870  1
  O  O29  1  0.35530052  0.64796455  0.01705092  1
  O  O30  1  0.64796455  0.35530052  0.73294908  1
  O  O31  1  0.90412889  0.61060999  0.59929368  1
  O  O32  1  0.64291012  0.35232286  0.48329348  1
  O  O33  1  0.39528915  0.09493015  0.34385686  1
  O  O34  1  0.78648159  0.02357881  0.92571163  1
  O  O35  1  0.65399083  0.35529495  0.23395687  1
  O  O36  1  0.90271275  0.61366272  0.09668231  1
  O  O37  1  0.97648921  0.21374683  0.67567656  1
  O  O38  1  0.78122386  0.01756037  0.43133737  1
  O  O39  1  0.97463641  0.21760176  0.16621637  1
