# generated using pymatgen
data_Na9Li7V16O48
_symmetry_space_group_name_H-M   'P 1'
_cell_length_a   6.97303203
_cell_length_b   6.97303203
_cell_length_c   22.51734067
_cell_angle_alpha   94.96187738
_cell_angle_beta   85.03812262
_cell_angle_gamma   96.62294955
_symmetry_Int_Tables_number   1
_chemical_formula_structural   Na9Li7V16O48
_chemical_formula_sum   'Na9 Li7 V16 O48'
_cell_volume   1080.23885526
_cell_formula_units_Z   1
loop_
 _symmetry_equiv_pos_site_id
 _symmetry_equiv_pos_as_xyz
  1  'x, y, z'
loop_
 _atom_site_type_symbol
 _atom_site_label
 _atom_site_symmetry_multiplicity
 _atom_site_fract_x
 _atom_site_fract_y
 _atom_site_fract_z
 _atom_site_occupancy
  Na  Na0  1  0.52288332  0.89788332  0.18750000  1
  Na  Na1  1  0.22712532  0.35143160  0.06225795  1
  Na  Na2  1  0.02359892  0.39859892  0.68750000  1
  Na  Na3  1  0.72640269  0.85139742  0.56249509  1
  Na  Na4  1  0.27366985  0.14863807  0.43754605  1
  Na  Na5  1  0.97643160  0.60212532  0.31274205  1
  Na  Na6  1  0.77363807  0.64866985  0.93745395  1
  Na  Na7  1  0.89593810  0.27093810  0.18750000  1
  Na  Na8  1  0.47639742  0.10140269  0.81250491  1
  Li  Li9  1  0.10086036  0.72585977  0.81250209  1
  Li  Li10  1  0.85077007  0.97523084  0.06222313  1
  Li  Li11  1  0.39914189  0.77414189  0.68750000  1
  Li  Li12  1  0.35085977  0.47586036  0.56249791  1
  Li  Li13  1  0.64914443  0.52410670  0.43749723  1
  Li  Li14  1  0.60023084  0.22577007  0.31277687  1
  Li  Li15  1  0.14910670  0.02414443  0.93750277  1
  V  V16  1  0.01179006  0.80799093  0.18714556  1
  V  V17  1  0.31922828  0.86484538  0.06214313  1
  V  V18  1  0.23977091  0.94387685  0.56275802  1
  V  V19  1  0.18112864  0.63524761  0.43778111  1
  V  V20  1  0.48984538  0.69422828  0.31285687  1
  V  V21  1  0.06996145  0.11450170  0.31298356  1
  V  V22  1  0.43299093  0.38679006  0.18785444  1
  V  V23  1  0.26024761  0.55612864  0.93721889  1
  V  V24  1  0.73950170  0.44496145  0.06201644  1
  V  V25  1  0.56887685  0.61477091  0.81224198  1
  V  V26  1  0.93112193  0.88520649  0.68775563  1
  V  V27  1  0.51020649  0.30612193  0.68724437  1
  V  V28  1  0.81885100  0.36480356  0.56225501  1
  V  V29  1  0.76008384  0.05609949  0.43732622  1
  V  V30  1  0.68109949  0.13508384  0.93767378  1
  V  V31  1  0.98980356  0.19385100  0.81274499  1
  O  O32  1  0.09462017  0.90456137  0.25958058  1
  O  O33  1  0.02802431  0.96913228  0.61545708  1
  O  O34  1  0.22285934  0.78007558  0.13438910  1
  O  O35  1  0.15585408  0.84697715  0.49046678  1
  O  O36  1  0.53822975  0.97969446  0.07483578  1
  O  O37  1  0.34427859  0.65297306  0.00952299  1
  O  O38  1  0.07464645  0.73465565  0.71254790  1
  O  O39  1  0.27797306  0.71927859  0.36547701  1
  O  O40  1  0.60469446  0.91322975  0.30016422  1
  O  O41  1  0.03802047  0.47952041  0.57484743  1
  O  O42  1  0.39035032  0.80036759  0.58754487  1
  O  O43  1  0.10968848  0.69967098  0.91244637  1
  O  O44  1  0.40507558  0.59785934  0.24061090  1
  O  O45  1  0.85747971  0.94351803  0.16111473  1
  O  O46  1  0.21828726  0.26796055  0.17399733  1
  O  O47  1  0.64537792  0.83692838  0.44986658  1
  O  O48  1  0.32467098  0.48468848  0.46255363  1
  O  O49  1  0.42536759  0.76535032  0.78745513  1
  O  O50  1  0.52956137  0.46962017  0.11541942  1
  O  O51  1  0.10452041  0.41302047  0.80015257  1
  O  O52  1  0.17530970  0.01533512  0.03749515  1
  O  O53  1  0.85471867  0.66387770  0.04985841  1
  O  O54  1  0.28887770  0.22971867  0.32514159  1
  O  O55  1  0.64033512  0.55030970  0.33750485  1
  O  O56  1  0.35965565  0.44964545  0.66245210  1
  O  O57  1  0.71195869  0.77046271  0.67515149  1
  O  O58  1  0.14557117  0.33697921  0.94981302  1
  O  O59  1  0.82464519  0.98468999  0.96253254  1
  O  O60  1  0.89296055  0.59328726  0.20100267  1
  O  O61  1  0.47197715  0.53085408  0.88453322  1
  O  O62  1  0.56851803  0.23247971  0.21388527  1
  O  O63  1  0.67531515  0.51529422  0.53745159  1
  O  O64  1  0.35451781  0.16303147  0.55014635  1
  O  O65  1  0.78803147  0.72951781  0.82485365  1
  O  O66  1  0.14029422  0.05031515  0.83754841  1
  O  O67  1  0.59413228  0.40302431  0.75954292  1
  O  O68  1  0.89145387  0.30011319  0.08508173  1
  O  O69  1  0.60968999  0.19964519  0.41246746  1
  O  O70  1  0.96197921  0.52057117  0.42518698  1
  O  O71  1  0.39546271  0.08695869  0.69984851  1
  O  O72  1  0.72197371  0.28087721  0.63455059  1
  O  O73  1  0.92511319  0.26645387  0.28991827  1
  O  O74  1  0.65499302  0.34728435  0.99010685  1
  O  O75  1  0.46192838  0.02037792  0.92513342  1
  O  O76  1  0.84411478  0.15302030  0.50957710  1
  O  O77  1  0.77802030  0.21911478  0.86542290  1
  O  O78  1  0.97228435  0.02999302  0.38489315  1
  O  O79  1  0.90587721  0.09697371  0.74044941  1
