# generated using pymatgen
data_Hf2N2O
_symmetry_space_group_name_H-M   'P 1'
_cell_length_a   8.73482932
_cell_length_b   8.74401584
_cell_length_c   8.69246439
_cell_angle_alpha   109.39131805
_cell_angle_beta   109.22487922
_cell_angle_gamma   109.61262289
_symmetry_Int_Tables_number   1
_chemical_formula_structural   Hf2N2O
_chemical_formula_sum   'Hf16 N16 O8'
_cell_volume   512.23517793
_cell_formula_units_Z   8
loop_
 _symmetry_equiv_pos_site_id
 _symmetry_equiv_pos_as_xyz
  1  'x, y, z'
loop_
 _atom_site_type_symbol
 _atom_site_label
 _atom_site_symmetry_multiplicity
 _atom_site_fract_x
 _atom_site_fract_y
 _atom_site_fract_z
 _atom_site_occupancy
  Hf  Hf0  1  0.50034178  0.99737977  0.99969405  1
  Hf  Hf1  1  0.75108017  0.28559233  0.53792650  1
  Hf  Hf2  1  0.71355929  0.46315799  0.24748240  1
  Hf  Hf3  1  0.21603463  0.96583387  0.25181539  1
  Hf  Hf4  1  0.24326079  0.21539657  0.95650991  1
  Hf  Hf5  1  0.96509303  0.25765779  0.22633321  1
  Hf  Hf6  1  0.00072064  0.00033559  0.49916422  1
  Hf  Hf7  1  0.48965393  0.49705746  0.49975616  1
  Hf  Hf8  1  0.03706688  0.74914431  0.78097424  1
  Hf  Hf9  1  0.47285705  0.26160289  0.71148584  1
  Hf  Hf10  1  0.99922961  0.51001867  0.99895504  1
  Hf  Hf11  1  0.52803329  0.73653631  0.28736428  1
  Hf  Hf12  1  0.76304657  0.78560493  0.04432367  1
  Hf  Hf13  1  0.28366071  0.53405075  0.74720634  1
  Hf  Hf14  1  0.77999738  0.02983036  0.74528777  1
  Hf  Hf15  1  0.24761373  0.70834493  0.46111953  1
  N  N16  1  0.73267338  0.22209336  0.27068449  1
  N  N17  1  0.44969630  0.45954267  0.22300653  1
  N  N18  1  0.77214598  0.72824035  0.26254035  1
  N  N19  1  0.72602170  0.25650738  0.77603668  1
  N  N20  1  0.01302912  0.04779785  0.27438511  1
  N  N21  1  0.46530510  0.22753899  0.45378558  1
  N  N22  1  0.95887546  0.73116515  0.98735574  1
  N  N23  1  0.96440835  0.51079895  0.23719050  1
  N  N24  1  0.27534284  0.74067201  0.22513292  1
  N  N25  1  0.53889727  0.77373949  0.54687115  1
  N  N26  1  0.22688771  0.45581008  0.46760745  1
  N  N27  1  0.98558545  0.95292374  0.72772734  1
  N  N28  1  0.22940438  0.27157344  0.74101986  1
  N  N29  1  0.54910888  0.53823063  0.77648893  1
  N  N30  1  0.03116740  0.48634729  0.75617434  1
  N  N31  1  0.26885359  0.78272513  0.73188103  1
  O  O32  1  0.72483392  0.99067579  0.95486371  1
  O  O33  1  0.50687471  0.23113495  0.96428761  1
  O  O34  1  0.76611664  0.03784609  0.49185356  1
  O  O35  1  0.27780760  0.01155497  0.04559263  1
  O  O36  1  0.04315903  0.26608120  0.01336479  1
  O  O37  1  0.77511487  0.54515023  0.53113232  1
  O  O38  1  0.49408483  0.77114288  0.03841664  1
  O  O39  1  0.23335401  0.96316088  0.50720119  1
