# generated using pymatgen
data_Li2Co2(SO4)3
_symmetry_space_group_name_H-M   'P 1'
_cell_length_a   12.23585142
_cell_length_b   8.66036270
_cell_length_c   8.83685520
_cell_angle_alpha   90.00000000
_cell_angle_beta   90.00000000
_cell_angle_gamma   90.00000000
_symmetry_Int_Tables_number   1
_chemical_formula_structural   Li2Co2(SO4)3
_chemical_formula_sum   'Li8 Co8 S12 O48'
_cell_volume   936.41425062
_cell_formula_units_Z   4
loop_
 _symmetry_equiv_pos_site_id
 _symmetry_equiv_pos_as_xyz
  1  'x, y, z'
loop_
 _atom_site_type_symbol
 _atom_site_label
 _atom_site_symmetry_multiplicity
 _atom_site_fract_x
 _atom_site_fract_y
 _atom_site_fract_z
 _atom_site_occupancy
  Li  Li0  1  0.18361910  0.21791508  0.27558520  1
  Li  Li1  1  0.18361910  0.78208492  0.77558520  1
  Li  Li2  1  0.31638090  0.28208492  0.77558520  1
  Li  Li3  1  0.31638090  0.71791508  0.27558520  1
  Li  Li4  1  0.68361910  0.28208492  0.72441480  1
  Li  Li5  1  0.68361910  0.71791508  0.22441480  1
  Li  Li6  1  0.81638090  0.21791508  0.22441480  1
  Li  Li7  1  0.81638090  0.78208492  0.72441480  1
  Co  Co8  1  0.11330843  0.25375709  0.96263297  1
  Co  Co9  1  0.11330843  0.74624291  0.46263297  1
  Co  Co10  1  0.38669157  0.75375709  0.96263297  1
  Co  Co11  1  0.38669157  0.24624291  0.46263297  1
  Co  Co12  1  0.61330843  0.24624291  0.03736703  1
  Co  Co13  1  0.61330843  0.75375709  0.53736703  1
  Co  Co14  1  0.88669157  0.25375709  0.53736703  1
  Co  Co15  1  0.88669157  0.74624291  0.03736703  1
  S  S16  1  0.00000000  0.45942380  0.25000000  1
  S  S17  1  0.00000000  0.54057620  0.75000000  1
  S  S18  1  0.14457314  0.10115561  0.60582471  1
  S  S19  1  0.14457314  0.89884439  0.10582471  1
  S  S20  1  0.35542686  0.39884439  0.10582471  1
  S  S21  1  0.35542686  0.60115561  0.60582471  1
  S  S22  1  0.50000000  0.04057620  0.75000000  1
  S  S23  1  0.50000000  0.95942380  0.25000000  1
  S  S24  1  0.64457314  0.39884439  0.39417529  1
  S  S25  1  0.64457314  0.60115561  0.89417529  1
  S  S26  1  0.85542686  0.10115561  0.89417529  1
  S  S27  1  0.85542686  0.89884439  0.39417529  1
  O  O28  1  0.02982919  0.13577808  0.57485599  1
  O  O29  1  0.02982919  0.86422192  0.07485599  1
  O  O30  1  0.05843474  0.55107465  0.36403444  1
  O  O31  1  0.05843474  0.44892535  0.86403444  1
  O  O32  1  0.08253881  0.35754312  0.17440159  1
  O  O33  1  0.08253881  0.64245688  0.67440159  1
  O  O34  1  0.16084768  0.07035016  0.11140382  1
  O  O35  1  0.16084768  0.92964984  0.61140382  1
  O  O36  1  0.18015509  0.16671606  0.75420239  1
  O  O37  1  0.18015509  0.83328394  0.25420239  1
  O  O38  1  0.21572492  0.83338648  0.98353343  1
  O  O39  1  0.21572492  0.16661352  0.48353343  1
  O  O40  1  0.28427508  0.33338648  0.98353343  1
  O  O41  1  0.28427508  0.66661352  0.48353343  1
  O  O42  1  0.31984491  0.66671606  0.75420239  1
  O  O43  1  0.31984491  0.33328394  0.25420239  1
  O  O44  1  0.33915232  0.42964984  0.61140382  1
  O  O45  1  0.33915232  0.57035016  0.11140382  1
  O  O46  1  0.41746119  0.14245688  0.67440159  1
  O  O47  1  0.41746119  0.85754312  0.17440159  1
  O  O48  1  0.44156526  0.05107465  0.36403444  1
  O  O49  1  0.44156526  0.94892535  0.86403444  1
  O  O50  1  0.47017081  0.63577808  0.57485599  1
  O  O51  1  0.47017081  0.36422192  0.07485599  1
  O  O52  1  0.52982919  0.36422192  0.42514401  1
  O  O53  1  0.52982919  0.63577808  0.92514401  1
  O  O54  1  0.55843474  0.05107465  0.13596556  1
  O  O55  1  0.55843474  0.94892535  0.63596556  1
  O  O56  1  0.58253881  0.14245688  0.82559841  1
  O  O57  1  0.58253881  0.85754312  0.32559841  1
  O  O58  1  0.66084768  0.42964984  0.88859618  1
  O  O59  1  0.66084768  0.57035016  0.38859618  1
  O  O60  1  0.68015509  0.33328394  0.24579761  1
  O  O61  1  0.68015509  0.66671606  0.74579761  1
  O  O62  1  0.71572492  0.33338648  0.51646657  1
  O  O63  1  0.71572492  0.66661352  0.01646657  1
  O  O64  1  0.78427508  0.16661352  0.01646657  1
  O  O65  1  0.78427508  0.83338648  0.51646657  1
  O  O66  1  0.81984491  0.16671606  0.74579761  1
  O  O67  1  0.81984491  0.83328394  0.24579761  1
  O  O68  1  0.83915232  0.07035016  0.38859618  1
  O  O69  1  0.83915232  0.92964984  0.88859618  1
  O  O70  1  0.91746119  0.35754312  0.32559841  1
  O  O71  1  0.91746119  0.64245688  0.82559841  1
  O  O72  1  0.94156526  0.44892535  0.63596556  1
  O  O73  1  0.94156526  0.55107465  0.13596556  1
  O  O74  1  0.97017081  0.13577808  0.92514401  1
  O  O75  1  0.97017081  0.86422192  0.42514401  1
