# generated using pymatgen
data_Ho3Fe5O12
_symmetry_space_group_name_H-M   'P 1'
_cell_length_a   10.81686039
_cell_length_b   10.81686039
_cell_length_c   10.81686039
_cell_angle_alpha   109.47122063
_cell_angle_beta   109.47122063
_cell_angle_gamma   109.47122063
_symmetry_Int_Tables_number   1
_chemical_formula_structural   Ho3Fe5O12
_chemical_formula_sum   'Ho12 Fe20 O48'
_cell_volume   974.27550325
_cell_formula_units_Z   4
loop_
 _symmetry_equiv_pos_site_id
 _symmetry_equiv_pos_as_xyz
  1  'x, y, z'
loop_
 _atom_site_type_symbol
 _atom_site_label
 _atom_site_symmetry_multiplicity
 _atom_site_fract_x
 _atom_site_fract_y
 _atom_site_fract_z
 _atom_site_occupancy
  Ho  Ho0  1  0.75000000  0.12500000  0.37500000  1
  Ho  Ho1  1  0.37500000  0.12500000  0.25000000  1
  Ho  Ho2  1  0.87500000  0.62500000  0.25000000  1
  Ho  Ho3  1  0.25000000  0.37500000  0.12500000  1
  Ho  Ho4  1  0.62500000  0.25000000  0.87500000  1
  Ho  Ho5  1  0.37500000  0.75000000  0.12500000  1
  Ho  Ho6  1  0.12500000  0.25000000  0.37500000  1
  Ho  Ho7  1  0.87500000  0.75000000  0.62500000  1
  Ho  Ho8  1  0.75000000  0.62500000  0.87500000  1
  Ho  Ho9  1  0.62500000  0.87500000  0.75000000  1
  Ho  Ho10  1  0.12500000  0.37500000  0.75000000  1
  Ho  Ho11  1  0.25000000  0.87500000  0.62500000  1
  Fe  Fe12  1  0.87500000  0.25000000  0.12500000  1
  Fe  Fe13  1  0.50000000  0.00000000  0.00000000  1
  Fe  Fe14  1  0.00000000  0.00000000  0.00000000  1
  Fe  Fe15  1  0.62500000  0.37500000  0.25000000  1
  Fe  Fe16  1  0.50000000  0.00000000  0.50000000  1
  Fe  Fe17  1  0.50000000  0.50000000  0.00000000  1
  Fe  Fe18  1  0.87500000  0.12500000  0.75000000  1
  Fe  Fe19  1  0.75000000  0.87500000  0.12500000  1
  Fe  Fe20  1  0.75000000  0.37500000  0.62500000  1
  Fe  Fe21  1  0.62500000  0.75000000  0.37500000  1
  Fe  Fe22  1  0.50000000  0.50000000  0.50000000  1
  Fe  Fe23  1  0.00000000  0.50000000  0.00000000  1
  Fe  Fe24  1  0.00000000  0.00000000  0.50000000  1
  Fe  Fe25  1  0.37500000  0.25000000  0.62500000  1
  Fe  Fe26  1  0.25000000  0.62500000  0.37500000  1
  Fe  Fe27  1  0.25000000  0.12500000  0.87500000  1
  Fe  Fe28  1  0.37500000  0.62500000  0.75000000  1
  Fe  Fe29  1  0.12500000  0.87500000  0.25000000  1
  Fe  Fe30  1  0.00000000  0.50000000  0.50000000  1
  Fe  Fe31  1  0.12500000  0.75000000  0.87500000  1
  O  O32  1  0.90703521  0.03261435  0.32303250  1
  O  O33  1  0.87442186  0.40703521  0.08400371  1
  O  O34  1  0.91599629  0.29041815  0.32303250  1
  O  O35  1  0.91599629  0.12557814  0.59296479  1
  O  O36  1  0.96738565  0.67696750  0.09296479  1
  O  O37  1  0.58400371  0.17696750  0.20958185  1
  O  O38  1  0.62557814  0.41599629  0.09296479  1
  O  O39  1  0.20958185  0.12557814  0.03261435  1
  O  O40  1  0.70958185  0.67696750  0.08400371  1
  O  O41  1  0.59296479  0.17696750  0.46738565  1
  O  O42  1  0.90703521  0.37442186  0.58400371  1
  O  O43  1  0.12557814  0.03261435  0.20958185  1
  O  O44  1  0.82303250  0.53261435  0.40703521  1
  O  O45  1  0.67696750  0.08400371  0.70958185  1
  O  O46  1  0.46738565  0.37442186  0.29041815  1
  O  O47  1  0.46738565  0.59296479  0.17696750  1
  O  O48  1  0.41599629  0.09296479  0.62557814  1
  O  O49  1  0.03261435  0.20958185  0.12557814  1
  O  O50  1  0.82303250  0.79041815  0.41599629  1
  O  O51  1  0.37442186  0.29041815  0.46738565  1
  O  O52  1  0.67696750  0.09296479  0.96738565  1
  O  O53  1  0.70958185  0.53261435  0.62557814  1
  O  O54  1  0.79041815  0.41599629  0.82303250  1
  O  O55  1  0.59296479  0.91599629  0.12557814  1
  O  O56  1  0.29041815  0.46738565  0.37442186  1
  O  O57  1  0.40703521  0.08400371  0.87442186  1
  O  O58  1  0.20958185  0.58400371  0.17696750  1
  O  O59  1  0.17696750  0.20958185  0.58400371  1
  O  O60  1  0.62557814  0.70958185  0.53261435  1
  O  O61  1  0.32303250  0.90703521  0.03261435  1
  O  O62  1  0.58400371  0.90703521  0.37442186  1
  O  O63  1  0.53261435  0.40703521  0.82303250  1
  O  O64  1  0.96738565  0.79041815  0.87442186  1
  O  O65  1  0.53261435  0.62557814  0.70958185  1
  O  O66  1  0.32303250  0.91599629  0.29041815  1
  O  O67  1  0.17696750  0.46738565  0.59296479  1
  O  O68  1  0.87442186  0.96738565  0.79041815  1
  O  O69  1  0.40703521  0.82303250  0.53261435  1
  O  O70  1  0.29041815  0.32303250  0.91599629  1
  O  O71  1  0.09296479  0.62557814  0.41599629  1
  O  O72  1  0.79041815  0.87442186  0.96738565  1
  O  O73  1  0.37442186  0.58400371  0.90703521  1
  O  O74  1  0.41599629  0.82303250  0.79041815  1
  O  O75  1  0.03261435  0.32303250  0.90703521  1
  O  O76  1  0.08400371  0.87442186  0.40703521  1
  O  O77  1  0.08400371  0.70958185  0.67696750  1
  O  O78  1  0.12557814  0.59296479  0.91599629  1
  O  O79  1  0.09296479  0.96738565  0.67696750  1
