# generated using pymatgen
data_Zn(PO3)2
_symmetry_space_group_name_H-M   'P 1'
_cell_length_a   5.02498719
_cell_length_b   6.74841037
_cell_length_c   6.74841037
_cell_angle_alpha   84.84264440
_cell_angle_beta   75.99213636
_cell_angle_gamma   75.99213633
_symmetry_Int_Tables_number   1
_chemical_formula_structural   Zn(PO3)2
_chemical_formula_sum   'Zn2 P4 O12'
_cell_volume   215.31597258
_cell_formula_units_Z   2
loop_
 _symmetry_equiv_pos_site_id
 _symmetry_equiv_pos_as_xyz
  1  'x, y, z'
loop_
 _atom_site_type_symbol
 _atom_site_label
 _atom_site_symmetry_multiplicity
 _atom_site_fract_x
 _atom_site_fract_y
 _atom_site_fract_z
 _atom_site_occupancy
  O  O0  1  0.30896730  0.88706452  0.41062515  1
  O  O1  1  0.19103270  0.58937485  0.11293548  1
  O  O2  1  0.69103270  0.11293548  0.58937485  1
  O  O3  1  0.80896730  0.41062515  0.88706452  1
  O  O4  1  0.15240811  0.94776032  0.80111161  1
  O  O5  1  0.34759189  0.19888839  0.05223968  1
  O  O6  1  0.96008420  0.34457516  0.35584029  1
  O  O7  1  0.53991580  0.64415971  0.65542484  1
  O  O8  1  0.03991580  0.65542484  0.64415971  1
  O  O9  1  0.46008420  0.35584029  0.34457516  1
  O  O10  1  0.65240811  0.80111161  0.94776032  1
  O  O11  1  0.84759189  0.05223968  0.19888839  1
  P  P12  1  0.25572189  0.80278161  0.62505974  1
  P  P13  1  0.24427811  0.37494026  0.19721839  1
  P  P14  1  0.74427811  0.19721839  0.37494026  1
  P  P15  1  0.75572189  0.62505974  0.80278161  1
  Zn  Zn16  1  0.25000000  0.87580153  0.12419847  1
  Zn  Zn17  1  0.75000000  0.12419847  0.87580153  1
