# generated using pymatgen
data_LiMn(SO4)2
_symmetry_space_group_name_H-M   'P 1'
_cell_length_a   9.32866571
_cell_length_b   9.05003455
_cell_length_c   13.70708826
_cell_angle_alpha   90.00000000
_cell_angle_beta   90.41333676
_cell_angle_gamma   90.00000000
_symmetry_Int_Tables_number   1
_chemical_formula_structural   LiMn(SO4)2
_chemical_formula_sum   'Li8 Mn8 S16 O64'
_cell_volume   1157.18734538
_cell_formula_units_Z   8
loop_
 _symmetry_equiv_pos_site_id
 _symmetry_equiv_pos_as_xyz
  1  'x, y, z'
loop_
 _atom_site_type_symbol
 _atom_site_label
 _atom_site_symmetry_multiplicity
 _atom_site_fract_x
 _atom_site_fract_y
 _atom_site_fract_z
 _atom_site_occupancy
  Li  Li0  1  0.05029901  0.21006740  0.37729140  1
  Li  Li1  1  0.05029901  0.28993260  0.87729140  1
  Li  Li2  1  0.44820709  0.71300634  0.37457136  1
  Li  Li3  1  0.44820709  0.78699366  0.87457136  1
  Li  Li4  1  0.77087812  0.45109926  0.12744837  1
  Li  Li5  1  0.77087812  0.04890074  0.62744837  1
  Li  Li6  1  0.96068328  0.77506090  0.62500702  1
  Li  Li7  1  0.96068328  0.72493910  0.12500702  1
  Mn  Mn8  1  0.14216167  0.10492969  0.12563436  1
  Mn  Mn9  1  0.14216167  0.39507031  0.62563436  1
  Mn  Mn10  1  0.36199111  0.60726636  0.12634337  1
  Mn  Mn11  1  0.36199111  0.89273364  0.62634337  1
  Mn  Mn12  1  0.63694095  0.10612798  0.37130662  1
  Mn  Mn13  1  0.63694095  0.39387202  0.87130662  1
  Mn  Mn14  1  0.86139164  0.60548071  0.37383044  1
  Mn  Mn15  1  0.86139164  0.89451929  0.87383044  1
  S  S16  1  0.07288665  0.06450289  0.72747892  1
  S  S17  1  0.07288665  0.43549711  0.22747892  1
  S  S18  1  0.16496828  0.68691182  0.49039949  1
  S  S19  1  0.16496828  0.81308818  0.99039949  1
  S  S20  1  0.33899226  0.18612074  0.49268479  1
  S  S21  1  0.33899226  0.31387926  0.99268479  1
  S  S22  1  0.42691932  0.93476357  0.22276316  1
  S  S23  1  0.42691932  0.56523643  0.72276216  1
  S  S24  1  0.57027113  0.43433657  0.27402566  1
  S  S25  1  0.57027113  0.06566343  0.77402566  1
  S  S26  1  0.66611585  0.68942223  0.00985195  1
  S  S27  1  0.66611585  0.81057777  0.50985195  1
  S  S28  1  0.83700612  0.18664903  0.00851210  1
  S  S29  1  0.83700612  0.31335097  0.50851210  1
  S  S30  1  0.92591237  0.56307763  0.77419871  1
  S  S31  1  0.92591237  0.93692237  0.27419871  1
  O  O32  1  0.00641665  0.70506619  0.47920799  1
  O  O33  1  0.00641665  0.79493381  0.97920799  1
  O  O34  1  0.01717519  0.99877602  0.34977083  1
  O  O35  1  0.01717519  0.50122398  0.84977083  1
  O  O36  1  0.01377468  0.46768270  0.32886335  1
  O  O37  1  0.01377468  0.03231730  0.82886335  1
  O  O38  1  0.07190753  0.23085790  0.72442209  1
  O  O39  1  0.07190753  0.26914210  0.22442209  1
  O  O40  1  0.19385889  0.72442545  0.08337989  1
  O  O41  1  0.19385889  0.77557455  0.58337989  1
  O  O42  1  0.20187071  0.96949344  0.01207132  1
  O  O43  1  0.20187071  0.53050656  0.51207132  1
  O  O44  1  0.21885154  0.00759575  0.72339634  1
  O  O45  1  0.21885154  0.49240425  0.22339634  1
  O  O46  1  0.24500754  0.73825381  0.40733109  1
  O  O47  1  0.24500754  0.76174619  0.90733109  1
  O  O48  1  0.25294770  0.23007768  0.40908297  1
  O  O49  1  0.25294770  0.26992232  0.90908297  1
  O  O50  1  0.27725164  0.98868564  0.22222526  1
  O  O51  1  0.27725164  0.51131436  0.72222526  1
  O  O52  1  0.30197359  0.02809793  0.51753308  1
  O  O53  1  0.30197359  0.47190207  0.01753308  1
  O  O54  1  0.30654957  0.22310750  0.08290921  1
  O  O55  1  0.30654957  0.27689250  0.58290921  1
  O  O56  1  0.42183063  0.76435302  0.22516010  1
  O  O57  1  0.42183063  0.73564698  0.72516010  1
  O  O58  1  0.48448186  0.53464181  0.82670625  1
  O  O59  1  0.48448186  0.96535819  0.32670625  1
  O  O60  1  0.48547492  0.50278917  0.34936650  1
  O  O61  1  0.48547492  0.99721083  0.84936650  1
  O  O62  1  0.49412304  0.20141087  0.47670661  1
  O  O63  1  0.49412304  0.29858913  0.97670661  1
  O  O64  1  0.50906075  0.70737412  0.01964227  1
  O  O65  1  0.50906075  0.79262588  0.51964227  1
  O  O66  1  0.51731316  0.50810204  0.64802976  1
  O  O67  1  0.51731316  0.99189796  0.14802976  1
  O  O68  1  0.51629962  0.47147025  0.17144846  1
  O  O69  1  0.51629962  0.02852975  0.67144846  1
  O  O70  1  0.56989698  0.27035193  0.27768947  1
  O  O71  1  0.56989698  0.22964807  0.77768947  1
  O  O72  1  0.69736339  0.72432231  0.41727258  1
  O  O73  1  0.69736339  0.77567769  0.91727258  1
  O  O74  1  0.70302614  0.53042661  0.99034014  1
  O  O75  1  0.70302614  0.96957339  0.49034014  1
  O  O76  1  0.72303399  0.48812664  0.27228457  1
  O  O77  1  0.72303399  0.01187336  0.77228457  1
  O  O78  1  0.74845122  0.73587382  0.09468918  1
  O  O79  1  0.74845122  0.76412618  0.59468918  1
  O  O80  1  0.76221843  0.24218516  0.09289372  1
  O  O81  1  0.76221843  0.25781484  0.59289372  1
  O  O82  1  0.77701960  0.50955828  0.77667706  1
  O  O83  1  0.77701960  0.99044172  0.27667706  1
  O  O84  1  0.79731254  0.46911052  0.48747277  1
  O  O85  1  0.79731254  0.03088948  0.98747277  1
  O  O86  1  0.80590358  0.22304917  0.41621396  1
  O  O87  1  0.80590358  0.27695083  0.91621396  1
  O  O88  1  0.92594852  0.73138419  0.77508794  1
  O  O89  1  0.92594852  0.76861581  0.27508794  1
  O  O90  1  0.98420796  0.53153081  0.67210826  1
  O  O91  1  0.98420796  0.96846919  0.17210826  1
  O  O92  1  0.97824313  0.00061243  0.65201378  1
  O  O93  1  0.97824313  0.49938757  0.15201378  1
  O  O94  1  0.99647948  0.20186817  0.01773645  1
  O  O95  1  0.99647948  0.29813183  0.51773645  1
