# generated using pymatgen
data_V4OF11
_symmetry_space_group_name_H-M   'P 1'
_cell_length_a   5.26380639
_cell_length_b   7.47618820
_cell_length_c   5.48605675
_cell_angle_alpha   93.31707965
_cell_angle_beta   90.00000000
_cell_angle_gamma   90.00000000
_symmetry_Int_Tables_number   1
_chemical_formula_structural   V4OF11
_chemical_formula_sum   'V4 O1 F11'
_cell_volume   215.53222223
_cell_formula_units_Z   1
loop_
 _symmetry_equiv_pos_site_id
 _symmetry_equiv_pos_as_xyz
  1  'x, y, z'
loop_
 _atom_site_type_symbol
 _atom_site_label
 _atom_site_symmetry_multiplicity
 _atom_site_fract_x
 _atom_site_fract_y
 _atom_site_fract_z
 _atom_site_occupancy
  V  V0  1  0.50669793  0.48749782  0.49992644  1
  V  V1  1  0.50669793  0.01250218  0.50007356  1
  V  V2  1  0.00071233  0.50056675  0.99997237  1
  V  V3  1  0.00071233  0.99943325  0.00002763  1
  O  O4  1  0.57220397  0.25000000  0.50000000  1
  F  F5  1  0.88848876  0.25000000  0.00000000  1
  F  F6  1  0.80336127  0.55194395  0.30282931  1
  F  F7  1  0.80336127  0.94805605  0.69717069  1
  F  F8  1  0.69907900  0.94763075  0.19985032  1
  F  F9  1  0.69907900  0.55236925  0.80014968  1
  F  F10  1  0.41272824  0.75000000  0.50000000  1
  F  F11  1  0.30273778  0.45085403  0.19836932  1
  F  F12  1  0.30273778  0.04914597  0.80163068  1
  F  F13  1  0.19509938  0.04799014  0.30351468  1
  F  F14  1  0.19509938  0.45200986  0.69648532  1
  F  F15  1  0.11120364  0.75000000  0.00000000  1
