# generated using pymatgen
data_CoTe2O5
_symmetry_space_group_name_H-M   'P 1'
_cell_length_a   9.09599026
_cell_length_b   12.27202375
_cell_length_c   8.65099456
_cell_angle_alpha   90.00000000
_cell_angle_beta   90.00000000
_cell_angle_gamma   90.00000000
_symmetry_Int_Tables_number   1
_chemical_formula_structural   CoTe2O5
_chemical_formula_sum   'Co8 Te16 O40'
_cell_volume   965.67772249
_cell_formula_units_Z   8
loop_
 _symmetry_equiv_pos_site_id
 _symmetry_equiv_pos_as_xyz
  1  'x, y, z'
loop_
 _atom_site_type_symbol
 _atom_site_label
 _atom_site_symmetry_multiplicity
 _atom_site_fract_x
 _atom_site_fract_y
 _atom_site_fract_z
 _atom_site_occupancy
  Co  Co0  1  0.01396673  0.12099710  0.51564807  1
  Co  Co1  1  0.01396673  0.37900290  0.51564807  1
  Co  Co2  1  0.48603327  0.62099710  0.01564807  1
  Co  Co3  1  0.48603327  0.87900290  0.01564807  1
  Co  Co4  1  0.51396673  0.12099710  0.98435193  1
  Co  Co5  1  0.51396673  0.37900290  0.98435193  1
  Co  Co6  1  0.98603327  0.87900290  0.48435193  1
  Co  Co7  1  0.98603327  0.62099710  0.48435193  1
  Te  Te8  1  0.10473203  0.25000000  0.19929650  1
  Te  Te9  1  0.15081892  0.51247306  0.84009263  1
  Te  Te10  1  0.15081892  0.98752694  0.84009263  1
  Te  Te11  1  0.16839420  0.75000000  0.18195179  1
  Te  Te12  1  0.33160580  0.25000000  0.68195179  1
  Te  Te13  1  0.34918108  0.01247306  0.34009263  1
  Te  Te14  1  0.34918108  0.48752694  0.34009263  1
  Te  Te15  1  0.39526797  0.75000000  0.69929650  1
  Te  Te16  1  0.60473203  0.25000000  0.30070350  1
  Te  Te17  1  0.65081892  0.51247306  0.65990737  1
  Te  Te18  1  0.65081892  0.98752694  0.65990737  1
  Te  Te19  1  0.66839420  0.75000000  0.31804821  1
  Te  Te20  1  0.83160580  0.25000000  0.81804821  1
  Te  Te21  1  0.84918108  0.01247306  0.15990737  1
  Te  Te22  1  0.84918108  0.48752694  0.15990737  1
  Te  Te23  1  0.89526797  0.75000000  0.80070350  1
  O  O24  1  0.00906062  0.62766404  0.90545443  1
  O  O25  1  0.00906062  0.87233596  0.90545443  1
  O  O26  1  0.03001075  0.75000000  0.63033749  1
  O  O27  1  0.11914693  0.51197662  0.62145485  1
  O  O28  1  0.11914693  0.98802338  0.62145485  1
  O  O29  1  0.12188659  0.25000000  0.65833545  1
  O  O30  1  0.15609690  0.62940289  0.32329484  1
  O  O31  1  0.15609690  0.87059711  0.32329484  1
  O  O32  1  0.19017614  0.11373620  0.35210077  1
  O  O33  1  0.19017614  0.38626380  0.35210077  1
  O  O34  1  0.30982386  0.61373620  0.85210077  1
  O  O35  1  0.30982386  0.88626380  0.85210077  1
  O  O36  1  0.34390310  0.12940289  0.82329484  1
  O  O37  1  0.34390310  0.37059711  0.82329484  1
  O  O38  1  0.37811341  0.75000000  0.15833545  1
  O  O39  1  0.38085307  0.01197662  0.12145485  1
  O  O40  1  0.38085307  0.48802338  0.12145485  1
  O  O41  1  0.46998825  0.25000000  0.13033749  1
  O  O42  1  0.49093938  0.37233596  0.40545443  1
  O  O43  1  0.49093938  0.12766404  0.40545443  1
  O  O44  1  0.50906062  0.87233596  0.59454557  1
  O  O45  1  0.50906062  0.62766404  0.59454557  1
  O  O46  1  0.53001175  0.75000000  0.86966251  1
  O  O47  1  0.61914693  0.51197662  0.87854515  1
  O  O48  1  0.61914693  0.98802338  0.87854515  1
  O  O49  1  0.62188659  0.25000000  0.84166455  1
  O  O50  1  0.65609690  0.87059711  0.17670516  1
  O  O51  1  0.65609690  0.62940289  0.17670516  1
  O  O52  1  0.69017614  0.11373620  0.14789923  1
  O  O53  1  0.69017614  0.38626380  0.14789923  1
  O  O54  1  0.80982386  0.88626380  0.64789923  1
  O  O55  1  0.80982386  0.61373620  0.64789923  1
  O  O56  1  0.84390310  0.12940289  0.67670516  1
  O  O57  1  0.84390310  0.37059711  0.67670516  1
  O  O58  1  0.87811341  0.75000000  0.34166455  1
  O  O59  1  0.88085307  0.01197662  0.37854515  1
  O  O60  1  0.88085307  0.48802338  0.37854515  1
  O  O61  1  0.96998825  0.25000000  0.36966251  1
  O  O62  1  0.99093938  0.12766404  0.09454557  1
  O  O63  1  0.99093938  0.37233596  0.09454557  1
