# generated using pymatgen
data_DyP5O14
_symmetry_space_group_name_H-M   'P 1'
_cell_length_a   8.76979575
_cell_length_b   8.97147045
_cell_length_c   13.01941441
_cell_angle_alpha   90.00000000
_cell_angle_beta   90.59623369
_cell_angle_gamma   90.00000000
_symmetry_Int_Tables_number   1
_chemical_formula_structural   DyP5O14
_chemical_formula_sum   'Dy4 P20 O56'
_cell_volume   1024.28554866
_cell_formula_units_Z   4
loop_
 _symmetry_equiv_pos_site_id
 _symmetry_equiv_pos_as_xyz
  1  'x, y, z'
loop_
 _atom_site_type_symbol
 _atom_site_label
 _atom_site_symmetry_multiplicity
 _atom_site_fract_x
 _atom_site_fract_y
 _atom_site_fract_z
 _atom_site_occupancy
  Dy  Dy0  1  0.22200815  0.18600774  0.50158081  1
  Dy  Dy1  1  0.22200815  0.31399226  0.00158081  1
  Dy  Dy2  1  0.77799185  0.68600774  0.99841919  1
  Dy  Dy3  1  0.77799185  0.81399226  0.49841919  1
  P  P4  1  0.00929940  0.99250184  0.70314164  1
  P  P5  1  0.00929940  0.50749816  0.20314164  1
  P  P6  1  0.18453891  0.74327774  0.99976632  1
  P  P7  1  0.18453891  0.75672226  0.49976632  1
  P  P8  1  0.25401226  0.54491459  0.66314596  1
  P  P9  1  0.25401226  0.95508541  0.16314596  1
  P  P10  1  0.27625952  0.95062117  0.83822543  1
  P  P11  1  0.27625952  0.54937883  0.33822543  1
  P  P12  1  0.49245985  0.49724821  0.82730664  1
  P  P13  1  0.49245985  0.00275179  0.32730664  1
  P  P14  1  0.50754015  0.99724821  0.67269336  1
  P  P15  1  0.50754015  0.50275179  0.17269336  1
  P  P16  1  0.72374048  0.45062117  0.66177457  1
  P  P17  1  0.72374048  0.04937883  0.16177457  1
  P  P18  1  0.74598774  0.04491459  0.83685404  1
  P  P19  1  0.74598774  0.45508541  0.33685404  1
  P  P20  1  0.81546109  0.24327774  0.50023368  1
  P  P21  1  0.81546109  0.25672226  0.00023368  1
  P  P22  1  0.99070060  0.49250184  0.79685836  1
  P  P23  1  0.99070060  0.00749816  0.29685836  1
  O  O24  1  0.02864562  0.81058826  0.99317641  1
  O  O25  1  0.02864562  0.68941174  0.49317641  1
  O  O26  1  0.08617849  0.38014032  0.85171766  1
  O  O27  1  0.08980533  0.11508385  0.64890074  1
  O  O28  1  0.08815849  0.56858446  0.70552700  1
  O  O29  1  0.08617849  0.11985968  0.35171766  1
  O  O30  1  0.08980533  0.38491615  0.14890074  1
  O  O31  1  0.08815849  0.93141554  0.20552700  1
  O  O32  1  0.13066843  0.90046708  0.77382097  1
  O  O33  1  0.13066843  0.59953292  0.27381997  1
  O  O34  1  0.21087949  0.57996184  0.99841867  1
  O  O35  1  0.21087949  0.92003816  0.49841867  1
  O  O36  1  0.27021496  0.09909509  0.88686274  1
  O  O37  1  0.27021496  0.40090491  0.38686274  1
  O  O38  1  0.27703371  0.69333355  0.60016355  1
  O  O39  1  0.28063274  0.40489660  0.60618234  1
  O  O40  1  0.27703371  0.80666645  0.10016355  1
  O  O41  1  0.28063274  0.09510340  0.10618234  1
  O  O42  1  0.29720021  0.81475318  0.91365035  1
  O  O43  1  0.29720021  0.68524682  0.41365035  1
  O  O44  1  0.36287185  0.58053281  0.75679195  1
  O  O45  1  0.36287185  0.91946719  0.25679195  1
  O  O46  1  0.41417497  0.91682793  0.76525534  1
  O  O47  1  0.41251026  0.11527743  0.62371532  1
  O  O48  1  0.41796145  0.37727025  0.88788811  1
  O  O49  1  0.41417497  0.58317207  0.26525534  1
  O  O50  1  0.41251026  0.38472257  0.12371532  1
  O  O51  1  0.41796145  0.12272975  0.38788811  1
  O  O52  1  0.58203855  0.87727025  0.61211189  1
  O  O53  1  0.58748974  0.61527743  0.87628468  1
  O  O54  1  0.58582503  0.41682793  0.73474466  1
  O  O55  1  0.58203855  0.62272975  0.11211189  1
  O  O56  1  0.58748974  0.88472257  0.37628468  1
  O  O57  1  0.58582503  0.08317207  0.23474466  1
  O  O58  1  0.63712815  0.08053281  0.74320805  1
  O  O59  1  0.63712815  0.41946719  0.24320805  1
  O  O60  1  0.70279979  0.31475318  0.58634965  1
  O  O61  1  0.70279979  0.18524682  0.08634965  1
  O  O62  1  0.71936726  0.90489660  0.89381766  1
  O  O63  1  0.72296629  0.19333355  0.89983645  1
  O  O64  1  0.71936726  0.59510340  0.39381766  1
  O  O65  1  0.72296629  0.30666645  0.39983645  1
  O  O66  1  0.72978504  0.59909509  0.61313726  1
  O  O67  1  0.72978504  0.90090491  0.11313726  1
  O  O68  1  0.78912051  0.07996184  0.50158133  1
  O  O69  1  0.78912051  0.42003816  0.00158133  1
  O  O70  1  0.86933157  0.40046708  0.72617903  1
  O  O71  1  0.86933157  0.09953292  0.22617903  1
  O  O72  1  0.91184151  0.06858446  0.79447300  1
  O  O73  1  0.91019467  0.61508385  0.85109926  1
  O  O74  1  0.91382151  0.88014032  0.64828234  1
  O  O75  1  0.91184151  0.43141554  0.29447300  1
  O  O76  1  0.91019467  0.88491615  0.35109926  1
  O  O77  1  0.91382151  0.61985968  0.14828234  1
  O  O78  1  0.97135438  0.31058826  0.50682359  1
  O  O79  1  0.97135438  0.18941174  0.00682359  1
