# generated using pymatgen
data_Zn2As2O7
_symmetry_space_group_name_H-M   'P 1'
_cell_length_a   9.75856273
_cell_length_b   11.15925080
_cell_length_c   11.15925080
_cell_angle_alpha   45.23907714
_cell_angle_beta   98.91906083
_cell_angle_gamma   98.91906083
_symmetry_Int_Tables_number   1
_chemical_formula_structural   Zn2As2O7
_chemical_formula_sum   'Zn12 As12 O42'
_cell_volume   850.61250724
_cell_formula_units_Z   6
loop_
 _symmetry_equiv_pos_site_id
 _symmetry_equiv_pos_as_xyz
  1  'x, y, z'
loop_
 _atom_site_type_symbol
 _atom_site_label
 _atom_site_symmetry_multiplicity
 _atom_site_fract_x
 _atom_site_fract_y
 _atom_site_fract_z
 _atom_site_occupancy
  Zn  Zn0  1  0.03809731  0.82950323  0.20165594  1
  Zn  Zn1  1  0.16339792  0.84672193  0.47959483  1
  Zn  Zn2  1  0.20814908  0.49699966  0.87298579  1
  Zn  Zn3  1  0.29185092  0.12701421  0.50300034  1
  Zn  Zn4  1  0.33660208  0.52040517  0.15327807  1
  Zn  Zn5  1  0.46190269  0.79834406  0.17049677  1
  Zn  Zn6  1  0.53809731  0.20165594  0.82950323  1
  Zn  Zn7  1  0.66339792  0.47959483  0.84672193  1
  Zn  Zn8  1  0.70814908  0.87298579  0.49699966  1
  Zn  Zn9  1  0.79185092  0.50300034  0.12701421  1
  Zn  Zn10  1  0.83660208  0.15327807  0.52040517  1
  Zn  Zn11  1  0.96190269  0.17049677  0.79834406  1
  As  As12  1  0.18522693  0.89566125  0.90425178  1
  As  As13  1  0.04024653  0.25989885  0.22268481  1
  As  As14  1  0.13404681  0.41393198  0.45039236  1
  As  As15  1  0.36595319  0.54960764  0.58606802  1
  As  As16  1  0.45975347  0.77731519  0.74010115  1
  As  As17  1  0.31477307  0.09574822  0.10433875  1
  As  As18  1  0.68522693  0.90425178  0.89566125  1
  As  As19  1  0.54024653  0.22268481  0.25989885  1
  As  As20  1  0.63404681  0.45039236  0.41393198  1
  As  As21  1  0.86595319  0.58606802  0.54960764  1
  As  As22  1  0.95975347  0.74010115  0.77731519  1
  As  As23  1  0.81477307  0.10433875  0.09574822  1
  O  O24  1  0.10009936  0.97512955  0.95773063  1
  O  O25  1  0.04781830  0.76685443  0.90848802  1
  O  O26  1  0.07675647  0.69595964  0.71509359  1
  O  O27  1  0.01584837  0.24768889  0.58125504  1
  O  O28  1  0.06242936  0.60107967  0.29567498  1
  O  O29  1  0.20375114  0.93176787  0.25323889  1
  O  O30  1  0.23380948  0.27597607  0.95727748  1
  O  O31  1  0.12416196  0.08138474  0.39252507  1
  O  O32  1  0.26797011  0.62491215  0.63436954  1
  O  O33  1  0.15272275  0.42809273  0.08461085  1
  O  O34  1  0.25000000  0.39882519  0.60117481  1
  O  O35  1  0.34727725  0.91538915  0.57190727  1
  O  O36  1  0.23202989  0.36563046  0.37508785  1
  O  O37  1  0.37583804  0.60747493  0.91861526  1
  O  O38  1  0.26619052  0.04272252  0.72402393  1
  O  O39  1  0.29624886  0.74676111  0.06823213  1
  O  O40  1  0.43757064  0.70432502  0.39892033  1
  O  O41  1  0.60009936  0.95773063  0.97512955  1
  O  O42  1  0.54781830  0.90848802  0.76685443  1
  O  O43  1  0.48415163  0.41874496  0.75231111  1
  O  O44  1  0.57675647  0.71509359  0.69595964  1
  O  O45  1  0.42324353  0.28490641  0.30404036  1
  O  O46  1  0.51584837  0.58125504  0.24768889  1
  O  O47  1  0.45218170  0.09151198  0.23314557  1
  O  O48  1  0.39990064  0.04226937  0.02487045  1
  O  O49  1  0.56242936  0.29567498  0.60107967  1
  O  O50  1  0.70375114  0.25323889  0.93176787  1
  O  O51  1  0.73380948  0.95727748  0.27597607  1
  O  O52  1  0.62416196  0.39252507  0.08138474  1
  O  O53  1  0.76797011  0.63436954  0.62491215  1
  O  O54  1  0.65272275  0.08461085  0.42809273  1
  O  O55  1  0.75000000  0.60117481  0.39882519  1
  O  O56  1  0.84727725  0.57190727  0.91538915  1
  O  O57  1  0.73202989  0.37508785  0.36563046  1
  O  O58  1  0.87583804  0.91861526  0.60747493  1
  O  O59  1  0.76619052  0.72402393  0.04272252  1
  O  O60  1  0.79624886  0.06823213  0.74676111  1
  O  O61  1  0.93757064  0.39892033  0.70432502  1
  O  O62  1  0.98415163  0.75231111  0.41874496  1
  O  O63  1  0.92324353  0.30404036  0.28490641  1
  O  O64  1  0.95218170  0.23314557  0.09151198  1
  O  O65  1  0.89990064  0.02487045  0.04226937  1
