# generated using pymatgen
data_Sr4Hf3O10
_symmetry_space_group_name_H-M   'P 1'
_cell_length_a   5.80235954
_cell_length_b   15.05270450
_cell_length_c   29.53940228
_cell_angle_alpha   11.12800368
_cell_angle_beta   90.00000791
_cell_angle_gamma   89.99997694
_symmetry_Int_Tables_number   1
_chemical_formula_structural   Sr4Hf3O10
_chemical_formula_sum   'Sr8 Hf6 O20'
_cell_volume   497.94535699
_cell_formula_units_Z   2
loop_
 _symmetry_equiv_pos_site_id
 _symmetry_equiv_pos_as_xyz
  1  'x, y, z'
loop_
 _atom_site_type_symbol
 _atom_site_label
 _atom_site_symmetry_multiplicity
 _atom_site_fract_x
 _atom_site_fract_y
 _atom_site_fract_z
 _atom_site_occupancy
  Sr  Sr0  1  0.00000740  0.99998264  0.56999261  1
  Sr  Sr1  1  -0.00000119  0.99993317  0.29500272  1
  Sr  Sr2  1  -0.00000296  0.99993012  0.70507200  1
  Sr  Sr3  1  0.00000589  0.99998400  0.43004501  1
  Sr  Sr4  1  0.49999803  0.00006752  0.79493561  1
  Sr  Sr5  1  0.50000849  0.00001403  0.06995441  1
  Sr  Sr6  1  0.49999852  0.00006818  0.20500032  1
  Sr  Sr7  1  0.50000507  0.00001239  0.93002969  1
  Hf  Hf8  1  0.99999123  0.00001729  0.99999574  1
  Hf  Hf9  1  0.99997191  0.99994541  0.14167637  1
  Hf  Hf10  1  0.99997061  0.99994210  0.85838784  1
  Hf  Hf11  1  0.49997215  0.00005503  0.35832551  1
  Hf  Hf12  1  0.49999067  0.99998268  0.50001003  1
  Hf  Hf13  1  0.49997023  0.00005753  0.64161993  1
  O  O14  1  0.00000835  0.00001756  0.07026814  1
  O  O15  1  0.00000607  0.99995798  0.21216050  1
  O  O16  1  0.00000423  0.99995108  0.78789561  1
  O  O17  1  0.00001041  0.00000859  0.92972457  1
  O  O18  1  0.19737828  0.60510397  0.69745027  1
  O  O19  1  0.21493561  0.43024083  0.14451197  1
  O  O20  1  0.21493043  0.43024281  0.42525096  1
  O  O21  1  0.28454557  0.43091541  0.92493499  1
  O  O22  1  0.28455099  0.43090722  0.64415935  1
  O  O23  1  0.30247812  0.60491497  0.19754235  1
  O  O24  1  0.50000917  0.99999185  0.57028116  1
  O  O25  1  0.50000538  0.00004450  0.28784529  1
  O  O26  1  0.50000591  0.00004705  0.71211271  1
  O  O27  1  0.50000963  0.99998646  0.42973297  1
  O  O28  1  0.69737446  0.39488685  0.80255598  1
  O  O29  1  0.71494072  0.56975070  0.35549709  1
  O  O30  1  0.71493108  0.56975162  0.07475547  1
  O  O31  1  0.78455102  0.56909643  0.85584513  1
  O  O32  1  0.78454990  0.56909898  0.57506182  1
  O  O33  1  0.80247463  0.39509309  0.30245289  1
