# generated using pymatgen
data_Dy2S2O
_symmetry_space_group_name_H-M   'P 1'
_cell_length_a   3.81261848
_cell_length_b   6.74807381
_cell_length_c   15.63546611
_cell_angle_alpha   90.00000000
_cell_angle_beta   90.00000000
_cell_angle_gamma   90.00000000
_symmetry_Int_Tables_number   1
_chemical_formula_structural   Dy2S2O
_chemical_formula_sum   'Dy8 S8 O4'
_cell_volume   402.26662831
_cell_formula_units_Z   4
loop_
 _symmetry_equiv_pos_site_id
 _symmetry_equiv_pos_as_xyz
  1  'x, y, z'
loop_
 _atom_site_type_symbol
 _atom_site_label
 _atom_site_symmetry_multiplicity
 _atom_site_fract_x
 _atom_site_fract_y
 _atom_site_fract_z
 _atom_site_occupancy
  O  O0  1  0.75000000  0.86847342  0.03081528  1
  O  O1  1  0.75000000  0.63152658  0.53081528  1
  O  O2  1  0.25000000  0.36847342  0.46918472  1
  O  O3  1  0.25000000  0.13152658  0.96918472  1
  S  S4  1  0.25000000  0.04577127  0.18130957  1
  S  S5  1  0.25000000  0.98668536  0.59984852  1
  S  S6  1  0.75000000  0.48668536  0.90015148  1
  S  S7  1  0.25000000  0.51331464  0.09984852  1
  S  S8  1  0.75000000  0.95422873  0.81869043  1
  S  S9  1  0.75000000  0.54577127  0.31869043  1
  S  S10  1  0.25000000  0.45422873  0.68130957  1
  S  S11  1  0.75000000  0.01331464  0.40015148  1
  Dy  Dy12  1  0.25000000  0.24395069  0.83543249  1
  Dy  Dy13  1  0.75000000  0.75604931  0.16456751  1
  Dy  Dy14  1  0.75000000  0.74395069  0.66456751  1
  Dy  Dy15  1  0.25000000  0.25604931  0.33543249  1
  Dy  Dy16  1  0.25000000  0.79371335  0.95943987  1
  Dy  Dy17  1  0.75000000  0.20628665  0.04056013  1
  Dy  Dy18  1  0.75000000  0.29371335  0.54056013  1
  Dy  Dy19  1  0.25000000  0.70628665  0.45943987  1
