# generated using pymatgen
data_Li3(CoO2)4
_symmetry_space_group_name_H-M   'P 1'
_cell_length_a   5.66393482
_cell_length_b   5.66393512
_cell_length_c   5.79107644
_cell_angle_alpha   119.27636089
_cell_angle_beta   90.00000000
_cell_angle_gamma   59.99999593
_symmetry_Int_Tables_number   1
_chemical_formula_structural   Li3(CoO2)4
_chemical_formula_sum   'Li3 Co4 O8'
_cell_volume   132.78389817
_cell_formula_units_Z   1
loop_
 _symmetry_equiv_pos_site_id
 _symmetry_equiv_pos_as_xyz
  1  'x, y, z'
loop_
 _atom_site_type_symbol
 _atom_site_label
 _atom_site_symmetry_multiplicity
 _atom_site_fract_x
 _atom_site_fract_y
 _atom_site_fract_z
 _atom_site_occupancy
  Li  Li0  1  0.00000000  0.50000000  0.00000000  1
  Li  Li1  1  0.50000000  0.00000000  0.00000000  1
  Li  Li2  1  0.50000000  0.50000000  0.00000000  1
  Co  Co3  1  0.00000000  0.00000000  0.50000000  1
  Co  Co4  1  0.00000000  0.50000000  0.50000000  1
  Co  Co5  1  0.50000000  0.00000000  0.50000000  1
  Co  Co6  1  0.50000000  0.50000000  0.50000000  1
  O  O7  1  0.24407159  0.02317053  0.29041264  1
  O  O8  1  0.26724212  0.46551577  0.70958736  1
  O  O9  1  0.23909291  0.52181518  0.28272227  1
  O  O10  1  0.73275788  0.02317053  0.29041264  1
  O  O11  1  0.26724212  0.97682947  0.70958736  1
  O  O12  1  0.76090709  0.47818482  0.71727773  1
  O  O13  1  0.73275788  0.53448423  0.29041264  1
  O  O14  1  0.75592841  0.97682947  0.70958736  1
