# generated using pymatgen
data_Rb2Pu2O5
_symmetry_space_group_name_H-M   'P 1'
_cell_length_a   9.02738794
_cell_length_b   4.33838117
_cell_length_c   4.33839102
_cell_angle_alpha   90.00009416
_cell_angle_beta   90.00008344
_cell_angle_gamma   90.00002905
_symmetry_Int_Tables_number   1
_chemical_formula_structural   Rb2Pu2O5
_chemical_formula_sum   'Rb2 Pu2 O5'
_cell_volume   169.90982987
_cell_formula_units_Z   1
loop_
 _symmetry_equiv_pos_site_id
 _symmetry_equiv_pos_as_xyz
  1  'x, y, z'
loop_
 _atom_site_type_symbol
 _atom_site_label
 _atom_site_symmetry_multiplicity
 _atom_site_fract_x
 _atom_site_fract_y
 _atom_site_fract_z
 _atom_site_occupancy
  Rb  Rb0  1  0.00001413  0.00000049  0.00000047  1
  Rb  Rb1  1  0.49999882  0.99999981  -0.00000004  1
  Pu  Pu2  1  0.25943046  0.50000163  0.50000208  1
  Pu  Pu3  1  0.74053543  0.50000053  0.49999946  1
  O  O4  1  0.22695902  0.50000022  0.00000128  1
  O  O5  1  0.77303667  0.50000043  0.99999954  1
  O  O6  1  0.50002494  0.50000039  0.50000047  1
  O  O7  1  0.22695983  0.00000179  0.50000083  1
  O  O8  1  0.77303770  -0.00000030  0.50000092  1
