# generated using pymatgen
data_Lu5Ni19B6
_symmetry_space_group_name_H-M   'P 1'
_cell_length_a   4.91599776
_cell_length_b   4.91599776
_cell_length_c   16.97113617
_cell_angle_alpha   90.00000000
_cell_angle_beta   90.00000000
_cell_angle_gamma   119.99999997
_symmetry_Int_Tables_number   1
_chemical_formula_structural   Lu5Ni19B6
_chemical_formula_sum   'Lu5 Ni19 B6'
_cell_volume   355.19341273
_cell_formula_units_Z   1
loop_
 _symmetry_equiv_pos_site_id
 _symmetry_equiv_pos_as_xyz
  1  'x, y, z'
loop_
 _atom_site_type_symbol
 _atom_site_label
 _atom_site_symmetry_multiplicity
 _atom_site_fract_x
 _atom_site_fract_y
 _atom_site_fract_z
 _atom_site_occupancy
  B  B0  1  0.33333333  0.66666667  0.90933100  1
  B  B1  1  0.66666667  0.33333333  0.90933100  1
  B  B2  1  0.66666667  0.33333333  0.09066900  1
  B  B3  1  0.33333333  0.66666667  0.09066900  1
  B  B4  1  0.66666667  0.33333333  0.50000000  1
  B  B5  1  0.33333333  0.66666667  0.50000000  1
  Ni  Ni6  1  0.50000000  0.50000000  0.00000000  1
  Ni  Ni7  1  0.00000000  0.50000000  0.00000000  1
  Ni  Ni8  1  0.33333333  0.66666667  0.29541507  1
  Ni  Ni9  1  0.66666667  0.33333333  0.29541507  1
  Ni  Ni10  1  0.66666667  0.33333333  0.70458493  1
  Ni  Ni11  1  0.33333333  0.66666667  0.70458493  1
  Ni  Ni12  1  0.50000000  0.00000000  0.17675964  1
  Ni  Ni13  1  0.50000000  0.50000000  0.17675964  1
  Ni  Ni14  1  0.00000000  0.50000000  0.17675964  1
  Ni  Ni15  1  0.50000000  0.00000000  0.82324036  1
  Ni  Ni16  1  0.50000000  0.50000000  0.82324036  1
  Ni  Ni17  1  0.00000000  0.50000000  0.82324036  1
  Ni  Ni18  1  0.50000000  0.00000000  0.41470680  1
  Ni  Ni19  1  0.50000000  0.50000000  0.41470680  1
  Ni  Ni20  1  0.00000000  0.50000000  0.41470680  1
  Ni  Ni21  1  0.50000000  0.00000000  0.58529320  1
  Ni  Ni22  1  0.50000000  0.50000000  0.58529320  1
  Ni  Ni23  1  0.00000000  0.50000000  0.58529320  1
  Ni  Ni24  1  0.50000000  0.00000000  0.00000000  1
  Lu  Lu25  1  0.00000000  0.00000000  0.70197070  1
  Lu  Lu26  1  0.00000000  0.00000000  0.29802930  1
  Lu  Lu27  1  0.00000000  0.00000000  0.90372247  1
  Lu  Lu28  1  0.00000000  0.00000000  0.09627753  1
  Lu  Lu29  1  0.00000000  0.00000000  0.50000000  1
