# generated using pymatgen
data_Cu6OF11
_symmetry_space_group_name_H-M   'P 1'
_cell_length_a   3.27692351
_cell_length_b   13.80577804
_cell_length_c   4.67280840
_cell_angle_alpha   91.61658294
_cell_angle_beta   83.22993595
_cell_angle_gamma   90.78906437
_symmetry_Int_Tables_number   1
_chemical_formula_structural   Cu6OF11
_chemical_formula_sum   'Cu6 O1 F11'
_cell_volume   209.83087420
_cell_formula_units_Z   1
loop_
 _symmetry_equiv_pos_site_id
 _symmetry_equiv_pos_as_xyz
  1  'x, y, z'
loop_
 _atom_site_type_symbol
 _atom_site_label
 _atom_site_symmetry_multiplicity
 _atom_site_fract_x
 _atom_site_fract_y
 _atom_site_fract_z
 _atom_site_occupancy
  Cu  Cu0  1  0.99941171  0.00171377  0.00801750  1
  Cu  Cu1  1  0.00045157  0.66626040  0.99771089  1
  Cu  Cu2  1  0.00198402  0.32791650  0.98331719  1
  Cu  Cu3  1  0.50412191  0.49812160  0.49191885  1
  Cu  Cu4  1  0.50019088  0.83411609  0.50191774  1
  Cu  Cu5  1  0.51820077  0.17715849  0.53415099  1
  O  O6  1  0.02207414  0.23308794  0.69728032  1
  F  F7  1  0.02848492  0.56516552  0.69672230  1
  F  F8  1  0.02392895  0.90148886  0.70657251  1
  F  F9  1  0.54767238  0.26498351  0.20302320  1
  F  F10  1  0.53033849  0.59802756  0.20292862  1
  F  F11  1  0.52923418  0.93255099  0.20546171  1
  F  F12  1  0.46007583  0.06873155  0.80235233  1
  F  F13  1  0.45257300  0.39969658  0.78701895  1
  F  F14  1  0.47174140  0.73423077  0.79536991  1
  F  F15  1  0.97621355  0.76668691  0.29873184  1
  F  F16  1  0.96400989  0.10166617  0.30752025  1
  F  F17  1  0.96929242  0.42839677  0.27998390  1
