# generated using pymatgen
data_LiSn3Sb(PO4)6
_symmetry_space_group_name_H-M   'P 1'
_cell_length_a   8.97603609
_cell_length_b   8.97603614
_cell_length_c   8.97603579
_cell_angle_alpha   58.29545030
_cell_angle_beta   58.29544502
_cell_angle_gamma   58.29544629
_symmetry_Int_Tables_number   1
_chemical_formula_structural   LiSn3Sb(PO4)6
_chemical_formula_sum   'Li1 Sn3 Sb1 P6 O24'
_cell_volume   491.41135284
_cell_formula_units_Z   1
loop_
 _symmetry_equiv_pos_site_id
 _symmetry_equiv_pos_as_xyz
  1  'x, y, z'
loop_
 _atom_site_type_symbol
 _atom_site_label
 _atom_site_symmetry_multiplicity
 _atom_site_fract_x
 _atom_site_fract_y
 _atom_site_fract_z
 _atom_site_occupancy
  Li  Li0  1  0.00235488  0.00235488  0.00235488  1
  Sn  Sn1  1  0.14606952  0.14606952  0.14606952  1
  Sn  Sn2  1  0.35726614  0.35726614  0.35726614  1
  Sn  Sn3  1  0.64191298  0.64191298  0.64191298  1
  Sb  Sb4  1  0.85373227  0.85373227  0.85373227  1
  P  P5  1  0.03783614  0.75098306  0.45810807  1
  P  P6  1  0.45810807  0.03783614  0.75098306  1
  P  P7  1  0.75098306  0.45810807  0.03783614  1
  P  P8  1  0.24485428  0.54498506  0.96076034  1
  P  P9  1  0.54498506  0.96076034  0.24485428  1
  P  P10  1  0.96076034  0.24485428  0.54498506  1
  O  O11  1  0.13104061  0.26808491  0.52003630  1
  O  O12  1  0.26808491  0.52003630  0.13104061  1
  O  O13  1  0.05895045  0.92120193  0.27556480  1
  O  O14  1  0.52003630  0.13104061  0.26808491  1
  O  O15  1  0.21555596  0.58079381  0.44267851  1
  O  O16  1  0.01137048  0.78783871  0.62502571  1
  O  O17  1  0.27556480  0.05895045  0.92120193  1
  O  O18  1  0.44267851  0.21555596  0.58079381  1
  O  O19  1  0.58079381  0.44267851  0.21555596  1
  O  O20  1  0.20672288  0.38450202  0.98566355  1
  O  O21  1  0.07141779  0.73172679  0.93770597  1
  O  O22  1  0.38450202  0.98566355  0.20672288  1
  O  O23  1  0.62502571  0.01137048  0.78783871  1
  O  O24  1  0.92120193  0.27556480  0.05895045  1
  O  O25  1  0.78783871  0.62502571  0.01137048  1
  O  O26  1  0.41040760  0.57234943  0.78101875  1
  O  O27  1  0.57234943  0.78101875  0.41040760  1
  O  O28  1  0.73172679  0.93770597  0.07141779  1
  O  O29  1  0.98566355  0.20672288  0.38450202  1
  O  O30  1  0.78101875  0.41040760  0.57234943  1
  O  O31  1  0.48957119  0.86856789  0.72334222  1
  O  O32  1  0.93770597  0.07141779  0.73172679  1
  O  O33  1  0.72334222  0.48957119  0.86856789  1
  O  O34  1  0.86856789  0.72334222  0.48957119  1
