# generated using pymatgen
data_Li4Fe3Co3(TeO8)2
_symmetry_space_group_name_H-M   'P 1'
_cell_length_a   5.98834553
_cell_length_b   5.97423647
_cell_length_c   9.75046276
_cell_angle_alpha   89.96088835
_cell_angle_beta   89.45999500
_cell_angle_gamma   119.87022306
_symmetry_Int_Tables_number   1
_chemical_formula_structural   Li4Fe3Co3(TeO8)2
_chemical_formula_sum   'Li4 Fe3 Co3 Te2 O16'
_cell_volume   302.47113269
_cell_formula_units_Z   1
loop_
 _symmetry_equiv_pos_site_id
 _symmetry_equiv_pos_as_xyz
  1  'x, y, z'
loop_
 _atom_site_type_symbol
 _atom_site_label
 _atom_site_symmetry_multiplicity
 _atom_site_fract_x
 _atom_site_fract_y
 _atom_site_fract_z
 _atom_site_occupancy
  Li  Li0  1  0.32927912  0.66504971  0.91089872  1
  Li  Li1  1  0.00271011  0.00133120  0.98644158  1
  Li  Li2  1  0.00920772  0.00398177  0.48265729  1
  Li  Li3  1  0.66639110  0.33376876  0.41078709  1
  Fe  Fe4  1  0.65944713  0.82950082  0.21421938  1
  Fe  Fe5  1  0.82752505  0.65915567  0.71271642  1
  Fe  Fe6  1  0.82762989  0.16839577  0.71247897  1
  Co  Co7  1  0.16876358  0.82490097  0.21045954  1
  Co  Co8  1  0.16826113  0.34347854  0.21104302  1
  Co  Co9  1  0.34494408  0.17281637  0.71205087  1
  Te  Te10  1  0.32896744  0.66473967  0.48244965  1
  Te  Te11  1  0.66120906  0.32983235  0.98512899  1
  O  O12  1  0.16767381  0.82546188  0.58909019  1
  O  O13  1  0.03711459  0.52035308  0.35170127  1
  O  O14  1  0.33537086  0.67009789  0.11305292  1
  O  O15  1  0.00557380  -0.00004371  0.29208891  1
  O  O16  1  0.99410374  0.99694635  0.79730984  1
  O  O17  1  0.16735166  0.34205100  0.58870364  1
  O  O18  1  0.48741701  0.96327874  0.35346159  1
  O  O19  1  0.48713992  0.52456946  0.35403101  1
  O  O20  1  0.33723536  0.16767244  0.09005838  1
  O  O21  1  0.65301527  0.82667830  0.59299522  1
  O  O22  1  0.52421555  0.48746106  0.85531240  1
  O  O23  1  0.52400504  0.03702106  0.85455073  1
  O  O24  1  0.68064369  0.34065225  0.60924352  1
  O  O25  1  0.82257004  0.65414532  0.09156453  1
  O  O26  1  0.96006087  0.47976098  0.85213823  1
  O  O27  1  0.82217337  0.16724227  0.09120612  1
