# generated using pymatgen
data_TaMn2Ge
_symmetry_space_group_name_H-M   'P 1'
_cell_length_a   4.22184665
_cell_length_b   4.21340050
_cell_length_c   4.21982928
_cell_angle_alpha   60.03639092
_cell_angle_beta   59.94481430
_cell_angle_gamma   60.04967846
_symmetry_Int_Tables_number   1
_chemical_formula_structural   TaMn2Ge
_chemical_formula_sum   'Ta1 Mn2 Ge1'
_cell_volume   53.09034728
_cell_formula_units_Z   1
loop_
 _symmetry_equiv_pos_site_id
 _symmetry_equiv_pos_as_xyz
  1  'x, y, z'
loop_
 _atom_site_type_symbol
 _atom_site_label
 _atom_site_symmetry_multiplicity
 _atom_site_fract_x
 _atom_site_fract_y
 _atom_site_fract_z
 _atom_site_occupancy
  Ta  Ta0  1  0.75001095  0.75010037  0.74992478  1
  Mn  Mn1  1  0.49964690  0.50025510  0.50007726  1
  Mn  Mn2  1  0.00031440  0.99980654  -0.00004885  1
  Ge  Ge3  1  0.25002874  0.24983899  0.25004781  1
