# generated using pymatgen
data_NaNd(SO4)2
_symmetry_space_group_name_H-M   'P 1'
_cell_length_a   7.06954395
_cell_length_b   6.41585170
_cell_length_c   6.73367652
_cell_angle_alpha   101.19573441
_cell_angle_beta   93.42340097
_cell_angle_gamma   88.81022307
_symmetry_Int_Tables_number   1
_chemical_formula_structural   NaNd(SO4)2
_chemical_formula_sum   'Na2 Nd2 S4 O16'
_cell_volume   299.06032112
_cell_formula_units_Z   2
loop_
 _symmetry_equiv_pos_site_id
 _symmetry_equiv_pos_as_xyz
  1  'x, y, z'
loop_
 _atom_site_type_symbol
 _atom_site_label
 _atom_site_symmetry_multiplicity
 _atom_site_fract_x
 _atom_site_fract_y
 _atom_site_fract_z
 _atom_site_occupancy
  Na  Na0  1  0.34501665  0.91160143  0.72312418  1
  Na  Na1  1  0.65504514  0.08839758  0.27689564  1
  Nd  Nd2  1  0.17527292  0.37826643  0.22868293  1
  Nd  Nd3  1  0.82473232  0.62172233  0.77130903  1
  S  S4  1  0.16100980  0.87644677  0.20469496  1
  S  S5  1  0.83902439  0.12357907  0.79528963  1
  S  S6  1  0.32093273  0.39548531  0.70536439  1
  S  S7  1  0.67903765  0.60449083  0.29466134  1
  O  O8  1  0.36171283  0.22916080  0.52622989  1
  O  O9  1  0.63826646  0.77083997  0.47375748  1
  O  O10  1  0.47244988  0.55775557  0.75466426  1
  O  O11  1  0.52755348  0.44224459  0.24533234  1
  O  O12  1  0.22117671  0.77017460  0.37563917  1
  O  O13  1  0.77882214  0.22981403  0.62438421  1
  O  O14  1  0.31861365  0.98567100  0.13118372  1
  O  O15  1  0.68138227  0.01430419  0.86883202  1
  O  O16  1  0.14219679  0.50443891  0.64209242  1
  O  O17  1  0.85778602  0.49558352  0.35789295  1
  O  O18  1  0.29467481  0.29439974  0.88104046  1
  O  O19  1  0.70529483  0.70562149  0.11892885  1
  O  O20  1  0.08880965  0.69623615  0.04140393  1
  O  O21  1  0.91118204  0.30375497  0.95860100  1
  O  O22  1  0.01175650  0.04123565  0.26057407  1
  O  O23  1  0.98824334  0.95876906  0.73942914  1
