# generated using pymatgen
data_GeTe7As4
_symmetry_space_group_name_H-M   'P 1'
_cell_length_a   4.12339830
_cell_length_b   4.12339830
_cell_length_c   23.52967648
_cell_angle_alpha   90.00000000
_cell_angle_beta   90.00000000
_cell_angle_gamma   119.99999998
_symmetry_Int_Tables_number   1
_chemical_formula_structural   GeTe7As4
_chemical_formula_sum   'Ge1 Te7 As4'
_cell_volume   346.46324042
_cell_formula_units_Z   1
loop_
 _symmetry_equiv_pos_site_id
 _symmetry_equiv_pos_as_xyz
  1  'x, y, z'
loop_
 _atom_site_type_symbol
 _atom_site_label
 _atom_site_symmetry_multiplicity
 _atom_site_fract_x
 _atom_site_fract_y
 _atom_site_fract_z
 _atom_site_occupancy
  Ge  Ge0  1  0.00000000  0.00000000  0.50000000  1
  As  As1  1  0.66666667  0.33333333  0.07848985  1
  As  As2  1  0.33333333  0.66666667  0.92151015  1
  As  As3  1  0.33333333  0.66666667  0.65504253  1
  As  As4  1  0.66666667  0.33333333  0.34495747  1
  Te  Te5  1  0.00000000  0.00000000  0.27833295  1
  Te  Te6  1  0.00000000  0.00000000  0.72166705  1
  Te  Te7  1  0.66666667  0.33333333  0.85407228  1
  Te  Te8  1  0.33333333  0.66666667  0.14592772  1
  Te  Te9  1  0.33333333  0.66666667  0.42444383  1
  Te  Te10  1  0.66666667  0.33333333  0.57555617  1
  Te  Te11  1  0.00000000  0.00000000  0.00000000  1
