# generated using pymatgen
data_Na2MnPCO7
_symmetry_space_group_name_H-M   'P 1'
_cell_length_a   10.37635168
_cell_length_b   6.76178277
_cell_length_c   10.42241080
_cell_angle_alpha   90.11620956
_cell_angle_beta   121.44764404
_cell_angle_gamma   90.62821474
_symmetry_Int_Tables_number   1
_chemical_formula_structural   Na2MnPCO7
_chemical_formula_sum   'Na8 Mn4 P4 C4 O28'
_cell_volume   623.79054959
_cell_formula_units_Z   4
loop_
 _symmetry_equiv_pos_site_id
 _symmetry_equiv_pos_as_xyz
  1  'x, y, z'
loop_
 _atom_site_type_symbol
 _atom_site_label
 _atom_site_symmetry_multiplicity
 _atom_site_fract_x
 _atom_site_fract_y
 _atom_site_fract_z
 _atom_site_occupancy
  Na  Na0  1  0.00493206  0.01505129  0.25704739  1
  Na  Na1  1  0.00191840  0.48338241  0.25597041  1
  Na  Na2  1  0.49922229  0.00633036  0.24085140  1
  Na  Na3  1  0.49755847  0.49332195  0.23907117  1
  Na  Na4  1  0.48807672  0.98624121  0.75341651  1
  Na  Na5  1  0.01235372  0.50705306  0.75049867  1
  Na  Na6  1  0.00796511  0.99644225  0.75008310  1
  Na  Na7  1  0.83330366  0.73837214  0.91576661  1
  Mn  Mn8  1  0.28640679  0.74869885  0.35449803  1
  Mn  Mn9  1  0.78697914  0.75081434  0.35154020  1
  Mn  Mn10  1  0.22466481  0.26137811  0.65305226  1
  Mn  Mn11  1  0.71428716  0.25447321  0.65088168  1
  P  P12  1  0.35618623  0.24874896  0.42169633  1
  P  P13  1  0.85725997  0.25095808  0.42232890  1
  P  P14  1  0.14231152  0.75237573  0.58196770  1
  P  P15  1  0.64334669  0.75121839  0.57815335  1
  C  C16  1  0.16758660  0.74919946  0.07117573  1
  C  C17  1  0.67471912  0.75128062  0.07078770  1
  C  C18  1  0.33039944  0.24847198  0.92793057  1
  C  C19  1  0.82878233  0.24701451  0.92763438  1
  O  O20  1  0.39263541  0.24610660  0.06772546  1
  O  O21  1  0.89774760  0.24669274  0.06863177  1
  O  O22  1  0.09804474  0.74607639  0.14888899  1
  O  O23  1  0.60335579  0.74824754  0.14582283  1
  O  O24  1  0.31297704  0.74855161  0.15392275  1
  O  O25  1  0.82309449  0.74765342  0.16054135  1
  O  O26  1  0.27424892  0.06172713  0.32515632  1
  O  O27  1  0.27563358  0.43617031  0.33079855  1
  O  O28  1  0.77570065  0.06337501  0.32847612  1
  O  O29  1  0.77701357  0.43721515  0.33082284  1
  O  O30  1  0.02496536  0.25200997  0.45618946  1
  O  O31  1  0.13251794  0.74806101  0.42739923  1
  O  O32  1  0.52358845  0.25050363  0.45433891  1
  O  O33  1  0.63309571  0.75170726  0.42412419  1
  O  O34  1  0.36396548  0.24176923  0.57342393  1
  O  O35  1  0.47612829  0.75673103  0.54352303  1
  O  O36  1  0.86418481  0.25029799  0.57523180  1
  O  O37  1  0.97196314  0.75830729  0.54598690  1
  O  O38  1  0.21112820  0.56582236  0.67356127  1
  O  O39  1  0.22305276  0.93966148  0.67271921  1
  O  O40  1  0.72802521  0.56918323  0.67327171  1
  O  O41  1  0.72948022  0.93354881  0.67784916  1
  O  O42  1  0.18351243  0.25182620  0.83361728  1
  O  O43  1  0.68351135  0.23770692  0.83671150  1
  O  O44  1  0.40599614  0.24890922  0.85847002  1
  O  O45  1  0.90271599  0.25884527  0.85433176  1
  O  O46  1  0.08815602  0.75242095  0.92925103  1
  O  O47  1  0.61008845  0.75794737  0.93158654  1
