# generated using pymatgen
data_Cs2Li3(BO2)5
_symmetry_space_group_name_H-M   'P 1'
_cell_length_a   6.90882983
_cell_length_b   6.90882983
_cell_length_c   13.07438568
_cell_angle_alpha   90.00000000
_cell_angle_beta   90.00000000
_cell_angle_gamma   64.51278258
_symmetry_Int_Tables_number   1
_chemical_formula_structural   Cs2Li3(BO2)5
_chemical_formula_sum   'Cs4 Li6 B10 O20'
_cell_volume   563.33240298
_cell_formula_units_Z   2
loop_
 _symmetry_equiv_pos_site_id
 _symmetry_equiv_pos_as_xyz
  1  'x, y, z'
loop_
 _atom_site_type_symbol
 _atom_site_label
 _atom_site_symmetry_multiplicity
 _atom_site_fract_x
 _atom_site_fract_y
 _atom_site_fract_z
 _atom_site_occupancy
  Cs  Cs0  1  0.70869892  0.29130108  0.50000000  1
  Cs  Cs1  1  0.29130108  0.70869892  0.00000000  1
  Cs  Cs2  1  0.23381774  0.23381774  0.25000000  1
  Cs  Cs3  1  0.76618226  0.76618226  0.75000000  1
  Li  Li4  1  0.68030280  0.68030280  0.25000000  1
  Li  Li5  1  0.31969720  0.31969720  0.75000000  1
  Li  Li6  1  0.82224746  0.55520868  0.03714321  1
  Li  Li7  1  0.17775254  0.44479132  0.53714321  1
  Li  Li8  1  0.44479132  0.17775254  0.96285679  1
  Li  Li9  1  0.55520868  0.82224746  0.46285679  1
  B  B10  1  0.91647661  0.91647661  0.25000000  1
  B  B11  1  0.08352339  0.08352339  0.75000000  1
  B  B12  1  0.71887421  0.27816537  0.16382798  1
  B  B13  1  0.28112579  0.72183463  0.66382898  1
  B  B14  1  0.72183463  0.28112579  0.83617102  1
  B  B15  1  0.27816537  0.71887421  0.33617102  1
  B  B16  1  0.95398145  0.71512753  0.41770682  1
  B  B17  1  0.04601755  0.28487147  0.91770682  1
  B  B18  1  0.28487147  0.04601755  0.58229218  1
  B  B19  1  0.71512753  0.95398145  0.08229318  1
  O  O20  1  0.69550591  0.47783135  0.14956704  1
  O  O21  1  0.30449309  0.52216765  0.64956704  1
  O  O22  1  0.52216765  0.30449309  0.85043296  1
  O  O23  1  0.47783135  0.69550591  0.35043196  1
  O  O24  1  0.82715177  0.85088996  0.34080108  1
  O  O25  1  0.17284923  0.14911004  0.84080108  1
  O  O26  1  0.14911004  0.17284923  0.65919892  1
  O  O27  1  0.85088996  0.82715177  0.15919892  1
  O  O28  1  0.15209589  0.82848488  0.25293332  1
  O  O29  1  0.84790411  0.17151512  0.75293332  1
  O  O30  1  0.17151512  0.84790411  0.74706668  1
  O  O31  1  0.82848488  0.15209589  0.24706668  1
  O  O32  1  0.37004662  0.81932340  0.59256456  1
  O  O33  1  0.62995238  0.18067560  0.09256456  1
  O  O34  1  0.18067560  0.62995238  0.40743444  1
  O  O35  1  0.81932340  0.37004662  0.90743544  1
  O  O36  1  0.87044328  0.65908057  0.49869450  1
  O  O37  1  0.12955572  0.34091943  0.99869450  1
  O  O38  1  0.34091943  0.12955572  0.50130550  1
  O  O39  1  0.65908057  0.87044328  0.00130550  1
