# generated using pymatgen
data_Er2S2O
_symmetry_space_group_name_H-M   'P 1'
_cell_length_a   6.82648843
_cell_length_b   6.84030890
_cell_length_c   8.22398031
_cell_angle_alpha   90.00000000
_cell_angle_beta   99.44033794
_cell_angle_gamma   90.00000000
_symmetry_Int_Tables_number   1
_chemical_formula_structural   Er2S2O
_chemical_formula_sum   'Er8 S8 O4'
_cell_volume   378.82031658
_cell_formula_units_Z   4
loop_
 _symmetry_equiv_pos_site_id
 _symmetry_equiv_pos_as_xyz
  1  'x, y, z'
loop_
 _atom_site_type_symbol
 _atom_site_label
 _atom_site_symmetry_multiplicity
 _atom_site_fract_x
 _atom_site_fract_y
 _atom_site_fract_z
 _atom_site_occupancy
  O  O0  1  0.14971611  0.58721968  0.61688369  1
  O  O1  1  0.35028389  0.08721968  0.38311631  1
  O  O2  1  0.85028389  0.41278032  0.38311631  1
  O  O3  1  0.64971611  0.91278032  0.61688369  1
  S  S4  1  0.46954496  0.77721115  0.92499846  1
  S  S5  1  0.03045504  0.27721115  0.07500154  1
  S  S6  1  0.53045504  0.22278885  0.07500154  1
  S  S7  1  0.96954496  0.72278885  0.92499846  1
  S  S8  1  0.92105174  0.86758916  0.31906563  1
  S  S9  1  0.57894826  0.36758916  0.68093437  1
  S  S10  1  0.07894826  0.13241084  0.68093437  1
  S  S11  1  0.42105174  0.63241084  0.31906563  1
  Er  Er12  1  0.75046087  0.05350004  0.86136900  1
  Er  Er13  1  0.74953913  0.55350004  0.13863100  1
  Er  Er14  1  0.24953913  0.94649996  0.13863100  1
  Er  Er15  1  0.25046087  0.44649996  0.86136900  1
  Er  Er16  1  0.67705187  0.14480621  0.42462729  1
  Er  Er17  1  0.82294813  0.64480621  0.57537271  1
  Er  Er18  1  0.32294813  0.85519379  0.57537271  1
  Er  Er19  1  0.17705187  0.35519379  0.42462729  1
