# generated using pymatgen
data_CeAlSi2
_symmetry_space_group_name_H-M   'P 1'
_cell_length_a   4.14447466
_cell_length_b   4.14447466
_cell_length_c   10.91442017
_cell_angle_alpha   90.00000000
_cell_angle_beta   90.00000000
_cell_angle_gamma   120.00000001
_symmetry_Int_Tables_number   1
_chemical_formula_structural   CeAlSi2
_chemical_formula_sum   'Ce2 Al2 Si4'
_cell_volume   162.35672323
_cell_formula_units_Z   2
loop_
 _symmetry_equiv_pos_site_id
 _symmetry_equiv_pos_as_xyz
  1  'x, y, z'
loop_
 _atom_site_type_symbol
 _atom_site_label
 _atom_site_symmetry_multiplicity
 _atom_site_fract_x
 _atom_site_fract_y
 _atom_site_fract_z
 _atom_site_occupancy
  Al  Al0  1  0.66666667  0.33333333  0.41414001  1
  Al  Al1  1  0.33333333  0.66666667  0.58585999  1
  Si  Si2  1  0.33333333  0.66666667  0.99693779  1
  Si  Si3  1  0.66666667  0.33333333  0.00306221  1
  Si  Si4  1  0.33333333  0.66666667  0.35088880  1
  Si  Si5  1  0.66666667  0.33333333  0.64911120  1
  Ce  Ce6  1  0.00000000  0.00000000  0.82112404  1
  Ce  Ce7  1  0.00000000  0.00000000  0.17887596  1
