# generated using pymatgen
data_Li2Mg
_symmetry_space_group_name_H-M   'P 1'
_cell_length_a   3.18709582
_cell_length_b   5.94521152
_cell_length_c   7.01742473
_cell_angle_alpha   74.17964398
_cell_angle_beta   90.00000000
_cell_angle_gamma   105.54760278
_symmetry_Int_Tables_number   1
_chemical_formula_structural   Li2Mg
_chemical_formula_sum   'Li4 Mg2'
_cell_volume   122.86452245
_cell_formula_units_Z   2
loop_
 _symmetry_equiv_pos_site_id
 _symmetry_equiv_pos_as_xyz
  1  'x, y, z'
loop_
 _atom_site_type_symbol
 _atom_site_label
 _atom_site_symmetry_multiplicity
 _atom_site_fract_x
 _atom_site_fract_y
 _atom_site_fract_z
 _atom_site_occupancy
  Li  Li0  1  0.01077051  0.02154002  0.98772903  1
  Li  Li1  1  0.71117724  0.42235647  0.07849324  1
  Li  Li2  1  0.34437776  0.68875553  0.31039476  1
  Li  Li3  1  0.04478649  0.08957198  0.40115997  1
  Mg  Mg4  1  0.67354208  0.34708517  0.64247299  1
  Mg  Mg5  1  0.38201292  0.76402583  0.74641601  1
