# generated using pymatgen
data_SrCaIn2
_symmetry_space_group_name_H-M   'P 1'
_cell_length_a   5.62231348
_cell_length_b   5.62230452
_cell_length_c   5.62231494
_cell_angle_alpha   59.99994379
_cell_angle_beta   59.99991579
_cell_angle_gamma   59.99990710
_symmetry_Int_Tables_number   1
_chemical_formula_structural   SrCaIn2
_chemical_formula_sum   'Sr1 Ca1 In2'
_cell_volume   125.66919339
_cell_formula_units_Z   1
loop_
 _symmetry_equiv_pos_site_id
 _symmetry_equiv_pos_as_xyz
  1  'x, y, z'
loop_
 _atom_site_type_symbol
 _atom_site_label
 _atom_site_symmetry_multiplicity
 _atom_site_fract_x
 _atom_site_fract_y
 _atom_site_fract_z
 _atom_site_occupancy
  Sr  Sr0  1  0.74999966  0.74999966  0.74999946  1
  Ca  Ca1  1  0.25000013  0.24999990  0.25000008  1
  In  In2  1  0.99999992  0.00000002  1.00000000  1
  In  In3  1  0.50000029  0.50000042  0.50000046  1
