# generated using pymatgen
data_NaTi5Se8
_symmetry_space_group_name_H-M   'P 1'
_cell_length_a   3.58743902
_cell_length_b   9.14997665
_cell_length_c   9.56069272
_cell_angle_alpha   104.93641346
_cell_angle_beta   100.81357081
_cell_angle_gamma   90.00000000
_symmetry_Int_Tables_number   1
_chemical_formula_structural   NaTi5Se8
_chemical_formula_sum   'Na1 Ti5 Se8'
_cell_volume   297.45474198
_cell_formula_units_Z   1
loop_
 _symmetry_equiv_pos_site_id
 _symmetry_equiv_pos_as_xyz
  1  'x, y, z'
loop_
 _atom_site_type_symbol
 _atom_site_label
 _atom_site_symmetry_multiplicity
 _atom_site_fract_x
 _atom_site_fract_y
 _atom_site_fract_z
 _atom_site_occupancy
  Na  Na0  1  0.50000000  0.50000000  -0.00000000  1
  Ti  Ti1  1  -0.00000000  0.00000000  0.00000000  1
  Ti  Ti2  1  0.65007981  0.99182888  0.30015763  1
  Ti  Ti3  1  0.70964887  0.34985178  0.41929574  1
  Ti  Ti4  1  0.29035213  0.65014822  0.58070426  1
  Ti  Ti5  1  0.34992119  0.00817212  0.69984137  1
  Se  Se6  1  0.57362571  0.17745719  0.14724942  1
  Se  Se7  1  0.08285353  0.80945118  0.16570707  1
  Se  Se8  1  0.15921499  0.49797412  0.31842998  1
  Se  Se9  1  0.24185979  0.15976262  0.48371858  1
  Se  Se10  1  0.75814121  0.84023738  0.51628042  1
  Se  Se11  1  0.84078601  0.50202588  0.68157002  1
  Se  Se12  1  0.91714747  0.19054882  0.83429293  1
  Se  Se13  1  0.42637529  0.82254381  0.85275058  1
