# generated using pymatgen
data_KBaSiHO4
_symmetry_space_group_name_H-M   'P 1'
_cell_length_a   6.07826646
_cell_length_b   8.08932038
_cell_length_c   6.11134801
_cell_angle_alpha   90.00000000
_cell_angle_beta   121.91289579
_cell_angle_gamma   90.00000000
_symmetry_Int_Tables_number   1
_chemical_formula_structural   KBaSiHO4
_chemical_formula_sum   'K2 Ba2 Si2 H2 O8'
_cell_volume   255.07102983
_cell_formula_units_Z   2
loop_
 _symmetry_equiv_pos_site_id
 _symmetry_equiv_pos_as_xyz
  1  'x, y, z'
loop_
 _atom_site_type_symbol
 _atom_site_label
 _atom_site_symmetry_multiplicity
 _atom_site_fract_x
 _atom_site_fract_y
 _atom_site_fract_z
 _atom_site_occupancy
  K  K0  1  0.34457463  0.76814221  0.62485905  1
  K  K1  1  0.65542537  0.26814221  0.37514095  1
  Ba  Ba2  1  0.99587987  0.51616956  0.98740691  1
  Ba  Ba3  1  0.00412013  0.01616956  0.01259309  1
  Si  Si4  1  0.67602892  0.75469770  0.29455091  1
  Si  Si5  1  0.32397108  0.25469770  0.70544909  1
  H  H6  1  0.94923217  0.98978912  0.48433024  1
  H  H7  1  0.05076783  0.48978912  0.51566976  1
  O  O8  1  0.36063090  0.76397898  0.15607115  1
  O  O9  1  0.63936910  0.26397898  0.84392885  1
  O  O10  1  0.77278344  0.76071567  0.08993439  1
  O  O11  1  0.22721656  0.26071567  0.91006561  1
  O  O12  1  0.80547889  0.59737410  0.49382473  1
  O  O13  1  0.19452111  0.09737410  0.50617527  1
  O  O14  1  0.79779936  0.93213268  0.47968028  1
  O  O15  1  0.20220064  0.43213268  0.52031972  1
