# generated using pymatgen
data_AgAsSe
_symmetry_space_group_name_H-M   'P 1'
_cell_length_a   12.52866263
_cell_length_b   6.26614107
_cell_length_c   4.05637346
_cell_angle_alpha   90.00000000
_cell_angle_beta   90.00014922
_cell_angle_gamma   90.00000000
_symmetry_Int_Tables_number   1
_chemical_formula_structural   AgAsSe
_chemical_formula_sum   'Ag4 As4 Se4'
_cell_volume   318.45114540
_cell_formula_units_Z   4
loop_
 _symmetry_equiv_pos_site_id
 _symmetry_equiv_pos_as_xyz
  1  'x, y, z'
loop_
 _atom_site_type_symbol
 _atom_site_label
 _atom_site_symmetry_multiplicity
 _atom_site_fract_x
 _atom_site_fract_y
 _atom_site_fract_z
 _atom_site_occupancy
  Ag  Ag0  1  0.84192462  0.07817144  0.24815880  1
  Ag  Ag1  1  0.34192462  0.42182956  0.24815880  1
  Ag  Ag2  1  0.65807756  0.57816965  0.74815444  1
  Ag  Ag3  1  0.15807656  0.92182935  0.74815444  1
  As  As4  1  0.48936104  0.12868314  0.24690139  1
  As  As5  1  0.98936104  0.37131786  0.24690139  1
  As  As6  1  0.01063822  0.62868266  0.74690166  1
  As  As7  1  0.51063822  0.87131634  0.74690166  1
  Se  Se8  1  0.16003991  0.19835716  0.24794025  1
  Se  Se9  1  0.66003991  0.30164384  0.24794025  1
  Se  Se10  1  0.33995964  0.69835554  0.74794146  1
  Se  Se11  1  0.83995864  0.80164446  0.74794146  1
