# generated using pymatgen
data_YReN3
_symmetry_space_group_name_H-M   'P 1'
_cell_length_a   6.33476537
_cell_length_b   7.43632261
_cell_length_c   7.43632233
_cell_angle_alpha   98.08704807
_cell_angle_beta   107.45814824
_cell_angle_gamma   72.54184590
_symmetry_Int_Tables_number   1
_chemical_formula_structural   YReN3
_chemical_formula_sum   'Y4 Re4 N12'
_cell_volume   318.28149632
_cell_formula_units_Z   4
loop_
 _symmetry_equiv_pos_site_id
 _symmetry_equiv_pos_as_xyz
  1  'x, y, z'
loop_
 _atom_site_type_symbol
 _atom_site_label
 _atom_site_symmetry_multiplicity
 _atom_site_fract_x
 _atom_site_fract_y
 _atom_site_fract_z
 _atom_site_occupancy
  Y  Y0  1  0.75000000  0.90561422  0.90561422  1
  Y  Y1  1  0.25000000  0.09438578  0.09438578  1
  Y  Y2  1  0.25000000  0.71131649  0.71131649  1
  Y  Y3  1  0.75000000  0.28868351  0.28868351  1
  Re  Re4  1  0.28462149  0.62330748  0.20564842  1
  Re  Re5  1  0.21537851  0.20564842  0.62330748  1
  Re  Re6  1  0.71537851  0.37669252  0.79435158  1
  Re  Re7  1  0.78462149  0.79435158  0.37669252  1
  N  N8  1  0.08732743  0.66934221  0.36352399  1
  N  N9  1  0.34098222  0.37432091  0.13252774  1
  N  N10  1  0.41267257  0.36352399  0.66934221  1
  N  N11  1  0.15901778  0.13252774  0.37432091  1
  N  N12  1  0.33663150  0.00712109  0.78056574  1
  N  N13  1  0.16336850  0.78056574  0.00712109  1
  N  N14  1  0.83663150  0.21943426  0.99287891  1
  N  N15  1  0.65901778  0.62567909  0.86747226  1
  N  N16  1  0.91267257  0.33065779  0.63647601  1
  N  N17  1  0.84098222  0.86747226  0.62567909  1
  N  N18  1  0.58732743  0.63647601  0.33065779  1
  N  N19  1  0.66336850  0.99287891  0.21943426  1
