# generated using pymatgen
data_InSb
_symmetry_space_group_name_H-M   'P 1'
_cell_length_a   4.68180164
_cell_length_b   4.67959489
_cell_length_c   7.71322191
_cell_angle_alpha   90.00000000
_cell_angle_beta   90.00000000
_cell_angle_gamma   120.01560059
_symmetry_Int_Tables_number   1
_chemical_formula_structural   InSb
_chemical_formula_sum   'In2 Sb2'
_cell_volume   146.32530298
_cell_formula_units_Z   2
loop_
 _symmetry_equiv_pos_site_id
 _symmetry_equiv_pos_as_xyz
  1  'x, y, z'
loop_
 _atom_site_type_symbol
 _atom_site_label
 _atom_site_symmetry_multiplicity
 _atom_site_fract_x
 _atom_site_fract_y
 _atom_site_fract_z
 _atom_site_occupancy
  In  In0  1  0.66676549  0.33353098  0.48790590  1
  In  In1  1  0.33323451  0.66646902  0.98790590  1
  Sb  Sb2  1  0.66670412  0.33340824  0.86209410  1
  Sb  Sb3  1  0.33329588  0.66659176  0.36209410  1
