# generated using pymatgen
data_CaCo2(PO4)2
_symmetry_space_group_name_H-M   'P 1'
_cell_length_a   5.04124833
_cell_length_b   9.00592284
_cell_length_c   15.06145696
_cell_angle_alpha   85.50642391
_cell_angle_beta   80.34558949
_cell_angle_gamma   73.70800877
_symmetry_Int_Tables_number   1
_chemical_formula_structural   CaCo2(PO4)2
_chemical_formula_sum   'Ca4 Co8 P8 O32'
_cell_volume   646.69822023
_cell_formula_units_Z   4
loop_
 _symmetry_equiv_pos_site_id
 _symmetry_equiv_pos_as_xyz
  1  'x, y, z'
loop_
 _atom_site_type_symbol
 _atom_site_label
 _atom_site_symmetry_multiplicity
 _atom_site_fract_x
 _atom_site_fract_y
 _atom_site_fract_z
 _atom_site_occupancy
  Ca  Ca0  1  0.47931303  0.82813806  0.86011045  1
  Ca  Ca1  1  0.16773326  0.67174695  0.64066121  1
  Ca  Ca2  1  0.83065468  0.32863339  0.35957894  1
  Ca  Ca3  1  0.52124636  0.17129839  0.14038570  1
  Co  Co4  1  0.20536680  0.22561391  0.95867475  1
  Co  Co5  1  0.38637138  0.27316369  0.54055050  1
  Co  Co6  1  0.79616035  0.77341854  0.04155321  1
  Co  Co7  1  0.49976854  0.50011510  0.00058924  1
  Co  Co8  1  0.61202051  0.72660439  0.45928329  1
  Co  Co9  1  0.63400783  0.74944893  0.25060515  1
  Co  Co10  1  0.36566328  0.25015483  0.75006593  1
  Co  Co11  1  0.99826626  0.00102939  0.50075220  1
  P  P12  1  0.05207492  0.56202128  0.86835375  1
  P  P13  1  0.77172230  0.42507551  0.60958679  1
  P  P14  1  0.94837162  0.43735423  0.13231728  1
  P  P15  1  0.19369835  0.92489537  0.10945201  1
  P  P16  1  0.51636105  0.06260811  0.36822687  1
  P  P17  1  0.48090252  0.93808424  0.63249009  1
  P  P18  1  0.22597790  0.57569378  0.39064750  1
  P  P19  1  0.80720803  0.07422673  0.89090076  1
  O  O20  1  0.69666753  0.39419166  0.10449267  1
  O  O21  1  0.81298909  0.90798623  0.92993355  1
  O  O22  1  0.80376702  0.89540608  0.60471678  1
  O  O23  1  0.79296593  0.30017268  0.53990029  1
  O  O24  1  0.19620701  0.39794562  0.05147122  1
  O  O25  1  0.56182813  0.40860805  0.69422939  1
  O  O26  1  0.63447133  0.19813474  0.96121501  1
  O  O27  1  0.88457096  0.91587967  0.12914241  1
  O  O28  1  0.20476698  0.70013007  0.46038925  1
  O  O29  1  0.64931304  0.59068574  0.56992402  1
  O  O30  1  0.86997946  0.61620224  0.14563763  1
  O  O31  1  0.60686218  0.15714082  0.28634577  1
  O  O32  1  0.19046270  0.09069232  0.07021219  1
  O  O33  1  0.07010386  0.41545954  0.62947816  1
  O  O34  1  0.30374802  0.60502498  0.89633277  1
  O  O35  1  0.12996380  0.38322764  0.85506543  1
  O  O36  1  0.95011890  0.65631552  0.78626049  1
  O  O37  1  0.36671629  0.80054499  0.03940233  1
  O  O38  1  0.36641440  0.11688069  0.64572645  1
  O  O39  1  0.39137558  0.84329884  0.71440877  1
  O  O40  1  0.92707617  0.58519025  0.37064460  1
  O  O41  1  0.35397592  0.89820316  0.55154534  1
  O  O42  1  0.11577492  0.08413241  0.87066762  1
  O  O43  1  0.33508920  0.90716150  0.19421698  1
  O  O44  1  0.34611108  0.40953079  0.43012048  1
  O  O45  1  0.19345489  0.10532089  0.39603971  1
  O  O46  1  0.05058148  0.34303910  0.21439560  1
  O  O47  1  0.64268161  0.10210974  0.44938554  1
  O  O48  1  0.80412578  0.60144883  0.94919054  1
  O  O49  1  0.66389513  0.09177051  0.80654954  1
  O  O50  1  0.43638338  0.59136630  0.30598525  1
  O  O51  1  0.63196427  0.88408157  0.35495960  1
