# generated using pymatgen
data_AgSO4
_symmetry_space_group_name_H-M   'P 1'
_cell_length_a   4.79814227
_cell_length_b   4.89140771
_cell_length_c   8.38229043
_cell_angle_alpha   100.08474895
_cell_angle_beta   75.80805494
_cell_angle_gamma   117.21848194
_symmetry_Int_Tables_number   1
_chemical_formula_structural   AgSO4
_chemical_formula_sum   'Ag2 S2 O8'
_cell_volume   169.15315947
_cell_formula_units_Z   2
loop_
 _symmetry_equiv_pos_site_id
 _symmetry_equiv_pos_as_xyz
  1  'x, y, z'
loop_
 _atom_site_type_symbol
 _atom_site_label
 _atom_site_symmetry_multiplicity
 _atom_site_fract_x
 _atom_site_fract_y
 _atom_site_fract_z
 _atom_site_occupancy
  Ag  Ag0  1  0.00000033  0.00000016  0.99999975  1
  Ag  Ag1  1  0.49999950  0.50000024  0.50000012  1
  S  S2  1  0.15634013  0.61601697  0.25104916  1
  S  S3  1  0.84365953  0.38398294  0.74895059  1
  O  O4  1  0.25085830  0.81387955  0.11336108  1
  O  O5  1  0.91462198  0.29528894  0.21774480  1
  O  O6  1  0.46356131  0.62107457  0.26836024  1
  O  O7  1  0.02044337  0.74240051  0.40991570  1
  O  O8  1  0.97955542  0.25759941  0.59008415  1
  O  O9  1  0.53643826  0.37892579  0.73163994  1
  O  O10  1  0.08537797  0.70471105  0.78225476  1
  O  O11  1  0.74914191  0.18612086  0.88663869  1
