# generated using pymatgen
data_Mn8HO16
_symmetry_space_group_name_H-M   'P 1'
_cell_length_a   5.91599221
_cell_length_b   9.99858645
_cell_length_c   9.93422253
_cell_angle_alpha   89.99733834
_cell_angle_beta   90.00004902
_cell_angle_gamma   89.99997114
_symmetry_Int_Tables_number   1
_chemical_formula_structural   Mn8HO16
_chemical_formula_sum   'Mn16 H2 O32'
_cell_volume   587.62475484
_cell_formula_units_Z   2
loop_
 _symmetry_equiv_pos_site_id
 _symmetry_equiv_pos_as_xyz
  1  'x, y, z'
loop_
 _atom_site_type_symbol
 _atom_site_label
 _atom_site_symmetry_multiplicity
 _atom_site_fract_x
 _atom_site_fract_y
 _atom_site_fract_z
 _atom_site_occupancy
  Mn  Mn0  1  0.50854146  0.16533483  0.34473941  1
  Mn  Mn1  1  0.00275896  0.16586649  0.34775701  1
  Mn  Mn2  1  0.49566187  0.34855598  0.83154465  1
  Mn  Mn3  1  0.99587761  0.35478805  0.83637632  1
  Mn  Mn4  1  0.99699623  0.64817637  0.16407183  1
  Mn  Mn5  1  0.50532331  0.65000116  0.16345921  1
  Mn  Mn6  1  0.99852460  0.83331024  0.65115880  1
  Mn  Mn7  1  0.49905173  0.83389833  0.65093116  1
  Mn  Mn8  1  0.74153332  0.66567134  0.84492217  1
  Mn  Mn9  1  0.24722510  0.66603167  0.84808982  1
  Mn  Mn10  1  0.75433357  0.84852547  0.33161406  1
  Mn  Mn11  1  0.25427379  0.85462648  0.33641257  1
  Mn  Mn12  1  0.74472552  0.15009260  0.66337774  1
  Mn  Mn13  1  0.25292630  0.14836084  0.66401938  1
  Mn  Mn14  1  0.75078526  0.33381751  0.15077417  1
  Mn  Mn15  1  0.25132831  0.33312806  0.15090493  1
  H  H16  1  0.28744655  0.59692012  0.39003122  1
  H  H17  1  0.96275984  0.09702316  0.88997396  1
  O  O18  1  0.74869737  0.95707995  0.67001394  1
  O  O19  1  0.24896521  0.95454789  0.66696290  1
  O  O20  1  0.73798839  0.66115279  0.03609614  1
  O  O21  1  0.25275723  0.66224934  0.04359046  1
  O  O22  1  0.74582908  0.34183343  0.95743412  1
  O  O23  1  0.24711705  0.33818957  0.95715279  1
  O  O24  1  0.75624348  0.04264946  0.32767299  1
  O  O25  1  0.25354749  0.04337870  0.33228248  1
  O  O26  1  0.00091838  0.45441816  0.16684912  1
  O  O27  1  0.50123014  0.45698316  0.16991869  1
  O  O28  1  0.99726983  0.16224790  0.54342336  1
  O  O29  1  0.51206975  0.16108722  0.53602030  1
  O  O30  1  0.50412401  0.84183340  0.45753047  1
  O  O31  1  0.00290150  0.83813558  0.45727769  1
  O  O32  1  0.49380325  0.54282176  0.82777589  1
  O  O33  1  0.99646833  0.54356801  0.83238426  1
  O  O34  1  0.49565246  0.79391316  0.84267200  1
  O  O35  1  0.99638117  0.79375616  0.84328682  1
  O  O36  1  0.00832331  0.84163607  0.20713679  1
  O  O37  1  0.50082306  0.84271971  0.20470172  1
  O  O38  1  0.00197835  0.20462165  0.15370622  1
  O  O39  1  0.50188736  0.20695143  0.15056072  1
  O  O40  1  0.50115662  0.15714588  0.79391571  1
  O  O41  1  0.98293696  0.15411836  0.81068946  1
  O  O42  1  0.75431916  0.29371901  0.34249989  1
  O  O43  1  0.25357362  0.29354262  0.34308249  1
  O  O44  1  0.74926873  0.34282231  0.70464284  1
  O  O45  1  0.24168143  0.34179337  0.70705660  1
  O  O46  1  0.74804895  0.70708113  0.65071639  1
  O  O47  1  0.24795656  0.70476819  0.65394760  1
  O  O48  1  0.74883952  0.65703220  0.29402773  1
  O  O49  1  0.26717092  0.65398075  0.31072199  1
