# generated using pymatgen
data_Sr5(Ga3O7)2
_symmetry_space_group_name_H-M   'P 1'
_cell_length_a   8.28094426
_cell_length_b   8.28493876
_cell_length_c   11.00438122
_cell_angle_alpha   90.00000000
_cell_angle_beta   92.30999291
_cell_angle_gamma   90.00000000
_symmetry_Int_Tables_number   1
_chemical_formula_structural   Sr5(Ga3O7)2
_chemical_formula_sum   'Sr10 Ga12 O28'
_cell_volume   754.36534912
_cell_formula_units_Z   2
loop_
 _symmetry_equiv_pos_site_id
 _symmetry_equiv_pos_as_xyz
  1  'x, y, z'
loop_
 _atom_site_type_symbol
 _atom_site_label
 _atom_site_symmetry_multiplicity
 _atom_site_fract_x
 _atom_site_fract_y
 _atom_site_fract_z
 _atom_site_occupancy
  Sr  Sr0  1  0.00000000  0.00000000  0.50000000  1
  Sr  Sr1  1  0.00000000  0.50000000  0.00000000  1
  Sr  Sr2  1  0.40838775  0.25298799  0.50247497  1
  Sr  Sr3  1  0.59161225  0.75298799  0.99752503  1
  Sr  Sr4  1  0.59161225  0.74701201  0.49752503  1
  Sr  Sr5  1  0.40838775  0.24701201  0.00247497  1
  Sr  Sr6  1  0.16076157  0.59200903  0.47021772  1
  Sr  Sr7  1  0.83923843  0.09200903  0.02978228  1
  Sr  Sr8  1  0.83923843  0.40799097  0.52978228  1
  Sr  Sr9  1  0.16076157  0.90799097  0.97021772  1
  Ga  Ga10  1  0.73081534  0.08622157  0.74631773  1
  Ga  Ga11  1  0.26918466  0.58622157  0.75368227  1
  Ga  Ga12  1  0.26918466  0.91377843  0.25368227  1
  Ga  Ga13  1  0.73081534  0.41377843  0.24631773  1
  Ga  Ga14  1  0.61398839  0.44118976  0.78717121  1
  Ga  Ga15  1  0.38601161  0.94118976  0.71282879  1
  Ga  Ga16  1  0.38601161  0.55881024  0.21282879  1
  Ga  Ga17  1  0.61398839  0.05881024  0.28717121  1
  Ga  Ga18  1  0.89544074  0.72855792  0.76060771  1
  Ga  Ga19  1  0.10455926  0.22855792  0.73939229  1
  Ga  Ga20  1  0.10455926  0.27144208  0.23939229  1
  Ga  Ga21  1  0.89544074  0.77144208  0.26060771  1
  O  O22  1  0.66215706  0.23816414  0.86096148  1
  O  O23  1  0.33784294  0.73816414  0.63903852  1
  O  O24  1  0.33784294  0.76183586  0.13903852  1
  O  O25  1  0.66215706  0.26183586  0.36096148  1
  O  O26  1  0.83513105  0.92260951  0.83865826  1
  O  O27  1  0.16486895  0.42260951  0.66134174  1
  O  O28  1  0.16486895  0.07739049  0.16134174  1
  O  O29  1  0.83513105  0.57739049  0.33865826  1
  O  O30  1  0.77209790  0.58213029  0.84995939  1
  O  O31  1  0.22790210  0.08213029  0.65004061  1
  O  O32  1  0.22790210  0.41786971  0.15004061  1
  O  O33  1  0.77209790  0.91786971  0.34995939  1
  O  O34  1  0.57488436  0.01010946  0.63458546  1
  O  O35  1  0.42511564  0.51010946  0.86541454  1
  O  O36  1  0.42511564  0.98989054  0.36541454  1
  O  O37  1  0.57488436  0.48989054  0.13458546  1
  O  O38  1  0.89880355  0.18108211  0.66131376  1
  O  O39  1  0.10119645  0.68108211  0.83868624  1
  O  O40  1  0.10119645  0.81891789  0.33868624  1
  O  O41  1  0.89880355  0.31891789  0.16131376  1
  O  O42  1  0.89466087  0.72070258  0.59450286  1
  O  O43  1  0.10533913  0.22070258  0.90549714  1
  O  O44  1  0.10533913  0.27929742  0.40549714  1
  O  O45  1  0.89466087  0.77929742  0.09450286  1
  O  O46  1  0.58835169  0.44147592  0.62204549  1
  O  O47  1  0.41164831  0.94147592  0.87795451  1
  O  O48  1  0.41164831  0.55852408  0.37795451  1
  O  O49  1  0.58835169  0.05852408  0.12204549  1
