# generated using pymatgen
data_Sr2Ga2O5
_symmetry_space_group_name_H-M   'P 1'
_cell_length_a   10.11510706
_cell_length_b   9.72946024
_cell_length_c   10.81225272
_cell_angle_alpha   90.00000000
_cell_angle_beta   90.00000000
_cell_angle_gamma   90.00000000
_symmetry_Int_Tables_number   1
_chemical_formula_structural   Sr2Ga2O5
_chemical_formula_sum   'Sr16 Ga16 O40'
_cell_volume   1064.08279091
_cell_formula_units_Z   8
loop_
 _symmetry_equiv_pos_site_id
 _symmetry_equiv_pos_as_xyz
  1  'x, y, z'
loop_
 _atom_site_type_symbol
 _atom_site_label
 _atom_site_symmetry_multiplicity
 _atom_site_fract_x
 _atom_site_fract_y
 _atom_site_fract_z
 _atom_site_occupancy
  Sr  Sr0  1  0.50321109  0.00435959  0.25549212  1
  Sr  Sr1  1  0.00321109  0.49564041  0.74450788  1
  Sr  Sr2  1  0.49678891  0.50435959  0.24450788  1
  Sr  Sr3  1  0.99678891  0.99564041  0.75549212  1
  Sr  Sr4  1  0.49678891  0.99564041  0.74450788  1
  Sr  Sr5  1  0.99678891  0.50435959  0.25549212  1
  Sr  Sr6  1  0.50321109  0.49564041  0.75549212  1
  Sr  Sr7  1  0.00321109  0.00435959  0.24450788  1
  Sr  Sr8  1  0.74599882  0.24870875  0.27396188  1
  Sr  Sr9  1  0.24599882  0.25129125  0.72603812  1
  Sr  Sr10  1  0.25400118  0.74870875  0.22603812  1
  Sr  Sr11  1  0.75400118  0.75129125  0.77396188  1
  Sr  Sr12  1  0.25400118  0.75129125  0.72603812  1
  Sr  Sr13  1  0.75400118  0.74870875  0.27396188  1
  Sr  Sr14  1  0.74599882  0.25129125  0.77396188  1
  Sr  Sr15  1  0.24599882  0.24870875  0.22603812  1
  Ga  Ga16  1  0.46651381  0.26734042  0.49375582  1
  Ga  Ga17  1  0.96651381  0.23265958  0.50624418  1
  Ga  Ga18  1  0.53348619  0.76734042  0.00624418  1
  Ga  Ga19  1  0.03348619  0.73265958  0.99375582  1
  Ga  Ga20  1  0.53348619  0.73265958  0.50624418  1
  Ga  Ga21  1  0.03348619  0.76734042  0.49375582  1
  Ga  Ga22  1  0.46651381  0.23265958  0.99375582  1
  Ga  Ga23  1  0.96651381  0.26734042  0.00624418  1
  Ga  Ga24  1  0.23351018  0.03869703  0.46907630  1
  Ga  Ga25  1  0.73351018  0.46130297  0.53092370  1
  Ga  Ga26  1  0.76648982  0.53869703  0.03092370  1
  Ga  Ga27  1  0.26648982  0.96130297  0.96907630  1
  Ga  Ga28  1  0.76648982  0.96130297  0.53092370  1
  Ga  Ga29  1  0.26648982  0.53869703  0.46907630  1
  Ga  Ga30  1  0.23351018  0.46130297  0.96907630  1
  Ga  Ga31  1  0.73351018  0.03869703  0.03092370  1
  O  O32  1  0.26267359  0.99093682  0.30604739  1
  O  O33  1  0.76267359  0.50906318  0.69395261  1
  O  O34  1  0.73732641  0.49093682  0.19395261  1
  O  O35  1  0.23732641  0.00906318  0.80604739  1
  O  O36  1  0.73732641  0.00906318  0.69395261  1
  O  O37  1  0.23732641  0.49093682  0.30604739  1
  O  O38  1  0.26267359  0.50906318  0.80604739  1
  O  O39  1  0.76267359  0.99093682  0.19395261  1
  O  O40  1  0.38077180  0.10781924  0.55879621  1
  O  O41  1  0.88077180  0.39218076  0.44120379  1
  O  O42  1  0.61922820  0.60781924  0.94120379  1
  O  O43  1  0.11922820  0.89218076  0.05879621  1
  O  O44  1  0.61922820  0.89218076  0.44120379  1
  O  O45  1  0.11922820  0.60781924  0.55879621  1
  O  O46  1  0.38077180  0.39218076  0.05879621  1
  O  O47  1  0.88077180  0.10781924  0.94120379  1
  O  O48  1  0.48679345  0.25641845  0.32366313  1
  O  O49  1  0.98679345  0.24358155  0.67633687  1
  O  O50  1  0.51320655  0.75641845  0.17633687  1
  O  O51  1  0.01320655  0.74358155  0.82366313  1
  O  O52  1  0.51320655  0.74358155  0.67633687  1
  O  O53  1  0.01320655  0.75641845  0.32366313  1
  O  O54  1  0.48679345  0.24358155  0.82366313  1
  O  O55  1  0.98679345  0.25641845  0.17633687  1
  O  O56  1  0.36190823  0.41126864  0.56260789  1
  O  O57  1  0.86190823  0.08873136  0.43739211  1
  O  O58  1  0.63809177  0.91126864  0.93739211  1
  O  O59  1  0.13809177  0.58873136  0.06260789  1
  O  O60  1  0.63809177  0.58873136  0.43739211  1
  O  O61  1  0.13809177  0.91126864  0.56260789  1
  O  O62  1  0.36190823  0.08873136  0.06260789  1
  O  O63  1  0.86190823  0.41126864  0.93739211  1
  O  O64  1  0.63059199  0.30120157  0.56491752  1
  O  O65  1  0.13059199  0.19879843  0.43508248  1
  O  O66  1  0.36940801  0.80120157  0.93508248  1
  O  O67  1  0.86940801  0.69879843  0.06491752  1
  O  O68  1  0.36940801  0.69879843  0.43508248  1
  O  O69  1  0.86940801  0.80120157  0.56491752  1
  O  O70  1  0.63059199  0.19879843  0.06491752  1
  O  O71  1  0.13059199  0.30120157  0.93508248  1
