# generated using pymatgen
data_Co2NiSe4
_symmetry_space_group_name_H-M   'P 1'
_cell_length_a   3.59590058
_cell_length_b   6.15993452
_cell_length_c   6.25668121
_cell_angle_alpha   117.96444473
_cell_angle_beta   106.70025934
_cell_angle_gamma   90.00000000
_symmetry_Int_Tables_number   1
_chemical_formula_structural   Co2NiSe4
_chemical_formula_sum   'Co2 Ni1 Se4'
_cell_volume   115.74704456
_cell_formula_units_Z   1
loop_
 _symmetry_equiv_pos_site_id
 _symmetry_equiv_pos_as_xyz
  1  'x, y, z'
loop_
 _atom_site_type_symbol
 _atom_site_label
 _atom_site_symmetry_multiplicity
 _atom_site_fract_x
 _atom_site_fract_y
 _atom_site_fract_z
 _atom_site_occupancy
  Co  Co0  1  0.26095327  0.27986028  0.52190653  1
  Co  Co1  1  0.73904673  0.72013972  0.47809347  1
  Ni  Ni2  1  0.00000000  0.00000000  0.00000000  1
  Se  Se3  1  0.12463494  0.45996035  0.24926988  1
  Se  Se4  1  0.87536506  0.54003965  0.75073012  1
  Se  Se5  1  0.36220919  0.02073797  0.72441838  1
  Se  Se6  1  0.63779081  0.97926203  0.27558162  1
