# generated using pymatgen
data_MoWSeS3
_symmetry_space_group_name_H-M   'P 1'
_cell_length_a   3.22022774
_cell_length_b   3.22019203
_cell_length_c   36.37526639
_cell_angle_alpha   90.00016014
_cell_angle_beta   90.00000000
_cell_angle_gamma   120.00036679
_symmetry_Int_Tables_number   1
_chemical_formula_structural   MoWSeS3
_chemical_formula_sum   'Mo2 W2 Se2 S6'
_cell_volume   326.66572370
_cell_formula_units_Z   2
loop_
 _symmetry_equiv_pos_site_id
 _symmetry_equiv_pos_as_xyz
  1  'x, y, z'
loop_
 _atom_site_type_symbol
 _atom_site_label
 _atom_site_symmetry_multiplicity
 _atom_site_fract_x
 _atom_site_fract_y
 _atom_site_fract_z
 _atom_site_occupancy
  Mo  Mo0  1  0.33331147  0.66662294  0.09391010  1
  Mo  Mo1  1  0.66668734  0.33337468  0.28179804  1
  W  W2  1  0.33331035  0.66662069  0.46967028  1
  W  W3  1  0.66668939  0.33337878  0.65754157  1
  Se  Se4  1  0.33335164  0.66670427  0.32880080  1
  Se  Se5  1  0.33335229  0.66670558  0.23477912  1
  S  S6  1  0.33335447  0.66670995  0.70049670  1
  S  S7  1  0.66664661  0.33329222  0.05111030  1
  S  S8  1  0.66664387  0.33328675  0.42673906  1
  S  S9  1  0.66664695  0.33329290  0.13671089  1
  S  S10  1  0.66664446  0.33328791  0.51260763  1
  S  S11  1  0.33336116  0.66672333  0.61458348  1
