# generated using pymatgen
data_MoWSeS3
_symmetry_space_group_name_H-M   'P 1'
_cell_length_a   3.22020081
_cell_length_b   3.22017382
_cell_length_c   36.33764904
_cell_angle_alpha   89.99989785
_cell_angle_beta   90.00000000
_cell_angle_gamma   120.00027719
_symmetry_Int_Tables_number   1
_chemical_formula_structural   MoWSeS3
_chemical_formula_sum   'Mo2 W2 Se2 S6'
_cell_volume   326.32362291
_cell_formula_units_Z   2
loop_
 _symmetry_equiv_pos_site_id
 _symmetry_equiv_pos_as_xyz
  1  'x, y, z'
loop_
 _atom_site_type_symbol
 _atom_site_label
 _atom_site_symmetry_multiplicity
 _atom_site_fract_x
 _atom_site_fract_y
 _atom_site_fract_z
 _atom_site_occupancy
  Mo  Mo0  1  0.33331090  0.66662180  0.09392284  1
  Mo  Mo1  1  0.33331068  0.66662137  0.46967105  1
  W  W2  1  0.66668803  0.33337607  0.28179776  1
  W  W3  1  0.66668752  0.33337503  0.65755307  1
  Se  Se4  1  0.66664774  0.33329448  0.42259123  1
  Se  Se5  1  0.66664722  0.33329345  0.51671339  1
  S  S6  1  0.33335159  0.66670417  0.32475404  1
  S  S7  1  0.33335153  0.66670405  0.70053393  1
  S  S8  1  0.66664760  0.33329421  0.05108599  1
  S  S9  1  0.66664528  0.33328957  0.13674890  1
  S  S10  1  0.33335401  0.66670902  0.23880804  1
  S  S11  1  0.33335788  0.66671677  0.61456774  1
