# generated using pymatgen
data_Te6Mo2W
_symmetry_space_group_name_H-M   'P 1'
_cell_length_a   3.55249934
_cell_length_b   3.55196699
_cell_length_c   32.57431002
_cell_angle_alpha   90.00000197
_cell_angle_beta   90.00000000
_cell_angle_gamma   120.00495790
_symmetry_Int_Tables_number   1
_chemical_formula_structural   Te6Mo2W
_chemical_formula_sum   'Te6 Mo2 W1'
_cell_volume   355.94843303
_cell_formula_units_Z   1
loop_
 _symmetry_equiv_pos_site_id
 _symmetry_equiv_pos_as_xyz
  1  'x, y, z'
loop_
 _atom_site_type_symbol
 _atom_site_label
 _atom_site_symmetry_multiplicity
 _atom_site_fract_x
 _atom_site_fract_y
 _atom_site_fract_z
 _atom_site_occupancy
  Te  Te0  1  0.33334282  0.66668664  0.40267793  1
  Te  Te1  1  0.66665887  0.33331674  0.05997093  1
  Te  Te2  1  0.66665866  0.33331632  0.52254231  1
  Te  Te3  1  0.66665888  0.33331676  0.17136399  1
  Te  Te4  1  0.66665852  0.33331605  0.63405866  1
  Te  Te5  1  0.33333887  0.66667874  0.29128553  1
  Mo  Mo6  1  0.33328512  0.66657024  0.11564848  1
  Mo  Mo7  1  0.66671482  0.33342965  0.34697942  1
  W  W8  1  0.33328444  0.66656887  0.57831376  1
