# generated using pymatgen
data_W2SeS3
_symmetry_space_group_name_H-M   'P 1'
_cell_length_a   3.22128887
_cell_length_b   3.22126829
_cell_length_c   36.40122846
_cell_angle_alpha   89.99990631
_cell_angle_beta   90.00000000
_cell_angle_gamma   120.00021127
_symmetry_Int_Tables_number   1
_chemical_formula_structural   W2SeS3
_chemical_formula_sum   'W4 Se2 S6'
_cell_volume   327.11639889
_cell_formula_units_Z   2
loop_
 _symmetry_equiv_pos_site_id
 _symmetry_equiv_pos_as_xyz
  1  'x, y, z'
loop_
 _atom_site_type_symbol
 _atom_site_label
 _atom_site_symmetry_multiplicity
 _atom_site_fract_x
 _atom_site_fract_y
 _atom_site_fract_z
 _atom_site_occupancy
  W  W0  1  0.33331253  0.66662507  0.09390804  1
  W  W1  1  0.33331047  0.66662095  0.46965558  1
  W  W2  1  0.66668932  0.33337863  0.28180465  1
  W  W3  1  0.66668893  0.33337787  0.65755722  1
  Se  Se4  1  0.33335260  0.66670620  0.70483585  1
  Se  Se5  1  0.33335333  0.66670767  0.61027420  1
  S  S6  1  0.33335431  0.66670962  0.32470433  1
  S  S7  1  0.66664778  0.33329456  0.05099464  1
  S  S8  1  0.66664628  0.33329156  0.42675058  1
  S  S9  1  0.66664719  0.33329338  0.13682276  1
  S  S10  1  0.66664236  0.33328372  0.51255064  1
  S  S11  1  0.33335489  0.66671078  0.23888951  1
