# generated using pymatgen
data_W2Se3S
_symmetry_space_group_name_H-M   'P 1'
_cell_length_a   3.28697453
_cell_length_b   3.28694225
_cell_length_c   37.44428325
_cell_angle_alpha   89.99991754
_cell_angle_beta   90.00000000
_cell_angle_gamma   120.00032495
_symmetry_Int_Tables_number   1
_chemical_formula_structural   W2Se3S
_chemical_formula_sum   'W4 Se6 S2'
_cell_volume   350.35082489
_cell_formula_units_Z   2
loop_
 _symmetry_equiv_pos_site_id
 _symmetry_equiv_pos_as_xyz
  1  'x, y, z'
loop_
 _atom_site_type_symbol
 _atom_site_label
 _atom_site_symmetry_multiplicity
 _atom_site_fract_x
 _atom_site_fract_y
 _atom_site_fract_z
 _atom_site_occupancy
  W  W0  1  0.33330908  0.66661817  0.09391879  1
  W  W1  1  0.33331529  0.66663059  0.46965948  1
  W  W2  1  0.66668702  0.33337403  0.28178923  1
  W  W3  1  0.66669101  0.33338202  0.65754659  1
  Se  Se4  1  0.33334309  0.66668717  0.32706661  1
  Se  Se5  1  0.33335703  0.66671506  0.70282748  1
  Se  Se6  1  0.66664505  0.33328909  0.42438207  1
  Se  Se7  1  0.66665820  0.33331541  0.51493914  1
  Se  Se8  1  0.33335220  0.66670540  0.23651681  1
  Se  Se9  1  0.33335268  0.66670637  0.61225137  1
  S  S10  1  0.66664230  0.33328361  0.05276854  1
  S  S11  1  0.66664704  0.33329308  0.13508190  1
