# generated using pymatgen
data_Mo3(Se2S)2
_symmetry_space_group_name_H-M   'P 1'
_cell_length_a   3.27843095
_cell_length_b   3.27845551
_cell_length_c   30.14447862
_cell_angle_alpha   90.00000000
_cell_angle_beta   90.00000000
_cell_angle_gamma   119.99975232
_symmetry_Int_Tables_number   1
_chemical_formula_structural   Mo3(Se2S)2
_chemical_formula_sum   'Mo3 Se4 S2'
_cell_volume   280.59170456
_cell_formula_units_Z   1
loop_
 _symmetry_equiv_pos_site_id
 _symmetry_equiv_pos_as_xyz
  1  'x, y, z'
loop_
 _atom_site_type_symbol
 _atom_site_label
 _atom_site_symmetry_multiplicity
 _atom_site_fract_x
 _atom_site_fract_y
 _atom_site_fract_z
 _atom_site_occupancy
  Mo  Mo0  1  0.33331026  0.66662053  0.11563368  1
  Mo  Mo1  1  0.33331026  0.66662053  0.57833132  1
  Mo  Mo2  1  0.66669860  0.33339721  0.34698200  1
  Se  Se3  1  0.66665043  0.33329985  0.05962829  1
  Se  Se4  1  0.66663643  0.33327187  0.52231062  1
  Se  Se5  1  0.66663643  0.33327187  0.17165438  1
  Se  Se6  1  0.66665043  0.33329985  0.63433571  1
  S  S7  1  0.33335407  0.66670914  0.39792426  1
  S  S8  1  0.33335407  0.66670914  0.29604074  1
