# generated using pymatgen
data_Mo2W(SeS2)2
_symmetry_space_group_name_H-M   'P 1'
_cell_length_a   3.23290398
_cell_length_b   3.23292074
_cell_length_c   30.20289088
_cell_angle_alpha   89.99156883
_cell_angle_beta   90.00000000
_cell_angle_gamma   119.99982852
_symmetry_Int_Tables_number   1
_chemical_formula_structural   Mo2W(SeS2)2
_chemical_formula_sum   'Mo2 W1 Se2 S4'
_cell_volume   273.38063783
_cell_formula_units_Z   1
loop_
 _symmetry_equiv_pos_site_id
 _symmetry_equiv_pos_as_xyz
  1  'x, y, z'
loop_
 _atom_site_type_symbol
 _atom_site_label
 _atom_site_symmetry_multiplicity
 _atom_site_fract_x
 _atom_site_fract_y
 _atom_site_fract_z
 _atom_site_occupancy
  Mo  Mo0  1  0.33320499  0.66640998  0.11286164  1
  Mo  Mo1  1  0.66673284  0.33346567  0.34824418  1
  W  W2  1  0.33330784  0.66661569  0.57987753  1
  Se  Se3  1  0.66669837  0.33339574  0.05627433  1
  Se  Se4  1  0.66651025  0.33301950  0.16936119  1
  S  S5  1  0.33343145  0.66686389  0.39962070  1
  S  S6  1  0.66666034  0.33331968  0.52828680  1
  S  S7  1  0.66676381  0.33352662  0.63145624  1
  S  S8  1  0.33329112  0.66658324  0.29685839  1
