# generated using pymatgen
data_MoW3(Se3S)2
_symmetry_space_group_name_H-M   'P 1'
_cell_length_a   3.28655875
_cell_length_b   3.28654665
_cell_length_c   37.40321494
_cell_angle_alpha   90.00007636
_cell_angle_beta   90.00000000
_cell_angle_gamma   120.00012168
_symmetry_Int_Tables_number   1
_chemical_formula_structural   MoW3(Se3S)2
_chemical_formula_sum   'Mo1 W3 Se6 S2'
_cell_volume   349.88089871
_cell_formula_units_Z   1
loop_
 _symmetry_equiv_pos_site_id
 _symmetry_equiv_pos_as_xyz
  1  'x, y, z'
loop_
 _atom_site_type_symbol
 _atom_site_label
 _atom_site_symmetry_multiplicity
 _atom_site_fract_x
 _atom_site_fract_y
 _atom_site_fract_z
 _atom_site_occupancy
  Mo  Mo0  1  0.66668939  0.33337878  0.28178899  1
  W  W1  1  0.33331157  0.66662314  0.09392074  1
  W  W2  1  0.33330936  0.66661872  0.46965714  1
  W  W3  1  0.66668876  0.33337752  0.65754787  1
  Se  Se4  1  0.33335357  0.66670815  0.32686363  1
  Se  Se5  1  0.33335199  0.66670498  0.70289985  1
  Se  Se6  1  0.66664720  0.33329340  0.42431382  1
  Se  Se7  1  0.66664719  0.33329338  0.51500270  1
  Se  Se8  1  0.33335126  0.66670351  0.23672277  1
  Se  Se9  1  0.33335688  0.66671475  0.61218004  1
  S  S10  1  0.66664648  0.33329195  0.05273318  1
  S  S11  1  0.66664635  0.33329170  0.13511727  1
