# generated using pymatgen
data_Mg30VFeO32
_symmetry_space_group_name_H-M   'P 1'
_cell_length_a   8.53333593
_cell_length_b   8.54263101
_cell_length_c   8.54263101
_cell_angle_alpha   90.00000000
_cell_angle_beta   90.00000000
_cell_angle_gamma   90.00000000
_symmetry_Int_Tables_number   1
_chemical_formula_structural   Mg30VFeO32
_chemical_formula_sum   'Mg30 V1 Fe1 O32'
_cell_volume   622.73336985
_cell_formula_units_Z   1
loop_
 _symmetry_equiv_pos_site_id
 _symmetry_equiv_pos_as_xyz
  1  'x, y, z'
loop_
 _atom_site_type_symbol
 _atom_site_label
 _atom_site_symmetry_multiplicity
 _atom_site_fract_x
 _atom_site_fract_y
 _atom_site_fract_z
 _atom_site_occupancy
  Mg  Mg0  1  -0.00000000  0.00000000  0.50000000  1
  Mg  Mg1  1  -0.00000000  0.50000000  -0.00000000  1
  Mg  Mg2  1  0.50000000  0.00000000  -0.00000000  1
  Mg  Mg3  1  0.50000000  0.00000000  0.50000000  1
  Mg  Mg4  1  0.50000000  0.50000000  -0.00000000  1
  Mg  Mg5  1  0.50000000  0.50000000  0.50000000  1
  Mg  Mg6  1  -0.00000000  0.24883739  0.24883739  1
  Mg  Mg7  1  -0.00000000  0.24883739  0.75116261  1
  Mg  Mg8  1  -0.00000000  0.75116261  0.24883739  1
  Mg  Mg9  1  -0.00000000  0.75116261  0.75116261  1
  Mg  Mg10  1  0.50000000  0.25004838  0.25004838  1
  Mg  Mg11  1  0.50000000  0.25004838  0.74995162  1
  Mg  Mg12  1  0.50000000  0.74995162  0.25004838  1
  Mg  Mg13  1  0.50000000  0.74995162  0.74995162  1
  Mg  Mg14  1  0.24945491  0.00000000  0.24998532  1
  Mg  Mg15  1  0.24945491  0.00000000  0.75001468  1
  Mg  Mg16  1  0.25043269  0.50000000  0.24939262  1
  Mg  Mg17  1  0.25043269  0.50000000  0.75060738  1
  Mg  Mg18  1  0.75054509  0.00000000  0.24998532  1
  Mg  Mg19  1  0.75054509  0.00000000  0.75001468  1
  Mg  Mg20  1  0.74956731  0.50000000  0.24939262  1
  Mg  Mg21  1  0.74956731  0.50000000  0.75060738  1
  Mg  Mg22  1  0.24945491  0.24998532  -0.00000000  1
  Mg  Mg23  1  0.25043269  0.24939262  0.50000000  1
  Mg  Mg24  1  0.24945491  0.75001468  -0.00000000  1
  Mg  Mg25  1  0.25043269  0.75060738  0.50000000  1
  Mg  Mg26  1  0.75054509  0.24998532  0.00000000  1
  Mg  Mg27  1  0.74956731  0.24939262  0.50000000  1
  Mg  Mg28  1  0.75054509  0.75001468  0.00000000  1
  Mg  Mg29  1  0.74956731  0.75060738  0.50000000  1
  V  V30  1  -0.00000000  0.50000000  0.50000000  1
  Fe  Fe31  1  -0.00000000  0.00000000  -0.00000000  1
  O  O32  1  0.25152179  0.00000000  0.00000000  1
  O  O33  1  0.25047172  0.00000000  0.50000000  1
  O  O34  1  0.25047172  0.50000000  0.00000000  1
  O  O35  1  0.25505636  0.50000000  0.50000000  1
  O  O36  1  0.74847821  0.00000000  0.00000000  1
  O  O37  1  0.74952828  0.00000000  0.50000000  1
  O  O38  1  0.74952828  0.50000000  -0.00000000  1
  O  O39  1  0.74494364  0.50000000  0.50000000  1
  O  O40  1  0.24975144  0.24999890  0.24999890  1
  O  O41  1  0.24975144  0.24999890  0.75000110  1
  O  O42  1  0.24975144  0.75000110  0.24999890  1
  O  O43  1  0.24975144  0.75000110  0.75000110  1
  O  O44  1  0.75024856  0.24999890  0.24999890  1
  O  O45  1  0.75024856  0.24999890  0.75000110  1
  O  O46  1  0.75024856  0.75000110  0.24999890  1
  O  O47  1  0.75024856  0.75000110  0.75000110  1
  O  O48  1  -0.00000000  0.00000000  0.25270305  1
  O  O49  1  -0.00000000  0.00000000  0.74729695  1
  O  O50  1  -0.00000000  0.50000000  0.24496333  1
  O  O51  1  -0.00000000  0.50000000  0.75503667  1
  O  O52  1  0.50000000  0.00000000  0.24963640  1
  O  O53  1  0.50000000  0.00000000  0.75036360  1
  O  O54  1  0.50000000  0.50000000  0.24949687  1
  O  O55  1  0.50000000  0.50000000  0.75050313  1
  O  O56  1  -0.00000000  0.25270305  0.00000000  1
  O  O57  1  -0.00000000  0.24496333  0.50000000  1
  O  O58  1  -0.00000000  0.74729695  -0.00000000  1
  O  O59  1  -0.00000000  0.75503667  0.50000000  1
  O  O60  1  0.50000000  0.24963640  -0.00000000  1
  O  O61  1  0.50000000  0.24949687  0.50000000  1
  O  O62  1  0.50000000  0.75036360  -0.00000000  1
  O  O63  1  0.50000000  0.75050313  0.50000000  1
