# generated using pymatgen
data_MoWSe3S
_symmetry_space_group_name_H-M   'P 1'
_cell_length_a   3.28655419
_cell_length_b   3.28651089
_cell_length_c   37.35715488
_cell_angle_alpha   89.99988256
_cell_angle_beta   90.00000730
_cell_angle_gamma   120.00041911
_symmetry_Int_Tables_number   1
_chemical_formula_structural   MoWSe3S
_chemical_formula_sum   'Mo2 W2 Se6 S2'
_cell_volume   349.44470457
_cell_formula_units_Z   2
loop_
 _symmetry_equiv_pos_site_id
 _symmetry_equiv_pos_as_xyz
  1  'x, y, z'
loop_
 _atom_site_type_symbol
 _atom_site_label
 _atom_site_symmetry_multiplicity
 _atom_site_fract_x
 _atom_site_fract_y
 _atom_site_fract_z
 _atom_site_occupancy
  Mo  Mo0  1  0.33331294  0.66662550  0.46966570  1
  Mo  Mo1  1  0.66668740  0.33337517  0.28181017  1
  W  W2  1  0.33331341  0.66662643  0.09392190  1
  W  W3  1  0.66668605  0.33337260  0.65754421  1
  Se  Se4  1  0.33335518  0.66671112  0.32693808  1
  Se  Se5  1  0.33335248  0.66670571  0.70296873  1
  Se  Se6  1  0.66664764  0.33329456  0.42451522  1
  Se  Se7  1  0.66664709  0.33329347  0.51478330  1
  Se  Se8  1  0.33335267  0.66670603  0.23664889  1
  Se  Se9  1  0.33335281  0.66670639  0.61210914  1
  S  S10  1  0.66664623  0.33329153  0.05265883  1
  S  S11  1  0.66664608  0.33329149  0.13518381  1
