# generated using pymatgen
data_Mg2Nb2VO8
_symmetry_space_group_name_H-M   'P 1'
_cell_length_a   5.23439913
_cell_length_b   6.04768758
_cell_length_c   10.09404337
_cell_angle_alpha   107.42319930
_cell_angle_beta   89.52070671
_cell_angle_gamma   90.00174327
_symmetry_Int_Tables_number   1
_chemical_formula_structural   Mg2Nb2VO8
_chemical_formula_sum   'Mg4 Nb4 V2 O16'
_cell_volume   304.86482138
_cell_formula_units_Z   2
loop_
 _symmetry_equiv_pos_site_id
 _symmetry_equiv_pos_as_xyz
  1  'x, y, z'
loop_
 _atom_site_type_symbol
 _atom_site_label
 _atom_site_symmetry_multiplicity
 _atom_site_fract_x
 _atom_site_fract_y
 _atom_site_fract_z
 _atom_site_occupancy
  Mg  Mg0  1  0.75386485  0.41467034  0.54361345  1
  Mg  Mg1  1  0.74716273  0.87048523  0.45566992  1
  Mg  Mg2  1  0.24720155  0.58636505  0.45565685  1
  Mg  Mg3  1  0.25387254  0.13022861  0.54338861  1
  Nb  Nb4  1  0.74574928  0.28430530  0.23311612  1
  Nb  Nb5  1  0.75520813  0.05090206  0.76606939  1
  Nb  Nb6  1  0.25519915  0.71642489  0.76609503  1
  Nb  Nb7  1  0.24575029  0.94980797  0.23299741  1
  V  V8  1  0.75052893  0.64898221  0.99960659  1
  V  V9  1  0.25055859  0.35168222  0.99957338  1
  O  O10  1  0.08196430  0.18373570  0.14359624  1
  O  O11  1  0.41900965  0.03974739  0.85550436  1
  O  O12  1  0.91897008  0.81682377  0.85545830  1
  O  O13  1  0.58205749  0.96094581  0.14366441  1
  O  O14  1  0.59419878  0.43310407  0.11769619  1
  O  O15  1  0.90683819  0.31493673  0.88156093  1
  O  O16  1  0.40688600  0.56773783  0.88152778  1
  O  O17  1  0.09427499  0.68560596  0.11760635  1
  O  O18  1  0.45844276  0.29288437  0.37506324  1
  O  O19  1  0.04242517  0.91740271  0.62405042  1
  O  O20  1  0.38480732  0.83751360  0.38304616  1
  O  O21  1  0.11633048  0.45398912  0.61610810  1
  O  O22  1  0.61625731  0.16342211  0.61611636  1
  O  O23  1  0.88480097  0.54667485  0.38309589  1
  O  O24  1  0.95851259  0.08319488  0.37499506  1
  O  O25  1  0.54242688  0.70802822  0.62404145  1
