# generated using pymatgen
data_Ba2AlCr2F11
_symmetry_space_group_name_H-M   'P 1'
_cell_length_a   7.48764447
_cell_length_b   7.48764359
_cell_length_c   14.41052189
_cell_angle_alpha   90.00000000
_cell_angle_beta   90.00000000
_cell_angle_gamma   119.99999825
_symmetry_Int_Tables_number   1
_chemical_formula_structural   Ba2AlCr2F11
_chemical_formula_sum   'Ba6 Al3 Cr6 F33'
_cell_volume   699.68204257
_cell_formula_units_Z   3
loop_
 _symmetry_equiv_pos_site_id
 _symmetry_equiv_pos_as_xyz
  1  'x, y, z'
loop_
 _atom_site_type_symbol
 _atom_site_label
 _atom_site_symmetry_multiplicity
 _atom_site_fract_x
 _atom_site_fract_y
 _atom_site_fract_z
 _atom_site_occupancy
  Ba  Ba0  1  0.53460086  0.18878810  0.66654281  1
  Ba  Ba1  1  0.17401258  0.49205416  0.80125380  1
  Ba  Ba2  1  0.65418725  0.46539914  0.99987581  1
  Ba  Ba3  1  0.50794584  0.68195742  0.46791980  1
  Ba  Ba4  1  0.31804258  0.82598742  0.13458680  1
  Ba  Ba5  1  0.81121190  0.34581275  0.33320881  1
  Al  Al6  1  0.17148712  0.01154574  0.87125787  1
  Al  Al7  1  0.84006062  0.82851288  0.20459087  1
  Al  Al8  1  0.98845426  0.15993938  0.53792387  1
  Cr  Cr9  1  0.63927578  0.99500970  0.89091695  1
  Cr  Cr10  1  0.78678789  0.76149352  0.72673093  1
  Cr  Cr11  1  0.23850648  0.02529437  0.39339693  1
  Cr  Cr12  1  0.35573393  0.36072422  0.22424995  1
  Cr  Cr13  1  0.97470563  0.21321211  0.06006393  1
  Cr  Cr14  1  0.00499030  0.64426607  0.55758295  1
  F  F15  1  0.67077476  0.08961198  0.02699308  1
  F  F16  1  0.49721320  0.69594686  0.92873504  1
  F  F17  1  0.41883622  0.32922524  0.36032608  1
  F  F18  1  0.09386827  0.41596250  0.48380955  1
  F  F19  1  0.52908032  0.23901649  0.18130467  1
  F  F20  1  0.89937816  0.62096157  0.17957544  1
  F  F21  1  0.58403750  0.67790577  0.15047655  1
  F  F22  1  0.37903843  0.27841559  0.84624244  1
  F  F23  1  0.70993517  0.47091968  0.51463767  1
  F  F24  1  0.27425467  0.34649900  0.08788895  1
  F  F25  1  0.32209423  0.90613173  0.81714355  1
  F  F26  1  0.91038802  0.58116378  0.69366008  1
  F  F27  1  0.29199107  0.02560277  0.98131028  1
  F  F28  1  0.03365754  0.49507747  0.01924650  1
  F  F29  1  0.73361271  0.70800893  0.31464328  1
  F  F30  1  0.30405314  0.80126534  0.59540104  1
  F  F31  1  0.01327350  0.12455372  0.90918768  1
  F  F32  1  0.07224432  0.72574533  0.42122195  1
  F  F33  1  0.99005589  0.06739829  0.41777292  1
  F  F34  1  0.97439723  0.26638729  0.64797628  1
  F  F35  1  0.07734139  0.00994411  0.75110692  1
  F  F36  1  0.50492253  0.53858007  0.68591350  1
  F  F37  1  0.46141993  0.96634246  0.35257950  1
  F  F38  1  0.11127922  0.98672650  0.24252068  1
  F  F39  1  0.65350100  0.92775568  0.75455595  1
  F  F40  1  0.76098351  0.29006483  0.84797167  1
  F  F41  1  0.19873466  0.50278680  0.26206804  1
  F  F42  1  0.95270978  0.75137698  0.88544353  1
  F  F43  1  0.79866820  0.04729022  0.21877653  1
  F  F44  1  0.93260171  0.92265861  0.08443992  1
  F  F45  1  0.72158441  0.10062184  0.51290844  1
  F  F46  1  0.87544628  0.88872078  0.57585368  1
  F  F47  1  0.24862302  0.20133180  0.55210953  1
