# generated using pymatgen
data_CaPrV2O6
_symmetry_space_group_name_H-M   'P 1'
_cell_length_a   5.52978948
_cell_length_b   5.63639411
_cell_length_c   7.60079627
_cell_angle_alpha   90.00000000
_cell_angle_beta   90.00000000
_cell_angle_gamma   90.00000000
_symmetry_Int_Tables_number   1
_chemical_formula_structural   CaPrV2O6
_chemical_formula_sum   'Ca2 Pr2 V4 O12'
_cell_volume   236.90217190
_cell_formula_units_Z   2
loop_
 _symmetry_equiv_pos_site_id
 _symmetry_equiv_pos_as_xyz
  1  'x, y, z'
loop_
 _atom_site_type_symbol
 _atom_site_label
 _atom_site_symmetry_multiplicity
 _atom_site_fract_x
 _atom_site_fract_y
 _atom_site_fract_z
 _atom_site_occupancy
  Ca  Ca0  1  0.48715981  0.45592237  0.75000000  1
  Ca  Ca1  1  0.98715981  0.04407763  0.25000000  1
  Pr  Pr2  1  0.01280584  0.95701881  0.75000000  1
  Pr  Pr3  1  0.51280584  0.54298119  0.25000000  1
  V  V4  1  0.00061534  0.49839349  0.99912393  1
  V  V5  1  0.00061534  0.49839349  0.50087607  1
  V  V6  1  0.50061534  0.00160651  0.49912393  1
  V  V7  1  0.50061534  0.00160651  0.00087607  1
  O  O8  1  0.07668629  0.48204016  0.25000000  1
  O  O9  1  0.21423421  0.20898401  0.95777290  1
  O  O10  1  0.21423421  0.20898401  0.54222710  1
  O  O11  1  0.28654325  0.70786204  0.54463507  1
  O  O12  1  0.28654325  0.70786204  0.95536493  1
  O  O13  1  0.42056246  0.98521980  0.25000000  1
  O  O14  1  0.57668629  0.01795984  0.75000000  1
  O  O15  1  0.71423421  0.29101599  0.04222710  1
  O  O16  1  0.71423421  0.29101599  0.45777290  1
  O  O17  1  0.78654325  0.79213796  0.04463507  1
  O  O18  1  0.78654325  0.79213796  0.45536493  1
  O  O19  1  0.92056246  0.51478020  0.75000000  1
