# generated using pymatgen
data_CaCuP2O7
_symmetry_space_group_name_H-M   'P 1'
_cell_length_a   6.08792836
_cell_length_b   6.51428083
_cell_length_c   7.46745875
_cell_angle_alpha   81.60366516
_cell_angle_beta   89.49590157
_cell_angle_gamma   68.49993803
_symmetry_Int_Tables_number   1
_chemical_formula_structural   CaCuP2O7
_chemical_formula_sum   'Ca2 Cu2 P4 O14'
_cell_volume   272.26597559
_cell_formula_units_Z   2
loop_
 _symmetry_equiv_pos_site_id
 _symmetry_equiv_pos_as_xyz
  1  'x, y, z'
loop_
 _atom_site_type_symbol
 _atom_site_label
 _atom_site_symmetry_multiplicity
 _atom_site_fract_x
 _atom_site_fract_y
 _atom_site_fract_z
 _atom_site_occupancy
  Ca  Ca0  1  0.29684829  0.71543037  0.63732930  1
  Ca  Ca1  1  0.70315271  0.28457063  0.36267070  1
  Cu  Cu2  1  0.26626755  0.12275290  0.17103796  1
  Cu  Cu3  1  0.73373445  0.87724610  0.82896204  1
  P  P4  1  0.15681785  0.66177791  0.11781946  1
  P  P5  1  0.84318015  0.33822209  0.88218054  1
  P  P6  1  0.24091691  0.21686484  0.62303434  1
  P  P7  1  0.75908409  0.78313416  0.37696466  1
  O  O8  1  0.06237019  0.73917420  0.91757479  1
  O  O9  1  0.93763081  0.26082580  0.08242521  1
  O  O10  1  0.25431903  0.81666017  0.19428992  1
  O  O11  1  0.74567997  0.18333883  0.80571008  1
  O  O12  1  0.33401652  0.41787054  0.14576413  1
  O  O13  1  0.66598548  0.58212846  0.85423687  1
  O  O14  1  0.63605144  0.62655437  0.45205650  1
  O  O15  1  0.36394856  0.37344563  0.54794450  1
  O  O16  1  0.10020581  0.15930063  0.48438598  1
  O  O17  1  0.89979319  0.84069937  0.51561402  1
  O  O18  1  0.06863437  0.34853418  0.76861757  1
  O  O19  1  0.59020160  0.00641915  0.26830631  1
  O  O20  1  0.40980040  0.99357985  0.73169469  1
  O  O21  1  0.93136463  0.65146682  0.23138143  1
