# generated using pymatgen
data_CaMo3P3O13
_symmetry_space_group_name_H-M   'P 1'
_cell_length_a   6.68475432
_cell_length_b   7.83988201
_cell_length_c   10.72022982
_cell_angle_alpha   99.84602209
_cell_angle_beta   90.00000000
_cell_angle_gamma   90.00000000
_symmetry_Int_Tables_number   1
_chemical_formula_structural   CaMo3P3O13
_chemical_formula_sum   'Ca2 Mo6 P6 O26'
_cell_volume   553.54726894
_cell_formula_units_Z   2
loop_
 _symmetry_equiv_pos_site_id
 _symmetry_equiv_pos_as_xyz
  1  'x, y, z'
loop_
 _atom_site_type_symbol
 _atom_site_label
 _atom_site_symmetry_multiplicity
 _atom_site_fract_x
 _atom_site_fract_y
 _atom_site_fract_z
 _atom_site_occupancy
  Ca  Ca0  1  0.75000000  0.64786232  0.19428533  1
  Ca  Ca1  1  0.25000000  0.35213768  0.80571467  1
  Mo  Mo2  1  0.25000000  0.36098428  0.20488913  1
  Mo  Mo3  1  0.75000000  0.63901572  0.79511087  1
  Mo  Mo4  1  0.25000000  0.77119984  0.44194998  1
  Mo  Mo5  1  0.50000000  0.00000000  -0.00000000  1
  Mo  Mo6  1  0.75000000  0.22880016  0.55805002  1
  Mo  Mo7  1  0.00000000  0.00000000  -0.00000000  1
  P  P8  1  0.25000000  0.21314600  0.49304778  1
  P  P9  1  0.75000000  0.78685400  0.50695222  1
  P  P10  1  0.25000000  0.73748063  0.76653154  1
  P  P11  1  0.75000000  0.26251937  0.23346846  1
  P  P12  1  0.75000000  0.31693093  0.88875863  1
  P  P13  1  0.25000000  0.68306907  0.11124137  1
  O  O14  1  0.75000000  0.35338858  0.74831087  1
  O  O15  1  0.56863597  0.75174454  0.41394292  1
  O  O16  1  0.25000000  0.79970875  0.64043544  1
  O  O17  1  0.55331657  0.21944046  0.90457026  1
  O  O18  1  0.75000000  0.65612816  0.59948615  1
  O  O19  1  0.75000000  0.88054639  0.90275277  1
  O  O20  1  0.25000000  0.34387184  0.40051385  1
  O  O21  1  0.05331657  0.78055954  0.09542974  1
  O  O22  1  0.25000000  0.02781586  0.41596827  1
  O  O23  1  0.75000000  0.97218414  0.58403173  1
  O  O24  1  0.07068957  0.62016075  0.78729678  1
  O  O25  1  0.25000000  0.11945361  0.09724723  1
  O  O26  1  0.57068957  0.37983925  0.21270322  1
  O  O27  1  0.75000000  0.50331636  0.96646469  1
  O  O28  1  0.75000000  0.20029125  0.35956456  1
  O  O29  1  0.44668343  0.78055954  0.09542974  1
  O  O30  1  0.93136403  0.75174454  0.41394292  1
  O  O31  1  0.43136403  0.24825546  0.58605708  1
  O  O32  1  0.42931043  0.62016075  0.78729678  1
  O  O33  1  0.25000000  0.64661142  0.25168913  1
  O  O34  1  0.75000000  0.09476941  0.12770182  1
  O  O35  1  0.25000000  0.90523059  0.87229818  1
  O  O36  1  0.92931043  0.37983925  0.21270322  1
  O  O37  1  0.94668343  0.21944046  0.90457026  1
  O  O38  1  0.06863597  0.24825546  0.58605708  1
  O  O39  1  0.25000000  0.49668364  0.03353531  1
