# generated using pymatgen
data_CaCoP2O7
_symmetry_space_group_name_H-M   'P 1'
_cell_length_a   6.21692853
_cell_length_b   6.58657591
_cell_length_c   7.22566345
_cell_angle_alpha   82.98262027
_cell_angle_beta   89.06643927
_cell_angle_gamma   68.23783081
_symmetry_Int_Tables_number   1
_chemical_formula_structural   CaCoP2O7
_chemical_formula_sum   'Ca2 Co2 P4 O14'
_cell_volume   272.59796498
_cell_formula_units_Z   2
loop_
 _symmetry_equiv_pos_site_id
 _symmetry_equiv_pos_as_xyz
  1  'x, y, z'
loop_
 _atom_site_type_symbol
 _atom_site_label
 _atom_site_symmetry_multiplicity
 _atom_site_fract_x
 _atom_site_fract_y
 _atom_site_fract_z
 _atom_site_occupancy
  Ca  Ca0  1  0.30153888  0.71261022  0.63910376  1
  Ca  Ca1  1  0.69846334  0.28739105  0.36089652  1
  Co  Co2  1  0.25277996  0.13258536  0.19304533  1
  Co  Co3  1  0.74722076  0.86741115  0.80694741  1
  P  P4  1  0.16429153  0.66007365  0.12015117  1
  P  P5  1  0.83570881  0.33992396  0.87984559  1
  P  P6  1  0.24184664  0.21711218  0.61915524  1
  P  P7  1  0.75815118  0.78288553  0.38084251  1
  O  O8  1  0.07425880  0.73592072  0.91540881  1
  O  O9  1  0.92574715  0.26407782  0.08459703  1
  O  O10  1  0.25080880  0.81761557  0.20238419  1
  O  O11  1  0.74918911  0.18238522  0.79761848  1
  O  O12  1  0.33459151  0.41882159  0.14570671  1
  O  O13  1  0.66540871  0.58117774  0.85429387  1
  O  O14  1  0.63752173  0.62769176  0.45195454  1
  O  O15  1  0.36247876  0.37231051  0.54804475  1
  O  O16  1  0.11102442  0.16046597  0.46561474  1
  O  O17  1  0.88897404  0.83953706  0.53438893  1
  O  O18  1  0.06121583  0.34793716  0.76382419  1
  O  O19  1  0.59612206  0.00157600  0.27127540  1
  O  O20  1  0.40387917  0.99842191  0.72872621  1
  O  O21  1  0.93878181  0.65206487  0.23617561  1
