# generated using pymatgen
data_UInPt
_symmetry_space_group_name_H-M   'P 1'
_cell_length_a   4.18528333
_cell_length_b   7.40300675
_cell_length_c   7.37694226
_cell_angle_alpha   120.11694122
_cell_angle_beta   90.00000000
_cell_angle_gamma   90.00000000
_symmetry_Int_Tables_number   1
_chemical_formula_structural   UInPt
_chemical_formula_sum   'U3 In3 Pt3'
_cell_volume   197.70928025
_cell_formula_units_Z   3
loop_
 _symmetry_equiv_pos_site_id
 _symmetry_equiv_pos_as_xyz
  1  'x, y, z'
loop_
 _atom_site_type_symbol
 _atom_site_label
 _atom_site_symmetry_multiplicity
 _atom_site_fract_x
 _atom_site_fract_y
 _atom_site_fract_z
 _atom_site_occupancy
  U  U0  1  0.50000000  0.58091473  1.00000000  1
  U  U1  1  0.50000000  0.41678045  0.41822548  1
  U  U2  1  0.50000000  0.99855498  0.58177452  1
  In  In3  1  -0.00000000  0.24923596  0.00000000  1
  In  In4  1  0.00000000  0.75126128  0.75133663  1
  In  In5  1  -0.00000000  0.99992465  0.24866337  1
  Pt  Pt6  1  0.00000000  0.33421786  0.66630627  1
  Pt  Pt7  1  -0.00000000  0.66791159  0.33369373  1
  Pt  Pt8  1  0.50000000  0.00109851  0.00000000  1
