# generated using pymatgen
data_SmAsSe
_symmetry_space_group_name_H-M   'P 1'
_cell_length_a   3.97047063
_cell_length_b   3.96247121
_cell_length_c   9.00667722
_cell_angle_alpha   90.00000000
_cell_angle_beta   90.00000000
_cell_angle_gamma   89.98512276
_symmetry_Int_Tables_number   1
_chemical_formula_structural   SmAsSe
_chemical_formula_sum   'Sm2 As2 Se2'
_cell_volume   141.70092719
_cell_formula_units_Z   2
loop_
 _symmetry_equiv_pos_site_id
 _symmetry_equiv_pos_as_xyz
  1  'x, y, z'
loop_
 _atom_site_type_symbol
 _atom_site_label
 _atom_site_symmetry_multiplicity
 _atom_site_fract_x
 _atom_site_fract_y
 _atom_site_fract_z
 _atom_site_occupancy
  Sm  Sm0  1  0.75000000  0.25000000  0.27700764  1
  Sm  Sm1  1  0.25000000  0.75000000  0.72299236  1
  As  As2  1  0.75000000  0.75000000  0.99954278  1
  As  As3  1  0.25000000  0.25000000  0.00045722  1
  Se  Se4  1  0.75000000  0.25000000  0.62473134  1
  Se  Se5  1  0.25000000  0.75000000  0.37526866  1
