# generated using pymatgen
data_Eu(Ag2Sb)2
_symmetry_space_group_name_H-M   'P 1'
_cell_length_a   4.78731227
_cell_length_b   4.78731227
_cell_length_c   8.65775978
_cell_angle_alpha   73.95005070
_cell_angle_beta   73.95005070
_cell_angle_gamma   59.99999980
_symmetry_Int_Tables_number   1
_chemical_formula_structural   Eu(Ag2Sb)2
_chemical_formula_sum   'Eu1 Ag4 Sb2'
_cell_volume   162.84620831
_cell_formula_units_Z   1
loop_
 _symmetry_equiv_pos_site_id
 _symmetry_equiv_pos_as_xyz
  1  'x, y, z'
loop_
 _atom_site_type_symbol
 _atom_site_label
 _atom_site_symmetry_multiplicity
 _atom_site_fract_x
 _atom_site_fract_y
 _atom_site_fract_z
 _atom_site_occupancy
  Eu  Eu0  1  0.00000000  -0.00000000  -0.00000000  1
  Ag  Ag1  1  0.14202224  0.14202224  0.57393327  1
  Ag  Ag2  1  0.85797776  0.85797776  0.42606673  1
  Ag  Ag3  1  0.43354266  0.43354266  0.69937203  1
  Ag  Ag4  1  0.56645734  0.56645734  0.30062797  1
  Sb  Sb5  1  0.25915341  0.25915341  0.22253977  1
  Sb  Sb6  1  0.74084659  0.74084659  0.77746023  1
