# generated using pymatgen
data_Mg(FeO2)2
_symmetry_space_group_name_H-M   'P 1'
_cell_length_a   6.02653548
_cell_length_b   6.02637694
_cell_length_c   18.07425733
_cell_angle_alpha   59.99225367
_cell_angle_beta   59.99168691
_cell_angle_gamma   59.99679462
_symmetry_Int_Tables_number   1
_chemical_formula_structural   Mg(FeO2)2
_chemical_formula_sum   'Mg6 Fe12 O24'
_cell_volume   464.09429944
_cell_formula_units_Z   6
loop_
 _symmetry_equiv_pos_site_id
 _symmetry_equiv_pos_as_xyz
  1  'x, y, z'
loop_
 _atom_site_type_symbol
 _atom_site_label
 _atom_site_symmetry_multiplicity
 _atom_site_fract_x
 _atom_site_fract_y
 _atom_site_fract_z
 _atom_site_occupancy
  Mg  Mg0  1  0.12060405  0.12064189  0.04603806  1
  Mg  Mg1  1  0.12419249  0.12423203  0.37577801  1
  Mg  Mg2  1  0.49666663  0.49664429  0.00334476  1
  Mg  Mg3  1  0.12541146  0.12545661  0.70791145  1
  Mg  Mg4  1  0.87734045  0.87732042  0.28933744  1
  Mg  Mg5  1  0.87497167  0.87495870  0.62505589  1
  Fe  Fe6  1  0.00531575  0.49806433  0.16619340  1
  Fe  Fe7  1  0.49802281  0.49803526  0.16621255  1
  Fe  Fe8  1  0.00157847  0.50051596  0.49913407  1
  Fe  Fe9  1  0.49804919  0.00533682  0.16618817  1
  Fe  Fe10  1  0.50169926  0.50171718  0.33161826  1
  Fe  Fe11  1  0.50051431  0.50050792  0.49913361  1
  Fe  Fe12  1  0.00339989  0.49881898  0.83297360  1
  Fe  Fe13  1  0.50050101  0.00159710  0.49913442  1
  Fe  Fe14  1  0.49884145  0.00332603  0.83298692  1
  Fe  Fe15  1  0.50194395  0.50195010  0.66473787  1
  Fe  Fe16  1  0.49884745  0.49882773  0.83297696  1
  Fe  Fe17  1  0.87706092  0.87703142  0.95628711  1
  O  O18  1  0.25448708  0.25450335  0.09041391  1
  O  O19  1  0.25808182  0.25807391  0.24186588  1
  O  O20  1  0.25443847  0.71977348  0.09046712  1
  O  O21  1  0.71974972  0.25447364  0.09045835  1
  O  O22  1  0.28335064  0.73901792  0.24617231  1
  O  O23  1  0.25951034  0.25950939  0.42044311  1
  O  O24  1  0.73903459  0.28334653  0.24616505  1
  O  O25  1  0.74649185  0.74651485  0.08687191  1
  O  O26  1  0.25950911  0.71961371  0.42043400  1
  O  O27  1  0.25979328  0.25982223  0.57354434  1
  O  O28  1  0.73903110  0.73902454  0.24619738  1
  O  O29  1  0.71958848  0.25952404  0.42043350  1
  O  O30  1  0.27952922  0.73998014  0.58018847  1
  O  O31  1  0.26080335  0.26076936  0.75304316  1
  O  O32  1  0.73998222  0.27952438  0.58018462  1
  O  O33  1  0.74060620  0.74060244  0.42605444  1
  O  O34  1  0.25943409  0.25942526  0.90724094  1
  O  O35  1  0.26075835  0.71931502  0.75304839  1
  O  O36  1  0.73996987  0.73998208  0.58019754  1
  O  O37  1  0.71928871  0.26075068  0.75305001  1
  O  O38  1  0.27007757  0.74673923  0.91215737  1
  O  O39  1  0.73799439  0.73796030  0.76201557  1
  O  O40  1  0.74677906  0.27004639  0.91215175  1
  O  O41  1  0.74675028  0.74672336  0.91215830  1
