# generated using pymatgen
data_SmCdCu
_symmetry_space_group_name_H-M   'P 1'
_cell_length_a   3.96501409
_cell_length_b   7.64594384
_cell_length_c   7.64594407
_cell_angle_alpha   119.99999979
_cell_angle_beta   90.00000000
_cell_angle_gamma   90.00000000
_symmetry_Int_Tables_number   1
_chemical_formula_structural   SmCdCu
_chemical_formula_sum   'Sm3 Cd3 Cu3'
_cell_volume   200.74169565
_cell_formula_units_Z   3
loop_
 _symmetry_equiv_pos_site_id
 _symmetry_equiv_pos_as_xyz
  1  'x, y, z'
loop_
 _atom_site_type_symbol
 _atom_site_label
 _atom_site_symmetry_multiplicity
 _atom_site_fract_x
 _atom_site_fract_y
 _atom_site_fract_z
 _atom_site_occupancy
  Sm  Sm0  1  0.50000000  0.58676343  0.00000000  1
  Sm  Sm1  1  0.50000000  0.41322127  0.41316874  1
  Sm  Sm2  1  0.50000000  0.00005254  0.58683126  1
  Cd  Cd3  1  0.00000000  0.24894006  0.00000000  1
  Cd  Cd4  1  0.00000000  0.75101906  0.75099129  1
  Cd  Cd5  1  0.00000000  0.00002777  0.24900871  1
  Cu  Cu6  1  -0.00000000  0.33328548  0.66670693  1
  Cu  Cu7  1  -0.00000000  0.66657855  0.33329307  1
  Cu  Cu8  1  0.50000000  0.00001186  -0.00000000  1
