# generated using pymatgen
data_Er2InNi2
_symmetry_space_group_name_H-M   'P 1'
_cell_length_a   3.58349005
_cell_length_b   7.31467598
_cell_length_c   7.31467598
_cell_angle_alpha   90.00000000
_cell_angle_beta   90.00000000
_cell_angle_gamma   90.00000000
_symmetry_Int_Tables_number   1
_chemical_formula_structural   Er2InNi2
_chemical_formula_sum   'Er4 In2 Ni4'
_cell_volume   191.73278853
_cell_formula_units_Z   2
loop_
 _symmetry_equiv_pos_site_id
 _symmetry_equiv_pos_as_xyz
  1  'x, y, z'
loop_
 _atom_site_type_symbol
 _atom_site_label
 _atom_site_symmetry_multiplicity
 _atom_site_fract_x
 _atom_site_fract_y
 _atom_site_fract_z
 _atom_site_occupancy
  Er  Er0  1  0.50000000  0.17357076  0.67357076  1
  Er  Er1  1  0.50000000  0.82642924  0.32642924  1
  Er  Er2  1  0.50000000  0.32642924  0.17357076  1
  Er  Er3  1  0.50000000  0.67357076  0.82642924  1
  In  In4  1  -0.00000000  0.50000000  0.50000000  1
  In  In5  1  0.00000000  0.00000000  -0.00000000  1
  Ni  Ni6  1  0.00000000  0.61946551  0.11946551  1
  Ni  Ni7  1  -0.00000000  0.38053449  0.88053449  1
  Ni  Ni8  1  -0.00000000  0.88053449  0.61946551  1
  Ni  Ni9  1  0.00000000  0.11946551  0.38053449  1
