# generated using pymatgen
data_Ba2BiIrO6
_symmetry_space_group_name_H-M   'P 1'
_cell_length_a   6.05869447
_cell_length_b   6.10757365
_cell_length_c   6.11724921
_cell_angle_alpha   59.55034399
_cell_angle_beta   59.51692405
_cell_angle_gamma   59.71957722
_symmetry_Int_Tables_number   1
_chemical_formula_structural   Ba2BiIrO6
_chemical_formula_sum   'Ba2 Bi1 Ir1 O6'
_cell_volume   158.58989896
_cell_formula_units_Z   1
loop_
 _symmetry_equiv_pos_site_id
 _symmetry_equiv_pos_as_xyz
  1  'x, y, z'
loop_
 _atom_site_type_symbol
 _atom_site_label
 _atom_site_symmetry_multiplicity
 _atom_site_fract_x
 _atom_site_fract_y
 _atom_site_fract_z
 _atom_site_occupancy
  Ba  Ba0  1  0.25522692  0.24652465  0.75250429  1
  Ba  Ba1  1  0.74477308  0.75347535  0.24749571  1
  Bi  Bi2  1  0.50000000  0.50000000  0.00000000  1
  Ir  Ir3  1  -0.00000000  -0.00000000  0.50000000  1
  O  O4  1  0.75181163  0.20288856  0.76059979  1
  O  O5  1  0.24818837  0.79711144  0.23940021  1
  O  O6  1  0.20877089  0.72739880  0.75320844  1
  O  O7  1  0.79122911  0.27260120  0.24679156  1
  O  O8  1  0.75542555  0.78283061  0.67915142  1
  O  O9  1  0.24457445  0.21716939  0.32084858  1
