# generated using pymatgen
data_ZnCu2SnTe4
_symmetry_space_group_name_H-M   'P 1'
_cell_length_a   6.16532291
_cell_length_b   6.16532291
_cell_length_c   7.57062387
_cell_angle_alpha   114.02826375
_cell_angle_beta   114.02826375
_cell_angle_gamma   90.00000000
_symmetry_Int_Tables_number   1
_chemical_formula_structural   ZnCu2SnTe4
_chemical_formula_sum   'Zn1 Cu2 Sn1 Te4'
_cell_volume   235.26677756
_cell_formula_units_Z   1
loop_
 _symmetry_equiv_pos_site_id
 _symmetry_equiv_pos_as_xyz
  1  'x, y, z'
loop_
 _atom_site_type_symbol
 _atom_site_label
 _atom_site_symmetry_multiplicity
 _atom_site_fract_x
 _atom_site_fract_y
 _atom_site_fract_z
 _atom_site_occupancy
  Zn  Zn0  1  -0.00000000  0.00000000  -0.00000000  1
  Cu  Cu1  1  0.75000000  0.25000000  0.50000000  1
  Cu  Cu2  1  0.25000000  0.75000000  0.50000000  1
  Sn  Sn3  1  0.50000000  0.50000000  -0.00000000  1
  Te  Te4  1  0.89773992  0.89773992  0.27426754  1
  Te  Te5  1  0.37652763  0.37652763  0.27426754  1
  Te  Te6  1  0.10226008  0.62347237  0.72573246  1
  Te  Te7  1  0.62347237  0.10226008  0.72573246  1
