# generated using pymatgen
data_CeAl2Pt
_symmetry_space_group_name_H-M   'P 1'
_cell_length_a   4.27514574
_cell_length_b   5.73193471
_cell_length_c   7.04025869
_cell_angle_alpha   90.00000000
_cell_angle_beta   90.00000000
_cell_angle_gamma   111.89602742
_symmetry_Int_Tables_number   1
_chemical_formula_structural   CeAl2Pt
_chemical_formula_sum   'Ce2 Al4 Pt2'
_cell_volume   160.07526087
_cell_formula_units_Z   2
loop_
 _symmetry_equiv_pos_site_id
 _symmetry_equiv_pos_as_xyz
  1  'x, y, z'
loop_
 _atom_site_type_symbol
 _atom_site_label
 _atom_site_symmetry_multiplicity
 _atom_site_fract_x
 _atom_site_fract_y
 _atom_site_fract_z
 _atom_site_occupancy
  Ce  Ce0  1  0.43433465  0.86866929  0.25000000  1
  Ce  Ce1  1  0.56566535  0.13133071  0.75000000  1
  Al  Al2  1  0.15195190  0.30390379  0.44480706  1
  Al  Al3  1  0.84804810  0.69609621  0.55519294  1
  Al  Al4  1  0.15195190  0.30390379  0.05519294  1
  Al  Al5  1  0.84804810  0.69609621  0.94480706  1
  Pt  Pt6  1  0.71444142  0.42888285  0.25000000  1
  Pt  Pt7  1  0.28555858  0.57111715  0.75000000  1
