# generated using pymatgen
data_Y3(CoGe2)2
_symmetry_space_group_name_H-M   'P 1'
_cell_length_a   4.16753897
_cell_length_b   5.70356191
_cell_length_c   8.02938147
_cell_angle_alpha   106.52386471
_cell_angle_beta   90.00000000
_cell_angle_gamma   111.42883858
_symmetry_Int_Tables_number   1
_chemical_formula_structural   Y3(CoGe2)2
_chemical_formula_sum   'Y3 Co2 Ge4'
_cell_volume   169.16762063
_cell_formula_units_Z   1
loop_
 _symmetry_equiv_pos_site_id
 _symmetry_equiv_pos_as_xyz
  1  'x, y, z'
loop_
 _atom_site_type_symbol
 _atom_site_label
 _atom_site_symmetry_multiplicity
 _atom_site_fract_x
 _atom_site_fract_y
 _atom_site_fract_z
 _atom_site_occupancy
  Y  Y0  1  0.37629546  0.75259093  0.30781610  1
  Y  Y1  1  0.62370454  0.24740907  0.69218390  1
  Y  Y2  1  -0.00000000  -0.00000000  0.00000000  1
  Co  Co3  1  0.31015516  0.62031032  0.63047076  1
  Co  Co4  1  0.68984484  0.37968968  0.36952924  1
  Ge  Ge5  1  0.09806630  0.19613261  0.40072495  1
  Ge  Ge6  1  0.90193370  0.80386739  0.59927505  1
  Ge  Ge7  1  0.70991145  0.41982290  0.08067829  1
  Ge  Ge8  1  0.29008855  0.58017710  0.91932171  1
