# generated using pymatgen
data_Cs2Li3I5
_symmetry_space_group_name_H-M   'P 1'
_cell_length_a   4.74820109
_cell_length_b   8.80595798
_cell_length_c   11.00904914
_cell_angle_alpha   67.82200284
_cell_angle_beta   77.54634068
_cell_angle_gamma   74.35943767
_symmetry_Int_Tables_number   1
_chemical_formula_structural   Cs2Li3I5
_chemical_formula_sum   'Cs2 Li3 I5'
_cell_volume   407.11474321
_cell_formula_units_Z   1
loop_
 _symmetry_equiv_pos_site_id
 _symmetry_equiv_pos_as_xyz
  1  'x, y, z'
loop_
 _atom_site_type_symbol
 _atom_site_label
 _atom_site_symmetry_multiplicity
 _atom_site_fract_x
 _atom_site_fract_y
 _atom_site_fract_z
 _atom_site_occupancy
  Cs  Cs0  1  0.31269813  0.14202383  0.23257990  1
  Cs  Cs1  1  0.68730187  0.85797617  0.76742010  1
  Li  Li2  1  0.50000000  0.50000000  0.50000000  1
  Li  Li3  1  0.05030579  0.69603928  0.20334914  1
  Li  Li4  1  0.94969421  0.30396072  0.79665086  1
  I  I5  1  0.00000000  -0.00000000  0.00000000  1
  I  I6  1  0.09938381  0.23622733  0.56500506  1
  I  I7  1  0.90061619  0.76377267  0.43499494  1
  I  I8  1  0.63603951  0.52342077  0.20450022  1
  I  I9  1  0.36396049  0.47657923  0.79549978  1
