# generated using pymatgen
data_K5Na3Ta6Nb2O24
_symmetry_space_group_name_H-M   'P 1'
_cell_length_a   8.04841850
_cell_length_b   8.04944069
_cell_length_c   8.04846354
_cell_angle_alpha   90.00383967
_cell_angle_beta   90.00003531
_cell_angle_gamma   89.99995942
_symmetry_Int_Tables_number   1
_chemical_formula_structural   K5Na3Ta6Nb2O24
_chemical_formula_sum   'K5 Na3 Ta6 Nb2 O24'
_cell_volume   521.42186172
_cell_formula_units_Z   1
loop_
 _symmetry_equiv_pos_site_id
 _symmetry_equiv_pos_as_xyz
  1  'x, y, z'
loop_
 _atom_site_type_symbol
 _atom_site_label
 _atom_site_symmetry_multiplicity
 _atom_site_fract_x
 _atom_site_fract_y
 _atom_site_fract_z
 _atom_site_occupancy
  K  K0  1  0.24999815  0.25010438  0.25010517  1
  K  K1  1  0.25000053  0.74990029  0.25009869  1
  K  K2  1  0.74999850  0.25010091  0.25010337  1
  K  K3  1  0.75000454  0.74989990  0.25009813  1
  K  K4  1  0.74999870  0.74989176  0.74988970  1
  Na  Na5  1  0.25000165  0.25000806  0.74999065  1
  Na  Na6  1  0.24999967  0.74999090  0.74999294  1
  Na  Na7  1  0.74999891  0.25000755  0.74999194  1
  Ta  Ta8  1  0.00022208  0.00021991  0.99934094  1
  Ta  Ta9  1  0.00021811  0.00022108  0.50066827  1
  Ta  Ta10  1  0.00022196  0.49977717  0.99934000  1
  Ta  Ta11  1  0.49977835  0.00022061  0.99934062  1
  Ta  Ta12  1  0.49978053  0.00022180  0.50066645  1
  Ta  Ta13  1  0.49978029  0.49977821  0.99934080  1
  Nb  Nb14  1  0.00022014  0.49977998  0.50065070  1
  Nb  Nb15  1  0.49977938  0.49977681  0.50064790  1
  O  O16  1  0.25000044  0.00011388  0.99810762  1
  O  O17  1  0.25000011  0.00010894  0.50190454  1
  O  O18  1  0.24999939  0.49988923  0.99808953  1
  O  O19  1  0.24999966  0.49990003  0.50187680  1
  O  O20  1  0.75000175  0.00089897  0.99887022  1
  O  O21  1  0.74999978  0.00090981  0.50113124  1
  O  O22  1  0.75000005  0.49909601  0.99886698  1
  O  O23  1  0.74999910  0.49910540  0.50110420  1
  O  O24  1  0.00011311  0.24987779  0.99809860  1
  O  O25  1  0.00010455  0.24884202  0.50189060  1
  O  O26  1  0.00090338  0.75012574  0.99886835  1
  O  O27  1  0.00090245  0.75118437  0.50111968  1
  O  O28  1  0.49988788  0.24987957  0.99809976  1
  O  O29  1  0.49989434  0.24884066  0.50189088  1
  O  O30  1  0.49909820  0.75012642  0.99886875  1
  O  O31  1  0.49909715  0.75118476  0.50111926  1
  O  O32  1  0.00011543  0.00011623  0.24987070  1
  O  O33  1  0.00088509  0.00088572  0.75011768  1
  O  O34  1  0.00010993  0.49988792  0.24879274  1
  O  O35  1  0.00088449  0.49911744  0.75113064  1
  O  O36  1  0.49988300  0.00011635  0.24987259  1
  O  O37  1  0.49911496  0.00088566  0.75012032  1
  O  O38  1  0.49988859  0.49989087  0.24879205  1
  O  O39  1  0.49911564  0.49911688  0.75113001  1
