# generated using pymatgen
data_HfSnRh
_symmetry_space_group_name_H-M   'P 1'
_cell_length_a   3.62250167
_cell_length_b   7.40167791
_cell_length_c   7.40239438
_cell_angle_alpha   119.99680800
_cell_angle_beta   90.00000000
_cell_angle_gamma   90.00000000
_symmetry_Int_Tables_number   1
_chemical_formula_structural   HfSnRh
_chemical_formula_sum   'Hf3 Sn3 Rh3'
_cell_volume   171.89197267
_cell_formula_units_Z   3
loop_
 _symmetry_equiv_pos_site_id
 _symmetry_equiv_pos_as_xyz
  1  'x, y, z'
loop_
 _atom_site_type_symbol
 _atom_site_label
 _atom_site_symmetry_multiplicity
 _atom_site_fract_x
 _atom_site_fract_y
 _atom_site_fract_z
 _atom_site_occupancy
  Hf  Hf0  1  0.50000000  0.60339542  1.00000000  1
  Hf  Hf1  1  0.50000000  0.39661259  0.39659516  1
  Hf  Hf2  1  0.50000000  0.00001743  0.60340484  1
  Sn  Sn3  1  -0.00000000  0.26876644  0.00000000  1
  Sn  Sn4  1  0.00000000  0.73119399  0.73118260  1
  Sn  Sn5  1  0.00000000  0.00001139  0.26881740  1
  Rh  Rh6  1  -0.00000000  0.33331758  0.66670342  1
  Rh  Rh7  1  -0.00000000  0.66661416  0.33329658  1
  Rh  Rh8  1  0.50000000  0.99997100  0.00000000  1
