# generated using pymatgen
data_VCo3
_symmetry_space_group_name_H-M   'P 1'
_cell_length_a   4.00930671
_cell_length_b   4.99156797
_cell_length_c   4.99174666
_cell_angle_alpha   119.99908834
_cell_angle_beta   90.00000000
_cell_angle_gamma   90.00000000
_symmetry_Int_Tables_number   1
_chemical_formula_structural   VCo3
_chemical_formula_sum   'V2 Co6'
_cell_volume   86.51540146
_cell_formula_units_Z   2
loop_
 _symmetry_equiv_pos_site_id
 _symmetry_equiv_pos_as_xyz
  1  'x, y, z'
loop_
 _atom_site_type_symbol
 _atom_site_label
 _atom_site_symmetry_multiplicity
 _atom_site_fract_x
 _atom_site_fract_y
 _atom_site_fract_z
 _atom_site_occupancy
  V  V0  1  0.75000000  0.66668924  0.33333000  1
  V  V1  1  0.25000000  0.33331076  0.66667000  1
  Co  Co2  1  0.75000000  0.16321139  0.32635364  1
  Co  Co3  1  0.75000000  0.16313967  0.83678550  1
  Co  Co4  1  0.75000000  0.67364304  0.83683584  1
  Co  Co5  1  0.25000000  0.83678861  0.67364636  1
  Co  Co6  1  0.25000000  0.83686033  0.16321450  1
  Co  Co7  1  0.25000000  0.32635696  0.16316416  1
