# generated using pymatgen
data_NdCo3
_symmetry_space_group_name_H-M   'P 1'
_cell_length_a   5.04277736
_cell_length_b   5.04277736
_cell_length_c   8.75693479
_cell_angle_alpha   73.26590220
_cell_angle_beta   73.26590220
_cell_angle_gamma   59.99999980
_symmetry_Int_Tables_number   1
_chemical_formula_structural   NdCo3
_chemical_formula_sum   'Nd3 Co9'
_cell_volume   181.88039239
_cell_formula_units_Z   3
loop_
 _symmetry_equiv_pos_site_id
 _symmetry_equiv_pos_as_xyz
  1  'x, y, z'
loop_
 _atom_site_type_symbol
 _atom_site_label
 _atom_site_symmetry_multiplicity
 _atom_site_fract_x
 _atom_site_fract_y
 _atom_site_fract_z
 _atom_site_occupancy
  Nd  Nd0  1  0.13951191  0.13951191  0.58146426  1
  Nd  Nd1  1  0.86048809  0.86048809  0.41853574  1
  Nd  Nd2  1  -0.00000000  0.00000000  0.00000000  1
  Co  Co3  1  0.08223623  0.57804132  0.76168114  1
  Co  Co4  1  0.57804132  0.57804132  0.76168114  1
  Co  Co5  1  0.57804132  0.08223623  0.76168114  1
  Co  Co6  1  0.91776377  0.42195868  0.23831886  1
  Co  Co7  1  0.42195868  0.42195868  0.23831886  1
  Co  Co8  1  0.42195868  0.91776377  0.23831886  1
  Co  Co9  1  0.33409514  0.33409514  0.99771459  1
  Co  Co10  1  0.66590486  0.66590486  0.00228541  1
  Co  Co11  1  0.50000000  0.50000000  0.50000000  1
