# generated using pymatgen
data_LiMoP2O7
_symmetry_space_group_name_H-M   'P 1'
_cell_length_a   7.23670123
_cell_length_b   8.64343794
_cell_length_c   9.96923142
_cell_angle_alpha   90.00000000
_cell_angle_beta   110.74534260
_cell_angle_gamma   90.00000000
_symmetry_Int_Tables_number   1
_chemical_formula_structural   LiMoP2O7
_chemical_formula_sum   'Li4 Mo4 P8 O28'
_cell_volume   583.14508745
_cell_formula_units_Z   4
loop_
 _symmetry_equiv_pos_site_id
 _symmetry_equiv_pos_as_xyz
  1  'x, y, z'
loop_
 _atom_site_type_symbol
 _atom_site_label
 _atom_site_symmetry_multiplicity
 _atom_site_fract_x
 _atom_site_fract_y
 _atom_site_fract_z
 _atom_site_occupancy
  Li  Li0  1  0.32242232  0.12282416  0.74691832  1
  Li  Li1  1  0.32242232  0.37717484  0.24691832  1
  Li  Li2  1  0.67757868  0.62282516  0.75308168  1
  Li  Li3  1  0.67757868  0.87717484  0.25308168  1
  Mo  Mo4  1  0.26870652  0.50032958  0.75138603  1
  Mo  Mo5  1  0.26870652  0.99966942  0.25138603  1
  Mo  Mo6  1  0.73129348  0.00032958  0.74861497  1
  Mo  Mo7  1  0.73129248  0.49967042  0.24861397  1
  P  P8  1  0.90089767  0.77294777  0.05171054  1
  P  P9  1  0.90089767  0.72705223  0.55170954  1
  P  P10  1  0.69039107  0.18942378  0.44055035  1
  P  P11  1  0.30960793  0.68942478  0.05945065  1
  P  P12  1  0.09910133  0.22705323  0.94829046  1
  P  P13  1  0.09910333  0.27294777  0.44829046  1
  P  P14  1  0.69039107  0.31057522  0.94055035  1
  P  P15  1  0.30960793  0.81057622  0.55945065  1
  O  O16  1  0.08856965  0.66686603  0.06079433  1
  O  O17  1  0.77852905  0.67353682  0.11437987  1
  O  O18  1  0.91143135  0.16686703  0.43920567  1
  O  O19  1  0.97051386  0.57858203  0.63882113  1
  O  O20  1  0.02948514  0.07858203  0.86117887  1
  O  O21  1  0.22147195  0.32646318  0.88562013  1
  O  O22  1  0.08856965  0.83313397  0.56079433  1
  O  O23  1  0.02948514  0.42141797  0.36117987  1
  O  O24  1  0.30380086  0.68115936  0.90588706  1
  O  O25  1  0.21548419  0.30183745  0.60821546  1
  O  O26  1  0.22147195  0.17353582  0.38562013  1
  O  O27  1  0.97051586  0.92141797  0.13882113  1
  O  O28  1  0.38592051  0.65210861  0.62742098  1
  O  O29  1  0.30379986  0.81884164  0.40588706  1
  O  O30  1  0.21548419  0.19816255  0.10821546  1
  O  O31  1  0.58084465  0.44544030  0.84396347  1
  O  O32  1  0.41915635  0.94544030  0.65603753  1
  O  O33  1  0.61407949  0.15210861  0.87257902  1
  O  O34  1  0.69619914  0.31884064  0.09411194  1
  O  O35  1  0.58084465  0.05455970  0.34396347  1
  O  O36  1  0.41915635  0.55455970  0.15603753  1
  O  O37  1  0.78451581  0.80183745  0.89178354  1
  O  O38  1  0.69619914  0.18115936  0.59411194  1
  O  O39  1  0.61407949  0.34789139  0.37257802  1
  O  O40  1  0.91143135  0.33313297  0.93920567  1
  O  O41  1  0.77852805  0.82646418  0.61437987  1
  O  O42  1  0.78451481  0.69816255  0.39178354  1
  O  O43  1  0.38592051  0.84789039  0.12742198  1
