# generated using pymatgen
data_PrPO4
_symmetry_space_group_name_H-M   'P 1'
_cell_length_a   5.99445276
_cell_length_b   5.99445276
_cell_length_c   5.99445276
_cell_angle_alpha   105.92556447
_cell_angle_beta   105.92556447
_cell_angle_gamma   116.82220248
_symmetry_Int_Tables_number   1
_chemical_formula_structural   PrPO4
_chemical_formula_sum   'Pr2 P2 O8'
_cell_volume   163.74411300
_cell_formula_units_Z   2
loop_
 _symmetry_equiv_pos_site_id
 _symmetry_equiv_pos_as_xyz
  1  'x, y, z'
loop_
 _atom_site_type_symbol
 _atom_site_label
 _atom_site_symmetry_multiplicity
 _atom_site_fract_x
 _atom_site_fract_y
 _atom_site_fract_z
 _atom_site_occupancy
  Pr  Pr0  1  0.87500000  0.12500000  0.25000000  1
  Pr  Pr1  1  0.12500000  0.87500000  0.75000000  1
  P  P2  1  0.62500000  0.37500000  0.75000000  1
  P  P3  1  0.37500000  0.62500000  0.25000000  1
  O  O4  1  0.64162946  0.22199465  0.91963481  1
  O  O5  1  0.22199465  0.64162946  0.41963481  1
  O  O6  1  0.22199465  0.30235984  0.08036519  1
  O  O7  1  0.30235984  0.22199465  0.58036519  1
  O  O8  1  0.35837054  0.77800535  0.08036519  1
  O  O9  1  0.77800535  0.35837054  0.58036519  1
  O  O10  1  0.77800535  0.69764016  0.91963481  1
  O  O11  1  0.69764016  0.77800535  0.41963481  1
