# generated using pymatgen
data_Rb3TmO3
_symmetry_space_group_name_H-M   'P 1'
_cell_length_a   7.32418153
_cell_length_b   7.32418153
_cell_length_c   7.24047314
_cell_angle_alpha   85.16568172
_cell_angle_beta   94.83431828
_cell_angle_gamma   63.34664852
_symmetry_Int_Tables_number   1
_chemical_formula_structural   Rb3TmO3
_chemical_formula_sum   'Rb6 Tm2 O6'
_cell_volume   342.63186820
_cell_formula_units_Z   2
loop_
 _symmetry_equiv_pos_site_id
 _symmetry_equiv_pos_as_xyz
  1  'x, y, z'
loop_
 _atom_site_type_symbol
 _atom_site_label
 _atom_site_symmetry_multiplicity
 _atom_site_fract_x
 _atom_site_fract_y
 _atom_site_fract_z
 _atom_site_occupancy
  Rb  Rb0  1  0.36435996  0.63564004  0.64442148  1
  Rb  Rb1  1  0.79439291  0.79439291  0.50000000  1
  Rb  Rb2  1  0.20560709  0.20560709  0.50000000  1
  Rb  Rb3  1  0.26092267  0.26092267  0.00000000  1
  Rb  Rb4  1  0.73907733  0.73907733  0.00000000  1
  Rb  Rb5  1  0.63564004  0.36435996  0.35557852  1
  Tm  Tm6  1  0.17483839  0.82516161  0.14818246  1
  Tm  Tm7  1  0.82516161  0.17483839  0.85181754  1
  O  O8  1  0.10275044  0.89724956  0.84613247  1
  O  O9  1  0.16601014  0.55866435  0.26736691  1
  O  O10  1  0.44133565  0.83398986  0.26736691  1
  O  O11  1  0.83398986  0.44133565  0.73263309  1
  O  O12  1  0.55866435  0.16601014  0.73263309  1
  O  O13  1  0.89724956  0.10275044  0.15386753  1
