# generated using pymatgen
data_ErAsPt
_symmetry_space_group_name_H-M   'P 1'
_cell_length_a   4.26680137
_cell_length_b   4.26680137
_cell_length_c   15.44737864
_cell_angle_alpha   90.00000000
_cell_angle_beta   90.00000000
_cell_angle_gamma   120.01336248
_symmetry_Int_Tables_number   1
_chemical_formula_structural   ErAsPt
_chemical_formula_sum   'Er4 As4 Pt4'
_cell_volume   243.51840043
_cell_formula_units_Z   4
loop_
 _symmetry_equiv_pos_site_id
 _symmetry_equiv_pos_as_xyz
  1  'x, y, z'
loop_
 _atom_site_type_symbol
 _atom_site_label
 _atom_site_symmetry_multiplicity
 _atom_site_fract_x
 _atom_site_fract_y
 _atom_site_fract_z
 _atom_site_occupancy
  Er  Er0  1  0.00000000  -0.00000000  0.50000000  1
  Er  Er1  1  0.00000000  -0.00000000  0.00000000  1
  Er  Er2  1  -0.00003081  0.00003081  0.75000000  1
  Er  Er3  1  0.00003081  -0.00003081  0.25000000  1
  As  As4  1  0.66671258  0.33328742  0.11590439  1
  As  As5  1  0.33328742  0.66671258  0.88409561  1
  As  As6  1  0.33328742  0.66671258  0.61590439  1
  As  As7  1  0.66671258  0.33328742  0.38409561  1
  Pt  Pt8  1  0.66678953  0.33321047  0.63549700  1
  Pt  Pt9  1  0.33321047  0.66678953  0.36450300  1
  Pt  Pt10  1  0.33321047  0.66678953  0.13549700  1
  Pt  Pt11  1  0.66678953  0.33321047  0.86450300  1
