# generated using pymatgen
data_Nd2Al
_symmetry_space_group_name_H-M   'P 1'
_cell_length_a   5.25233466
_cell_length_b   6.72685031
_cell_length_c   9.84595516
_cell_angle_alpha   90.00000000
_cell_angle_beta   90.00000000
_cell_angle_gamma   90.00000000
_symmetry_Int_Tables_number   1
_chemical_formula_structural   Nd2Al
_chemical_formula_sum   'Nd8 Al4'
_cell_volume   347.87402905
_cell_formula_units_Z   4
loop_
 _symmetry_equiv_pos_site_id
 _symmetry_equiv_pos_as_xyz
  1  'x, y, z'
loop_
 _atom_site_type_symbol
 _atom_site_label
 _atom_site_symmetry_multiplicity
 _atom_site_fract_x
 _atom_site_fract_y
 _atom_site_fract_z
 _atom_site_occupancy
  Nd  Nd0  1  0.75000000  0.68971296  0.57468055  1
  Nd  Nd1  1  0.75000000  0.18971296  0.92531945  1
  Nd  Nd2  1  0.25000000  0.31028704  0.42531945  1
  Nd  Nd3  1  0.25000000  0.81028704  0.07468055  1
  Nd  Nd4  1  0.75000000  0.52962476  0.20333765  1
  Nd  Nd5  1  0.75000000  0.02962476  0.29666235  1
  Nd  Nd6  1  0.25000000  0.47037524  0.79666235  1
  Nd  Nd7  1  0.25000000  0.97037524  0.70333765  1
  Al  Al8  1  0.75000000  0.20710368  0.60403835  1
  Al  Al9  1  0.75000000  0.70710368  0.89596165  1
  Al  Al10  1  0.25000000  0.79289632  0.39596165  1
  Al  Al11  1  0.25000000  0.29289632  0.10403835  1
