# generated using pymatgen
data_V2OF8
_symmetry_space_group_name_H-M   'P 1'
_cell_length_a   9.10916483
_cell_length_b   5.38234680
_cell_length_c   14.97065302
_cell_angle_alpha   90.00000000
_cell_angle_beta   104.49179282
_cell_angle_gamma   90.00000000
_symmetry_Int_Tables_number   1
_chemical_formula_structural   V2OF8
_chemical_formula_sum   'V8 O4 F32'
_cell_volume   710.63837720
_cell_formula_units_Z   4
loop_
 _symmetry_equiv_pos_site_id
 _symmetry_equiv_pos_as_xyz
  1  'x, y, z'
loop_
 _atom_site_type_symbol
 _atom_site_label
 _atom_site_symmetry_multiplicity
 _atom_site_fract_x
 _atom_site_fract_y
 _atom_site_fract_z
 _atom_site_occupancy
  V  V0  1  0.09702656  0.19342505  0.87502197  1
  V  V1  1  0.09702656  0.80657495  0.37502197  1
  V  V2  1  0.45543339  0.94032091  0.83889785  1
  V  V3  1  0.54456661  0.94032091  0.66110215  1
  V  V4  1  0.45543339  0.05967909  0.33889785  1
  V  V5  1  0.54456661  0.05967909  0.16110215  1
  V  V6  1  0.90297344  0.19342505  0.62497803  1
  V  V7  1  0.90297344  0.80657495  0.12497803  1
  O  O8  1  0.29753100  0.05897283  0.85729725  1
  O  O9  1  0.29753100  0.94102717  0.35729725  1
  O  O10  1  0.70246900  0.05897283  0.64270275  1
  O  O11  1  0.70246900  0.94102717  0.14270275  1
  F  F12  1  0.00000000  0.04826878  0.75000000  1
  F  F13  1  0.07762303  0.88927983  0.91543044  1
  F  F14  1  0.19546963  0.31690813  0.98062660  1
  F  F15  1  0.13919083  0.44432062  0.80926405  1
  F  F16  1  0.08080465  0.29729414  0.61750935  1
  F  F17  1  0.00000000  0.95173122  0.25000000  1
  F  F18  1  0.07762303  0.11072017  0.41543044  1
  F  F19  1  0.19546963  0.68309187  0.48062660  1
  F  F20  1  0.13919083  0.55567938  0.30926405  1
  F  F21  1  0.08080465  0.70270586  0.11750935  1
  F  F22  1  0.36430114  0.80763589  0.72014886  1
  F  F23  1  0.46760138  0.65034384  0.89333953  1
  F  F24  1  0.40322713  0.09305953  0.57714414  1
  F  F25  1  0.50000000  0.19100009  0.75000000  1
  F  F26  1  0.36430114  0.19236411  0.22014886  1
  F  F27  1  0.59677287  0.09305953  0.92285586  1
  F  F28  1  0.46760138  0.34965616  0.39333953  1
  F  F29  1  0.53239862  0.65034384  0.60666047  1
  F  F30  1  0.40322713  0.90694047  0.07714414  1
  F  F31  1  0.63569886  0.80763589  0.77985114  1
  F  F32  1  0.50000000  0.80899991  0.25000000  1
  F  F33  1  0.59677287  0.90694047  0.42285586  1
  F  F34  1  0.53239862  0.34965616  0.10666047  1
  F  F35  1  0.63569886  0.19236411  0.27985114  1
  F  F36  1  0.91919535  0.29729414  0.88249065  1
  F  F37  1  0.86080917  0.44432062  0.69073595  1
  F  F38  1  0.80453037  0.31690813  0.51937340  1
  F  F39  1  0.92237697  0.88927983  0.58456956  1
  F  F40  1  0.91919535  0.70270586  0.38249065  1
  F  F41  1  0.86080917  0.55567938  0.19073595  1
  F  F42  1  0.80453037  0.68309187  0.01937340  1
  F  F43  1  0.92237697  0.11072017  0.08456956  1
