# generated using pymatgen
data_Ti7(Fe3O8)3
_symmetry_space_group_name_H-M   'P 1'
_cell_length_a   11.13179548
_cell_length_b   15.01951503
_cell_length_c   9.89452506
_cell_angle_alpha   26.41893918
_cell_angle_beta   49.94071610
_cell_angle_gamma   37.57047373
_symmetry_Int_Tables_number   1
_chemical_formula_structural   Ti7(Fe3O8)3
_chemical_formula_sum   'Ti7 Fe9 O24'
_cell_volume   435.21146233
_cell_formula_units_Z   1
loop_
 _symmetry_equiv_pos_site_id
 _symmetry_equiv_pos_as_xyz
  1  'x, y, z'
loop_
 _atom_site_type_symbol
 _atom_site_label
 _atom_site_symmetry_multiplicity
 _atom_site_fract_x
 _atom_site_fract_y
 _atom_site_fract_z
 _atom_site_occupancy
  Ti  Ti0  1  0.42783736  0.00132273  0.85535195  1
  Ti  Ti1  1  0.32979914  0.49688800  0.14431258  1
  Ti  Ti2  1  0.17987489  0.50180240  0.84823846  1
  Ti  Ti3  1  0.07014513  0.00502343  0.14301382  1
  Ti  Ti4  1  0.92335105  0.00042303  0.85625733  1
  Ti  Ti5  1  0.82259528  0.50000892  0.14643239  1
  Ti  Ti6  1  0.57147413  0.00012628  0.14807663  1
  Fe  Fe7  1  0.06941322  0.49760067  0.65184039  1
  Fe  Fe8  1  0.42907674  0.49825126  0.35639044  1
  Fe  Fe9  1  0.17400279  0.00200356  0.35288764  1
  Fe  Fe10  1  0.57353024  0.50046370  0.64695130  1
  Fe  Fe11  1  0.92835171  0.50203572  0.35134240  1
  Fe  Fe12  1  0.67464685  0.49829830  0.85510919  1
  Fe  Fe13  1  0.32355644  0.99994683  0.64343355  1
  Fe  Fe14  1  0.68009497  0.99662585  0.35622626  1
  Fe  Fe15  1  0.82059202  0.00586783  0.63962152  1
  O  O16  1  0.29505301  0.19061143  0.05217695  1
  O  O17  1  0.10915215  0.34859709  0.24001053  1
  O  O18  1  0.15609408  0.12661017  0.78023769  1
  O  O19  1  0.04531758  0.69565648  0.04585192  1
  O  O20  1  0.43091475  0.16968301  0.44011332  1
  O  O21  1  0.31014025  0.33187258  0.56098270  1
  O  O22  1  0.79615646  0.18404251  0.05685848  1
  O  O23  1  0.59492252  0.35681483  0.23645079  1
  O  O24  1  0.18782339  0.66858494  0.44234176  1
  O  O25  1  0.65033115  0.13282016  0.78476574  1
  O  O26  1  0.06148963  0.82541039  0.56848311  1
  O  O27  1  0.53770007  0.70001644  0.03804550  1
  O  O28  1  0.45674490  0.31286027  0.94292775  1
  O  O29  1  0.93538164  0.17675102  0.42990655  1
  O  O30  1  0.35353954  0.86385159  0.21843249  1
  O  O31  1  0.80802838  0.33124717  0.56175741  1
  O  O32  1  0.39523115  0.63885717  0.77574206  1
  O  O33  1  0.20985056  0.82107707  0.92851904  1
  O  O34  1  0.69218484  0.67072813  0.43304999  1
  O  O35  1  0.54751855  0.84695822  0.55632931  1
  O  O36  1  0.96653797  0.29887190  0.95300829  1
  O  O37  1  0.85158261  0.86540237  0.21877723  1
  O  O38  1  0.90189534  0.63064946  0.78813483  1
  O  O39  1  0.70806746  0.80533710  0.95161070  1
