# generated using pymatgen
data_VPO5
_symmetry_space_group_name_H-M   'P 1'
_cell_length_a   5.12795576
_cell_length_b   10.78055460
_cell_length_c   7.51203981
_cell_angle_alpha   65.18431024
_cell_angle_beta   70.02494114
_cell_angle_gamma   76.26899783
_symmetry_Int_Tables_number   1
_chemical_formula_structural   VPO5
_chemical_formula_sum   'V4 P4 O20'
_cell_volume   352.10328840
_cell_formula_units_Z   4
loop_
 _symmetry_equiv_pos_site_id
 _symmetry_equiv_pos_as_xyz
  1  'x, y, z'
loop_
 _atom_site_type_symbol
 _atom_site_label
 _atom_site_symmetry_multiplicity
 _atom_site_fract_x
 _atom_site_fract_y
 _atom_site_fract_z
 _atom_site_occupancy
  V  V0  1  0.00281485  0.52747531  0.00855863  1
  V  V1  1  0.01325034  0.75941831  0.27632062  1
  V  V2  1  0.45214860  0.25937048  0.77636580  1
  V  V3  1  0.96221900  0.02760268  0.50817738  1
  P  P4  1  0.61554301  0.04699648  0.19110609  1
  P  P5  1  0.37758740  0.45112827  0.30913913  1
  P  P6  1  0.36245820  0.95111605  0.80889182  1
  P  P7  1  0.64815686  0.54692590  0.69145119  1
  O  O8  1  0.30012777  0.05673425  0.29296011  1
  O  O9  1  0.20424080  0.41847632  0.20279210  1
  O  O10  1  0.07859056  0.81799608  0.42098678  1
  O  O11  1  0.28760214  0.84186970  0.02450043  1
  O  O12  1  0.27655058  0.59610218  0.31458639  1
  O  O13  1  0.31359347  0.09607583  0.81443498  1
  O  O14  1  0.34709616  0.34200124  0.52474433  1
  O  O15  1  0.18388869  0.31767713  0.92143445  1
  O  O16  1  0.77132312  0.08418216  0.30057341  1
  O  O17  1  0.18566108  0.93707662  0.68962095  1
  O  O18  1  0.68729723  0.43723667  0.18871431  1
  O  O19  1  0.34618537  0.58375649  0.80219523  1
  O  O20  1  0.86145772  0.16726477  0.55573873  1
  O  O21  1  0.66339005  0.14838002  0.96709842  1
  O  O22  1  0.68052596  0.40052627  0.68722802  1
  O  O23  1  0.73308597  0.90051445  0.18719508  1
  O  O24  1  0.72178596  0.64856848  0.46754673  1
  O  O25  1  0.91623519  0.66713980  0.05601465  1
  O  O26  1  0.67440516  0.91877328  0.70133914  1
  O  O27  1  0.85340276  0.55662378  0.79222112  1
