# generated using pymatgen
data_SmPO4
_symmetry_space_group_name_H-M   'P 1'
_cell_length_a   6.35834756
_cell_length_b   7.07333787
_cell_length_c   7.07333787
_cell_angle_alpha   60.01946614
_cell_angle_beta   89.99242766
_cell_angle_gamma   89.99242766
_symmetry_Int_Tables_number   1
_chemical_formula_structural   SmPO4
_chemical_formula_sum   'Sm3 P3 O12'
_cell_volume   275.55535289
_cell_formula_units_Z   3
loop_
 _symmetry_equiv_pos_site_id
 _symmetry_equiv_pos_as_xyz
  1  'x, y, z'
loop_
 _atom_site_type_symbol
 _atom_site_label
 _atom_site_symmetry_multiplicity
 _atom_site_fract_x
 _atom_site_fract_y
 _atom_site_fract_z
 _atom_site_occupancy
  Sm  Sm0  1  0.66682829  0.09950592  0.40603461  1
  Sm  Sm1  1  0.33317171  0.59396539  0.90049408  1
  Sm  Sm2  1  -0.00000000  0.60007548  0.39992452  1
  P  P3  1  0.16701527  0.09657914  0.41045604  1
  P  P4  1  0.83298473  0.58954396  0.90342086  1
  P  P5  1  0.50000000  0.60950867  0.39049133  1
  O  O6  1  0.34922333  0.55218156  0.58422094  1
  O  O7  1  0.65077667  0.41577906  0.44781844  1
  O  O8  1  0.64953990  0.80285327  0.33591805  1
  O  O9  1  0.35046010  0.66408195  0.19714673  1
  O  O10  1  0.01924865  0.95660233  0.35623081  1
  O  O11  1  0.98075135  0.64376919  0.04339767  1
  O  O12  1  0.31461191  0.23825288  0.21602979  1
  O  O13  1  0.68538809  0.78397021  0.76174712  1
  O  O14  1  0.32001635  0.96095405  0.60162638  1
  O  O15  1  0.67998365  0.39837362  0.03904595  1
  O  O16  1  0.01492582  0.23105540  0.46908209  1
  O  O17  1  0.98507418  0.53091791  0.76894460  1
