# generated using pymatgen
data_MoPRh
_symmetry_space_group_name_H-M   'P 1'
_cell_length_a   3.94642439
_cell_length_b   5.99520372
_cell_length_c   7.03891671
_cell_angle_alpha   90.00000000
_cell_angle_beta   90.00000000
_cell_angle_gamma   90.00000000
_symmetry_Int_Tables_number   1
_chemical_formula_structural   MoPRh
_chemical_formula_sum   'Mo4 P4 Rh4'
_cell_volume   166.53808178
_cell_formula_units_Z   4
loop_
 _symmetry_equiv_pos_site_id
 _symmetry_equiv_pos_as_xyz
  1  'x, y, z'
loop_
 _atom_site_type_symbol
 _atom_site_label
 _atom_site_symmetry_multiplicity
 _atom_site_fract_x
 _atom_site_fract_y
 _atom_site_fract_z
 _atom_site_occupancy
  Mo  Mo0  1  0.75000000  0.46755901  0.33631286  1
  Mo  Mo1  1  0.75000000  0.96755901  0.16368714  1
  Mo  Mo2  1  0.25000000  0.53244099  0.66368714  1
  Mo  Mo3  1  0.25000000  0.03244099  0.83631286  1
  P  P4  1  0.75000000  0.75184787  0.88558781  1
  P  P5  1  0.75000000  0.25184787  0.61441219  1
  P  P6  1  0.25000000  0.24815213  0.11441219  1
  P  P7  1  0.25000000  0.74815213  0.38558781  1
  Rh  Rh8  1  0.75000000  0.36234291  0.92733024  1
  Rh  Rh9  1  0.75000000  0.86234291  0.57266976  1
  Rh  Rh10  1  0.25000000  0.63765709  0.07266976  1
  Rh  Rh11  1  0.25000000  0.13765709  0.42733024  1
