# generated using pymatgen
data_Na2SrSn4
_symmetry_space_group_name_H-M   'P 1'
_cell_length_a   6.65936340
_cell_length_b   6.73644235
_cell_length_c   10.23738892
_cell_angle_alpha   109.20880328
_cell_angle_beta   93.84336395
_cell_angle_gamma   90.00000000
_symmetry_Int_Tables_number   1
_chemical_formula_structural   Na2SrSn4
_chemical_formula_sum   'Na4 Sr2 Sn8'
_cell_volume   432.59108939
_cell_formula_units_Z   2
loop_
 _symmetry_equiv_pos_site_id
 _symmetry_equiv_pos_as_xyz
  1  'x, y, z'
loop_
 _atom_site_type_symbol
 _atom_site_label
 _atom_site_symmetry_multiplicity
 _atom_site_fract_x
 _atom_site_fract_y
 _atom_site_fract_z
 _atom_site_occupancy
  Na  Na0  1  0.69994186  0.60395233  0.40390595  1
  Na  Na1  1  0.80005814  0.20004637  0.59609405  1
  Na  Na2  1  0.30005814  0.39604767  0.59609405  1
  Na  Na3  1  0.19994186  0.79995363  0.40390595  1
  Sr  Sr4  1  0.25000000  0.77892827  -0.00000000  1
  Sr  Sr5  1  0.75000000  0.22107173  0.00000000  1
  Sn  Sn6  1  0.27263876  0.37468822  0.15518147  1
  Sn  Sn7  1  0.22736124  0.21950674  0.84481853  1
  Sn  Sn8  1  0.72736124  0.62531178  0.84481853  1
  Sn  Sn9  1  0.77263876  0.78049326  0.15518147  1
  Sn  Sn10  1  0.51377935  0.13219710  0.30689889  1
  Sn  Sn11  1  0.98622065  0.82529821  0.69310111  1
  Sn  Sn12  1  0.48622065  0.86780290  0.69310111  1
  Sn  Sn13  1  0.01377935  0.17470179  0.30689889  1
