# generated using pymatgen
data_BaYbFe4O7
_symmetry_space_group_name_H-M   'P 1'
_cell_length_a   6.35111519
_cell_length_b   6.40408106
_cell_length_c   6.39999262
_cell_angle_alpha   118.54715909
_cell_angle_beta   118.26542844
_cell_angle_gamma   92.59181605
_symmetry_Int_Tables_number   1
_chemical_formula_structural   BaYbFe4O7
_chemical_formula_sum   'Ba1 Yb1 Fe4 O7'
_cell_volume   188.58552248
_cell_formula_units_Z   1
loop_
 _symmetry_equiv_pos_site_id
 _symmetry_equiv_pos_as_xyz
  1  'x, y, z'
loop_
 _atom_site_type_symbol
 _atom_site_label
 _atom_site_symmetry_multiplicity
 _atom_site_fract_x
 _atom_site_fract_y
 _atom_site_fract_z
 _atom_site_occupancy
  Ba  Ba0  1  0.24900649  0.74900649  0.49801299  1
  Yb  Yb1  1  0.99432837  0.99432837  0.98865675  1
  Fe  Fe2  1  0.63789540  0.85282189  0.23488375  1
  Fe  Fe3  1  0.59698835  0.38206187  0.23488375  1
  Fe  Fe4  1  0.12815960  0.39983439  0.75354551  1
  Fe  Fe5  1  0.62538591  0.35371113  0.75354551  1
  O  O6  1  0.67762251  0.18130765  0.93673889  1
  O  O7  1  0.25911638  0.75543124  0.93673889  1
  O  O8  1  0.79832701  0.70746932  0.02203481  1
  O  O9  1  0.22370779  0.31456549  0.02203481  1
  O  O10  1  0.25790315  0.25790315  0.51580631  1
  O  O11  1  0.75165580  0.75165580  0.50331161  1
  O  O12  1  0.75390321  0.25390321  0.50780642  1
