# generated using pymatgen
data_Nb6Zn7
_symmetry_space_group_name_H-M   'P 1'
_cell_length_a   5.09842346
_cell_length_b   5.09842346
_cell_length_c   9.63255003
_cell_angle_alpha   74.65410561
_cell_angle_beta   74.65410561
_cell_angle_gamma   60.00000569
_symmetry_Int_Tables_number   1
_chemical_formula_structural   Nb6Zn7
_chemical_formula_sum   'Nb6 Zn7'
_cell_volume   206.46938033
_cell_formula_units_Z   1
loop_
 _symmetry_equiv_pos_site_id
 _symmetry_equiv_pos_as_xyz
  1  'x, y, z'
loop_
 _atom_site_type_symbol
 _atom_site_label
 _atom_site_symmetry_multiplicity
 _atom_site_fract_x
 _atom_site_fract_y
 _atom_site_fract_z
 _atom_site_occupancy
  Nb  Nb0  1  0.16448846  0.16448846  0.50653462  1
  Nb  Nb1  1  0.83551154  0.83551154  0.49346538  1
  Nb  Nb2  1  0.35000783  0.35000783  0.94997651  1
  Nb  Nb3  1  0.64999217  0.64999217  0.05002349  1
  Nb  Nb4  1  0.45512894  0.45512894  0.63461319  1
  Nb  Nb5  1  0.54487106  0.54487106  0.36538681  1
  Zn  Zn6  1  0.00000000  -0.00000000  -0.00000000  1
  Zn  Zn7  1  0.58581255  0.09341270  0.22736204  1
  Zn  Zn8  1  0.09341270  0.09341270  0.22736204  1
  Zn  Zn9  1  0.09341270  0.58581255  0.22736204  1
  Zn  Zn10  1  0.41418745  0.90658730  0.77263796  1
  Zn  Zn11  1  0.90658730  0.90658730  0.77263796  1
  Zn  Zn12  1  0.90658730  0.41418745  0.77263796  1
