# generated using pymatgen
data_Cs2RbYBr6
_symmetry_space_group_name_H-M   'P 1'
_cell_length_a   8.60708137
_cell_length_b   8.60708186
_cell_length_c   8.60708183
_cell_angle_alpha   59.99999857
_cell_angle_beta   59.99999787
_cell_angle_gamma   59.99999799
_symmetry_Int_Tables_number   1
_chemical_formula_structural   Cs2RbYBr6
_chemical_formula_sum   'Cs2 Rb1 Y1 Br6'
_cell_volume   450.87147272
_cell_formula_units_Z   1
loop_
 _symmetry_equiv_pos_site_id
 _symmetry_equiv_pos_as_xyz
  1  'x, y, z'
loop_
 _atom_site_type_symbol
 _atom_site_label
 _atom_site_symmetry_multiplicity
 _atom_site_fract_x
 _atom_site_fract_y
 _atom_site_fract_z
 _atom_site_occupancy
  Cs  Cs0  1  0.25000000  0.25000000  0.25000000  1
  Cs  Cs1  1  0.75000000  0.75000000  0.75000000  1
  Rb  Rb2  1  0.50000000  0.50000000  0.50000000  1
  Y  Y3  1  0.00000000  -0.00000000  -0.00000000  1
  Br  Br4  1  0.23005874  0.76994126  0.23005874  1
  Br  Br5  1  0.76994126  0.76994126  0.23005874  1
  Br  Br6  1  0.76994126  0.23005874  0.76994126  1
  Br  Br7  1  0.76994126  0.23005874  0.23005874  1
  Br  Br8  1  0.23005874  0.76994126  0.76994126  1
  Br  Br9  1  0.23005874  0.23005874  0.76994126  1
