# generated using pymatgen
data_Ga3Ni5Sn2
_symmetry_space_group_name_H-M   'P 1'
_cell_length_a   4.10551446
_cell_length_b   6.53036296
_cell_length_c   11.54636178
_cell_angle_alpha   90.00000000
_cell_angle_beta   90.00000000
_cell_angle_gamma   108.32099850
_symmetry_Int_Tables_number   1
_chemical_formula_structural   Ga3Ni5Sn2
_chemical_formula_sum   'Ga6 Ni10 Sn4'
_cell_volume   293.87204655
_cell_formula_units_Z   2
loop_
 _symmetry_equiv_pos_site_id
 _symmetry_equiv_pos_as_xyz
  1  'x, y, z'
loop_
 _atom_site_type_symbol
 _atom_site_label
 _atom_site_symmetry_multiplicity
 _atom_site_fract_x
 _atom_site_fract_y
 _atom_site_fract_z
 _atom_site_occupancy
  Ga  Ga0  1  0.83153487  0.66306975  0.47363282  1
  Ga  Ga1  1  0.16846513  0.33693025  0.52636718  1
  Ga  Ga2  1  0.83153487  0.66306975  0.02636718  1
  Ga  Ga3  1  0.16846513  0.33693025  0.97363282  1
  Ga  Ga4  1  0.50000000  0.00000000  0.50000000  1
  Ga  Ga5  1  0.50000000  0.00000000  -0.00000000  1
  Ni  Ni6  1  0.65916065  0.31832131  0.37745173  1
  Ni  Ni7  1  0.34083935  0.68167869  0.62254827  1
  Ni  Ni8  1  0.65916065  0.31832131  0.12254827  1
  Ni  Ni9  1  0.34083935  0.68167869  0.87745173  1
  Ni  Ni10  1  0.01991395  0.03982791  0.38044541  1
  Ni  Ni11  1  0.98008605  0.96017209  0.61955459  1
  Ni  Ni12  1  0.01991395  0.03982791  0.11955459  1
  Ni  Ni13  1  0.98008605  0.96017209  0.88044541  1
  Ni  Ni14  1  0.83889329  0.67778658  0.25000000  1
  Ni  Ni15  1  0.16110671  0.32221342  0.75000000  1
  Sn  Sn16  1  0.20768401  0.41536801  0.25000000  1
  Sn  Sn17  1  0.79231599  0.58463199  0.75000000  1
  Sn  Sn18  1  0.46785113  0.93570227  0.25000000  1
  Sn  Sn19  1  0.53214887  0.06429773  0.75000000  1
