# generated using pymatgen
data_KCO3
_symmetry_space_group_name_H-M   'P 1'
_cell_length_a   4.49373559
_cell_length_b   7.05013889
_cell_length_c   10.31926453
_cell_angle_alpha   90.00000000
_cell_angle_beta   90.00000000
_cell_angle_gamma   98.54682805
_symmetry_Int_Tables_number   1
_chemical_formula_structural   KCO3
_chemical_formula_sum   'K4 C4 O12'
_cell_volume   323.29872714
_cell_formula_units_Z   4
loop_
 _symmetry_equiv_pos_site_id
 _symmetry_equiv_pos_as_xyz
  1  'x, y, z'
loop_
 _atom_site_type_symbol
 _atom_site_label
 _atom_site_symmetry_multiplicity
 _atom_site_fract_x
 _atom_site_fract_y
 _atom_site_fract_z
 _atom_site_occupancy
  K  K0  1  0.34258307  0.91472491  0.18552892  1
  K  K1  1  0.65741693  0.08527509  0.81447108  1
  K  K2  1  0.15741693  0.58527509  0.68552892  1
  K  K3  1  0.84258307  0.41472491  0.31447108  1
  C  C4  1  0.61354680  0.78769677  0.45150465  1
  C  C5  1  0.38645320  0.21230323  0.54849535  1
  C  C6  1  0.88645320  0.71230323  0.95150465  1
  C  C7  1  0.11354680  0.28769677  0.04849535  1
  O  O8  1  0.37944453  0.66967549  0.41831412  1
  O  O9  1  0.62055547  0.33032451  0.58168588  1
  O  O10  1  0.12055547  0.83032451  0.91831412  1
  O  O11  1  0.87944453  0.16967549  0.08168588  1
  O  O12  1  0.67498892  0.82112758  0.57121272  1
  O  O13  1  0.32501108  0.17887242  0.42878728  1
  O  O14  1  0.82501108  0.67887242  0.07121272  1
  O  O15  1  0.17498892  0.32112758  0.92878728  1
  O  O16  1  0.78759880  0.86714237  0.36191387  1
  O  O17  1  0.21240120  0.13285763  0.63808613  1
  O  O18  1  0.71240120  0.63285763  0.86191387  1
  O  O19  1  0.28759880  0.36714237  0.13808613  1
