# generated using pymatgen
data_NaMn(GeO3)2
_symmetry_space_group_name_H-M   'P 1'
_cell_length_a   5.68500287
_cell_length_b   6.69506849
_cell_length_c   6.69506849
_cell_angle_alpha   82.98891013
_cell_angle_beta   78.55456434
_cell_angle_gamma   78.55456434
_symmetry_Int_Tables_number   1
_chemical_formula_structural   NaMn(GeO3)2
_chemical_formula_sum   'Na2 Mn2 Ge4 O12'
_cell_volume   243.88171431
_cell_formula_units_Z   2
loop_
 _symmetry_equiv_pos_site_id
 _symmetry_equiv_pos_as_xyz
  1  'x, y, z'
loop_
 _atom_site_type_symbol
 _atom_site_label
 _atom_site_symmetry_multiplicity
 _atom_site_fract_x
 _atom_site_fract_y
 _atom_site_fract_z
 _atom_site_occupancy
  Na  Na0  1  0.75000000  0.80038589  0.19961411  1
  Na  Na1  1  0.25000000  0.19961411  0.80038589  1
  Mn  Mn2  1  0.75000000  0.40906294  0.59093706  1
  Mn  Mn3  1  0.25000000  0.59093706  0.40906294  1
  Ge  Ge4  1  0.74013176  0.30117709  0.11780991  1
  Ge  Ge5  1  0.75986824  0.88219009  0.69882291  1
  Ge  Ge6  1  0.25986824  0.69882291  0.88219009  1
  Ge  Ge7  1  0.24013176  0.11780991  0.30117709  1
  O  O8  1  0.65133100  0.47166616  0.31177941  1
  O  O9  1  0.84866900  0.68822059  0.52833384  1
  O  O10  1  0.34866900  0.52833384  0.68822059  1
  O  O11  1  0.15133100  0.31177941  0.47166616  1
  O  O12  1  0.51731587  0.14583423  0.12546782  1
  O  O13  1  0.98268413  0.87453218  0.85416577  1
  O  O14  1  0.48268413  0.85416577  0.87453218  1
  O  O15  1  0.01731587  0.12546782  0.14583423  1
  O  O16  1  0.68954680  0.13285912  0.58943396  1
  O  O17  1  0.81045320  0.41056604  0.86714088  1
  O  O18  1  0.31045320  0.86714088  0.41056604  1
  O  O19  1  0.18954680  0.58943396  0.13285912  1
