# generated using pymatgen
data_LiNdTi2O6
_symmetry_space_group_name_H-M   'P 1'
_cell_length_a   5.37674243
_cell_length_b   5.62295118
_cell_length_c   7.66139192
_cell_angle_alpha   90.00000000
_cell_angle_beta   90.00000000
_cell_angle_gamma   90.00000000
_symmetry_Int_Tables_number   1
_chemical_formula_structural   LiNdTi2O6
_chemical_formula_sum   'Li2 Nd2 Ti4 O12'
_cell_volume   231.62808921
_cell_formula_units_Z   2
loop_
 _symmetry_equiv_pos_site_id
 _symmetry_equiv_pos_as_xyz
  1  'x, y, z'
loop_
 _atom_site_type_symbol
 _atom_site_label
 _atom_site_symmetry_multiplicity
 _atom_site_fract_x
 _atom_site_fract_y
 _atom_site_fract_z
 _atom_site_occupancy
  Li  Li0  1  0.71574917  0.12461563  0.50000000  1
  Li  Li1  1  0.28425083  0.62461563  0.50000000  1
  Nd  Nd2  1  0.26443428  0.69661444  -0.00000000  1
  Nd  Nd3  1  0.73556572  0.19661444  -0.00000000  1
  Ti  Ti4  1  0.76177996  0.72080644  0.26611097  1
  Ti  Ti5  1  0.76177996  0.72080644  0.73388903  1
  Ti  Ti6  1  0.23822004  0.22080644  0.73388903  1
  Ti  Ti7  1  0.23822004  0.22080644  0.26611097  1
  O  O8  1  0.94425035  0.05812943  0.71291329  1
  O  O9  1  0.94425035  0.05812943  0.28708671  1
  O  O10  1  0.05574965  0.55812943  0.28708671  1
  O  O11  1  0.05574965  0.55812943  0.71291329  1
  O  O12  1  0.45829016  0.97728675  0.79979354  1
  O  O13  1  0.45829016  0.97728675  0.20020646  1
  O  O14  1  0.54170984  0.47728675  0.20020646  1
  O  O15  1  0.54170984  0.47728675  0.79979354  1
  O  O16  1  0.17141180  0.27272802  0.00000000  1
  O  O17  1  0.82858820  0.77272802  -0.00000000  1
  O  O18  1  0.35014598  0.25359670  0.50000000  1
  O  O19  1  0.64985402  0.75359670  0.50000000  1
