# generated using pymatgen
data_Ce(BRh)4
_symmetry_space_group_name_H-M   'P 1'
_cell_length_a   5.35170566
_cell_length_b   5.35170566
_cell_length_c   7.50748356
_cell_angle_alpha   90.00000000
_cell_angle_beta   90.00000000
_cell_angle_gamma   90.00000000
_symmetry_Int_Tables_number   1
_chemical_formula_structural   Ce(BRh)4
_chemical_formula_sum   'Ce2 B8 Rh8'
_cell_volume   215.01998583
_cell_formula_units_Z   2
loop_
 _symmetry_equiv_pos_site_id
 _symmetry_equiv_pos_as_xyz
  1  'x, y, z'
loop_
 _atom_site_type_symbol
 _atom_site_label
 _atom_site_symmetry_multiplicity
 _atom_site_fract_x
 _atom_site_fract_y
 _atom_site_fract_z
 _atom_site_occupancy
  Ce  Ce0  1  0.75000000  0.25000000  0.25000000  1
  Ce  Ce1  1  0.25000000  0.75000000  0.75000000  1
  B  B2  1  0.58267196  0.75000000  0.40120481  1
  B  B3  1  0.91732804  0.75000000  0.40120481  1
  B  B4  1  0.75000000  0.58267196  0.90120481  1
  B  B5  1  0.75000000  0.91732804  0.90120481  1
  B  B6  1  0.41732804  0.25000000  0.59879519  1
  B  B7  1  0.08267196  0.25000000  0.59879519  1
  B  B8  1  0.25000000  0.41732804  0.09879519  1
  B  B9  1  0.25000000  0.08267196  0.09879519  1
  Rh  Rh10  1  0.99889559  0.75000000  0.10506416  1
  Rh  Rh11  1  0.50110441  0.75000000  0.10506416  1
  Rh  Rh12  1  0.75000000  0.99889559  0.60506416  1
  Rh  Rh13  1  0.75000000  0.50110441  0.60506416  1
  Rh  Rh14  1  0.00110441  0.25000000  0.89493584  1
  Rh  Rh15  1  0.49889559  0.25000000  0.89493584  1
  Rh  Rh16  1  0.25000000  0.00110441  0.39493584  1
  Rh  Rh17  1  0.25000000  0.49889559  0.39493584  1
