# generated using pymatgen
data_KRb2TmCl6
_symmetry_space_group_name_H-M   'P 1'
_cell_length_a   7.91331670
_cell_length_b   7.91331707
_cell_length_c   7.91331705
_cell_angle_alpha   59.99999879
_cell_angle_beta   59.99999818
_cell_angle_gamma   59.99999824
_symmetry_Int_Tables_number   1
_chemical_formula_structural   KRb2TmCl6
_chemical_formula_sum   'K1 Rb2 Tm1 Cl6'
_cell_volume   350.39723234
_cell_formula_units_Z   1
loop_
 _symmetry_equiv_pos_site_id
 _symmetry_equiv_pos_as_xyz
  1  'x, y, z'
loop_
 _atom_site_type_symbol
 _atom_site_label
 _atom_site_symmetry_multiplicity
 _atom_site_fract_x
 _atom_site_fract_y
 _atom_site_fract_z
 _atom_site_occupancy
  K  K0  1  0.50000000  0.50000000  0.50000000  1
  Rb  Rb1  1  0.25000000  0.25000000  0.25000000  1
  Rb  Rb2  1  0.75000000  0.75000000  0.75000000  1
  Tm  Tm3  1  0.00000000  -0.00000000  0.00000000  1
  Cl  Cl4  1  0.23220678  0.76779322  0.23220678  1
  Cl  Cl5  1  0.76779322  0.76779322  0.23220678  1
  Cl  Cl6  1  0.76779322  0.23220678  0.76779322  1
  Cl  Cl7  1  0.76779322  0.23220678  0.23220678  1
  Cl  Cl8  1  0.23220678  0.76779322  0.76779322  1
  Cl  Cl9  1  0.23220678  0.23220678  0.76779322  1
