# generated using pymatgen
data_Li4Zn(PS4)2
_symmetry_space_group_name_H-M   'P 1'
_cell_length_a   5.76334950
_cell_length_b   9.46508327
_cell_length_c   11.49448070
_cell_angle_alpha   89.99887174
_cell_angle_beta   90.03223998
_cell_angle_gamma   90.00095252
_symmetry_Int_Tables_number   1
_chemical_formula_structural   Li4Zn(PS4)2
_chemical_formula_sum   'Li8 Zn2 P4 S16'
_cell_volume   627.03052391
_cell_formula_units_Z   2
loop_
 _symmetry_equiv_pos_site_id
 _symmetry_equiv_pos_as_xyz
  1  'x, y, z'
loop_
 _atom_site_type_symbol
 _atom_site_label
 _atom_site_symmetry_multiplicity
 _atom_site_fract_x
 _atom_site_fract_y
 _atom_site_fract_z
 _atom_site_occupancy
  Li  Li0  1  0.99685449  0.24735310  0.75806874  1
  Li  Li1  1  0.50310604  0.74735299  0.99193249  1
  Li  Li2  1  0.50284230  0.99259107  0.74727769  1
  Li  Li3  1  0.99718238  0.49256596  0.00273041  1
  Li  Li4  1  0.00041859  0.00049374  0.99997447  1
  Li  Li5  1  0.00531453  0.99880884  0.49999251  1
  Li  Li6  1  0.49470092  0.49881006  0.24999840  1
  Li  Li7  1  0.49956334  0.50048542  0.75003140  1
  Zn  Zn8  1  0.50164447  0.00835776  0.25058575  1
  Zn  Zn9  1  0.99838585  0.50837928  0.49944824  1
  P  P10  1  0.48948102  0.24853958  0.99862493  1
  P  P11  1  0.51147185  0.25286887  0.50019733  1
  P  P12  1  0.98851996  0.75277748  0.24980240  1
  P  P13  1  0.01051493  0.74852828  0.75133632  1
  S  S14  1  0.29592848  0.14027479  0.39081743  1
  S  S15  1  0.28707633  0.12480878  0.89042495  1
  S  S16  1  0.79413606  0.62748515  0.64567866  1
  S  S17  1  0.78558647  0.63464146  0.14130329  1
  S  S18  1  0.70978092  0.36574847  0.89425770  1
  S  S19  1  0.72229829  0.37243976  0.39488276  1
  S  S20  1  0.21874942  0.87072265  0.14654217  1
  S  S21  1  0.21309473  0.86496515  0.64528555  1
  S  S22  1  0.70584213  0.12749373  0.10432662  1
  S  S23  1  0.71444279  0.13469507  0.60866035  1
  S  S24  1  0.20409294  0.64025417  0.35918954  1
  S  S25  1  0.21290473  0.62475865  0.85957016  1
  S  S26  1  0.28689220  0.36496902  0.10472087  1
  S  S27  1  0.28123770  0.37071466  0.60347890  1
  S  S28  1  0.77770665  0.87238196  0.35511770  1
  S  S29  1  0.79023049  0.86573314  0.85574431  1
