# generated using pymatgen
data_Li4Zn(PS4)2
_symmetry_space_group_name_H-M   'P 1'
_cell_length_a   6.14038074
_cell_length_b   8.09199014
_cell_length_c   19.09873329
_cell_angle_alpha   90.12813624
_cell_angle_beta   90.12901182
_cell_angle_gamma   90.10221872
_symmetry_Int_Tables_number   1
_chemical_formula_structural   Li4Zn(PS4)2
_chemical_formula_sum   'Li12 Zn3 P6 S24'
_cell_volume   948.96965979
_cell_formula_units_Z   3
loop_
 _symmetry_equiv_pos_site_id
 _symmetry_equiv_pos_as_xyz
  1  'x, y, z'
loop_
 _atom_site_type_symbol
 _atom_site_label
 _atom_site_symmetry_multiplicity
 _atom_site_fract_x
 _atom_site_fract_y
 _atom_site_fract_z
 _atom_site_occupancy
  Li  Li0  1  0.99177249  0.75631722  0.10612218  1
  Li  Li1  1  0.99856692  0.75860744  0.76444906  1
  Li  Li2  1  0.49022090  0.75590716  0.56606599  1
  Li  Li3  1  0.49701440  0.74585764  0.89385708  1
  Li  Li4  1  0.99916408  0.24953813  0.11089591  1
  Li  Li5  1  0.99935202  0.25129778  0.42803217  1
  Li  Li6  1  0.49652090  0.25699125  0.24251164  1
  Li  Li7  1  0.50000089  0.24338387  0.55796445  1
  Li  Li8  1  0.48968438  0.25598941  0.89429489  1
  Li  Li9  1  0.48810461  0.00839340  0.05505238  1
  Li  Li10  1  0.99083073  0.49218124  0.61238065  1
  Li  Li11  1  0.99085192  0.50598847  0.94776854  1
  Zn  Zn12  1  0.00244409  0.76114839  0.43523510  1
  Zn  Zn13  1  0.50183098  0.74117018  0.23672474  1
  Zn  Zn14  1  0.99856242  0.23004464  0.76444145  1
  P  P15  1  0.99012155  0.98672318  0.27222931  1
  P  P16  1  0.01218720  0.00910467  0.60439601  1
  P  P17  1  0.00418670  0.99791500  0.93847190  1
  P  P18  1  0.50427614  0.49810675  0.06291603  1
  P  P19  1  0.49146997  0.51582759  0.39698489  1
  P  P20  1  0.48502890  0.48972575  0.72609607  1
  S  S21  1  0.88379596  0.76721210  0.22817203  1
  S  S22  1  0.89205308  0.79117861  0.55735138  1
  S  S23  1  0.89300390  0.78884950  0.88922396  1
  S  S24  1  0.39362617  0.71320979  0.11218419  1
  S  S25  1  0.38603120  0.73376072  0.44216220  1
  S  S26  1  0.38876720  0.70069667  0.77294217  1
  S  S27  1  0.88250471  0.20027611  0.22961934  1
  S  S28  1  0.89763458  0.21497871  0.55359265  1
  S  S29  1  0.89223757  0.21135323  0.88731192  1
  S  S30  1  0.39544019  0.29106824  0.11337243  1
  S  S31  1  0.38905112  0.29905268  0.43758400  1
  S  S32  1  0.38293676  0.27046057  0.77093923  1
  S  S33  1  0.32701126  0.99051034  0.26110376  1
  S  S34  1  0.33866053  0.00508111  0.61077416  1
  S  S35  1  0.33862892  0.00020203  0.93611161  1
  S  S36  1  0.83918950  0.49981755  0.06455533  1
  S  S37  1  0.82940050  0.51541878  0.40192690  1
  S  S38  1  0.83092496  0.48661526  0.73451195  1
  S  S39  1  0.89384702  0.00712728  0.03975842  1
  S  S40  1  0.88217217  0.99351775  0.37459349  1
  S  S41  1  0.86590928  0.00185801  0.70314708  1
  S  S42  1  0.37282080  0.51145388  0.29499257  1
  S  S43  1  0.39811616  0.49306691  0.62252750  1
  S  S44  1  0.39357527  0.50301600  0.96086827  1
