# generated using pymatgen
data_Li4Zn(PS4)2
_symmetry_space_group_name_H-M   'P 1'
_cell_length_a   6.14516292
_cell_length_b   10.35847362
_cell_length_c   10.38677477
_cell_angle_alpha   101.24256032
_cell_angle_beta   103.13053599
_cell_angle_gamma   93.06469546
_symmetry_Int_Tables_number   1
_chemical_formula_structural   Li4Zn(PS4)2
_chemical_formula_sum   'Li8 Zn2 P4 S16'
_cell_volume   628.20732434
_cell_formula_units_Z   2
loop_
 _symmetry_equiv_pos_site_id
 _symmetry_equiv_pos_as_xyz
  1  'x, y, z'
loop_
 _atom_site_type_symbol
 _atom_site_label
 _atom_site_symmetry_multiplicity
 _atom_site_fract_x
 _atom_site_fract_y
 _atom_site_fract_z
 _atom_site_occupancy
  Li  Li0  1  0.64338566  0.87733790  0.24957115  1
  Li  Li1  1  0.48177100  0.16855960  0.06965670  1
  Li  Li2  1  0.88144464  0.92542740  0.70240480  1
  Li  Li3  1  0.05515401  0.91854830  0.08360140  1
  Li  Li4  1  0.26235131  0.75715084  0.48339265  1
  Li  Li5  1  0.37948463  0.13910175  0.73163364  1
  Li  Li6  1  0.87689190  0.61642056  0.72899559  1
  Li  Li7  1  0.12361642  0.38824705  0.23255010  1
  Zn  Zn8  1  0.51773557  0.51575905  0.98705327  1
  Zn  Zn9  1  0.77163276  0.25808909  0.48496298  1
  P  P10  1  0.68345979  0.56248392  0.36081067  1
  P  P11  1  0.44431958  0.82554596  0.86062963  1
  P  P12  1  0.96838073  0.32261583  0.86458523  1
  P  P13  1  0.20875124  0.07797035  0.36552440  1
  S  S14  1  0.15864083  0.46445344  0.02385033  1
  S  S15  1  0.41979007  0.20638224  0.52746230  1
  S  S16  1  0.64109357  0.94656376  0.03423568  1
  S  S17  1  0.90527896  0.68256555  0.52290437  1
  S  S18  1  0.47376475  0.90678334  0.69791207  1
  S  S19  1  0.71832206  0.64399992  0.19680393  1
  S  S20  1  0.97762339  0.39329931  0.69325117  1
  S  S21  1  0.16452636  0.15052648  0.19254744  1
  S  S22  1  0.64903139  0.30702838  0.90569380  1
  S  S23  1  0.91049791  0.05199767  0.42723757  1
  S  S24  1  0.11454467  0.81185761  0.87206741  1
  S  S25  1  0.38135091  0.54679182  0.40342097  1
  S  S26  1  0.77665698  0.36991664  0.30903112  1
  S  S27  1  0.08569341  0.14103587  0.85714260  1
  S  S28  1  0.28612432  0.88768901  0.31237986  1
  S  S29  1  0.53868118  0.63585533  0.81868719  1
