# generated using pymatgen
data_Li4Zn(PS4)2
_symmetry_space_group_name_H-M   'P 1'
_cell_length_a   5.74672657
_cell_length_b   9.54729017
_cell_length_c   11.52904130
_cell_angle_alpha   89.91894465
_cell_angle_beta   90.11006281
_cell_angle_gamma   89.97789659
_symmetry_Int_Tables_number   1
_chemical_formula_structural   Li4Zn(PS4)2
_chemical_formula_sum   'Li8 Zn2 P4 S16'
_cell_volume   632.54668230
_cell_formula_units_Z   2
loop_
 _symmetry_equiv_pos_site_id
 _symmetry_equiv_pos_as_xyz
  1  'x, y, z'
loop_
 _atom_site_type_symbol
 _atom_site_label
 _atom_site_symmetry_multiplicity
 _atom_site_fract_x
 _atom_site_fract_y
 _atom_site_fract_z
 _atom_site_occupancy
  Li  Li0  1  0.00219765  0.24794416  0.75620466  1
  Li  Li1  1  0.50140607  0.75016672  0.49457600  1
  Li  Li2  1  0.49981735  0.01252354  0.24744263  1
  Li  Li3  1  0.49790095  0.98996963  0.75162694  1
  Li  Li4  1  0.00371265  0.49406727  0.49830930  1
  Li  Li5  1  0.99737406  0.50765094  0.00355895  1
  Li  Li6  1  0.49517405  0.49241283  0.24697535  1
  Li  Li7  1  0.50571224  0.50637140  0.75158052  1
  Zn  Zn8  1  0.00337703  0.99266762  0.00155935  1
  Zn  Zn9  1  0.99645417  0.00627943  0.49905451  1
  P  P10  1  0.50405644  0.24815523  0.99554395  1
  P  P11  1  0.49579974  0.25157850  0.50561834  1
  P  P12  1  0.99890390  0.75148468  0.25219225  1
  P  P13  1  0.00065019  0.74873752  0.74649497  1
  S  S14  1  0.28289925  0.13266498  0.39947171  1
  S  S15  1  0.28424565  0.12201896  0.89114707  1
  S  S16  1  0.78415399  0.63562688  0.63933690  1
  S  S17  1  0.78177996  0.64039387  0.15164472  1
  S  S18  1  0.71410635  0.36475919  0.88797973  1
  S  S19  1  0.69964406  0.36496305  0.39955330  1
  S  S20  1  0.21191714  0.87108432  0.14661673  1
  S  S21  1  0.21129408  0.87204665  0.63608217  1
  S  S22  1  0.72124821  0.12865537  0.09907506  1
  S  S23  1  0.71496931  0.12651450  0.61130417  1
  S  S24  1  0.21665665  0.63558591  0.35704891  1
  S  S25  1  0.21154718  0.63509602  0.84917222  1
  S  S26  1  0.29394335  0.35861741  0.10030222  1
  S  S27  1  0.28795081  0.36507768  0.61578025  1
  S  S28  1  0.78551267  0.87715103  0.36060147  1
  S  S29  1  0.79559282  0.86973472  0.85415066  1
