# generated using pymatgen
data_Li4Zn(PS4)2
_symmetry_space_group_name_H-M   'P 1'
_cell_length_a   6.40667465
_cell_length_b   7.93091009
_cell_length_c   18.44270308
_cell_angle_alpha   89.86814362
_cell_angle_beta   90.18092399
_cell_angle_gamma   90.35289469
_symmetry_Int_Tables_number   1
_chemical_formula_structural   Li4Zn(PS4)2
_chemical_formula_sum   'Li12 Zn3 P6 S24'
_cell_volume   937.06288572
_cell_formula_units_Z   3
loop_
 _symmetry_equiv_pos_site_id
 _symmetry_equiv_pos_as_xyz
  1  'x, y, z'
loop_
 _atom_site_type_symbol
 _atom_site_label
 _atom_site_symmetry_multiplicity
 _atom_site_fract_x
 _atom_site_fract_y
 _atom_site_fract_z
 _atom_site_occupancy
  Li  Li0  1  0.68810684  0.23800629  0.66876762  1
  Li  Li1  1  0.69502415  0.23331690  0.00145375  1
  Li  Li2  1  0.31444941  0.25621174  0.49947668  1
  Li  Li3  1  0.31045477  0.26684332  0.16308500  1
  Li  Li4  1  0.68488457  0.75807366  0.67003763  1
  Li  Li5  1  0.30965376  0.73454993  0.83790746  1
  Li  Li6  1  0.31513295  0.75268652  0.49990647  1
  Li  Li7  1  0.31991669  0.74945755  0.16546599  1
  Li  Li8  1  0.85027904  0.99194353  0.50049334  1
  Li  Li9  1  0.84831807  0.98277516  0.17654153  1
  Li  Li10  1  0.14067526  0.50769584  0.66917334  1
  Li  Li11  1  0.14143671  0.54315980  0.33661655  1
  Zn  Zn12  1  0.69495223  0.25885734  0.33287470  1
  Zn  Zn13  1  0.30247009  0.24269431  0.83525294  1
  Zn  Zn14  1  0.69990751  0.74040548  0.99949726  1
  P  P15  1  0.16841901  0.99620464  0.66993843  1
  P  P16  1  0.18623916  0.01501145  0.33107835  1
  P  P17  1  0.20067332  0.99503688  0.99856949  1
  P  P18  1  0.81054326  0.48612974  0.83488153  1
  P  P19  1  0.81637720  0.49550497  0.49965329  1
  P  P20  1  0.82016666  0.51006682  0.16868632  1
  S  S21  1  0.32049177  0.21778711  0.70613737  1
  S  S22  1  0.33064831  0.23852428  0.36704009  1
  S  S23  1  0.32474723  0.21324944  0.03339913  1
  S  S24  1  0.66321402  0.26945189  0.87000565  1
  S  S25  1  0.67639056  0.27797685  0.53645509  1
  S  S26  1  0.67826395  0.28290441  0.20344725  1
  S  S27  1  0.32234665  0.78457062  0.70610239  1
  S  S28  1  0.33583080  0.81126664  0.37049222  1
  S  S29  1  0.33936981  0.77356833  0.03266456  1
  S  S30  1  0.68659664  0.71010409  0.87143449  1
  S  S31  1  0.67457225  0.70846647  0.53921110  1
  S  S32  1  0.67170723  0.70960123  0.21113659  1
  S  S33  1  0.17672256  0.99139232  0.88677450  1
  S  S34  1  0.19516511  0.00355827  0.55822281  1
  S  S35  1  0.20090170  0.01153932  0.21960611  1
  S  S36  1  0.79084724  0.49735874  0.72353299  1
  S  S37  1  0.78798743  0.51698235  0.38739608  1
  S  S38  1  0.81852827  0.49381633  0.05630531  1
  S  S39  1  0.87639517  0.99801050  0.70928822  1
  S  S40  1  0.87628316  0.01173284  0.36480160  1
  S  S41  1  0.89144821  0.98104348  0.03956692  1
  S  S42  1  0.11307968  0.48002791  0.87451543  1
  S  S43  1  0.12290893  0.50104039  0.53349641  1
  S  S44  1  0.12356267  0.50761327  0.20478902  1
