# generated using pymatgen
data_Li4Zn(PS4)2
_symmetry_space_group_name_H-M   'P 1'
_cell_length_a   5.78430467
_cell_length_b   6.23957954
_cell_length_c   10.19738911
_cell_angle_alpha   79.85876789
_cell_angle_beta   73.96717675
_cell_angle_gamma   62.53241002
_symmetry_Int_Tables_number   1
_chemical_formula_structural   Li4Zn(PS4)2
_chemical_formula_sum   'Li4 Zn1 P2 S8'
_cell_volume   313.33832045
_cell_formula_units_Z   1
loop_
 _symmetry_equiv_pos_site_id
 _symmetry_equiv_pos_as_xyz
  1  'x, y, z'
loop_
 _atom_site_type_symbol
 _atom_site_label
 _atom_site_symmetry_multiplicity
 _atom_site_fract_x
 _atom_site_fract_y
 _atom_site_fract_z
 _atom_site_occupancy
  Li  Li0  1  0.23032177  0.26712283  0.24002847  1
  Li  Li1  1  0.50153682  0.48767004  0.50987746  1
  Li  Li2  1  0.99386085  0.01637561  0.99245785  1
  Li  Li3  1  0.86814079  0.88469148  0.35637976  1
  Zn  Zn4  1  0.76721864  0.73451502  0.75903641  1
  P  P5  1  0.14335872  0.11695425  0.62314987  1
  P  P6  1  0.60975661  0.62911739  0.12956048  1
  S  S7  1  0.23805704  0.91927652  0.16766632  1
  S  S8  1  0.76733222  0.39640224  0.68122932  1
  S  S9  1  0.31695437  0.03663009  0.78662507  1
  S  S10  1  0.77634511  0.56200144  0.29697421  1
  S  S11  1  0.38037831  0.19652062  0.45200525  1
  S  S12  1  0.88349935  0.69546516  0.96624783  1
  S  S13  1  0.07150380  0.83922010  0.57836234  1
  S  S14  1  0.57673759  0.34303921  0.08540035  1
