# generated using pymatgen
data_Li4Zn(PS4)2
_symmetry_space_group_name_H-M   'P 1'
_cell_length_a   10.24751514
_cell_length_b   10.27820404
_cell_length_c   10.28135373
_cell_angle_alpha   77.30619314
_cell_angle_beta   65.77770392
_cell_angle_gamma   75.16855925
_symmetry_Int_Tables_number   1
_chemical_formula_structural   Li4Zn(PS4)2
_chemical_formula_sum   'Li12 Zn3 P6 S24'
_cell_volume   946.53712618
_cell_formula_units_Z   3
loop_
 _symmetry_equiv_pos_site_id
 _symmetry_equiv_pos_as_xyz
  1  'x, y, z'
loop_
 _atom_site_type_symbol
 _atom_site_label
 _atom_site_symmetry_multiplicity
 _atom_site_fract_x
 _atom_site_fract_y
 _atom_site_fract_z
 _atom_site_occupancy
  Li  Li0  1  0.59702357  0.23857258  0.31527474  1
  Li  Li1  1  0.42304946  0.75459404  0.66575240  1
  Li  Li2  1  0.24052598  0.25013354  0.99726978  1
  Li  Li3  1  0.91233427  0.25469011  0.68320064  1
  Li  Li4  1  0.83161339  0.49908509  0.33398868  1
  Li  Li5  1  0.50305582  0.49763758  0.99513526  1
  Li  Li6  1  0.34841454  0.99086975  0.32095293  1
  Li  Li7  1  0.99414773  0.00683327  0.01061489  1
  Li  Li8  1  0.16626492  0.51033302  0.66795424  1
  Li  Li9  1  0.54287759  0.37499637  0.65615027  1
  Li  Li10  1  0.20834280  0.36380286  0.33225500  1
  Li  Li11  1  0.04883211  0.88528736  0.67774857  1
  Zn  Zn12  1  0.08422619  0.75268860  0.33235140  1
  Zn  Zn13  1  0.74048193  0.74982639  0.01171952  1
  Zn  Zn14  1  0.65996743  0.00022531  0.66804102  1
  P  P15  1  0.46138378  0.62250561  0.33223029  1
  P  P16  1  0.29672840  0.13158908  0.65960327  1
  P  P17  1  0.11948893  0.63021700  0.00550721  1
  P  P18  1  0.95753884  0.12238828  0.34377990  1
  P  P19  1  0.61371821  0.12311115  0.99658891  1
  P  P20  1  0.79799726  0.62149972  0.66355558  1
  S  S21  1  0.36077793  0.16846236  0.43937039  1
  S  S22  1  0.19030511  0.68025312  0.78468682  1
  S  S23  1  0.01199542  0.17214651  0.13052245  1
  S  S24  1  0.85580904  0.68110474  0.44479753  1
  S  S25  1  0.51852736  0.67289464  0.11203958  1
  S  S26  1  0.68696508  0.16978736  0.76979024  1
  S  S27  1  0.46483055  0.78140898  0.41448724  1
  S  S28  1  0.30067672  0.29707708  0.73894220  1
  S  S29  1  0.13328069  0.79370784  0.08316330  1
  S  S30  1  0.96231261  0.28497274  0.42813985  1
  S  S31  1  0.63920606  0.28308707  0.06272705  1
  S  S32  1  0.79576844  0.79391435  0.75086513  1
  S  S33  1  0.59144573  0.45091558  0.39021049  1
  S  S34  1  0.42445881  0.96466232  0.73205455  1
  S  S35  1  0.25361337  0.46068198  0.06142593  1
  S  S36  1  0.09624306  0.95186903  0.40689322  1
  S  S37  1  0.75716338  0.95838356  0.05258421  1
  S  S38  1  0.92892251  0.46708858  0.73243599  1
  S  S39  1  0.59273119  0.57909583  0.73829971  1
  S  S40  1  0.41455498  0.07564098  0.07064664  1
  S  S41  1  0.25113686  0.57490478  0.40596069  1
  S  S42  1  0.09125005  0.08405880  0.75079053  1
  S  S43  1  0.75528799  0.06880387  0.41939148  1
  S  S44  1  0.91639189  0.57919216  0.07677030  1
