# generated using pymatgen
data_Li4Zn(PS4)2
_symmetry_space_group_name_H-M   'P 1'
_cell_length_a   6.37707738
_cell_length_b   8.00441574
_cell_length_c   18.42789262
_cell_angle_alpha   90.01674563
_cell_angle_beta   90.21699563
_cell_angle_gamma   90.22878582
_symmetry_Int_Tables_number   1
_chemical_formula_structural   Li4Zn(PS4)2
_chemical_formula_sum   'Li12 Zn3 P6 S24'
_cell_volume   940.63340931
_cell_formula_units_Z   3
loop_
 _symmetry_equiv_pos_site_id
 _symmetry_equiv_pos_as_xyz
  1  'x, y, z'
loop_
 _atom_site_type_symbol
 _atom_site_label
 _atom_site_symmetry_multiplicity
 _atom_site_fract_x
 _atom_site_fract_y
 _atom_site_fract_z
 _atom_site_occupancy
  Li  Li0  1  0.69280078  0.23805378  0.66884591  1
  Li  Li1  1  0.68850230  0.23959128  0.33512563  1
  Li  Li2  1  0.29772896  0.27364310  0.83241656  1
  Li  Li3  1  0.30896501  0.26151599  0.16556192  1
  Li  Li4  1  0.68426137  0.75669685  0.33211825  1
  Li  Li5  1  0.69118284  0.75302041  0.00232201  1
  Li  Li6  1  0.30208970  0.74327942  0.83156474  1
  Li  Li7  1  0.30899850  0.73769715  0.50486615  1
  Li  Li8  1  0.30484159  0.74516058  0.16589452  1
  Li  Li9  1  0.85076452  0.99544739  0.84018391  1
  Li  Li10  1  0.85402480  0.00164760  0.17118165  1
  Li  Li11  1  0.13950624  0.50860116  0.34111679  1
  Zn  Zn12  1  0.69273246  0.26059389  0.99893304  1
  Zn  Zn13  1  0.30208088  0.24343342  0.50211872  1
  Zn  Zn14  1  0.69703256  0.74166622  0.66670880  1
  P  P15  1  0.19814210  0.99678827  0.66536699  1
  P  P16  1  0.17080265  0.99612505  0.33566472  1
  P  P17  1  0.19968451  0.01068551  0.99740147  1
  P  P18  1  0.82408226  0.51154065  0.83580633  1
  P  P19  1  0.80846830  0.48848662  0.50158710  1
  P  P20  1  0.82035840  0.49592641  0.16674529  1
  S  S21  1  0.32207696  0.21182274  0.70194442  1
  S  S22  1  0.31973203  0.21621006  0.37317446  1
  S  S23  1  0.33399766  0.23103828  0.03383809  1
  S  S24  1  0.67046476  0.29038907  0.86996670  1
  S  S25  1  0.66356729  0.27343118  0.53723965  1
  S  S26  1  0.67248786  0.28324776  0.20289713  1
  S  S27  1  0.33381707  0.77525321  0.69864428  1
  S  S28  1  0.32448007  0.78706669  0.37302364  1
  S  S29  1  0.32098878  0.79698310  0.03582090  1
  S  S30  1  0.66526978  0.71957714  0.87025820  1
  S  S31  1  0.68669246  0.71128830  0.53850807  1
  S  S32  1  0.67325668  0.71135909  0.20008649  1
  S  S33  1  0.20817639  0.01013719  0.88572319  1
  S  S34  1  0.17819334  0.99445876  0.55338437  1
  S  S35  1  0.20604620  0.00350607  0.22403036  1
  S  S36  1  0.81788259  0.49738495  0.72310651  1
  S  S37  1  0.78436780  0.49867512  0.39025324  1
  S  S38  1  0.83702649  0.49888730  0.05416765  1
  S  S39  1  0.88617830  0.98389838  0.70497729  1
  S  S40  1  0.87374576  0.99650491  0.37193728  1
  S  S41  1  0.88392363  0.01645211  0.03316469  1
  S  S42  1  0.11357438  0.50996532  0.87896503  1
  S  S43  1  0.11455666  0.48224089  0.53946570  1
  S  S44  1  0.12109833  0.50062160  0.20738220  1
