# generated using pymatgen
data_Li4Zn(PS4)2
_symmetry_space_group_name_H-M   'P 1'
_cell_length_a   6.37771059
_cell_length_b   8.01188041
_cell_length_c   18.41846425
_cell_angle_alpha   89.91431923
_cell_angle_beta   89.92984404
_cell_angle_gamma   89.80935334
_symmetry_Int_Tables_number   1
_chemical_formula_structural   Li4Zn(PS4)2
_chemical_formula_sum   'Li12 Zn3 P6 S24'
_cell_volume   941.12967794
_cell_formula_units_Z   3
loop_
 _symmetry_equiv_pos_site_id
 _symmetry_equiv_pos_as_xyz
  1  'x, y, z'
loop_
 _atom_site_type_symbol
 _atom_site_label
 _atom_site_symmetry_multiplicity
 _atom_site_fract_x
 _atom_site_fract_y
 _atom_site_fract_z
 _atom_site_occupancy
  Li  Li0  1  0.68936700  0.24222654  0.66763163  1
  Li  Li1  1  0.69000109  0.25286265  0.33873767  1
  Li  Li2  1  0.68992509  0.24879599  0.99659800  1
  Li  Li3  1  0.30240845  0.26741614  0.50058504  1
  Li  Li4  1  0.31107489  0.25558970  0.16912233  1
  Li  Li5  1  0.69280730  0.76536576  0.99732405  1
  Li  Li6  1  0.30371012  0.74378689  0.83597316  1
  Li  Li7  1  0.30289054  0.73668389  0.50209442  1
  Li  Li8  1  0.30918601  0.74061610  0.16540060  1
  Li  Li9  1  0.85675131  0.00956643  0.50649719  1
  Li  Li10  1  0.85189084  0.00990320  0.17225639  1
  Li  Li11  1  0.14299978  0.50162049  0.00769866  1
  Zn  Zn12  1  0.29983178  0.24700571  0.83149947  1
  Zn  Zn13  1  0.69487105  0.74804299  0.66818655  1
  Zn  Zn14  1  0.69018404  0.74621203  0.33506746  1
  P  P15  1  0.18963751  0.99196678  0.66673360  1
  P  P16  1  0.19704574  0.99446231  0.33342669  1
  P  P17  1  0.17999472  0.00811419  0.99957707  1
  P  P18  1  0.79942496  0.49996501  0.83050916  1
  P  P19  1  0.82752355  0.50397555  0.50331400  1
  P  P20  1  0.82562389  0.49811001  0.16862930  1
  S  S21  1  0.31273454  0.21451547  0.70328308  1
  S  S22  1  0.31733417  0.20933060  0.37046505  1
  S  S23  1  0.32812201  0.21888501  0.03631452  1
  S  S24  1  0.66254690  0.27904888  0.86405000  1
  S  S25  1  0.67016622  0.29142637  0.53519659  1
  S  S26  1  0.67416119  0.28945106  0.20682852  1
  S  S27  1  0.33414968  0.77774675  0.70355020  1
  S  S28  1  0.33120247  0.77431309  0.36989369  1
  S  S29  1  0.32588182  0.79171039  0.03363052  1
  S  S30  1  0.67680029  0.71490176  0.86695382  1
  S  S31  1  0.67240236  0.72189299  0.53855884  1
  S  S32  1  0.67572703  0.71763819  0.20631052  1
  S  S33  1  0.17123862  0.00406392  0.88692735  1
  S  S34  1  0.21457471  0.00167489  0.55528284  1
  S  S35  1  0.20457998  0.99471416  0.22172749  1
  S  S36  1  0.81998083  0.49810664  0.71847501  1
  S  S37  1  0.83026534  0.50763559  0.39030328  1
  S  S38  1  0.78843654  0.50713456  0.05704644  1
  S  S39  1  0.88320474  0.98723930  0.70420435  1
  S  S40  1  0.88126787  0.98918632  0.36963575  1
  S  S41  1  0.87761664  0.00777612  0.03863632  1
  S  S42  1  0.11047807  0.48737606  0.87086248  1
  S  S43  1  0.11528499  0.50232863  0.54750837  1
  S  S44  1  0.12335035  0.49961390  0.20431552  1
