# generated using pymatgen
data_Na5LiFe2P2(CO7)2
_symmetry_space_group_name_H-M   'P 1'
_cell_length_a   8.91639891
_cell_length_b   6.74264953
_cell_length_c   10.36584663
_cell_angle_alpha   89.94272234
_cell_angle_beta   88.89765874
_cell_angle_gamma   89.62416624
_symmetry_Int_Tables_number   1
_chemical_formula_structural   Na5LiFe2P2(CO7)2
_chemical_formula_sum   'Na10 Li2 Fe4 P4 C4 O28'
_cell_volume   623.06730475
_cell_formula_units_Z   2
loop_
 _symmetry_equiv_pos_site_id
 _symmetry_equiv_pos_as_xyz
  1  'x, y, z'
loop_
 _atom_site_type_symbol
 _atom_site_label
 _atom_site_symmetry_multiplicity
 _atom_site_fract_x
 _atom_site_fract_y
 _atom_site_fract_z
 _atom_site_occupancy
  Na  Na0  1  0.08279053  0.25078646  0.87978417  1
  Na  Na1  1  0.08131565  0.24466499  0.38193826  1
  Na  Na2  1  0.26497675  0.00242280  0.62261160  1
  Na  Na3  1  0.26428381  0.49898247  0.62277178  1
  Na  Na4  1  0.26215384  0.00422525  0.12586774  1
  Na  Na5  1  0.26315213  0.49456008  0.12537621  1
  Na  Na6  1  0.73735215  0.50465718  0.87642707  1
  Na  Na7  1  0.73707024  0.99740138  0.87478300  1
  Na  Na8  1  0.73867005  0.50084343  0.37438298  1
  Na  Na9  1  0.91630243  0.75832017  0.12291203  1
  Li  Li10  1  0.71847275  0.97292858  0.38689186  1
  Li  Li11  1  0.90439153  0.75661155  0.62379035  1
  Fe  Fe12  1  0.35396742  0.75206966  0.89075104  1
  Fe  Fe13  1  0.35598683  0.74844254  0.38442009  1
  Fe  Fe14  1  0.65233719  0.24587246  0.60705431  1
  Fe  Fe15  1  0.64546972  0.24743319  0.11555092  1
  P  P16  1  0.41638129  0.25176029  0.85318753  1
  P  P17  1  0.41544897  0.24218827  0.35211180  1
  P  P18  1  0.59154273  0.74828482  0.64205405  1
  P  P19  1  0.59023631  0.75397153  0.14904725  1
  C  C20  1  0.06161707  0.75119069  0.85523675  1
  C  C21  1  0.04442326  0.75931652  0.37595668  1
  C  C22  1  0.94265523  0.24926518  0.63573601  1
  C  C23  1  0.93923434  0.24984943  0.13584611  1
  O  O24  1  0.08697005  0.25197082  0.64531018  1
  O  O25  1  0.08356072  0.25184592  0.14613033  1
  O  O26  1  0.11008266  0.75237562  0.97349447  1
  O  O27  1  0.08844050  0.75077732  0.49446621  1
  O  O28  1  0.15984734  0.75313982  0.76082257  1
  O  O29  1  0.14551122  0.74768564  0.28151042  1
  O  O30  1  0.32109734  0.06664554  0.89317110  1
  O  O31  1  0.31942994  0.43776341  0.89138162  1
  O  O32  1  0.31439118  0.06343010  0.39065926  1
  O  O33  1  0.32786195  0.43185828  0.39536282  1
  O  O34  1  0.44187823  0.25032631  0.70338827  1
  O  O35  1  0.43884793  0.75008800  0.57358736  1
  O  O36  1  0.43566748  0.24646931  0.20148751  1
  O  O37  1  0.43209499  0.74795642  0.08892138  1
  O  O38  1  0.56891541  0.25364258  0.92063346  1
  O  O39  1  0.56448264  0.75605623  0.79110563  1
  O  O40  1  0.57340013  0.22675773  0.41224037  1
  O  O41  1  0.57068859  0.76999191  0.30005838  1
  O  O42  1  0.68768346  0.56077012  0.60729592  1
  O  O43  1  0.69218528  0.92729631  0.59808129  1
  O  O44  1  0.68423937  0.56560139  0.11532489  1
  O  O45  1  0.68305230  0.93279734  0.09898825  1
  O  O46  1  0.85609715  0.24337467  0.73878300  1
  O  O47  1  0.85181233  0.24648613  0.23784235  1
  O  O48  1  0.88026324  0.25172030  0.52316014  1
  O  O49  1  0.87784288  0.25071472  0.02255439  1
  O  O50  1  0.91950486  0.74827085  0.83078346  1
  O  O51  1  0.90391460  0.77813827  0.34896437  1
