# generated using pymatgen
data_Na2MnPCO7
_symmetry_space_group_name_H-M   'P 1'
_cell_length_a   10.35700800
_cell_length_b   6.78010789
_cell_length_c   10.38233342
_cell_angle_alpha   90.56053725
_cell_angle_beta   120.92841805
_cell_angle_gamma   89.83108729
_symmetry_Int_Tables_number   1
_chemical_formula_structural   Na2MnPCO7
_chemical_formula_sum   'Na8 Mn4 P4 C4 O28'
_cell_volume   625.36702494
_cell_formula_units_Z   4
loop_
 _symmetry_equiv_pos_site_id
 _symmetry_equiv_pos_as_xyz
  1  'x, y, z'
loop_
 _atom_site_type_symbol
 _atom_site_label
 _atom_site_symmetry_multiplicity
 _atom_site_fract_x
 _atom_site_fract_y
 _atom_site_fract_z
 _atom_site_occupancy
  Na  Na0  1  0.00487803  0.01700940  0.25566271  1
  Na  Na1  1  0.00708447  0.48087456  0.25641668  1
  Na  Na2  1  0.49824916  0.00714659  0.24232962  1
  Na  Na3  1  0.49682139  0.49140888  0.24108057  1
  Na  Na4  1  0.49288209  0.50883521  0.75271842  1
  Na  Na5  1  0.49066998  0.99585416  0.75419459  1
  Na  Na6  1  0.00910375  0.98706660  0.74939948  1
  Na  Na7  1  0.85123382  0.73579359  0.91241868  1
  Mn  Mn8  1  0.28455208  0.75142687  0.35292059  1
  Mn  Mn9  1  0.79085561  0.74863195  0.35603749  1
  Mn  Mn10  1  0.21195044  0.25780893  0.64967125  1
  Mn  Mn11  1  0.72116494  0.25592913  0.65069500  1
  P  P12  1  0.35809895  0.25046897  0.42233095  1
  P  P13  1  0.85369783  0.24813760  0.42061473  1
  P  P14  1  0.14513000  0.75236155  0.57887653  1
  P  P15  1  0.63913529  0.75162840  0.58078658  1
  C  C16  1  0.17178166  0.75261002  0.07329328  1
  C  C17  1  0.67875171  0.74887808  0.07314167  1
  C  C18  1  0.32656871  0.24924977  0.92639209  1
  C  C19  1  0.82692285  0.24694325  0.92675249  1
  O  O20  1  0.39487587  0.24641752  0.06654314  1
  O  O21  1  0.88853479  0.24611106  0.06729348  1
  O  O22  1  0.09959978  0.74702663  0.15016908  1
  O  O23  1  0.60689012  0.74764464  0.14753165  1
  O  O24  1  0.31735342  0.74966675  0.16112177  1
  O  O25  1  0.82506958  0.74578532  0.15886775  1
  O  O26  1  0.27579223  0.06530565  0.32832737  1
  O  O27  1  0.27786977  0.43701916  0.33220925  1
  O  O28  1  0.77479224  0.06143090  0.32445557  1
  O  O29  1  0.77396283  0.43591306  0.33114378  1
  O  O30  1  0.02101249  0.25046191  0.45318624  1
  O  O31  1  0.13147064  0.75385624  0.42173378  1
  O  O32  1  0.52595710  0.24939383  0.45553485  1
  O  O33  1  0.63400636  0.74786266  0.42899331  1
  O  O34  1  0.36502602  0.24999908  0.57556629  1
  O  O35  1  0.47027911  0.76169722  0.54508702  1
  O  O36  1  0.86063809  0.23933891  0.57271247  1
  O  O37  1  0.97684335  0.75613771  0.54433343  1
  O  O38  1  0.22857266  0.56787651  0.66536312  1
  O  O39  1  0.22473923  0.93888156  0.67029803  1
  O  O40  1  0.70979484  0.56695949  0.67724144  1
  O  O41  1  0.72515337  0.93205939  0.67970477  1
  O  O42  1  0.18207879  0.24436912  0.83646385  1
  O  O43  1  0.68088623  0.25187604  0.83270647  1
  O  O44  1  0.39974232  0.25796140  0.85155661  1
  O  O45  1  0.90340716  0.24497395  0.85736117  1
  O  O46  1  0.09792503  0.76100971  0.93383420  1
  O  O47  1  0.61298080  0.75280105  0.93165174  1
