# generated using pymatgen
data_Na5Fe2P2(CO7)2
_symmetry_space_group_name_H-M   'P 1'
_cell_length_a   9.03177260
_cell_length_b   10.52712524
_cell_length_c   6.61882351
_cell_angle_alpha   89.80643309
_cell_angle_beta   90.50865130
_cell_angle_gamma   89.45448776
_symmetry_Int_Tables_number   1
_chemical_formula_structural   Na5Fe2P2(CO7)2
_chemical_formula_sum   'Na10 Fe4 P4 C4 O28'
_cell_volume   629.25138753
_cell_formula_units_Z   2
loop_
 _symmetry_equiv_pos_site_id
 _symmetry_equiv_pos_as_xyz
  1  'x, y, z'
loop_
 _atom_site_type_symbol
 _atom_site_label
 _atom_site_symmetry_multiplicity
 _atom_site_fract_x
 _atom_site_fract_y
 _atom_site_fract_z
 _atom_site_occupancy
  Na  Na0  1  0.07848495  0.37353989  0.26942387  1
  Na  Na1  1  0.08468808  0.89042130  0.26246655  1
  Na  Na2  1  0.25983879  0.12038127  0.01056037  1
  Na  Na3  1  0.26697759  0.63216774  0.00076994  1
  Na  Na4  1  0.26953686  0.63847646  0.49470165  1
  Na  Na5  1  0.74016121  0.37961873  0.98943963  1
  Na  Na6  1  0.73046314  0.86152354  0.50529835  1
  Na  Na7  1  0.73302241  0.86783226  0.99923006  1
  Na  Na8  1  0.92151505  0.12646011  0.73057613  1
  Na  Na9  1  0.91531192  0.60957870  0.73753345  1
  Fe  Fe10  1  0.35697316  0.38701876  0.74227184  1
  Fe  Fe11  1  0.34100566  0.89680688  0.74516151  1
  Fe  Fe12  1  0.64302684  0.11298124  0.25772816  1
  Fe  Fe13  1  0.65899434  0.60319312  0.25483849  1
  P  P14  1  0.42331403  0.35315453  0.24598165  1
  P  P15  1  0.41598213  0.85529321  0.24801826  1
  P  P16  1  0.57668597  0.14684547  0.75401835  1
  P  P17  1  0.58401787  0.64470679  0.75198174  1
  C  C18  1  0.07653696  0.36785554  0.75836766  1
  C  C19  1  0.05021085  0.86075178  0.75648220  1
  C  C20  1  0.92346304  0.13214446  0.24163234  1
  C  C21  1  0.94978915  0.63924822  0.24351780  1
  O  O22  1  0.06265744  0.14325457  0.22585080  1
  O  O23  1  0.09220383  0.65167704  0.24816582  1
  O  O24  1  0.14071393  0.47953766  0.74315986  1
  O  O25  1  0.10979717  0.97249671  0.76542502  1
  O  O26  1  0.16683811  0.26996700  0.75291100  1
  O  O27  1  0.13662750  0.76032040  0.74995946  1
  O  O28  1  0.32111359  0.38482762  0.05905320  1
  O  O29  1  0.32820476  0.38827887  0.43483064  1
  O  O30  1  0.31879079  0.89384898  0.06295941  1
  O  O31  1  0.32061840  0.88045991  0.43691446  1
  O  O32  1  0.43026095  0.07740908  0.75959882  1
  O  O33  1  0.43595164  0.56656344  0.74743751  1
  O  O34  1  0.45563617  0.20603373  0.24267248  1
  O  O35  1  0.45503828  0.71158743  0.23852603  1
  O  O36  1  0.54436383  0.29396627  0.75732752  1
  O  O37  1  0.54496172  0.78841257  0.76147397  1
  O  O38  1  0.56973905  0.42259092  0.24040118  1
  O  O39  1  0.56404836  0.93343656  0.25256249  1
  O  O40  1  0.67179524  0.11172113  0.56516936  1
  O  O41  1  0.67888641  0.11517238  0.94094680  1
  O  O42  1  0.67938160  0.61954009  0.56308554  1
  O  O43  1  0.68120921  0.60615102  0.93704059  1
  O  O44  1  0.83316189  0.23003300  0.24708900  1
  O  O45  1  0.86337250  0.73967960  0.25004054  1
  O  O46  1  0.85928607  0.02046234  0.25684014  1
  O  O47  1  0.89020283  0.52750329  0.23457498  1
  O  O48  1  0.93734256  0.35674543  0.77414920  1
  O  O49  1  0.90779617  0.84832296  0.75183418  1
