# generated using pymatgen
data_SrLaCoRuO6
_symmetry_space_group_name_H-M   'P 1'
_cell_length_a   5.64034534
_cell_length_b   5.60729325
_cell_length_c   31.85778659
_cell_angle_alpha   90.03523102
_cell_angle_beta   89.93046279
_cell_angle_gamma   89.93182671
_symmetry_Int_Tables_number   1
_chemical_formula_structural   SrLaCoRuO6
_chemical_formula_sum   'Sr8 La8 Co8 Ru8 O48'
_cell_volume   1007.56681072
_cell_formula_units_Z   8
loop_
 _symmetry_equiv_pos_site_id
 _symmetry_equiv_pos_as_xyz
  1  'x, y, z'
loop_
 _atom_site_type_symbol
 _atom_site_label
 _atom_site_symmetry_multiplicity
 _atom_site_fract_x
 _atom_site_fract_y
 _atom_site_fract_z
 _atom_site_occupancy
  Sr  Sr0  1  0.02752217  0.00490088  0.06419253  1
  Sr  Sr1  1  0.03273395  0.00550817  0.31247492  1
  Sr  Sr2  1  0.03373051  0.00493014  0.56268621  1
  Sr  Sr3  1  0.46618835  0.50582373  0.43721352  1
  Sr  Sr4  1  0.46850402  0.50576326  0.18686100  1
  Sr  Sr5  1  0.46531256  0.50619523  0.68782912  1
  Sr  Sr6  1  0.46625740  0.50931260  0.93357746  1
  Sr  Sr7  1  0.53245779  0.49261528  0.06490453  1
  La  La8  1  0.04510649  0.00627029  0.81504100  1
  La  La9  1  0.54176571  0.49130108  0.31265675  1
  La  La10  1  0.53652873  0.49683720  0.81637512  1
  La  La11  1  0.54196396  0.49022350  0.56306105  1
  La  La12  1  0.96085983  0.99179883  0.18702182  1
  La  La13  1  0.96027949  0.99077410  0.93223420  1
  La  La14  1  0.95826476  0.99025596  0.68793077  1
  La  La15  1  0.95757789  0.99109025  0.43768404  1
  Co  Co16  1  0.00119188  0.49982098  0.12438490  1
  Co  Co17  1  0.00247253  0.49959110  0.37502415  1
  Co  Co18  1  0.00233285  0.49875327  0.62531629  1
  Co  Co19  1  0.00155040  0.50099141  0.87535397  1
  Co  Co20  1  0.50047406  0.99972879  0.87373594  1
  Co  Co21  1  0.49719558  0.99852997  0.25016619  1
  Co  Co22  1  0.50043623  0.99938578  0.75108795  1
  Co  Co23  1  0.49690411  0.99998053  0.50016851  1
  Ru  Ru24  1  0.99933649  0.50006119  0.99939445  1
  Ru  Ru25  1  0.00101069  0.50023615  0.24996454  1
  Ru  Ru26  1  0.00077415  0.50032713  0.50023244  1
  Ru  Ru27  1  0.00069605  0.50032908  0.75037079  1
  Ru  Ru28  1  0.49902915  0.00358885  0.12540742  1
  Ru  Ru29  1  0.49879190  0.00067888  0.37514016  1
  Ru  Ru30  1  0.49916391  -0.00030602  0.62553856  1
  Ru  Ru31  1  0.49890184  0.00463978  0.99923873  1
  O  O32  1  0.01124895  0.42087746  0.18900405  1
  O  O33  1  0.01160115  0.41719586  0.43909990  1
  O  O34  1  0.01343896  0.41656849  0.68951709  1
  O  O35  1  0.00693240  0.42555271  0.93897206  1
  O  O36  1  0.21676966  0.79823568  0.38526184  1
  O  O37  1  0.22001921  0.79152783  0.13397335  1
  O  O38  1  0.21798403  0.79635349  0.63588670  1
  O  O39  1  0.21049326  0.79435124  0.88306570  1
  O  O40  1  0.20389786  0.78577238  0.23980387  1
  O  O41  1  0.19821863  0.78882375  0.74047532  1
  O  O42  1  0.20237284  0.78498380  0.48976690  1
  O  O43  1  0.21087412  0.79031098  0.98860618  1
  O  O44  1  0.29431425  0.28487271  0.36485822  1
  O  O45  1  0.28328128  0.27303595  0.11719605  1
  O  O46  1  0.29354459  0.28261884  0.61517902  1
  O  O47  1  0.28489962  0.27796530  0.86470661  1
  O  O48  1  0.28532464  0.28461497  0.00906325  1
  O  O49  1  0.28550265  0.30072047  0.26036298  1
  O  O50  1  0.28694740  0.30092426  0.51057757  1
  O  O51  1  0.28283538  0.29872412  0.76240220  1
  O  O52  1  0.49157830  0.93415465  0.06145574  1
  O  O53  1  0.47805189  0.91211303  0.81167708  1
  O  O54  1  0.48894899  0.91928519  0.31392942  1
  O  O55  1  0.48886670  0.91827306  0.56426055  1
  O  O56  1  0.51875355  0.06418904  0.43619687  1
  O  O57  1  0.51718570  0.06078431  0.18609133  1
  O  O58  1  0.52078985  0.06602526  0.68680016  1
  O  O59  1  0.51346214  0.06321571  0.93957360  1
  O  O60  1  0.72464497  0.71178444  0.24040389  1
  O  O61  1  0.72604766  0.70767169  0.74019518  1
  O  O62  1  0.72355808  0.71144332  0.49071721  1
  O  O63  1  0.72050951  0.72166249  0.98838580  1
  O  O64  1  0.71598491  0.72598135  0.38383728  1
  O  O65  1  0.72124344  0.73127443  0.13340717  1
  O  O66  1  0.72049615  0.72827951  0.88271172  1
  O  O67  1  0.71621961  0.72500754  0.63434137  1
  O  O68  1  0.78652306  0.22329633  0.25838724  1
  O  O69  1  0.78450380  0.21319321  0.00841609  1
  O  O70  1  0.79766142  0.21624162  0.76095606  1
  O  O71  1  0.78741047  0.22486593  0.50927213  1
  O  O72  1  0.77625722  0.21318272  0.11781037  1
  O  O73  1  0.78410971  0.21252531  0.86612865  1
  O  O74  1  0.77303657  0.21312571  0.61578372  1
  O  O75  1  0.77274736  0.21372667  0.36579017  1
  O  O76  1  0.97837016  0.56477588  0.31104010  1
  O  O77  1  0.99185663  0.55855585  0.05969938  1
  O  O78  1  0.98440919  0.57586736  0.81137694  1
  O  O79  1  0.98095665  0.56553072  0.56130688  1
