# generated using pymatgen
data_MnFeBO4
_symmetry_space_group_name_H-M   'P 1'
_cell_length_a   9.67411467
_cell_length_b   3.20663368
_cell_length_c   9.58248129
_cell_angle_alpha   90.00283712
_cell_angle_beta   89.98768777
_cell_angle_gamma   89.95554375
_symmetry_Int_Tables_number   1
_chemical_formula_structural   MnFeBO4
_chemical_formula_sum   'Mn4 Fe4 B4 O16'
_cell_volume   297.26133235
_cell_formula_units_Z   4
loop_
 _symmetry_equiv_pos_site_id
 _symmetry_equiv_pos_as_xyz
  1  'x, y, z'
loop_
 _atom_site_type_symbol
 _atom_site_label
 _atom_site_symmetry_multiplicity
 _atom_site_fract_x
 _atom_site_fract_y
 _atom_site_fract_z
 _atom_site_occupancy
  Mn  Mn0  1  0.10001652  0.24948349  0.18007349  1
  Mn  Mn1  1  0.39999386  0.75092997  0.68013439  1
  Mn  Mn2  1  0.59962818  0.25040140  0.32022589  1
  Mn  Mn3  1  0.90037667  0.75008478  0.81957995  1
  Fe  Fe4  1  0.11667102  0.24956884  0.56307144  1
  Fe  Fe5  1  0.38311649  0.75013422  0.06252610  1
  Fe  Fe6  1  0.61757847  0.24947317  0.93726372  1
  Fe  Fe7  1  0.88280435  0.74970719  0.43660214  1
  B  B8  1  0.17155743  0.24999929  0.86729488  1
  B  B9  1  0.32805759  0.75027308  0.36694132  1
  B  B10  1  0.67167607  0.25020103  0.63274861  1
  B  B11  1  0.82875732  0.74973432  0.13303562  1
  O  O12  1  0.00209421  0.24965233  0.38747256  1
  O  O13  1  0.03166771  0.24979201  0.87393882  1
  O  O14  1  0.24939839  0.24983453  0.99226226  1
  O  O15  1  0.24011847  0.25039613  0.73884599  1
  O  O16  1  0.25951611  0.74991594  0.23830801  1
  O  O17  1  0.25040195  0.75003177  0.49219857  1
  O  O18  1  0.46796513  0.75074888  0.37344964  1
  O  O19  1  0.49786201  0.75005381  0.88762714  1
  O  O20  1  0.50271421  0.25012748  0.11226321  1
  O  O21  1  0.53232361  0.25078251  0.62686398  1
  O  O22  1  0.74951921  0.25013746  0.50768212  1
  O  O23  1  0.74091342  0.24958652  0.76126144  1
  O  O24  1  0.75885864  0.75030452  0.26103962  1
  O  O25  1  0.75127527  0.74948785  0.00734330  1
  O  O26  1  0.96807517  0.74957195  0.12744056  1
  O  O27  1  0.99706252  0.74958551  0.61250623  1
