# generated using pymatgen
data_Nb3IrSe8
_symmetry_space_group_name_H-M   'P 1'
_cell_length_a   6.97340148
_cell_length_b   6.95393741
_cell_length_c   14.06037124
_cell_angle_alpha   97.03180375
_cell_angle_beta   75.64194730
_cell_angle_gamma   120.09263347
_symmetry_Int_Tables_number   1
_chemical_formula_structural   Nb3IrSe8
_chemical_formula_sum   'Nb6 Ir2 Se16'
_cell_volume   571.49707851
_cell_formula_units_Z   2
loop_
 _symmetry_equiv_pos_site_id
 _symmetry_equiv_pos_as_xyz
  1  'x, y, z'
loop_
 _atom_site_type_symbol
 _atom_site_label
 _atom_site_symmetry_multiplicity
 _atom_site_fract_x
 _atom_site_fract_y
 _atom_site_fract_z
 _atom_site_occupancy
  Nb  Nb0  1  0.03101408  0.53659773  0.00200675  1
  Nb  Nb1  1  0.25357690  0.03659773  0.50200675  1
  Nb  Nb2  1  0.02225006  0.00000000  0.00000000  1
  Nb  Nb3  1  0.49642310  0.46340227  0.99799325  1
  Nb  Nb4  1  0.71898592  0.96340227  0.49799325  1
  Nb  Nb5  1  0.72774994  0.50000000  0.50000000  1
  Ir  Ir6  1  0.29852692  0.50000000  0.50000000  1
  Ir  Ir7  1  0.45147308  0.00000000  0.00000000  1
  Se  Se8  1  0.09006356  0.83316870  0.13510535  1
  Se  Se9  1  0.15095303  0.65591715  0.39754271  1
  Se  Se10  1  0.12308145  0.33469807  0.12374198  1
  Se  Se11  1  0.59904697  0.84408285  0.10245729  1
  Se  Se12  1  0.33545402  0.81906060  0.61901783  1
  Se  Se13  1  0.13541026  0.18093940  0.38098217  1
  Se  Se14  1  0.61458974  0.31906060  0.11901783  1
  Se  Se15  1  0.35800079  0.33316870  0.63510535  1
  Se  Se16  1  0.41454598  0.68093940  0.88098217  1
  Se  Se17  1  0.65993644  0.66683130  0.36489465  1
  Se  Se18  1  0.62691855  0.16530193  0.37625802  1
  Se  Se19  1  0.39199921  0.16683130  0.86489465  1
  Se  Se20  1  0.83787565  0.83469807  0.62374198  1
  Se  Se21  1  0.89257960  0.34408285  0.60245729  1
  Se  Se22  1  0.91212435  0.66530193  0.87625802  1
  Se  Se23  1  0.85742040  0.15591715  0.89754271  1
