# generated using pymatgen
data_Na2MnPCO7
_symmetry_space_group_name_H-M   'P 1'
_cell_length_a   11.20505612
_cell_length_b   11.18286804
_cell_length_c   5.23745139
_cell_angle_alpha   89.07436747
_cell_angle_beta   88.78881351
_cell_angle_gamma   73.60558178
_symmetry_Int_Tables_number   1
_chemical_formula_structural   Na2MnPCO7
_chemical_formula_sum   'Na8 Mn4 P4 C4 O28'
_cell_volume   629.41764601
_cell_formula_units_Z   4
loop_
 _symmetry_equiv_pos_site_id
 _symmetry_equiv_pos_as_xyz
  1  'x, y, z'
loop_
 _atom_site_type_symbol
 _atom_site_label
 _atom_site_symmetry_multiplicity
 _atom_site_fract_x
 _atom_site_fract_y
 _atom_site_fract_z
 _atom_site_occupancy
  Na  Na0  1  0.11454513  0.12418848  0.24238040  1
  Na  Na1  1  0.37407403  0.37431705  0.75382715  1
  Na  Na2  1  0.62616923  0.12315055  0.75352364  1
  Na  Na3  1  0.12247056  0.63595230  0.75536930  1
  Na  Na4  1  0.57918218  0.35713949  0.22794284  1
  Na  Na5  1  0.87870501  0.37292473  0.24235036  1
  Na  Na6  1  0.39525613  0.85411411  0.23734341  1
  Na  Na7  1  0.88391649  0.87401470  0.75605327  1
  Mn  Mn8  1  0.30351729  0.05021496  0.78225988  1
  Mn  Mn9  1  0.19340711  0.45125937  0.21949266  1
  Mn  Mn10  1  0.79558507  0.55751349  0.77808098  1
  Mn  Mn11  1  0.70056776  0.94492169  0.22181777  1
  P  P12  1  0.08123645  0.33935432  0.71235085  1
  P  P13  1  0.41676379  0.16418935  0.29065904  1
  P  P14  1  0.58908561  0.83386005  0.70642098  1
  P  P15  1  0.91189442  0.66355450  0.29648573  1
  C  C16  1  0.83693179  0.08721474  0.27246080  1
  C  C17  1  0.33383082  0.58589312  0.27377759  1
  C  C18  1  0.66170571  0.40386490  0.72010818  1
  C  C19  1  0.16555494  0.91488732  0.72739744  1
  O  O20  1  0.12769984  0.20100438  0.78949322  1
  O  O21  1  0.10181115  0.35094504  0.41307586  1
  O  O22  1  0.34119178  0.08886796  0.15172473  1
  O  O23  1  0.15824256  0.41572680  0.84735314  1
  O  O24  1  0.39856905  0.14794729  0.58859043  1
  O  O25  1  0.05303722  0.62112656  0.23527811  1
  O  O26  1  0.55759055  0.12066038  0.22346249  1
  O  O27  1  0.37297401  0.30488211  0.22333167  1
  O  O28  1  0.28860053  0.53745751  0.47173397  1
  O  O29  1  0.79387536  0.04371658  0.47591876  1
  O  O30  1  0.80084927  0.04708908  0.05694562  1
  O  O31  1  0.29669304  0.54941473  0.05436027  1
  O  O32  1  0.09528939  0.84658261  0.71720299  1
  O  O33  1  0.58623931  0.33555014  0.74194427  1
  O  O34  1  0.40380319  0.65300320  0.28306226  1
  O  O35  1  0.90333996  0.16036156  0.27063795  1
  O  O36  1  0.69710428  0.44752584  0.92947543  1
  O  O37  1  0.20174316  0.95054978  0.94638164  1
  O  O38  1  0.70308668  0.43343455  0.50654244  1
  O  O39  1  0.21287687  0.96065069  0.52994455  1
  O  O40  1  0.45067138  0.87856642  0.78666269  1
  O  O41  1  0.94073333  0.39227166  0.77499802  1
  O  O42  1  0.63968763  0.69306043  0.75943601  1
  O  O43  1  0.59710424  0.86252261  0.41096408  1
  O  O44  1  0.84222309  0.58354390  0.16202309  1
  O  O45  1  0.66551012  0.90932160  0.84477605  1
  O  O46  1  0.89637172  0.65133822  0.59933016  1
  O  O47  1  0.86395075  0.80351814  0.22523484  1
