# generated using pymatgen
data_Na3TmTi2Nb2O12
_symmetry_space_group_name_H-M   'P 1'
_cell_length_a   5.41716441
_cell_length_b   5.58856247
_cell_length_c   15.46891768
_cell_angle_alpha   90.00000000
_cell_angle_beta   90.00000000
_cell_angle_gamma   90.00000000
_symmetry_Int_Tables_number   1
_chemical_formula_structural   Na3TmTi2Nb2O12
_chemical_formula_sum   'Na6 Tm2 Ti4 Nb4 O24'
_cell_volume   468.30851541
_cell_formula_units_Z   2
loop_
 _symmetry_equiv_pos_site_id
 _symmetry_equiv_pos_as_xyz
  1  'x, y, z'
loop_
 _atom_site_type_symbol
 _atom_site_label
 _atom_site_symmetry_multiplicity
 _atom_site_fract_x
 _atom_site_fract_y
 _atom_site_fract_z
 _atom_site_occupancy
  Na  Na0  1  0.00493031  0.96888771  0.37081994  1
  Na  Na1  1  0.00493031  0.96888771  0.87918006  1
  Na  Na2  1  0.49506969  0.46888771  0.87918006  1
  Na  Na3  1  0.49506969  0.46888771  0.37081994  1
  Na  Na4  1  0.50880160  0.53488296  0.62500000  1
  Na  Na5  1  0.99119840  0.03488296  0.62500000  1
  Tm  Tm6  1  0.51359205  0.56787308  0.12500000  1
  Tm  Tm7  1  0.98640795  0.06787308  0.12500000  1
  Ti  Ti8  1  0.01358803  0.52400974  0.99921603  1
  Ti  Ti9  1  0.01358803  0.52400974  0.25078397  1
  Ti  Ti10  1  0.48641197  0.02400974  0.25078397  1
  Ti  Ti11  1  0.48641197  0.02400974  0.99921603  1
  Nb  Nb12  1  0.00054887  0.50112176  0.49782293  1
  Nb  Nb13  1  0.00054887  0.50112176  0.75217707  1
  Nb  Nb14  1  0.49945113  0.00112176  0.75217707  1
  Nb  Nb15  1  0.49945113  0.00112176  0.49782293  1
  O  O16  1  0.10876799  0.45589157  0.12500000  1
  O  O17  1  0.07847152  0.48204929  0.62500000  1
  O  O18  1  0.20504663  0.20743633  0.47735405  1
  O  O19  1  0.19558898  0.18950308  0.26110859  1
  O  O20  1  0.20504663  0.20743633  0.77264595  1
  O  O21  1  0.19558898  0.18950308  0.98889141  1
  O  O22  1  0.29495337  0.70743633  0.47735405  1
  O  O23  1  0.29495337  0.70743633  0.77264595  1
  O  O24  1  0.30441102  0.68950308  0.26110859  1
  O  O25  1  0.30441102  0.68950308  0.98889141  1
  O  O26  1  0.39123201  0.95589157  0.12500000  1
  O  O27  1  0.42152848  0.98204929  0.62500000  1
  O  O28  1  0.57375682  0.01781401  0.88056375  1
  O  O29  1  0.57375682  0.01781401  0.36943625  1
  O  O30  1  0.70254448  0.27893999  0.03514841  1
  O  O31  1  0.70254448  0.27893999  0.21485159  1
  O  O32  1  0.70543837  0.29193894  0.51852006  1
  O  O33  1  0.70543837  0.29193894  0.73147994  1
  O  O34  1  0.79745552  0.77893999  0.03514841  1
  O  O35  1  0.79745552  0.77893999  0.21485159  1
  O  O36  1  0.79456163  0.79193894  0.51852006  1
  O  O37  1  0.79456163  0.79193894  0.73147994  1
  O  O38  1  0.92624318  0.51781401  0.36943625  1
  O  O39  1  0.92624318  0.51781401  0.88056375  1
