# generated using pymatgen
data_LiP4WO12
_symmetry_space_group_name_H-M   'P 1'
_cell_length_a   7.47280302
_cell_length_b   7.47280302
_cell_length_c   10.03808338
_cell_angle_alpha   81.37150620
_cell_angle_beta   70.60363760
_cell_angle_gamma   110.63207670
_symmetry_Int_Tables_number   1
_chemical_formula_structural   LiP4WO12
_chemical_formula_sum   'Li2 P8 W2 O24'
_cell_volume   471.64141942
_cell_formula_units_Z   2
loop_
 _symmetry_equiv_pos_site_id
 _symmetry_equiv_pos_as_xyz
  1  'x, y, z'
loop_
 _atom_site_type_symbol
 _atom_site_label
 _atom_site_symmetry_multiplicity
 _atom_site_fract_x
 _atom_site_fract_y
 _atom_site_fract_z
 _atom_site_occupancy
  Li  Li0  1  0.22321361  0.97321361  0.75000000  1
  Li  Li1  1  0.77678639  0.02678639  0.25000000  1
  P  P2  1  0.99860982  0.68228443  0.30722306  1
  P  P3  1  0.26922331  0.72792971  0.47436258  1
  P  P4  1  0.70229229  0.74358589  0.02563742  1
  P  P5  1  0.51049251  0.69416812  0.80722306  1
  P  P6  1  0.48950749  0.30583188  0.19277694  1
  P  P7  1  0.29770771  0.25641411  0.97436258  1
  P  P8  1  0.73077669  0.27207029  0.52563742  1
  P  P9  1  0.00139018  0.31771557  0.69277694  1
  W  W10  1  -0.00000000  0.50000000  -0.00000000  1
  W  W11  1  -0.00000000  0.00000000  0.50000000  1
  O  O12  1  0.04034335  0.65540237  0.15801680  1
  O  O13  1  0.12496619  0.80306809  0.57241714  1
  O  O14  1  0.19065336  0.68208266  0.34420533  1
  O  O15  1  0.49889222  0.84103236  0.40833753  1
  O  O16  1  0.30521099  0.70679980  0.82637955  1
  O  O17  1  0.20809957  0.50311968  0.56765855  1
  O  O18  1  0.12451577  0.30261767  0.07241714  1
  O  O19  1  0.74936889  0.90722975  0.09166247  1
  O  O20  1  0.57077823  0.77575812  0.93234145  1
  O  O21  1  0.68657983  0.80163985  0.65801680  1
  O  O22  1  0.52628798  0.53485869  0.15579467  1
  O  O23  1  0.03317836  0.13158955  0.67362045  1
  O  O24  1  0.96682164  0.86841045  0.32637955  1
  O  O25  1  0.47371202  0.46514131  0.84420533  1
  O  O26  1  0.31342017  0.19836015  0.34198320  1
  O  O27  1  0.42922177  0.22424188  0.06765855  1
  O  O28  1  0.25063111  0.09277025  0.90833753  1
  O  O29  1  0.87548423  0.69738233  0.92758286  1
  O  O30  1  0.79190043  0.49688032  0.43234145  1
  O  O31  1  0.69478901  0.29320020  0.17362045  1
  O  O32  1  0.50110778  0.15896764  0.59166247  1
  O  O33  1  0.80934664  0.31791734  0.65579467  1
  O  O34  1  0.87503381  0.19693191  0.42758286  1
  O  O35  1  0.95965665  0.34459763  0.84198320  1
