# generated using pymatgen
data_Li7V3P8O29
_symmetry_space_group_name_H-M   'P 1'
_cell_length_a   9.86801124
_cell_length_b   9.85108088
_cell_length_c   13.91090169
_cell_angle_alpha   89.84243286
_cell_angle_beta   89.62200698
_cell_angle_gamma   60.10823786
_symmetry_Int_Tables_number   1
_chemical_formula_structural   Li7V3P8O29
_chemical_formula_sum   'Li14 V6 P16 O58'
_cell_volume   1172.36418058
_cell_formula_units_Z   2
loop_
 _symmetry_equiv_pos_site_id
 _symmetry_equiv_pos_as_xyz
  1  'x, y, z'
loop_
 _atom_site_type_symbol
 _atom_site_label
 _atom_site_symmetry_multiplicity
 _atom_site_fract_x
 _atom_site_fract_y
 _atom_site_fract_z
 _atom_site_occupancy
  Li  Li0  1  0.90880042  0.77612568  0.06323940  1
  Li  Li1  1  0.77192514  0.91187188  0.56180535  1
  Li  Li2  1  0.91348606  0.31281188  0.55958557  1
  Li  Li3  1  0.66838027  0.66888128  0.38066901  1
  Li  Li4  1  0.66774154  0.66938382  0.88359828  1
  Li  Li5  1  0.77929585  0.30538588  0.06273844  1
  Li  Li6  1  0.32163152  0.90642783  0.06522892  1
  Li  Li7  1  0.67686267  0.22612630  0.43860974  1
  Li  Li8  1  0.31282620  0.77418847  0.55889885  1
  Li  Li9  1  0.22147794  0.68701083  0.94153957  1
  Li  Li10  1  0.33904271  0.32540027  0.11798347  1
  Li  Li11  1  0.09565170  0.67517271  0.43466818  1
  Li  Li12  1  0.22684511  0.09598603  0.43502946  1
  Li  Li13  1  0.08810328  0.22567282  0.94033655  1
  V  V14  1  0.56801354  0.43019619  0.24967353  1
  V  V15  1  0.43417574  0.56542636  0.74962873  1
  V  V16  1  0.56524384  0.00510743  0.75477037  1
  V  V17  1  0.43277157  0.00027705  0.24942974  1
  V  V18  1  0.99941839  0.56980860  0.24953270  1
  V  V19  1  0.00035816  0.43175284  0.74689287  1
  P  P20  1  0.90721679  0.76940986  0.84266847  1
  P  P21  1  0.76562484  0.91156733  0.34545449  1
  P  P22  1  0.90820490  0.32335743  0.34274503  1
  P  P23  1  0.66462608  0.66507529  0.12280202  1
  P  P24  1  0.66603264  0.66905704  0.62634588  1
  P  P25  1  0.76862656  0.32272222  0.84246329  1
  P  P26  1  0.68134628  0.23220960  0.65892008  1
  P  P27  1  0.31993764  0.90958068  0.84169608  1
  P  P28  1  0.68144237  0.08827808  0.15749191  1
  P  P29  1  0.32260779  0.76637437  0.34319243  1
  P  P30  1  0.23459555  0.67720027  0.15669676  1
  P  P31  1  0.33228921  0.33673573  0.37698010  1
  P  P32  1  0.32991975  0.33445380  0.87369413  1
  P  P33  1  0.08742570  0.68077745  0.65834353  1
  P  P34  1  0.23573897  0.08625238  0.65706240  1
  P  P35  1  0.09063343  0.23357570  0.15653247  1
  O  O36  1  0.99873417  0.75612507  0.56829140  1
  O  O37  1  0.91986191  0.75433823  0.34429085  1
  O  O38  1  0.77327479  0.99003403  0.07454567  1
  O  O39  1  0.74484437  0.91486083  0.84079848  1
  O  O40  1  0.88598672  0.62523778  0.82449481  1
  O  O41  1  0.81258042  0.66725665  0.15837023  1
  O  O42  1  0.87970864  0.49071484  0.32931255  1
  O  O43  1  0.99550579  0.25067132  0.06796482  1
  O  O44  1  0.91945026  0.33780034  0.83650056  1
  O  O45  1  0.66847743  0.81625988  0.66755494  1
  O  O46  1  0.62887030  0.88023594  0.32892454  1
  O  O47  1  0.81415133  0.51424199  0.66287301  1
  O  O48  1  0.66411600  0.65361357  0.01454532  1
  O  O49  1  0.66484849  0.67095432  0.51845409  1
  O  O50  1  0.66505897  0.51403475  0.16696552  1
  O  O51  1  0.48710253  0.88415922  0.82589060  1
  O  O52  1  0.51263593  0.81130077  0.15947248  1
  O  O53  1  0.74917164  0.32852909  0.34346453  1
  O  O54  1  0.78789175  0.21506495  0.75082387  1
  O  O55  1  0.75904615  0.24430544  0.56868229  1
  O  O56  1  0.75966305  0.25029205  0.93366988  1
  O  O57  1  0.62742362  0.48952263  0.82243942  1
  O  O58  1  0.51346193  0.67076652  0.66539038  1
  O  O59  1  0.67072679  0.25098657  0.15787309  1
  O  O60  1  0.48969380  0.62463723  0.32763288  1
  O  O61  1  0.32958322  0.91809019  0.34527801  1
  O  O62  1  0.77449899  0.01048734  0.25675906  1
  O  O63  1  0.74793398  0.00385090  0.43601911  1
  O  O64  1  0.24193807  0.99772243  0.56776133  1
  O  O65  1  0.66672502  0.08424037  0.66100664  1
  O  O66  1  0.52138414  0.38174352  0.67640965  1
  O  O67  1  0.33211755  0.74648309  0.84110910  1
  O  O68  1  0.48430962  0.33615037  0.32967944  1
  O  O69  1  0.37574841  0.50993145  0.17191629  1
  O  O70  1  0.25346134  0.75365882  0.06732973  1
  O  O71  1  0.24475572  0.74831727  0.43210514  1
  O  O72  1  0.22034522  0.78066995  0.24975827  1
  O  O73  1  0.25055854  0.66514057  0.65970605  1
  O  O74  1  0.47779588  0.18595479  0.82934616  1
  O  O75  1  0.51338268  0.11637161  0.16919589  1
  O  O76  1  0.33215287  0.48452016  0.83518173  1
  O  O77  1  0.33055662  0.33260123  0.98108263  1
  O  O78  1  0.34880011  0.33536133  0.48378221  1
  O  O79  1  0.18718558  0.48878692  0.33883418  1
  O  O80  1  0.38324888  0.09674626  0.67329209  1
  O  O81  1  0.32881095  0.18987083  0.33785148  1
  O  O82  1  0.08295459  0.67083168  0.15469349  1
  O  O83  1  0.99869517  0.78703648  0.75024042  1
  O  O84  1  0.00135947  0.75273553  0.93068968  1
  O  O85  1  0.09809398  0.51999712  0.67742635  1
  O  O86  1  0.18339433  0.33107484  0.83472558  1
  O  O87  1  0.11982494  0.37177281  0.17158800  1
  O  O88  1  0.24740655  0.07985360  0.15566326  1
  O  O89  1  0.24281772  0.00051366  0.93139457  1
  O  O90  1  0.21406161  0.99847717  0.75014746  1
  O  O91  1  0.08523006  0.24965852  0.65860658  1
  O  O92  1  0.00185344  0.24267571  0.43138365  1
  O  O93  1  0.99853880  0.22064510  0.24959480  1
