# generated using pymatgen
data_Li3MnFeCo(PO4)3
_symmetry_space_group_name_H-M   'P 1'
_cell_length_a   10.45985613
_cell_length_b   6.08959678
_cell_length_c   14.30035103
_cell_angle_alpha   90.00000000
_cell_angle_beta   89.97721667
_cell_angle_gamma   90.00000000
_symmetry_Int_Tables_number   1
_chemical_formula_structural   Li3MnFeCo(PO4)3
_chemical_formula_sum   'Li12 Mn4 Fe4 Co4 P12 O48'
_cell_volume   910.87946597
_cell_formula_units_Z   4
loop_
 _symmetry_equiv_pos_site_id
 _symmetry_equiv_pos_as_xyz
  1  'x, y, z'
loop_
 _atom_site_type_symbol
 _atom_site_label
 _atom_site_symmetry_multiplicity
 _atom_site_fract_x
 _atom_site_fract_y
 _atom_site_fract_z
 _atom_site_occupancy
  Li  Li0  1  0.99889816  0.49948079  0.66699444  1
  Li  Li1  1  0.99959429  0.00090749  0.99947708  1
  Li  Li2  1  0.99959429  0.49909251  0.99947708  1
  Li  Li3  1  0.99873587  0.99991320  0.33355050  1
  Li  Li4  1  0.99873587  0.50008680  0.33355050  1
  Li  Li5  1  0.99889816  0.00051921  0.66699444  1
  Li  Li6  1  0.50120363  0.99979373  0.50042933  1
  Li  Li7  1  0.50120363  0.50020627  0.50042933  1
  Li  Li8  1  0.50111761  0.00025922  0.16702358  1
  Li  Li9  1  0.50111761  0.49974078  0.16702358  1
  Li  Li10  1  0.50085618  0.00061657  0.83297531  1
  Li  Li11  1  0.50085618  0.49938343  0.83297531  1
  Mn  Mn12  1  0.21866493  0.75000000  0.15989052  1
  Mn  Mn13  1  0.21876037  0.75000000  0.82556881  1
  Mn  Mn14  1  0.28078034  0.25000000  0.32676446  1
  Mn  Mn15  1  0.71994985  0.75000000  0.00713021  1
  Fe  Fe16  1  0.21830051  0.75000000  0.49266747  1
  Fe  Fe17  1  0.28143373  0.25000000  0.65897291  1
  Fe  Fe18  1  0.28043793  0.25000000  0.99200203  1
  Fe  Fe19  1  0.71993836  0.75000000  0.34179423  1
  Co  Co20  1  0.72282725  0.75000000  0.67382303  1
  Co  Co21  1  0.77821343  0.25000000  0.83960270  1
  Co  Co22  1  0.78096234  0.25000000  0.50644289  1
  Co  Co23  1  0.78108184  0.25000000  0.17263701  1
  P  P24  1  0.09244959  0.25000000  0.80513620  1
  P  P25  1  0.09189816  0.25000000  0.13795656  1
  P  P26  1  0.09202269  0.25000000  0.47376740  1
  P  P27  1  0.40806295  0.75000000  0.30599474  1
  P  P28  1  0.40767788  0.75000000  0.63887515  1
  P  P29  1  0.40682451  0.75000000  0.97278315  1
  P  P30  1  0.59648801  0.25000000  0.36101840  1
  P  P31  1  0.59442863  0.25000000  0.02850714  1
  P  P32  1  0.59609247  0.25000000  0.69380801  1
  P  P33  1  0.90512567  0.75000000  0.85969380  1
  P  P34  1  0.90419542  0.75000000  0.19495548  1
  P  P35  1  0.90393399  0.75000000  0.52788265  1
  O  O36  1  0.04097191  0.75000000  0.23767500  1
  O  O37  1  0.04164469  0.75000000  0.56943064  1
  O  O38  1  0.04158323  0.75000000  0.90247959  1
  O  O39  1  0.09511839  0.25000000  0.58114299  1
  O  O40  1  0.09679327  0.25000000  0.91247518  1
  O  O41  1  0.09512313  0.25000000  0.24542061  1
  O  O42  1  0.16252028  0.04854145  0.09298930  1
  O  O43  1  0.16252028  0.45145855  0.09298930  1
  O  O44  1  0.16272240  0.04707095  0.42955711  1
  O  O45  1  0.16272240  0.45292905  0.42955711  1
  O  O46  1  0.16311968  0.04867798  0.75953391  1
  O  O47  1  0.16311968  0.45132202  0.75953391  1
  O  O48  1  0.33579457  0.54744031  0.59478469  1
  O  O49  1  0.33579457  0.95255969  0.59478469  1
  O  O50  1  0.33774672  0.54794519  0.26115878  1
  O  O51  1  0.33774672  0.95205481  0.26115878  1
  O  O52  1  0.33562667  0.54665862  0.92943031  1
  O  O53  1  0.33562667  0.95334138  0.92943031  1
  O  O54  1  0.40387604  0.75000000  0.41360862  1
  O  O55  1  0.40621059  0.75000000  0.07992868  1
  O  O56  1  0.40489705  0.75000000  0.74636833  1
  O  O57  1  0.45940880  0.25000000  0.40322728  1
  O  O58  1  0.45645932  0.25000000  0.06849961  1
  O  O59  1  0.45835321  0.25000000  0.73509169  1
  O  O60  1  0.54538183  0.75000000  0.26506344  1
  O  O61  1  0.54306480  0.75000000  0.92949498  1
  O  O62  1  0.54520894  0.75000000  0.59809212  1
  O  O63  1  0.59826116  0.25000000  0.25358674  1
  O  O64  1  0.59892297  0.25000000  0.92061049  1
  O  O65  1  0.59899199  0.25000000  0.58623161  1
  O  O66  1  0.66498559  0.04927510  0.07410682  1
  O  O67  1  0.66752964  0.04799062  0.40574100  1
  O  O68  1  0.66683738  0.04657112  0.73829883  1
  O  O69  1  0.66683738  0.45342888  0.73829883  1
  O  O70  1  0.66498559  0.45072490  0.07410682  1
  O  O71  1  0.66752964  0.45200938  0.40574100  1
  O  O72  1  0.83496352  0.54542775  0.90303154  1
  O  O73  1  0.83496352  0.95457225  0.90303154  1
  O  O74  1  0.83332335  0.54578855  0.23822843  1
  O  O75  1  0.83257143  0.54667060  0.57218836  1
  O  O76  1  0.83332335  0.95421145  0.23822843  1
  O  O77  1  0.83257143  0.95332940  0.57218836  1
  O  O78  1  0.90271482  0.75000000  0.75197501  1
  O  O79  1  0.90304675  0.75000000  0.42046872  1
  O  O80  1  0.90497337  0.75000000  0.08727174  1
  O  O81  1  0.95416186  0.25000000  0.76528241  1
  O  O82  1  0.95356395  0.25000000  0.09768774  1
  O  O83  1  0.95442311  0.25000000  0.43221721  1
