# generated using pymatgen
data_Li3MnFeCo(PO4)3
_symmetry_space_group_name_H-M   'P 1'
_cell_length_a   10.46424421
_cell_length_b   6.09037359
_cell_length_c   14.30145543
_cell_angle_alpha   90.00000000
_cell_angle_beta   90.05251457
_cell_angle_gamma   90.00000000
_symmetry_Int_Tables_number   1
_chemical_formula_structural   Li3MnFeCo(PO4)3
_chemical_formula_sum   'Li12 Mn4 Fe4 Co4 P12 O48'
_cell_volume   911.44791268
_cell_formula_units_Z   4
loop_
 _symmetry_equiv_pos_site_id
 _symmetry_equiv_pos_as_xyz
  1  'x, y, z'
loop_
 _atom_site_type_symbol
 _atom_site_label
 _atom_site_symmetry_multiplicity
 _atom_site_fract_x
 _atom_site_fract_y
 _atom_site_fract_z
 _atom_site_occupancy
  Li  Li0  1  0.99851421  0.50064627  0.66705830  1
  Li  Li1  1  0.99888834  0.99968959  0.99968131  1
  Li  Li2  1  0.99888834  0.50031041  0.99968131  1
  Li  Li3  1  0.99855221  0.99962829  0.33333349  1
  Li  Li4  1  0.99855221  0.50037171  0.33333349  1
  Li  Li5  1  0.99851421  0.99935373  0.66705830  1
  Li  Li6  1  0.50123598  0.99944355  0.50057865  1
  Li  Li7  1  0.50123598  0.50055645  0.50057865  1
  Li  Li8  1  0.50145632  0.99946798  0.16698950  1
  Li  Li9  1  0.50145632  0.50053202  0.16698950  1
  Li  Li10  1  0.50111962  0.99904017  0.83297372  1
  Li  Li11  1  0.50111962  0.50095983  0.83297372  1
  Mn  Mn12  1  0.21871127  0.75000000  0.16003609  1
  Mn  Mn13  1  0.28140982  0.25000000  0.66020976  1
  Mn  Mn14  1  0.28040487  0.25000000  0.99306556  1
  Mn  Mn15  1  0.28080709  0.25000000  0.32698738  1
  Fe  Fe16  1  0.21866941  0.75000000  0.49283739  1
  Fe  Fe17  1  0.21851481  0.75000000  0.82542038  1
  Fe  Fe18  1  0.72012355  0.75000000  0.00787635  1
  Fe  Fe19  1  0.72020572  0.75000000  0.34171561  1
  Co  Co20  1  0.72301343  0.75000000  0.67403136  1
  Co  Co21  1  0.77797562  0.25000000  0.84000862  1
  Co  Co22  1  0.78111593  0.25000000  0.50648237  1
  Co  Co23  1  0.78148141  0.25000000  0.17278734  1
  P  P24  1  0.09106107  0.25000000  0.80645906  1
  P  P25  1  0.09045313  0.25000000  0.13901357  1
  P  P26  1  0.09129933  0.25000000  0.47336442  1
  P  P27  1  0.40817646  0.75000000  0.30597350  1
  P  P28  1  0.40750021  0.75000000  0.63837835  1
  P  P29  1  0.40758123  0.75000000  0.97089607  1
  P  P30  1  0.59654461  0.25000000  0.36110741  1
  P  P31  1  0.59643327  0.25000000  0.02773448  1
  P  P32  1  0.59697604  0.25000000  0.69420905  1
  P  P33  1  0.90466939  0.75000000  0.86042742  1
  P  P34  1  0.90338634  0.75000000  0.19428845  1
  P  P35  1  0.90390803  0.75000000  0.52761480  1
  O  O36  1  0.04032432  0.75000000  0.23706316  1
  O  O37  1  0.04130253  0.75000000  0.56942913  1
  O  O38  1  0.04237805  0.75000000  0.90200069  1
  O  O39  1  0.09374716  0.25000000  0.58059416  1
  O  O40  1  0.09392239  0.25000000  0.91390562  1
  O  O41  1  0.09418073  0.25000000  0.24635085  1
  O  O42  1  0.16117150  0.04830960  0.09435723  1
  O  O43  1  0.16117150  0.45169040  0.09435723  1
  O  O44  1  0.16266073  0.04711653  0.42948792  1
  O  O45  1  0.16266073  0.45288347  0.42948792  1
  O  O46  1  0.16294766  0.04722593  0.76280167  1
  O  O47  1  0.16294766  0.45277407  0.76280167  1
  O  O48  1  0.33688516  0.54854386  0.59287543  1
  O  O49  1  0.33688516  0.95145614  0.59287543  1
  O  O50  1  0.33783369  0.54776239  0.26089367  1
  O  O51  1  0.33783369  0.95223761  0.26089367  1
  O  O52  1  0.33676722  0.54814559  0.92618552  1
  O  O53  1  0.33676722  0.95185441  0.92618552  1
  O  O54  1  0.40429780  0.75000000  0.41325879  1
  O  O55  1  0.40483485  0.75000000  0.07853108  1
  O  O56  1  0.40305447  0.75000000  0.74595109  1
  O  O57  1  0.45959753  0.25000000  0.40300755  1
  O  O58  1  0.45934929  0.25000000  0.06951704  1
  O  O59  1  0.45975369  0.25000000  0.73629125  1
  O  O60  1  0.54545061  0.75000000  0.26471031  1
  O  O61  1  0.54520002  0.75000000  0.93049919  1
  O  O62  1  0.54606413  0.75000000  0.59903612  1
  O  O63  1  0.59836351  0.25000000  0.25333771  1
  O  O64  1  0.59868316  0.25000000  0.92005453  1
  O  O65  1  0.59853016  0.25000000  0.58658983  1
  O  O66  1  0.66737979  0.04773815  0.07230267  1
  O  O67  1  0.66756188  0.04785668  0.40571622  1
  O  O68  1  0.66772564  0.04646997  0.73836229  1
  O  O69  1  0.66772564  0.45353003  0.73836229  1
  O  O70  1  0.66737979  0.45226185  0.07230267  1
  O  O71  1  0.66756188  0.45214332  0.40571622  1
  O  O72  1  0.83460320  0.54579967  0.90425901  1
  O  O73  1  0.83460320  0.95420033  0.90425901  1
  O  O74  1  0.83295222  0.54570425  0.23808174  1
  O  O75  1  0.83234887  0.54672010  0.57182339  1
  O  O76  1  0.83295222  0.95429575  0.23808174  1
  O  O77  1  0.83234887  0.95327990  0.57182339  1
  O  O78  1  0.90169213  0.75000000  0.75261771  1
  O  O79  1  0.90334286  0.75000000  0.42005809  1
  O  O80  1  0.90363717  0.75000000  0.08666093  1
  O  O81  1  0.95413364  0.25000000  0.76464014  1
  O  O82  1  0.95257836  0.25000000  0.09806167  1
  O  O83  1  0.95394690  0.25000000  0.43137707  1
