# generated using pymatgen
data_Li8Fe7P12WO48
_symmetry_space_group_name_H-M   'P 1'
_cell_length_a   8.67775607
_cell_length_b   8.79782355
_cell_length_c   12.20509688
_cell_angle_alpha   90.26566391
_cell_angle_beta   90.10214949
_cell_angle_gamma   90.05498595
_symmetry_Int_Tables_number   1
_chemical_formula_structural   Li8Fe7P12WO48
_chemical_formula_sum   'Li8 Fe7 P12 W1 O48'
_cell_volume   931.79066200
_cell_formula_units_Z   1
loop_
 _symmetry_equiv_pos_site_id
 _symmetry_equiv_pos_as_xyz
  1  'x, y, z'
loop_
 _atom_site_type_symbol
 _atom_site_label
 _atom_site_symmetry_multiplicity
 _atom_site_fract_x
 _atom_site_fract_y
 _atom_site_fract_z
 _atom_site_occupancy
  Li  Li0  1  0.21733359  0.72256295  0.18072107  1
  Li  Li1  1  0.21933301  0.77898112  0.81993094  1
  Li  Li2  1  0.28143934  0.22229093  0.31731498  1
  Li  Li3  1  0.28109837  0.27714320  0.68401785  1
  Li  Li4  1  0.71550864  0.72647815  0.31499308  1
  Li  Li5  1  0.71750676  0.78997334  0.68365242  1
  Li  Li6  1  0.78611069  0.22205896  0.17958033  1
  Li  Li7  1  0.78777855  0.27375940  0.82839204  1
  Fe  Fe8  1  0.24738117  0.96100199  0.61362970  1
  Fe  Fe9  1  0.24861393  0.54252995  0.38336485  1
  Fe  Fe10  1  0.25141940  0.04161504  0.11252914  1
  Fe  Fe11  1  0.25264385  0.45701276  0.89105904  1
  Fe  Fe12  1  0.74958387  0.54024492  0.11162903  1
  Fe  Fe13  1  0.74641220  0.96221278  0.89167748  1
  Fe  Fe14  1  0.74964484  0.03645908  0.38409758  1
  P  P15  1  0.04402848  0.24479267  0.49646609  1
  P  P16  1  0.10420992  0.39365431  0.14744034  1
  P  P17  1  0.10595737  0.10623173  0.85239134  1
  P  P18  1  0.38893283  0.60386216  0.64555159  1
  P  P19  1  0.39361410  0.89459112  0.35434414  1
  P  P20  1  0.46100322  0.74960746  0.00020337  1
  P  P21  1  0.54002979  0.25059485  0.00102971  1
  P  P22  1  0.60355493  0.39209014  0.34961974  1
  P  P23  1  0.60196593  0.10344504  0.64381249  1
  P  P24  1  0.89820947  0.61181239  0.85322945  1
  P  P25  1  0.89529686  0.89243690  0.14739099  1
  P  P26  1  0.96384351  0.75223945  0.49701683  1
  W  W27  1  0.75304096  0.46160258  0.61378693  1
  O  O28  1  0.05522213  0.63795189  0.43130153  1
  O  O29  1  0.05238064  0.85377667  0.57485962  1
  O  O30  1  0.07331513  0.89489091  0.15637911  1
  O  O31  1  0.07280044  0.60454658  0.83967821  1
  O  O32  1  0.14216763  0.16561104  0.58317262  1
  O  O33  1  0.14612368  0.34009870  0.42197887  1
  O  O34  1  0.15367880  0.43412945  0.03060122  1
  O  O35  1  0.15603758  0.06603508  0.96903125  1
  O  O36  1  0.16209958  0.23361675  0.18051366  1
  O  O37  1  0.16229182  0.26727344  0.81950211  1
  O  O38  1  0.17454751  0.51481145  0.22631511  1
  O  O39  1  0.17447015  0.98529207  0.77282855  1
  O  O40  1  0.32591830  0.01486124  0.27527865  1
  O  O41  1  0.32797042  0.48398616  0.72474015  1
  O  O42  1  0.34683054  0.76633596  0.68047839  1
  O  O43  1  0.33608919  0.73373678  0.32053553  1
  O  O44  1  0.34962054  0.56712424  0.52743343  1
  O  O45  1  0.34275527  0.93420226  0.47164694  1
  O  O46  1  0.35120566  0.83683354  0.07923154  1
  O  O47  1  0.35109179  0.66203343  0.92118275  1
  O  O48  1  0.42738211  0.11179510  0.65700268  1
  O  O49  1  0.42804544  0.39323769  0.34880669  1
  O  O50  1  0.44372441  0.14210455  0.07019385  1
  O  O51  1  0.44552552  0.35809423  0.92906839  1
  O  O52  1  0.55734495  0.64232116  0.07103590  1
  O  O53  1  0.55673946  0.85663510  0.92897491  1
  O  O54  1  0.57667354  0.59241534  0.65410641  1
  O  O55  1  0.57207024  0.89500944  0.34532371  1
  O  O56  1  0.64802884  0.33834525  0.08106129  1
  O  O57  1  0.64888528  0.16380262  0.92088690  1
  O  O58  1  0.65491101  0.07054756  0.52808647  1
  O  O59  1  0.65964660  0.42947598  0.47476092  1
  O  O60  1  0.66575984  0.23440494  0.32162958  1
  O  O61  1  0.66475622  0.27439322  0.67370638  1
  O  O62  1  0.67621060  0.51745295  0.28114144  1
  O  O63  1  0.67668618  0.99396486  0.72504463  1
  O  O64  1  0.82626719  0.01334902  0.22671155  1
  O  O65  1  0.82809551  0.48695405  0.76580258  1
  O  O66  1  0.83694157  0.73205800  0.17976472  1
  O  O67  1  0.83413571  0.76611993  0.81689744  1
  O  O68  1  0.84055807  0.55938599  0.96379426  1
  O  O69  1  0.84477715  0.93230296  0.03078221  1
  O  O70  1  0.84980752  0.65341089  0.57762245  1
  O  O71  1  0.84690342  0.83367022  0.42396888  1
  O  O72  1  0.92734411  0.10432140  0.84353116  1
  O  O73  1  0.92592665  0.39659413  0.15652962  1
  O  O74  1  0.94015395  0.14142119  0.43061519  1
  O  O75  1  0.93458552  0.35798020  0.56758900  1
