# generated using pymatgen
data_Li3MnFeCo(PO4)3
_symmetry_space_group_name_H-M   'P 1'
_cell_length_a   10.45943264
_cell_length_b   6.09162720
_cell_length_c   14.29242479
_cell_angle_alpha   90.00000000
_cell_angle_beta   89.96488841
_cell_angle_gamma   90.00000000
_symmetry_Int_Tables_number   1
_chemical_formula_structural   Li3MnFeCo(PO4)3
_chemical_formula_sum   'Li12 Mn4 Fe4 Co4 P12 O48'
_cell_volume   910.64116513
_cell_formula_units_Z   4
loop_
 _symmetry_equiv_pos_site_id
 _symmetry_equiv_pos_as_xyz
  1  'x, y, z'
loop_
 _atom_site_type_symbol
 _atom_site_label
 _atom_site_symmetry_multiplicity
 _atom_site_fract_x
 _atom_site_fract_y
 _atom_site_fract_z
 _atom_site_occupancy
  Li  Li0  1  0.99836561  0.50026064  0.66708527  1
  Li  Li1  1  0.99917021  0.99987142  0.99993998  1
  Li  Li2  1  0.99917021  0.50012858  0.99993998  1
  Li  Li3  1  0.99924405  0.00028923  0.33327361  1
  Li  Li4  1  0.99924405  0.49971077  0.33327361  1
  Li  Li5  1  0.99836561  0.99973936  0.66708527  1
  Li  Li6  1  0.50120319  0.99994444  0.50058993  1
  Li  Li7  1  0.50120319  0.50005556  0.50058993  1
  Li  Li8  1  0.50122717  0.00023053  0.16685224  1
  Li  Li9  1  0.50122717  0.49976947  0.16685224  1
  Li  Li10  1  0.50090643  0.99921218  0.83308025  1
  Li  Li11  1  0.50090643  0.50078782  0.83308025  1
  Mn  Mn12  1  0.21869734  0.75000000  0.15978190  1
  Mn  Mn13  1  0.21890790  0.75000000  0.49323243  1
  Mn  Mn14  1  0.28126740  0.25000000  0.65990807  1
  Mn  Mn15  1  0.28055806  0.25000000  0.99255978  1
  Fe  Fe16  1  0.21852578  0.75000000  0.82539818  1
  Fe  Fe17  1  0.28110003  0.25000000  0.32579040  1
  Fe  Fe18  1  0.71981712  0.75000000  0.00797521  1
  Fe  Fe19  1  0.71956092  0.75000000  0.34181824  1
  Co  Co20  1  0.72265034  0.75000000  0.67434129  1
  Co  Co21  1  0.77815304  0.25000000  0.84011174  1
  Co  Co22  1  0.78068662  0.25000000  0.50653988  1
  Co  Co23  1  0.78170271  0.25000000  0.17318494  1
  P  P24  1  0.09121980  0.25000000  0.80648986  1
  P  P25  1  0.09173956  0.25000000  0.13937206  1
  P  P26  1  0.09194581  0.25000000  0.47147853  1
  P  P27  1  0.40794881  0.75000000  0.30638974  1
  P  P28  1  0.40867023  0.75000000  0.63943482  1
  P  P29  1  0.40717538  0.75000000  0.97100318  1
  P  P30  1  0.59519512  0.25000000  0.36067883  1
  P  P31  1  0.59630011  0.25000000  0.02756186  1
  P  P32  1  0.59674253  0.25000000  0.69418144  1
  P  P33  1  0.90486733  0.75000000  0.86025563  1
  P  P34  1  0.90362725  0.75000000  0.19429633  1
  P  P35  1  0.90316940  0.75000000  0.52796053  1
  O  O36  1  0.04056311  0.75000000  0.23698569  1
  O  O37  1  0.04012191  0.75000000  0.57025517  1
  O  O38  1  0.04262136  0.75000000  0.90186852  1
  O  O39  1  0.09525890  0.25000000  0.57892910  1
  O  O40  1  0.09411891  0.25000000  0.91381574  1
  O  O41  1  0.09615125  0.25000000  0.24687967  1
  O  O42  1  0.16202329  0.04829682  0.09436184  1
  O  O43  1  0.16202329  0.45170318  0.09436184  1
  O  O44  1  0.16261968  0.04869968  0.42637322  1
  O  O45  1  0.16261968  0.45130032  0.42637322  1
  O  O46  1  0.16311021  0.04719061  0.76267764  1
  O  O47  1  0.16311021  0.45280939  0.76267764  1
  O  O48  1  0.33811041  0.54842892  0.59441136  1
  O  O49  1  0.33811041  0.95157108  0.59441136  1
  O  O50  1  0.33656841  0.54682209  0.26268619  1
  O  O51  1  0.33656841  0.95317791  0.26268619  1
  O  O52  1  0.33648023  0.54836155  0.92626295  1
  O  O53  1  0.33648023  0.95163845  0.92626295  1
  O  O54  1  0.40595356  0.75000000  0.41355619  1
  O  O55  1  0.40431300  0.75000000  0.07862385  1
  O  O56  1  0.40367974  0.75000000  0.74707501  1
  O  O57  1  0.45765136  0.25000000  0.40215800  1
  O  O58  1  0.45903334  0.25000000  0.06936657  1
  O  O59  1  0.45954601  0.25000000  0.73655801  1
  O  O60  1  0.54459086  0.75000000  0.26375571  1
  O  O61  1  0.54498967  0.75000000  0.93055947  1
  O  O62  1  0.54674289  0.75000000  0.59931250  1
  O  O63  1  0.59818310  0.25000000  0.25320411  1
  O  O64  1  0.59844317  0.25000000  0.91990529  1
  O  O65  1  0.59817072  0.25000000  0.58658991  1
  O  O66  1  0.66719598  0.04787191  0.07213214  1
  O  O67  1  0.66624609  0.04796942  0.40569234  1
  O  O68  1  0.66762057  0.04667713  0.73835755  1
  O  O69  1  0.66762057  0.45332287  0.73835755  1
  O  O70  1  0.66719598  0.45212809  0.07213214  1
  O  O71  1  0.66624609  0.45203058  0.40569234  1
  O  O72  1  0.83472770  0.54590175  0.90425590  1
  O  O73  1  0.83472770  0.95409825  0.90425590  1
  O  O74  1  0.83294187  0.54593381  0.23817400  1
  O  O75  1  0.83170065  0.54653194  0.57192860  1
  O  O76  1  0.83294187  0.95406619  0.23817400  1
  O  O77  1  0.83170065  0.95346806  0.57192860  1
  O  O78  1  0.90216048  0.75000000  0.75257860  1
  O  O79  1  0.90331477  0.75000000  0.42037212  1
  O  O80  1  0.90382939  0.75000000  0.08667066  1
  O  O81  1  0.95433153  0.25000000  0.76456217  1
  O  O82  1  0.95371428  0.25000000  0.09889829  1
  O  O83  1  0.95336959  0.25000000  0.43150878  1
