# generated using pymatgen
data_Li8V3P8O29
_symmetry_space_group_name_H-M   'P 1'
_cell_length_a   9.89413080
_cell_length_b   9.87846312
_cell_length_c   13.82235495
_cell_angle_alpha   89.65672853
_cell_angle_beta   89.69042915
_cell_angle_gamma   60.11365665
_symmetry_Int_Tables_number   1
_chemical_formula_structural   Li8V3P8O29
_chemical_formula_sum   'Li16 V6 P16 O58'
_cell_volume   1171.29548862
_cell_formula_units_Z   2
loop_
 _symmetry_equiv_pos_site_id
 _symmetry_equiv_pos_as_xyz
  1  'x, y, z'
loop_
 _atom_site_type_symbol
 _atom_site_label
 _atom_site_symmetry_multiplicity
 _atom_site_fract_x
 _atom_site_fract_y
 _atom_site_fract_z
 _atom_site_occupancy
  Li  Li0  1  0.90940443  0.77656659  0.06121015  1
  Li  Li1  1  0.76764767  0.90363998  0.56631780  1
  Li  Li2  1  0.90395293  0.33020139  0.56569800  1
  Li  Li3  1  0.66932731  0.66895474  0.38245936  1
  Li  Li4  1  0.66786513  0.66995266  0.88032107  1
  Li  Li5  1  0.77571879  0.31618712  0.05962143  1
  Li  Li6  1  0.31767481  0.90867382  0.06101363  1
  Li  Li7  1  0.66233251  0.23480090  0.44070699  1
  Li  Li8  1  0.32968935  0.76630549  0.56493678  1
  Li  Li9  1  0.68193806  0.09298688  0.93596297  1
  Li  Li10  1  0.22245260  0.68663977  0.93843426  1
  Li  Li11  1  0.33065630  0.33163524  0.11733274  1
  Li  Li12  1  0.10189021  0.66241831  0.43909765  1
  Li  Li13  1  0.23420689  0.10008065  0.43879841  1
  Li  Li14  1  0.09194077  0.22341543  0.93634659  1
  Li  Li15  1  0.00152621  0.99774890  0.50418628  1
  V  V16  1  0.56552210  0.43271987  0.25005716  1
  V  V17  1  0.43406465  0.56326553  0.74961458  1
  V  V18  1  0.56614048  0.99975176  0.74887434  1
  V  V19  1  0.43311610  0.00035614  0.24994441  1
  V  V20  1  0.00082096  0.56643441  0.24941710  1
  V  V21  1  0.00042681  0.43263532  0.74914299  1
  P  P22  1  0.90972876  0.76954137  0.84305812  1
  P  P23  1  0.77299491  0.91094233  0.34465510  1
  P  P24  1  0.90861363  0.31659473  0.34362990  1
  P  P25  1  0.66535172  0.66637299  0.12476156  1
  P  P26  1  0.66471391  0.66406364  0.62394160  1
  P  P27  1  0.76831458  0.32075645  0.84272314  1
  P  P28  1  0.68577131  0.22903278  0.65696248  1
  P  P29  1  0.32105767  0.90734325  0.84256041  1
  P  P30  1  0.67824348  0.09169098  0.15651526  1
  P  P31  1  0.31650162  0.77068295  0.34349751  1
  P  P32  1  0.23332378  0.67931907  0.15639677  1
  P  P33  1  0.33299848  0.33521909  0.37561842  1
  P  P34  1  0.33621841  0.33251624  0.87561530  1
  P  P35  1  0.08752707  0.68627370  0.65685031  1
  P  P36  1  0.22832890  0.08611506  0.65627883  1
  P  P37  1  0.08937064  0.23154996  0.15565877  1
  O  O38  1  0.00070944  0.78330870  0.56780118  1
  O  O39  1  0.92266453  0.75079002  0.34401633  1
  O  O40  1  0.75925471  0.99915998  0.06767884  1
  O  O41  1  0.75112953  0.92076699  0.84436873  1
  O  O42  1  0.88276666  0.63038124  0.82594494  1
  O  O43  1  0.81199203  0.66929519  0.16265359  1
  O  O44  1  0.88899261  0.48092919  0.33491554  1
  O  O45  1  0.99462284  0.24853778  0.06697572  1
  O  O46  1  0.91733539  0.33182642  0.84568724  1
  O  O47  1  0.67442328  0.80810237  0.65965102  1
  O  O48  1  0.62938462  0.89003918  0.33434346  1
  O  O49  1  0.80779838  0.51018769  0.65946777  1
  O  O50  1  0.66638612  0.65663323  0.01625143  1
  O  O51  1  0.65138277  0.66617131  0.51482177  1
  O  O52  1  0.66561213  0.51519272  0.16908730  1
  O  O53  1  0.48691093  0.88157665  0.82817642  1
  O  O54  1  0.51466111  0.81093126  0.16324081  1
  O  O55  1  0.74674592  0.32904507  0.34270117  1
  O  O56  1  0.78955195  0.21193815  0.75098423  1
  O  O57  1  0.77552595  0.22976510  0.56700715  1
  O  O58  1  0.74744743  0.24654098  0.93269404  1
  O  O59  1  0.62622659  0.48647139  0.82457988  1
  O  O60  1  0.51069111  0.67196778  0.66735801  1
  O  O61  1  0.66963320  0.25230808  0.15693450  1
  O  O62  1  0.47945299  0.62323286  0.33097970  1
  O  O63  1  0.33249441  0.91718330  0.34542213  1
  O  O64  1  0.78224466  0.00193068  0.24993047  1
  O  O65  1  0.77020041  0.00391190  0.43283070  1
  O  O66  1  0.22407882  0.99692220  0.56703575  1
  O  O67  1  0.66922593  0.08323038  0.65628551  1
  O  O68  1  0.52945818  0.38064227  0.66896768  1
  O  O69  1  0.33115192  0.74617578  0.84329758  1
  O  O70  1  0.48662668  0.33101616  0.32956630  1
  O  O71  1  0.37481779  0.51349731  0.17460435  1
  O  O72  1  0.25466421  0.75355675  0.06696009  1
  O  O73  1  0.22901047  0.76509028  0.43258551  1
  O  O74  1  0.21537166  0.78607529  0.24916514  1
  O  O75  1  0.25144198  0.66869513  0.65869196  1
  O  O76  1  0.48714086  0.18745735  0.83899369  1
  O  O77  1  0.51218022  0.11769143  0.17078013  1
  O  O78  1  0.33570280  0.48394684  0.83038742  1
  O  O79  1  0.33733299  0.34695682  0.98422669  1
  O  O80  1  0.34656275  0.33496947  0.48310159  1
  O  O81  1  0.19024478  0.48744230  0.33601560  1
  O  O82  1  0.37656562  0.09459648  0.66703686  1
  O  O83  1  0.32696788  0.18993311  0.33699743  1
  O  O84  1  0.08355721  0.66966285  0.15408332  1
  O  O85  1  0.00019831  0.78907975  0.75121246  1
  O  O86  1  0.00466227  0.75088512  0.93244638  1
  O  O87  1  0.09191328  0.53108606  0.66553180  1
  O  O88  1  0.18830551  0.33118064  0.84056282  1
  O  O89  1  0.11674482  0.37087508  0.17129614  1
  O  O90  1  0.24715902  0.07914966  0.15586709  1
  O  O91  1  0.24115587  0.00063096  0.93195232  1
  O  O92  1  0.21370175  0.99586238  0.75054508  1
  O  O93  1  0.07981928  0.24712039  0.65805886  1
  O  O94  1  0.99980562  0.22360930  0.43180393  1
  O  O95  1  0.99713790  0.21814976  0.24905824  1
