# generated using pymatgen
data_Li3Ti7O14
_symmetry_space_group_name_H-M   'P 1'
_cell_length_a   13.37758582
_cell_length_b   8.45666762
_cell_length_c   10.36027390
_cell_angle_alpha   114.08738940
_cell_angle_beta   97.42977114
_cell_angle_gamma   90.00000000
_symmetry_Int_Tables_number   1
_chemical_formula_structural   Li3Ti7O14
_chemical_formula_sum   'Li12 Ti28 O56'
_cell_volume   1059.20960502
_cell_formula_units_Z   4
loop_
 _symmetry_equiv_pos_site_id
 _symmetry_equiv_pos_as_xyz
  1  'x, y, z'
loop_
 _atom_site_type_symbol
 _atom_site_label
 _atom_site_symmetry_multiplicity
 _atom_site_fract_x
 _atom_site_fract_y
 _atom_site_fract_z
 _atom_site_occupancy
  Li  Li0  1  0.03670045  0.05474465  0.85792171  1
  Li  Li1  1  0.10687445  0.66072546  0.57146962  1
  Li  Li2  1  0.32111127  0.48209746  0.71545223  1
  Li  Li3  1  0.17888873  0.76664523  0.28454777  1
  Li  Li4  1  0.53670045  0.80317706  0.85792171  1
  Li  Li5  1  0.39312555  0.08925584  0.42853038  1
  Li  Li6  1  0.60687445  0.91074416  0.57146962  1
  Li  Li7  1  0.46329955  0.19682294  0.14207829  1
  Li  Li8  1  0.82111127  0.23335477  0.71545223  1
  Li  Li9  1  0.67888873  0.51790254  0.28454777  1
  Li  Li10  1  0.89312555  0.33927454  0.42853038  1
  Li  Li11  1  0.96329955  0.94525535  0.14207829  1
  Ti  Ti12  1  0.14373125  0.71039131  0.92854862  1
  Ti  Ti13  1  0.07285889  0.35876866  0.71700744  1
  Ti  Ti14  1  0.00000000  -0.00000000  0.50000000  1
  Ti  Ti15  1  0.21504110  0.07262939  0.64487238  1
  Ti  Ti16  1  0.28541100  0.93264633  0.85865579  1
  Ti  Ti17  1  0.14236664  0.21295950  0.42756955  1
  Ti  Ti18  1  0.00000000  0.50000000  -0.00000000  1
  Ti  Ti19  1  0.07270752  0.35708547  0.21274512  1
  Ti  Ti20  1  0.42729248  0.14434134  0.78725488  1
  Ti  Ti21  1  0.35763336  0.78538995  0.57243045  1
  Ti  Ti22  1  0.21458900  0.07399054  0.14134421  1
  Ti  Ti23  1  0.28495890  0.42775701  0.35512762  1
  Ti  Ti24  1  0.50000000  0.50000000  0.50000000  1
  Ti  Ti25  1  0.57285889  0.35823878  0.71700744  1
  Ti  Ti26  1  0.42714111  0.64176122  0.28299256  1
  Ti  Ti27  1  0.35626875  0.78184269  0.07145138  1
  Ti  Ti28  1  0.64373125  0.21815731  0.92854862  1
  Ti  Ti29  1  0.78541100  0.92600946  0.85865579  1
  Ti  Ti30  1  0.71504110  0.57224299  0.64487238  1
  Ti  Ti31  1  0.64236664  0.21461005  0.42756955  1
  Ti  Ti32  1  0.57270752  0.85565866  0.21274512  1
  Ti  Ti33  1  0.50000000  0.50000000  -0.00000000  1
  Ti  Ti34  1  0.71458900  0.06735367  0.14134421  1
  Ti  Ti35  1  0.85763336  0.78704050  0.57243045  1
  Ti  Ti36  1  0.78495890  0.92737061  0.35512762  1
  Ti  Ti37  1  0.92729248  0.64291453  0.78725488  1
  Ti  Ti38  1  0.92714111  0.64123134  0.28299256  1
  Ti  Ti39  1  0.85626875  0.28960869  0.07145138  1
  O  O40  1  0.00389482  0.73091756  0.98575331  1
  O  O41  1  0.06770302  0.60178826  0.72842685  1
  O  O42  1  0.12933988  0.47572478  0.91977301  1
  O  O43  1  0.15357018  0.95423568  0.93547079  1
  O  O44  1  0.01093911  0.24057113  0.50713183  1
  O  O45  1  0.07495178  0.11239309  0.69953961  1
  O  O46  1  0.20337821  0.30499075  0.63525034  1
  O  O47  1  0.28206099  0.69904528  0.87144553  1
  O  O48  1  0.13910242  0.98386020  0.44278635  1
  O  O49  1  0.06068212  0.59141025  0.20799589  1
  O  O50  1  0.14644318  0.44437224  0.41476304  1
  O  O51  1  0.08184650  0.12280748  0.22129244  1
  O  O52  1  0.29027267  0.15383918  0.83942368  1
  O  O53  1  0.22498441  0.83720587  0.64961795  1
  O  O54  1  0.41815350  0.90151504  0.77870756  1
  O  O55  1  0.27501559  0.18758692  0.35038205  1
  O  O56  1  0.20972733  0.31441550  0.16057632  1
  O  O57  1  0.35355682  0.02960921  0.58523696  1
  O  O58  1  0.29662179  0.66974042  0.36474966  1
  O  O59  1  0.43931788  0.38341436  0.79200411  1
  O  O60  1  0.36089758  0.54107386  0.55721365  1
  O  O61  1  0.50389482  0.25483575  0.98575331  1
  O  O62  1  0.21793901  0.82759975  0.12855447  1
  O  O63  1  0.62933988  0.44404923  0.91977301  1
  O  O64  1  0.48906089  0.73343929  0.49286817  1
  O  O65  1  0.34642982  0.01876489  0.06452921  1
  O  O66  1  0.56770302  0.12663859  0.72842685  1
  O  O67  1  0.42504822  0.41285249  0.30046039  1
  O  O68  1  0.57495178  0.58714751  0.69953961  1
  O  O69  1  0.37066012  0.55595077  0.08022699  1
  O  O70  1  0.65357018  0.98123511  0.93547079  1
  O  O71  1  0.43229698  0.87336141  0.27157315  1
  O  O72  1  0.51093911  0.26656071  0.50713183  1
  O  O73  1  0.78206099  0.17240025  0.87144553  1
  O  O74  1  0.70337821  0.33025958  0.63525034  1
  O  O75  1  0.63910242  0.45892614  0.44278635  1
  O  O76  1  0.49610518  0.74516425  0.01424669  1
  O  O77  1  0.56068212  0.61658564  0.20799589  1
  O  O78  1  0.64644318  0.97039079  0.41476304  1
  O  O79  1  0.79027267  0.68558450  0.83942368  1
  O  O80  1  0.72498441  0.81241308  0.64961795  1
  O  O81  1  0.58184650  0.09848496  0.22129244  1
  O  O82  1  0.91815350  0.87719252  0.77870756  1
  O  O83  1  0.85355682  0.55562776  0.58523696  1
  O  O84  1  0.70972733  0.84616082  0.16057632  1
  O  O85  1  0.77501559  0.16279413  0.35038205  1
  O  O86  1  0.93931788  0.40858975  0.79200411  1
  O  O87  1  0.86089758  0.01613980  0.55721365  1
  O  O88  1  0.79662179  0.69500925  0.36474966  1
  O  O89  1  0.71793901  0.30095472  0.12855447  1
  O  O90  1  0.98906089  0.75942887  0.49286817  1
  O  O91  1  0.92504822  0.88760691  0.30046039  1
  O  O92  1  0.84642982  0.04576432  0.06452921  1
  O  O93  1  0.93229698  0.39821174  0.27157315  1
  O  O94  1  0.87066012  0.52427522  0.08022699  1
  O  O95  1  0.99610518  0.26908244  0.01424669  1
