# generated using pymatgen
data_LiCoPO4
_symmetry_space_group_name_H-M   'P 1'
_cell_length_a   4.93484644
_cell_length_b   8.68724189
_cell_length_c   4.93484644
_cell_angle_alpha   108.00226474
_cell_angle_beta   61.88690754
_cell_angle_gamma   90.49697892
_symmetry_Int_Tables_number   1
_chemical_formula_structural   LiCoPO4
_chemical_formula_sum   'Li2 Co2 P2 O8'
_cell_volume   175.08178479
_cell_formula_units_Z   2
loop_
 _symmetry_equiv_pos_site_id
 _symmetry_equiv_pos_as_xyz
  1  'x, y, z'
loop_
 _atom_site_type_symbol
 _atom_site_label
 _atom_site_symmetry_multiplicity
 _atom_site_fract_x
 _atom_site_fract_y
 _atom_site_fract_z
 _atom_site_occupancy
  Li  Li0  1  0.55974484  0.50339943  0.94521481  1
  Li  Li1  1  0.94181538  0.00339943  0.06314427  1
  Co  Co2  1  0.20526438  0.25086818  0.54383042  1
  Co  Co3  1  0.79296224  0.75086818  0.45613256  1
  P  P4  1  0.58408078  0.12636092  0.79301602  1
  P  P5  1  0.16665510  0.62636092  0.71044170  1
  O  O6  1  0.25475270  0.15625097  0.09520133  1
  O  O7  1  0.54405153  0.09734443  0.48688801  1
  O  O8  1  0.74744432  0.27752941  0.84920715  1
  O  O9  1  0.25972796  0.47334666  0.76899676  1
  O  O10  1  0.43895036  0.65625097  0.41100367  1
  O  O11  1  0.88954358  0.59734443  0.64139496  1
  O  O12  1  0.07167675  0.77752941  0.02497372  1
  O  O13  1  0.79565009  0.97334666  0.73307462  1
