# generated using pymatgen
data_KCuF3
_symmetry_space_group_name_H-M   'P 1'
_cell_length_a   8.13280049
_cell_length_b   8.29785207
_cell_length_c   8.19237646
_cell_angle_alpha   90.00000000
_cell_angle_beta   90.00000000
_cell_angle_gamma   90.00000000
_symmetry_Int_Tables_number   1
_chemical_formula_structural   KCuF3
_chemical_formula_sum   'K8 Cu8 F24'
_cell_volume   552.86068524
_cell_formula_units_Z   8
loop_
 _symmetry_equiv_pos_site_id
 _symmetry_equiv_pos_as_xyz
  1  'x, y, z'
loop_
 _atom_site_type_symbol
 _atom_site_label
 _atom_site_symmetry_multiplicity
 _atom_site_fract_x
 _atom_site_fract_y
 _atom_site_fract_z
 _atom_site_occupancy
  K  K0  1  0.24949551  0.25026522  0.25016702  1
  K  K1  1  0.25050449  0.74973478  0.75016702  1
  K  K2  1  0.25050449  0.75026522  0.25016702  1
  K  K3  1  0.74949551  0.25026522  0.24983298  1
  K  K4  1  0.75050449  0.75026522  0.24983298  1
  K  K5  1  0.24949551  0.24973478  0.75016702  1
  K  K6  1  0.74949551  0.24973478  0.74983298  1
  K  K7  1  0.75050449  0.74973478  0.74983298  1
  Cu  Cu8  1  0.50000000  -0.00000000  0.50000000  1
  Cu  Cu9  1  0.00000000  -0.00000000  0.50000000  1
  Cu  Cu10  1  0.50000000  0.50000000  0.50000000  1
  Cu  Cu11  1  0.00000000  -0.00000000  -0.00000000  1
  Cu  Cu12  1  0.50000000  0.50000000  -0.00000000  1
  Cu  Cu13  1  0.50000000  -0.00000000  -0.00000000  1
  Cu  Cu14  1  0.00000000  0.50000000  -0.00000000  1
  Cu  Cu15  1  0.00000000  0.50000000  0.50000000  1
  F  F16  1  0.49869416  0.49997103  0.25903686  1
  F  F17  1  0.25553577  0.00129615  0.00030300  1
  F  F18  1  0.00173296  0.76568546  -0.00004728  1
  F  F19  1  0.74446423  0.50129615  0.49969700  1
  F  F20  1  0.49869416  0.00002897  0.75903686  1
  F  F21  1  0.49826704  0.26568546  -0.00004728  1
  F  F22  1  0.74446423  0.99870385  -0.00030300  1
  F  F23  1  0.99826704  0.26568546  0.50004728  1
  F  F24  1  0.75553577  0.00129615  0.49969700  1
  F  F25  1  0.25553577  0.49870385  0.50030300  1
  F  F26  1  0.49826704  0.23431454  0.49995272  1
  F  F27  1  0.24446423  0.50129615  0.00030300  1
  F  F28  1  0.00130584  0.50002897  0.75903686  1
  F  F29  1  0.50173296  0.76568546  0.50004728  1
  F  F30  1  0.99826704  0.23431454  0.00004728  1
  F  F31  1  0.00173296  0.73431454  0.49995272  1
  F  F32  1  0.24446423  0.99870385  0.50030300  1
  F  F33  1  0.99869416  0.00002897  0.74096314  1
  F  F34  1  0.50173296  0.73431454  0.00004728  1
  F  F35  1  0.50130584  0.50002897  0.74096314  1
  F  F36  1  0.75553577  0.49870385  -0.00030300  1
  F  F37  1  0.00130584  0.99997103  0.25903686  1
  F  F38  1  0.50130584  0.99997103  0.24096314  1
  F  F39  1  0.99869416  0.49997103  0.24096314  1
