# generated using pymatgen
data_Li3MnFeCo(PO4)3
_symmetry_space_group_name_H-M   'P 1'
_cell_length_a   10.45662912
_cell_length_b   6.09064157
_cell_length_c   14.29854834
_cell_angle_alpha   90.00000000
_cell_angle_beta   89.93345655
_cell_angle_gamma   90.00000000
_symmetry_Int_Tables_number   1
_chemical_formula_structural   Li3MnFeCo(PO4)3
_chemical_formula_sum   'Li12 Mn4 Fe4 Co4 P12 O48'
_cell_volume   910.63932705
_cell_formula_units_Z   4
loop_
 _symmetry_equiv_pos_site_id
 _symmetry_equiv_pos_as_xyz
  1  'x, y, z'
loop_
 _atom_site_type_symbol
 _atom_site_label
 _atom_site_symmetry_multiplicity
 _atom_site_fract_x
 _atom_site_fract_y
 _atom_site_fract_z
 _atom_site_occupancy
  Li  Li0  1  0.99812853  0.49988964  0.66726675  1
  Li  Li1  1  0.00052262  0.99979109  0.99965864  1
  Li  Li2  1  0.00052262  0.50020891  0.99965864  1
  Li  Li3  1  0.99872393  0.00035771  0.33320628  1
  Li  Li4  1  0.99872393  0.49964229  0.33320628  1
  Li  Li5  1  0.99812853  0.00011036  0.66726675  1
  Li  Li6  1  0.50206277  0.99989434  0.50068740  1
  Li  Li7  1  0.50206277  0.50010566  0.50068740  1
  Li  Li8  1  0.50100825  0.00067280  0.16684499  1
  Li  Li9  1  0.50100825  0.49932720  0.16684499  1
  Li  Li10  1  0.50041748  0.99916432  0.83295658  1
  Li  Li11  1  0.50041748  0.50083568  0.83295658  1
  Mn  Mn12  1  0.21897879  0.75000000  0.49358002  1
  Mn  Mn13  1  0.28120894  0.25000000  0.66041912  1
  Mn  Mn14  1  0.28065568  0.25000000  0.32611202  1
  Mn  Mn15  1  0.71966913  0.75000000  0.00685488  1
  Fe  Fe16  1  0.21836134  0.75000000  0.15943641  1
  Fe  Fe17  1  0.21827944  0.75000000  0.82523203  1
  Fe  Fe18  1  0.28041341  0.25000000  0.99183782  1
  Fe  Fe19  1  0.71991887  0.75000000  0.34154461  1
  Co  Co20  1  0.72364126  0.75000000  0.67440742  1
  Co  Co21  1  0.77763920  0.25000000  0.83984593  1
  Co  Co22  1  0.78080252  0.25000000  0.50647626  1
  Co  Co23  1  0.78165084  0.25000000  0.17267472  1
  P  P24  1  0.09155452  0.25000000  0.80734996  1
  P  P25  1  0.09218434  0.25000000  0.13827304  1
  P  P26  1  0.09012982  0.25000000  0.47240357  1
  P  P27  1  0.40801392  0.75000000  0.30431404  1
  P  P28  1  0.40940952  0.75000000  0.63964067  1
  P  P29  1  0.40373473  0.75000000  0.97242027  1
  P  P30  1  0.59670871  0.25000000  0.36094703  1
  P  P31  1  0.59484035  0.25000000  0.02851713  1
  P  P32  1  0.59701901  0.25000000  0.69419336  1
  P  P33  1  0.90604191  0.75000000  0.85933525  1
  P  P34  1  0.90572419  0.75000000  0.19457465  1
  P  P35  1  0.90283586  0.75000000  0.52803634  1
  O  O36  1  0.04325924  0.75000000  0.23623771  1
  O  O37  1  0.03985976  0.75000000  0.57063726  1
  O  O38  1  0.04333415  0.75000000  0.90116740  1
  O  O39  1  0.09385685  0.25000000  0.57988448  1
  O  O40  1  0.09530682  0.25000000  0.91476939  1
  O  O41  1  0.09505813  0.25000000  0.24562519  1
  O  O42  1  0.16301028  0.04688664  0.09403873  1
  O  O43  1  0.16301028  0.45311336  0.09403873  1
  O  O44  1  0.16062753  0.04814221  0.42761865  1
  O  O45  1  0.16062753  0.45185779  0.42761865  1
  O  O46  1  0.16278029  0.04729025  0.76284903  1
  O  O47  1  0.16278029  0.45270975  0.76284903  1
  O  O48  1  0.33912382  0.54816454  0.59431860  1
  O  O49  1  0.33912382  0.95183546  0.59431860  1
  O  O50  1  0.33752504  0.54822623  0.25955660  1
  O  O51  1  0.33752504  0.95177377  0.25955660  1
  O  O52  1  0.33368044  0.54668924  0.92789511  1
  O  O53  1  0.33368044  0.95331076  0.92789511  1
  O  O54  1  0.40501245  0.75000000  0.41194163  1
  O  O55  1  0.40163441  0.75000000  0.07979204  1
  O  O56  1  0.40355435  0.75000000  0.74716305  1
  O  O57  1  0.45939233  0.25000000  0.40299859  1
  O  O58  1  0.45615939  0.25000000  0.06803584  1
  O  O59  1  0.45972577  0.25000000  0.73659097  1
  O  O60  1  0.54603354  0.75000000  0.26344419  1
  O  O61  1  0.54130877  0.75000000  0.93075785  1
  O  O62  1  0.54775254  0.75000000  0.59968161  1
  O  O63  1  0.59901195  0.25000000  0.25341708  1
  O  O64  1  0.59999160  0.25000000  0.92074562  1
  O  O65  1  0.59886432  0.25000000  0.58656355  1
  O  O66  1  0.66491336  0.04915304  0.07445351  1
  O  O67  1  0.66762531  0.04782599  0.40565398  1
  O  O68  1  0.66760969  0.04649334  0.73849462  1
  O  O69  1  0.66760969  0.45350666  0.73849462  1
  O  O70  1  0.66491336  0.45084696  0.07445351  1
  O  O71  1  0.66762531  0.45217401  0.40565398  1
  O  O72  1  0.83605400  0.54556733  0.90307319  1
  O  O73  1  0.83605400  0.95443267  0.90307319  1
  O  O74  1  0.83508853  0.54587279  0.23857931  1
  O  O75  1  0.83130251  0.54653136  0.57199430  1
  O  O76  1  0.83508853  0.95412721  0.23857931  1
  O  O77  1  0.83130251  0.95346864  0.57199430  1
  O  O78  1  0.90270597  0.75000000  0.75158392  1
  O  O79  1  0.90321299  0.75000000  0.42048432  1
  O  O80  1  0.90470932  0.75000000  0.08689349  1
  O  O81  1  0.95420059  0.25000000  0.76581047  1
  O  O82  1  0.95407124  0.25000000  0.09748644  1
  O  O83  1  0.95215943  0.25000000  0.43156883  1
