# generated using pymatgen
data_Rb2V3O8
_symmetry_space_group_name_H-M   'P 1'
_cell_length_a   5.70252069
_cell_length_b   9.07729997
_cell_length_c   9.07729997
_cell_angle_alpha   90.00000000
_cell_angle_beta   90.00000000
_cell_angle_gamma   90.00000000
_symmetry_Int_Tables_number   1
_chemical_formula_structural   Rb2V3O8
_chemical_formula_sum   'Rb4 V6 O16'
_cell_volume   469.87273429
_cell_formula_units_Z   2
loop_
 _symmetry_equiv_pos_site_id
 _symmetry_equiv_pos_as_xyz
  1  'x, y, z'
loop_
 _atom_site_type_symbol
 _atom_site_label
 _atom_site_symmetry_multiplicity
 _atom_site_fract_x
 _atom_site_fract_y
 _atom_site_fract_z
 _atom_site_occupancy
  Rb  Rb0  1  0.01365709  0.66728664  0.16728564  1
  Rb  Rb1  1  0.01365709  0.83271436  0.66728664  1
  Rb  Rb2  1  0.01365709  0.16728564  0.33271336  1
  Rb  Rb3  1  0.01365709  0.33271336  0.83271436  1
  V  V4  1  0.52862128  0.86567957  0.36568057  1
  V  V5  1  0.52862128  0.63431943  0.86567957  1
  V  V6  1  0.52862128  0.36568057  0.13432043  1
  V  V7  1  0.52862128  0.13432043  0.63431943  1
  V  V8  1  0.72145012  0.49999900  0.49999900  1
  V  V9  1  0.72145012  -0.00000000  0.00000000  1
  O  O10  1  0.01077714  0.49999900  0.49999900  1
  O  O11  1  0.01077714  -0.00000000  0.00000000  1
  O  O12  1  0.63941192  0.08304912  0.80548753  1
  O  O13  1  0.63941192  0.91695088  0.19451247  1
  O  O14  1  0.63941192  0.80548753  0.91695088  1
  O  O15  1  0.63941192  0.19451247  0.08304912  1
  O  O16  1  0.63941192  0.69451247  0.41695088  1
  O  O17  1  0.63941192  0.58304912  0.69451247  1
  O  O18  1  0.63941192  0.41695088  0.30548753  1
  O  O19  1  0.63941192  0.30548753  0.58304912  1
  O  O20  1  0.63676199  -0.00000000  0.49999900  1
  O  O21  1  0.63676199  0.49999900  0.00000000  1
  O  O22  1  0.23555416  0.13199660  0.63199560  1
  O  O23  1  0.23555416  0.86800340  0.36800440  1
  O  O24  1  0.23555416  0.63199560  0.86800340  1
  O  O25  1  0.23555416  0.36800440  0.13199660  1
