# generated using pymatgen
data_P2W2O11
_symmetry_space_group_name_H-M   'P 1'
_cell_length_a   7.98274480
_cell_length_b   8.00027599
_cell_length_c   12.73926177
_cell_angle_alpha   90.00000000
_cell_angle_beta   90.00000000
_cell_angle_gamma   92.26119989
_symmetry_Int_Tables_number   1
_chemical_formula_structural   P2W2O11
_chemical_formula_sum   'P8 W8 O44'
_cell_volume   812.94876986
_cell_formula_units_Z   4
loop_
 _symmetry_equiv_pos_site_id
 _symmetry_equiv_pos_as_xyz
  1  'x, y, z'
loop_
 _atom_site_type_symbol
 _atom_site_label
 _atom_site_symmetry_multiplicity
 _atom_site_fract_x
 _atom_site_fract_y
 _atom_site_fract_z
 _atom_site_occupancy
  P  P0  1  0.25360398  0.10574275  0.50058256  1
  P  P1  1  0.25060540  0.61783178  0.75545042  1
  P  P2  1  0.25102081  0.61209458  0.24809870  1
  P  P3  1  0.07155806  0.34410969  0.00130119  1
  P  P4  1  0.74897919  0.38790542  0.74809870  1
  P  P5  1  0.74939460  0.38216822  0.25545042  1
  P  P6  1  0.74639602  0.89425725  0.00058256  1
  P  P7  1  0.92844194  0.65589031  0.50130119  1
  W  W8  1  0.85134394  0.80918451  0.74965496  1
  W  W9  1  0.15179853  0.19442529  0.75436440  1
  W  W10  1  0.36129320  0.69049701  0.00194718  1
  W  W11  1  0.36251759  0.69361338  0.50143214  1
  W  W12  1  0.63748241  0.30638662  0.00143214  1
  W  W13  1  0.84820147  0.80557471  0.25436440  1
  W  W14  1  0.14865606  0.19081549  0.24965496  1
  W  W15  1  0.63870680  0.30950299  0.50194718  1
  O  O16  1  0.25739026  0.41900647  0.25772689  1
  O  O17  1  0.89558811  0.40923678  0.00053513  1
  O  O18  1  0.55669418  0.51703597  0.00277720  1
  O  O19  1  0.99964833  0.99736865  0.25254617  1
  O  O20  1  0.82730569  0.81941879  0.09929283  1
  O  O21  1  0.25732397  0.42460938  0.74533839  1
  O  O22  1  0.37162941  0.66784147  0.84762369  1
  O  O23  1  0.66606455  0.30857617  0.84627882  1
  O  O24  1  0.00035167  0.00263135  0.75254617  1
  O  O25  1  0.07561028  0.66860728  0.22731429  1
  O  O26  1  0.32739435  0.69966457  0.65627833  1
  O  O27  1  0.20890071  0.83893734  0.00511883  1
  O  O28  1  0.79544251  0.50943706  0.49974778  1
  O  O29  1  0.62850578  0.33871956  0.65542809  1
  O  O30  1  0.33091521  0.08679878  0.22676718  1
  O  O31  1  0.77257308  0.08357638  0.99649557  1
  O  O32  1  0.66908479  0.91320122  0.72676718  1
  O  O33  1  0.44330582  0.48296403  0.50277720  1
  O  O34  1  0.10164844  0.23514150  0.09953328  1
  O  O35  1  0.10441189  0.59076322  0.50053513  1
  O  O36  1  0.44538262  0.15100149  0.50117718  1
  O  O37  1  0.22742692  0.91642362  0.49649557  1
  O  O38  1  0.92433220  0.32592472  0.27766369  1
  O  O39  1  0.74267603  0.57539062  0.24533839  1
  O  O40  1  0.37149422  0.66128044  0.15542809  1
  O  O41  1  0.55461738  0.84899851  0.00117718  1
  O  O42  1  0.79109929  0.16106266  0.50511883  1
  O  O43  1  0.33480061  0.09339215  0.77958849  1
  O  O44  1  0.83134855  0.81189995  0.90571309  1
  O  O45  1  0.20455749  0.49056294  0.99974778  1
  O  O46  1  0.89784816  0.76528031  0.40346204  1
  O  O47  1  0.62837059  0.33215853  0.34762369  1
  O  O48  1  0.44995080  0.18927047  0.00406149  1
  O  O49  1  0.89835156  0.76485850  0.59953328  1
  O  O50  1  0.67260565  0.30033543  0.15627833  1
  O  O51  1  0.17269431  0.18058121  0.59929283  1
  O  O52  1  0.16865145  0.18810005  0.40571309  1
  O  O53  1  0.74260974  0.58099353  0.75772689  1
  O  O54  1  0.33393545  0.69142383  0.34627882  1
  O  O55  1  0.07566780  0.67407528  0.77766369  1
  O  O56  1  0.10215184  0.23471969  0.90346204  1
  O  O57  1  0.92438972  0.33139272  0.72731429  1
  O  O58  1  0.66519939  0.90660785  0.27958849  1
  O  O59  1  0.55004920  0.81072953  0.50406149  1
