# generated using pymatgen
data_Fe3P2H6O11
_symmetry_space_group_name_H-M   'P 1'
_cell_length_a   9.60562552
_cell_length_b   10.11183189
_cell_length_c   8.78130709
_cell_angle_alpha   90.00000000
_cell_angle_beta   90.00000000
_cell_angle_gamma   90.00000000
_symmetry_Int_Tables_number   1
_chemical_formula_structural   Fe3P2H6O11
_chemical_formula_sum   'Fe12 P8 H24 O44'
_cell_volume   852.93248887
_cell_formula_units_Z   4
loop_
 _symmetry_equiv_pos_site_id
 _symmetry_equiv_pos_as_xyz
  1  'x, y, z'
loop_
 _atom_site_type_symbol
 _atom_site_label
 _atom_site_symmetry_multiplicity
 _atom_site_fract_x
 _atom_site_fract_y
 _atom_site_fract_z
 _atom_site_occupancy
  Fe  Fe0  1  -0.00000000  0.50000000  -0.00000000  1
  Fe  Fe1  1  0.50000000  -0.00000000  0.50000000  1
  Fe  Fe2  1  0.50000000  0.50000000  0.50000000  1
  Fe  Fe3  1  -0.00000000  -0.00000000  -0.00000000  1
  Fe  Fe4  1  0.93347768  0.59494435  0.63604267  1
  Fe  Fe5  1  0.56652232  0.09494435  0.86395733  1
  Fe  Fe6  1  0.56652232  0.40505565  0.13604267  1
  Fe  Fe7  1  0.93347768  0.90505565  0.36395733  1
  Fe  Fe8  1  0.06652232  0.40505565  0.36395733  1
  Fe  Fe9  1  0.43347768  0.90505565  0.13604267  1
  Fe  Fe10  1  0.43347768  0.59494435  0.86395733  1
  Fe  Fe11  1  0.06652232  0.09494435  0.63604267  1
  P  P12  1  0.79825341  0.60903196  0.29128273  1
  P  P13  1  0.70174659  0.10903196  0.20871727  1
  P  P14  1  0.70174659  0.39096804  0.79128273  1
  P  P15  1  0.79825341  0.89096804  0.70871727  1
  P  P16  1  0.20174659  0.39096804  0.70871727  1
  P  P17  1  0.29825341  0.89096804  0.79128273  1
  P  P18  1  0.29825341  0.60903196  0.20871727  1
  P  P19  1  0.20174659  0.10903196  0.29128273  1
  H  H20  1  0.14129122  0.69334224  0.44094614  1
  H  H21  1  0.35870878  0.19334224  0.05905386  1
  H  H22  1  0.35870878  0.30665776  0.94094614  1
  H  H23  1  0.14129122  0.80665776  0.55905386  1
  H  H24  1  0.85870878  0.30665776  0.55905386  1
  H  H25  1  0.64129122  0.80665776  0.94094614  1
  H  H26  1  0.64129122  0.69334224  0.05905386  1
  H  H27  1  0.85870878  0.19334224  0.44094614  1
  H  H28  1  0.12898950  0.79794431  0.15466094  1
  H  H29  1  0.37101050  0.29794431  0.34533906  1
  H  H30  1  0.37101050  0.20205569  0.65466094  1
  H  H31  1  0.12898950  0.70205569  0.84533906  1
  H  H32  1  0.87101050  0.20205569  0.84533906  1
  H  H33  1  0.62898950  0.70205569  0.65466094  1
  H  H34  1  0.62898950  0.79794431  0.34533906  1
  H  H35  1  0.87101050  0.29794431  0.15466094  1
  H  H36  1  0.96685243  0.75178930  0.12938815  1
  H  H37  1  0.53314757  0.25178930  0.37061185  1
  H  H38  1  0.53314757  0.24821070  0.62938815  1
  H  H39  1  0.96685243  0.74821070  0.87061185  1
  H  H40  1  0.03314757  0.24821070  0.87061185  1
  H  H41  1  0.46685243  0.74821070  0.62938815  1
  H  H42  1  0.46685243  0.75178930  0.37061185  1
  H  H43  1  0.03314757  0.25178930  0.12938815  1
  O  O44  1  0.77926203  0.75699371  0.33547543  1
  O  O45  1  0.72073797  0.25699371  0.16452457  1
  O  O46  1  0.72073797  0.24300629  0.83547543  1
  O  O47  1  0.77926203  0.74300629  0.66452457  1
  O  O48  1  0.22073797  0.24300629  0.66452457  1
  O  O49  1  0.27926203  0.74300629  0.83547543  1
  O  O50  1  0.27926203  0.75699371  0.16452457  1
  O  O51  1  0.22073797  0.25699371  0.33547543  1
  O  O52  1  0.89690662  0.53916538  0.40672440  1
  O  O53  1  0.60309338  0.03916538  0.09327560  1
  O  O54  1  0.60309338  0.46083462  0.90672440  1
  O  O55  1  0.89690662  0.96083462  0.59327560  1
  O  O56  1  0.10309338  0.46083462  0.59327560  1
  O  O57  1  0.39690662  0.96083462  0.90672440  1
  O  O58  1  0.39690662  0.53916538  0.09327560  1
  O  O59  1  0.10309338  0.03916538  0.40672440  1
  O  O60  1  0.65375763  0.54016240  0.29266536  1
  O  O61  1  0.84624237  0.04016240  0.20733464  1
  O  O62  1  0.84624237  0.45983760  0.79266536  1
  O  O63  1  0.65375763  0.95983760  0.70733464  1
  O  O64  1  0.34624237  0.45983760  0.70733464  1
  O  O65  1  0.15375763  0.95983760  0.79266536  1
  O  O66  1  0.15375763  0.54016240  0.20733464  1
  O  O67  1  0.34624237  0.04016240  0.29266536  1
  O  O68  1  0.86008608  0.60597863  0.12717234  1
  O  O69  1  0.63991392  0.10597863  0.37282766  1
  O  O70  1  0.63991392  0.39402137  0.62717234  1
  O  O71  1  0.86008608  0.89402137  0.87282766  1
  O  O72  1  0.13991392  0.39402137  0.87282766  1
  O  O73  1  0.36008608  0.89402137  0.62717234  1
  O  O74  1  0.36008608  0.60597863  0.37282766  1
  O  O75  1  0.13991392  0.10597863  0.12717234  1
  O  O76  1  0.07786422  0.75000000  0.50000000  1
  O  O77  1  0.42213578  0.25000000  -0.00000000  1
  O  O78  1  0.92213578  0.25000000  0.50000000  1
  O  O79  1  0.57786422  0.75000000  -0.00000000  1
  O  O80  1  0.02678284  0.83057369  0.14983521  1
  O  O81  1  0.47321716  0.33057369  0.35016479  1
  O  O82  1  0.47321716  0.16942631  0.64983521  1
  O  O83  1  0.02678284  0.66942631  0.85016479  1
  O  O84  1  0.97321716  0.16942631  0.85016479  1
  O  O85  1  0.52678284  0.66942631  0.64983521  1
  O  O86  1  0.52678284  0.83057369  0.35016479  1
  O  O87  1  0.97321716  0.33057369  0.14983521  1
