# generated using pymatgen
data_DyVSb3
_symmetry_space_group_name_H-M   'P 1'
_cell_length_a   12.83522202
_cell_length_b   6.25534966
_cell_length_c   5.96559041
_cell_angle_alpha   90.00000000
_cell_angle_beta   90.00000000
_cell_angle_gamma   90.00000000
_symmetry_Int_Tables_number   1
_chemical_formula_structural   DyVSb3
_chemical_formula_sum   'Dy4 V4 Sb12'
_cell_volume   478.97010544
_cell_formula_units_Z   4
loop_
 _symmetry_equiv_pos_site_id
 _symmetry_equiv_pos_as_xyz
  1  'x, y, z'
loop_
 _atom_site_type_symbol
 _atom_site_label
 _atom_site_symmetry_multiplicity
 _atom_site_fract_x
 _atom_site_fract_y
 _atom_site_fract_z
 _atom_site_occupancy
  Dy  Dy0  1  0.31047695  0.49625868  0.75000000  1
  Dy  Dy1  1  0.68952305  0.50374132  0.25000000  1
  Dy  Dy2  1  0.31047695  0.00374132  0.25000000  1
  Dy  Dy3  1  0.68952305  0.99625868  0.75000000  1
  V  V4  1  0.90018816  0.25000000  0.50000000  1
  V  V5  1  0.09981184  0.75000000  -0.00000000  1
  V  V6  1  0.09981184  0.75000000  0.50000000  1
  V  V7  1  0.90018816  0.25000000  0.00000000  1
  Sb  Sb8  1  0.06603838  0.39437206  0.75000000  1
  Sb  Sb9  1  0.93396162  0.60562794  0.25000000  1
  Sb  Sb10  1  0.06603838  0.10562794  0.25000000  1
  Sb  Sb11  1  0.93396162  0.89437206  0.75000000  1
  Sb  Sb12  1  0.22718405  0.00549834  0.75000000  1
  Sb  Sb13  1  0.77281595  0.99450166  0.25000000  1
  Sb  Sb14  1  0.22718405  0.49450166  0.25000000  1
  Sb  Sb15  1  0.77281595  0.50549834  0.75000000  1
  Sb  Sb16  1  0.50178594  0.25000000  0.50000000  1
  Sb  Sb17  1  0.49821406  0.75000000  0.00000000  1
  Sb  Sb18  1  0.49821406  0.75000000  0.50000000  1
  Sb  Sb19  1  0.50178594  0.25000000  0.00000000  1
