# generated using pymatgen
data_Li3MnFeCo(PO4)3
_symmetry_space_group_name_H-M   'P 1'
_cell_length_a   10.47589852
_cell_length_b   6.07833580
_cell_length_c   14.29658511
_cell_angle_alpha   90.00000000
_cell_angle_beta   90.04217586
_cell_angle_gamma   90.00000000
_symmetry_Int_Tables_number   1
_chemical_formula_structural   Li3MnFeCo(PO4)3
_chemical_formula_sum   'Li12 Mn4 Fe4 Co4 P12 O48'
_cell_volume   910.34952208
_cell_formula_units_Z   4
loop_
 _symmetry_equiv_pos_site_id
 _symmetry_equiv_pos_as_xyz
  1  'x, y, z'
loop_
 _atom_site_type_symbol
 _atom_site_label
 _atom_site_symmetry_multiplicity
 _atom_site_fract_x
 _atom_site_fract_y
 _atom_site_fract_z
 _atom_site_occupancy
  Li  Li0  1  0.99853796  0.50040060  0.66739677  1
  Li  Li1  1  0.99909349  0.00166205  0.99950063  1
  Li  Li2  1  0.99909349  0.49833795  0.99950063  1
  Li  Li3  1  0.99905847  0.00080905  0.33345173  1
  Li  Li4  1  0.99905847  0.49919095  0.33345173  1
  Li  Li5  1  0.99853796  0.99959940  0.66739677  1
  Li  Li6  1  0.50115427  0.00024658  0.50051099  1
  Li  Li7  1  0.50115427  0.49975342  0.50051099  1
  Li  Li8  1  0.50156053  0.00074184  0.16748809  1
  Li  Li9  1  0.50156053  0.49925816  0.16748809  1
  Li  Li10  1  0.50115826  0.99956364  0.83276731  1
  Li  Li11  1  0.50115826  0.50043636  0.83276731  1
  Mn  Mn12  1  0.21815987  0.75000000  0.16056234  1
  Mn  Mn13  1  0.21896554  0.75000000  0.82633789  1
  Mn  Mn14  1  0.28093736  0.25000000  0.65995758  1
  Mn  Mn15  1  0.72046825  0.75000000  0.00676294  1
  Fe  Fe16  1  0.21847029  0.75000000  0.49224418  1
  Fe  Fe17  1  0.28050220  0.25000000  0.99252780  1
  Fe  Fe18  1  0.28143793  0.25000000  0.32600284  1
  Fe  Fe19  1  0.71969893  0.75000000  0.34195131  1
  Co  Co20  1  0.72355415  0.75000000  0.67321058  1
  Co  Co21  1  0.77718304  0.25000000  0.83934631  1
  Co  Co22  1  0.78000351  0.25000000  0.50674181  1
  Co  Co23  1  0.78050302  0.25000000  0.17354338  1
  P  P24  1  0.09002894  0.25000000  0.80614278  1
  P  P25  1  0.09248080  0.25000000  0.13812188  1
  P  P26  1  0.09206946  0.25000000  0.47195297  1
  P  P27  1  0.40760734  0.75000000  0.30732769  1
  P  P28  1  0.40901231  0.75000000  0.63736034  1
  P  P29  1  0.40735865  0.75000000  0.97301811  1
  P  P30  1  0.59569081  0.25000000  0.36114300  1
  P  P31  1  0.59510897  0.25000000  0.02889532  1
  P  P32  1  0.59728301  0.25000000  0.69394994  1
  P  P33  1  0.90530258  0.75000000  0.85954361  1
  P  P34  1  0.90383647  0.75000000  0.19497231  1
  P  P35  1  0.90355352  0.75000000  0.52719200  1
  O  O36  1  0.04009190  0.75000000  0.23835612  1
  O  O37  1  0.04082493  0.75000000  0.56910276  1
  O  O38  1  0.04166816  0.75000000  0.90274341  1
  O  O39  1  0.09384122  0.25000000  0.57939667  1
  O  O40  1  0.09604299  0.25000000  0.91361534  1
  O  O41  1  0.09747499  0.25000000  0.24575642  1
  O  O42  1  0.16223785  0.04778027  0.09258660  1
  O  O43  1  0.16223785  0.45221973  0.09258660  1
  O  O44  1  0.16373060  0.04696810  0.42793767  1
  O  O45  1  0.16373060  0.45303190  0.42793767  1
  O  O46  1  0.15997641  0.04789630  0.76050786  1
  O  O47  1  0.15997641  0.45210370  0.76050786  1
  O  O48  1  0.33830221  0.54796246  0.59217303  1
  O  O49  1  0.33830221  0.95203754  0.59217303  1
  O  O50  1  0.33666716  0.54656742  0.26315606  1
  O  O51  1  0.33666716  0.95343258  0.26315606  1
  O  O52  1  0.33617776  0.54644391  0.92956380  1
  O  O53  1  0.33617776  0.95355609  0.92956380  1
  O  O54  1  0.40511799  0.75000000  0.41472402  1
  O  O55  1  0.40705663  0.75000000  0.08048150  1
  O  O56  1  0.40424181  0.75000000  0.74498009  1
  O  O57  1  0.45842714  0.25000000  0.40264774  1
  O  O58  1  0.45675857  0.25000000  0.06828930  1
  O  O59  1  0.46047292  0.25000000  0.73692401  1
  O  O60  1  0.54426900  0.75000000  0.26522719  1
  O  O61  1  0.54318068  0.75000000  0.92939187  1
  O  O62  1  0.54726479  0.75000000  0.59801701  1
  O  O63  1  0.59761245  0.25000000  0.25360452  1
  O  O64  1  0.60072488  0.25000000  0.92117284  1
  O  O65  1  0.59739526  0.25000000  0.58635505  1
  O  O66  1  0.66492004  0.04880260  0.07514722  1
  O  O67  1  0.66732984  0.04837176  0.40613739  1
  O  O68  1  0.66833419  0.04624440  0.73787169  1
  O  O69  1  0.66833419  0.45375560  0.73787169  1
  O  O70  1  0.66492004  0.45119740  0.07514722  1
  O  O71  1  0.66732984  0.45162824  0.40613739  1
  O  O72  1  0.83530028  0.54520620  0.90297581  1
  O  O73  1  0.83530028  0.95479380  0.90297581  1
  O  O74  1  0.83242139  0.54557922  0.23808609  1
  O  O75  1  0.83182534  0.54621619  0.57118716  1
  O  O76  1  0.83242139  0.95442078  0.23808609  1
  O  O77  1  0.83182534  0.95378381  0.57118716  1
  O  O78  1  0.90346091  0.75000000  0.75176756  1
  O  O79  1  0.90286635  0.75000000  0.41969542  1
  O  O80  1  0.90539184  0.75000000  0.08735843  1
  O  O81  1  0.95214866  0.25000000  0.76605296  1
  O  O82  1  0.95397306  0.25000000  0.09839872  1
  O  O83  1  0.95490478  0.25000000  0.43023936  1
