# generated using pymatgen
data_AgPt
_symmetry_space_group_name_H-M   'P 1'
_cell_length_a   2.82626352
_cell_length_b   2.82625129
_cell_length_c   4.80022903
_cell_angle_alpha   90.01327523
_cell_angle_beta   89.98672227
_cell_angle_gamma   120.00034179
_symmetry_Int_Tables_number   1
_chemical_formula_structural   AgPt
_chemical_formula_sum   'Ag1 Pt1'
_cell_volume   33.20584262
_cell_formula_units_Z   1
loop_
 _symmetry_equiv_pos_site_id
 _symmetry_equiv_pos_as_xyz
  1  'x, y, z'
loop_
 _atom_site_type_symbol
 _atom_site_label
 _atom_site_symmetry_multiplicity
 _atom_site_fract_x
 _atom_site_fract_y
 _atom_site_fract_z
 _atom_site_occupancy
  Ag  Ag0  1  0.66666646  0.33333248  0.74999901  1
  Pt  Pt1  1  0.33333254  0.66666652  0.24999999  1
