# generated using pymatgen
data_DyMg2
_symmetry_space_group_name_H-M   'P 1'
_cell_length_a   6.02721690
_cell_length_b   6.02721864
_cell_length_c   6.03255471
_cell_angle_alpha   119.97072732
_cell_angle_beta   60.02927988
_cell_angle_gamma   119.99999310
_symmetry_Int_Tables_number   1
_chemical_formula_structural   DyMg2
_chemical_formula_sum   'Dy2 Mg4'
_cell_volume   155.02869776
_cell_formula_units_Z   2
loop_
 _symmetry_equiv_pos_site_id
 _symmetry_equiv_pos_as_xyz
  1  'x, y, z'
loop_
 _atom_site_type_symbol
 _atom_site_label
 _atom_site_symmetry_multiplicity
 _atom_site_fract_x
 _atom_site_fract_y
 _atom_site_fract_z
 _atom_site_occupancy
  Dy  Dy0  1  0.87402161  0.45931139  0.37793318  1
  Dy  Dy1  1  0.12597739  0.20735661  0.62206882  1
  Mg  Mg2  1  -0.00000000  0.83283607  -0.00000000  1
  Mg  Mg3  1  0.49950407  0.33333400  0.00000000  1
  Mg  Mg4  1  0.50049793  0.83383093  -0.00000000  1
  Mg  Mg5  1  0.50000000  0.83333300  0.50000100  1
