# generated using pymatgen
data_GdAg3
_symmetry_space_group_name_H-M   'P 1'
_cell_length_a   6.35959795
_cell_length_b   6.35959652
_cell_length_c   4.94633880
_cell_angle_alpha   90.00000000
_cell_angle_beta   90.00000000
_cell_angle_gamma   120.00000169
_symmetry_Int_Tables_number   1
_chemical_formula_structural   GdAg3
_chemical_formula_sum   'Gd2 Ag6'
_cell_volume   173.25018541
_cell_formula_units_Z   2
loop_
 _symmetry_equiv_pos_site_id
 _symmetry_equiv_pos_as_xyz
  1  'x, y, z'
loop_
 _atom_site_type_symbol
 _atom_site_label
 _atom_site_symmetry_multiplicity
 _atom_site_fract_x
 _atom_site_fract_y
 _atom_site_fract_z
 _atom_site_occupancy
  Gd  Gd0  1  0.33333400  0.66666800  0.74999935  1
  Gd  Gd1  1  0.66666700  0.33333300  0.25000065  1
  Ag  Ag2  1  0.15565553  0.31131206  0.25000159  1
  Ag  Ag3  1  0.68868794  0.84434247  0.25000159  1
  Ag  Ag4  1  0.15565453  0.84434247  0.25000159  1
  Ag  Ag5  1  0.84434347  0.68868994  0.74999841  1
  Ag  Ag6  1  0.31131006  0.15565653  0.74999841  1
  Ag  Ag7  1  0.84434347  0.15565653  0.74999841  1
