# generated using pymatgen
data_HoMg2
_symmetry_space_group_name_H-M   'P 1'
_cell_length_a   6.15269524
_cell_length_b   5.21173180
_cell_length_c   6.15343805
_cell_angle_alpha   115.05456208
_cell_angle_beta   64.93226474
_cell_angle_gamma   115.05778538
_symmetry_Int_Tables_number   1
_chemical_formula_structural   HoMg2
_chemical_formula_sum   'Ho2 Mg4'
_cell_volume   154.58346444
_cell_formula_units_Z   2
loop_
 _symmetry_equiv_pos_site_id
 _symmetry_equiv_pos_as_xyz
  1  'x, y, z'
loop_
 _atom_site_type_symbol
 _atom_site_label
 _atom_site_symmetry_multiplicity
 _atom_site_fract_x
 _atom_site_fract_y
 _atom_site_fract_z
 _atom_site_occupancy
  Ho  Ho0  1  0.33333300  0.58365494  0.00000100  1
  Ho  Ho1  1  0.83333400  0.58301406  0.49999900  1
  Mg  Mg2  1  0.91714535  0.91761562  0.08285654  1
  Mg  Mg3  1  0.24951965  0.24905138  0.41714546  1
  Mg  Mg4  1  0.41714535  0.91571928  0.58285454  1
  Mg  Mg5  1  0.74952065  0.25094772  0.91714446  1
