# generated using pymatgen
data_MgPb3
_symmetry_space_group_name_H-M   'P 1'
_cell_length_a   6.67045497
_cell_length_b   6.67045376
_cell_length_c   6.13933716
_cell_angle_alpha   90.00000000
_cell_angle_beta   90.00000000
_cell_angle_gamma   119.99999135
_symmetry_Int_Tables_number   1
_chemical_formula_structural   MgPb3
_chemical_formula_sum   'Mg2 Pb6'
_cell_volume   236.57180795
_cell_formula_units_Z   2
loop_
 _symmetry_equiv_pos_site_id
 _symmetry_equiv_pos_as_xyz
  1  'x, y, z'
loop_
 _atom_site_type_symbol
 _atom_site_label
 _atom_site_symmetry_multiplicity
 _atom_site_fract_x
 _atom_site_fract_y
 _atom_site_fract_z
 _atom_site_occupancy
  Mg  Mg0  1  0.66666700  0.33333300  0.25000100  1
  Mg  Mg1  1  0.33333400  0.66666800  0.75000000  1
  Pb  Pb2  1  0.16833388  0.33666877  0.25000100  1
  Pb  Pb3  1  0.16833488  0.83166512  0.25000100  1
  Pb  Pb4  1  0.66333123  0.83166512  0.25000100  1
  Pb  Pb5  1  0.33666877  0.16833488  0.75000000  1
  Pb  Pb6  1  0.83166512  0.16833488  0.75000000  1
  Pb  Pb7  1  0.83166412  0.66333023  0.75000000  1
