# generated using pymatgen
data_VIn3S4
_symmetry_space_group_name_H-M   'P 1'
_cell_length_a   6.46928477
_cell_length_b   6.46928477
_cell_length_c   6.46928477
_cell_angle_alpha   109.47121527
_cell_angle_beta   109.47122332
_cell_angle_gamma   109.47122332
_symmetry_Int_Tables_number   1
_chemical_formula_structural   VIn3S4
_chemical_formula_sum   'V1 In3 S4'
_cell_volume   208.42361058
_cell_formula_units_Z   1
loop_
 _symmetry_equiv_pos_site_id
 _symmetry_equiv_pos_as_xyz
  1  'x, y, z'
loop_
 _atom_site_type_symbol
 _atom_site_label
 _atom_site_symmetry_multiplicity
 _atom_site_fract_x
 _atom_site_fract_y
 _atom_site_fract_z
 _atom_site_occupancy
  V  V0  1  0.00000000  0.00000000  0.00000000  1
  In  In1  1  0.00000000  0.50000000  0.50000000  1
  In  In2  1  0.50000000  0.00000000  0.50000000  1
  In  In3  1  0.50000000  0.50000000  0.00000000  1
  S  S4  1  0.66522377  0.66522377  0.66522377  1
  S  S5  1  0.00000000  1.00000000  0.33477623  1
  S  S6  1  0.00000000  0.33477623  1.00000000  1
  S  S7  1  0.33477623  0.00000000  0.00000000  1
