# generated using pymatgen
data_Mn3C
_symmetry_space_group_name_H-M   'P 1'
_cell_length_a   4.43668446
_cell_length_b   4.93946345
_cell_length_c   6.70420361
_cell_angle_alpha   90.00000000
_cell_angle_beta   90.00000000
_cell_angle_gamma   90.00000000
_symmetry_Int_Tables_number   1
_chemical_formula_structural   Mn3C
_chemical_formula_sum   'Mn12 C4'
_cell_volume   146.92155433
_cell_formula_units_Z   4
loop_
 _symmetry_equiv_pos_site_id
 _symmetry_equiv_pos_as_xyz
  1  'x, y, z'
loop_
 _atom_site_type_symbol
 _atom_site_label
 _atom_site_symmetry_multiplicity
 _atom_site_fract_x
 _atom_site_fract_y
 _atom_site_fract_z
 _atom_site_occupancy
  Mn  Mn0  1  0.34210802  0.68542898  0.06584511  1
  Mn  Mn1  1  0.15789198  0.18542898  0.43415489  1
  Mn  Mn2  1  0.65789198  0.31457102  0.56584511  1
  Mn  Mn3  1  0.84210802  0.81457102  0.93415489  1
  Mn  Mn4  1  0.65789198  0.31457102  0.93415489  1
  Mn  Mn5  1  0.84210802  0.81457102  0.56584511  1
  Mn  Mn6  1  0.34210802  0.68542898  0.43415489  1
  Mn  Mn7  1  0.15789198  0.18542898  0.06584511  1
  Mn  Mn8  1  0.83956097  0.53140265  0.25000000  1
  Mn  Mn9  1  0.66043903  0.03140265  0.25000000  1
  Mn  Mn10  1  0.16043903  0.46859735  0.75000000  1
  Mn  Mn11  1  0.33956097  0.96859735  0.75000000  1
  C  C12  1  0.06561286  0.87841280  0.25000000  1
  C  C13  1  0.43438714  0.37841280  0.25000000  1
  C  C14  1  0.93438714  0.12158720  0.75000000  1
  C  C15  1  0.56561286  0.62158720  0.75000000  1
