# generated using pymatgen
data_Ca2InOsO6
_symmetry_space_group_name_H-M   'P 1'
_cell_length_a   5.54342832
_cell_length_b   5.75754966
_cell_length_c   7.95277781
_cell_angle_alpha   90.00000000
_cell_angle_beta   90.57030544
_cell_angle_gamma   90.00000000
_symmetry_Int_Tables_number   1
_chemical_formula_structural   Ca2InOsO6
_chemical_formula_sum   'Ca4 In2 Os2 O12'
_cell_volume   253.81276685
_cell_formula_units_Z   2
loop_
 _symmetry_equiv_pos_site_id
 _symmetry_equiv_pos_as_xyz
  1  'x, y, z'
loop_
 _atom_site_type_symbol
 _atom_site_label
 _atom_site_symmetry_multiplicity
 _atom_site_fract_x
 _atom_site_fract_y
 _atom_site_fract_z
 _atom_site_occupancy
  Ca  Ca0  1  0.48306580  0.55842802  0.25123401  1
  Ca  Ca1  1  0.98306580  0.94157198  0.75123401  1
  Ca  Ca2  1  0.51693420  0.44157198  0.74876599  1
  Ca  Ca3  1  0.01693420  0.05842802  0.24876599  1
  In  In4  1  0.00000000  0.50000000  0.50000000  1
  In  In5  1  0.50000000  -0.00000000  -0.00000000  1
  Os  Os6  1  0.00000000  0.50000000  -0.00000000  1
  Os  Os7  1  0.50000000  -0.00000000  0.50000000  1
  O  O8  1  0.20996972  0.81024786  0.44294095  1
  O  O9  1  0.70996972  0.68975214  0.94294095  1
  O  O10  1  0.79003028  0.18975214  0.55705905  1
  O  O11  1  0.29003028  0.31024786  0.05705905  1
  O  O12  1  0.31789774  0.28786880  0.44087550  1
  O  O13  1  0.81789774  0.21213120  0.94087550  1
  O  O14  1  0.68210226  0.71213120  0.55912450  1
  O  O15  1  0.18210226  0.78786880  0.05912450  1
  O  O16  1  0.61033762  0.95973585  0.26347310  1
  O  O17  1  0.11033762  0.54026415  0.76347310  1
  O  O18  1  0.38966238  0.04026415  0.73652690  1
  O  O19  1  0.88966238  0.45973585  0.23652690  1
