# generated using pymatgen
data_YbBiRh2
_symmetry_space_group_name_H-M   'P 1'
_cell_length_a   4.72431861
_cell_length_b   4.72378565
_cell_length_c   4.72388768
_cell_angle_alpha   60.00248181
_cell_angle_beta   59.99582406
_cell_angle_gamma   59.99900877
_symmetry_Int_Tables_number   1
_chemical_formula_structural   YbBiRh2
_chemical_formula_sum   'Yb1 Bi1 Rh2'
_cell_volume   74.54269841
_cell_formula_units_Z   1
loop_
 _symmetry_equiv_pos_site_id
 _symmetry_equiv_pos_as_xyz
  1  'x, y, z'
loop_
 _atom_site_type_symbol
 _atom_site_label
 _atom_site_symmetry_multiplicity
 _atom_site_fract_x
 _atom_site_fract_y
 _atom_site_fract_z
 _atom_site_occupancy
  Yb  Yb0  1  0.75000276  0.75000070  0.74999882  1
  Bi  Bi1  1  0.24999850  0.25000011  0.24999897  1
  Rh  Rh2  1  0.99999060  0.00000486  0.00001138  1
  Rh  Rh3  1  0.50000814  0.49999433  0.49999084  1
