# generated using pymatgen
data_Zr3Co2Si3
_symmetry_space_group_name_H-M   'P 1'
_cell_length_a   3.86558699
_cell_length_b   5.39595457
_cell_length_c   12.96169359
_cell_angle_alpha   90.00000000
_cell_angle_beta   90.00000000
_cell_angle_gamma   110.98926719
_symmetry_Int_Tables_number   1
_chemical_formula_structural   Zr3Co2Si3
_chemical_formula_sum   'Zr6 Co4 Si6'
_cell_volume   252.42272071
_cell_formula_units_Z   2
loop_
 _symmetry_equiv_pos_site_id
 _symmetry_equiv_pos_as_xyz
  1  'x, y, z'
loop_
 _atom_site_type_symbol
 _atom_site_label
 _atom_site_symmetry_multiplicity
 _atom_site_fract_x
 _atom_site_fract_y
 _atom_site_fract_z
 _atom_site_occupancy
  Zr  Zr0  1  0.07535980  0.15071959  0.38359199  1
  Zr  Zr1  1  0.92464020  0.84928041  0.61640801  1
  Zr  Zr2  1  0.07535980  0.15071959  0.11640801  1
  Zr  Zr3  1  0.92464020  0.84928041  0.88359199  1
  Zr  Zr4  1  0.36409081  0.72818162  0.25000000  1
  Zr  Zr5  1  0.63590919  0.27181838  0.75000000  1
  Co  Co6  1  0.21968887  0.43937774  0.91971413  1
  Co  Co7  1  0.78031113  0.56062226  0.08028587  1
  Co  Co8  1  0.21968887  0.43937774  0.58028587  1
  Co  Co9  1  0.78031113  0.56062226  0.41971413  1
  Si  Si10  1  0.38885189  0.77770379  0.45816528  1
  Si  Si11  1  0.61114811  0.22229621  0.54183472  1
  Si  Si12  1  0.38885189  0.77770379  0.04183472  1
  Si  Si13  1  0.61114811  0.22229621  0.95816528  1
  Si  Si14  1  0.66587674  0.33175348  0.25000000  1
  Si  Si15  1  0.33412326  0.66824652  0.75000000  1
