# generated using pymatgen
data_Eu3FeO6
_symmetry_space_group_name_H-M   'P 1'
_cell_length_a   5.58978515
_cell_length_b   7.39187874
_cell_length_c   7.39187874
_cell_angle_alpha   102.91997288
_cell_angle_beta   90.00000000
_cell_angle_gamma   90.00000000
_symmetry_Int_Tables_number   1
_chemical_formula_structural   Eu3FeO6
_chemical_formula_sum   'Eu6 Fe2 O12'
_cell_volume   297.69278841
_cell_formula_units_Z   2
loop_
 _symmetry_equiv_pos_site_id
 _symmetry_equiv_pos_as_xyz
  1  'x, y, z'
loop_
 _atom_site_type_symbol
 _atom_site_label
 _atom_site_symmetry_multiplicity
 _atom_site_fract_x
 _atom_site_fract_y
 _atom_site_fract_z
 _atom_site_occupancy
  Eu  Eu0  1  0.46155323  0.19963049  0.41445651  1
  Eu  Eu1  1  0.46155323  0.58554349  0.80036951  1
  Eu  Eu2  1  0.96155323  0.80036951  0.58554349  1
  Eu  Eu3  1  0.96155323  0.41445651  0.19963049  1
  Eu  Eu4  1  0.50052151  0.10490059  0.89509941  1
  Eu  Eu5  1  0.00052151  0.89509941  0.10490059  1
  Fe  Fe6  1  0.92505378  0.30820439  0.69179561  1
  Fe  Fe7  1  0.42505378  0.69179561  0.30820439  1
  O  O8  1  0.22829381  0.85451309  0.82535134  1
  O  O9  1  0.22829381  0.17464866  0.14548691  1
  O  O10  1  0.72829381  0.14548691  0.17464866  1
  O  O11  1  0.72829381  0.82535134  0.85451309  1
  O  O12  1  0.25161342  0.91616112  0.39059155  1
  O  O13  1  0.25161342  0.60940845  0.08383888  1
  O  O14  1  0.75161342  0.08383888  0.60940845  1
  O  O15  1  0.75161342  0.39059155  0.91616112  1
  O  O16  1  0.28358731  0.54435575  0.45564425  1
  O  O17  1  0.78358731  0.45564425  0.54435575  1
  O  O18  1  0.25922648  0.28715754  0.71284246  1
  O  O19  1  0.75922648  0.71284246  0.28715754  1
