# generated using pymatgen
data_Bi4Pb7Se13
_symmetry_space_group_name_H-M   'P 1'
_cell_length_a   4.30041090
_cell_length_b   7.46793181
_cell_length_c   23.93844571
_cell_angle_alpha   96.99988352
_cell_angle_beta   90.00000002
_cell_angle_gamma   106.73378321
_symmetry_Int_Tables_number   1
_chemical_formula_structural   Bi4Pb7Se13
_chemical_formula_sum   'Bi4 Pb7 Se13'
_cell_volume   730.24580399
_cell_formula_units_Z   1
loop_
 _symmetry_equiv_pos_site_id
 _symmetry_equiv_pos_as_xyz
  1  'x, y, z'
loop_
 _atom_site_type_symbol
 _atom_site_label
 _atom_site_symmetry_multiplicity
 _atom_site_fract_x
 _atom_site_fract_y
 _atom_site_fract_z
 _atom_site_occupancy
  Bi  Bi0  1  0.24847110  0.49694219  0.08669909  1
  Bi  Bi1  1  0.75152890  0.50305781  0.91330091  1
  Bi  Bi2  1  0.06147631  0.12295261  0.37734055  1
  Bi  Bi3  1  0.93852369  0.87704739  0.62265945  1
  Pb  Pb4  1  0.50000000  -0.00000000  -0.00000000  1
  Pb  Pb5  1  0.35346322  0.70692643  0.45802141  1
  Pb  Pb6  1  0.64653678  0.29307357  0.54197859  1
  Pb  Pb7  1  0.98919429  0.97838859  0.16321097  1
  Pb  Pb8  1  0.01080571  0.02161141  0.83678903  1
  Pb  Pb9  1  0.76734758  0.53469516  0.28188166  1
  Pb  Pb10  1  0.23265242  0.46530484  0.71811834  1
  Se  Se11  1  0.86835065  0.73670129  0.03989669  1
  Se  Se12  1  0.13164935  0.26329871  0.96010331  1
  Se  Se13  1  0.62639586  0.25279172  0.11814994  1
  Se  Se14  1  0.37360414  0.74720828  0.88185006  1
  Se  Se15  1  0.70777582  0.41555165  0.41042320  1
  Se  Se16  1  0.29222418  0.58444835  0.58957680  1
  Se  Se17  1  0.35773407  0.71546815  0.19325018  1
  Se  Se18  1  0.64226593  0.28453185  0.80674982  1
  Se  Se19  1  0.42333687  0.84667373  0.34749505  1
  Se  Se20  1  0.57666313  0.15332627  0.65250495  1
  Se  Se21  1  -0.00000000  -0.00000000  0.50000000  1
  Se  Se22  1  0.12309059  0.24618118  0.26969796  1
  Se  Se23  1  0.87690941  0.75381882  0.73030204  1
