# generated using pymatgen
data_Ce5CuSn3
_symmetry_space_group_name_H-M   'P 1'
_cell_length_a   6.44920615
_cell_length_b   9.47945401
_cell_length_c   9.47739561
_cell_angle_alpha   120.00718589
_cell_angle_beta   90.00000000
_cell_angle_gamma   90.00000000
_symmetry_Int_Tables_number   1
_chemical_formula_structural   Ce5CuSn3
_chemical_formula_sum   'Ce10 Cu2 Sn6'
_cell_volume   501.73889962
_cell_formula_units_Z   2
loop_
 _symmetry_equiv_pos_site_id
 _symmetry_equiv_pos_as_xyz
  1  'x, y, z'
loop_
 _atom_site_type_symbol
 _atom_site_label
 _atom_site_symmetry_multiplicity
 _atom_site_fract_x
 _atom_site_fract_y
 _atom_site_fract_z
 _atom_site_occupancy
  Ce  Ce0  1  0.74986714  0.26470694  0.00000000  1
  Ce  Ce1  1  0.75008257  0.73525951  0.73524747  1
  Ce  Ce2  1  0.75008257  0.00001204  0.26475253  1
  Ce  Ce3  1  0.24986714  0.73529306  1.00000000  1
  Ce  Ce4  1  0.25008257  0.26474049  0.26475253  1
  Ce  Ce5  1  0.25008257  0.99998796  0.73524747  1
  Ce  Ce6  1  0.50002026  0.33330492  0.66656594  1
  Ce  Ce7  1  0.50002026  0.66673898  0.33343406  1
  Ce  Ce8  1  0.00002026  0.66669508  0.33343406  1
  Ce  Ce9  1  0.00002026  0.33326102  0.66656594  1
  Cu  Cu10  1  0.49984615  0.99995796  1.00000000  1
  Cu  Cu11  1  0.99984615  0.00004204  0.00000000  1
  Sn  Sn12  1  0.75012084  0.61551607  0.00000000  1
  Sn  Sn13  1  0.74998011  0.38446535  0.38437052  1
  Sn  Sn14  1  0.74998011  0.00009484  0.61562948  1
  Sn  Sn15  1  0.25012084  0.38448393  1.00000000  1
  Sn  Sn16  1  0.24998011  0.61553465  0.61562948  1
  Sn  Sn17  1  0.24998011  0.99990516  0.38437052  1
