# generated using pymatgen
data_Dy2Ga5Cu12
_symmetry_space_group_name_H-M   'P 1'
_cell_length_a   6.55423803
_cell_length_b   6.55423803
_cell_length_c   6.55423771
_cell_angle_alpha   83.31953361
_cell_angle_beta   83.31953361
_cell_angle_gamma   83.31953956
_symmetry_Int_Tables_number   1
_chemical_formula_structural   Dy2Ga5Cu12
_chemical_formula_sum   'Dy2 Ga5 Cu12'
_cell_volume   276.23460146
_cell_formula_units_Z   1
loop_
 _symmetry_equiv_pos_site_id
 _symmetry_equiv_pos_as_xyz
  1  'x, y, z'
loop_
 _atom_site_type_symbol
 _atom_site_label
 _atom_site_symmetry_multiplicity
 _atom_site_fract_x
 _atom_site_fract_y
 _atom_site_fract_z
 _atom_site_occupancy
  Dy  Dy0  1  0.65300528  0.65300528  0.65300528  1
  Dy  Dy1  1  0.34699472  0.34699472  0.34699472  1
  Ga  Ga2  1  0.00000000  -0.00000000  0.50000000  1
  Ga  Ga3  1  0.00000000  0.50000000  0.00000000  1
  Ga  Ga4  1  0.50000000  -0.00000000  0.00000000  1
  Ga  Ga5  1  0.90006340  0.90006340  0.90006340  1
  Ga  Ga6  1  0.09993660  0.09993660  0.09993660  1
  Cu  Cu7  1  0.31185604  0.68814396  -0.00000000  1
  Cu  Cu8  1  0.68814396  0.00000000  0.31185604  1
  Cu  Cu9  1  1.00000000  0.31185604  0.68814396  1
  Cu  Cu10  1  0.31185604  1.00000000  0.68814396  1
  Cu  Cu11  1  0.00000000  0.68814396  0.31185604  1
  Cu  Cu12  1  0.68814396  0.31185604  0.00000000  1
  Cu  Cu13  1  0.83561549  0.34765482  0.34765482  1
  Cu  Cu14  1  0.34765482  0.34765482  0.83561549  1
  Cu  Cu15  1  0.34765482  0.83561549  0.34765482  1
  Cu  Cu16  1  0.16438451  0.65234518  0.65234518  1
  Cu  Cu17  1  0.65234518  0.65234518  0.16438451  1
  Cu  Cu18  1  0.65234518  0.16438451  0.65234518  1
