# generated using pymatgen
data_NaNd3GeS7
_symmetry_space_group_name_H-M   'P 1'
_cell_length_a   5.86717495
_cell_length_b   10.29662131
_cell_length_c   10.29658727
_cell_angle_alpha   119.99921518
_cell_angle_beta   90.00000000
_cell_angle_gamma   90.00000000
_symmetry_Int_Tables_number   1
_chemical_formula_structural   NaNd3GeS7
_chemical_formula_sum   'Na2 Nd6 Ge2 S14'
_cell_volume   538.70517751
_cell_formula_units_Z   2
loop_
 _symmetry_equiv_pos_site_id
 _symmetry_equiv_pos_as_xyz
  1  'x, y, z'
loop_
 _atom_site_type_symbol
 _atom_site_label
 _atom_site_symmetry_multiplicity
 _atom_site_fract_x
 _atom_site_fract_y
 _atom_site_fract_z
 _atom_site_occupancy
  Na  Na0  1  0.02040008  0.00000023  -0.00000003  1
  Na  Na1  1  0.52040008  -0.00000023  0.00000003  1
  Nd  Nd2  1  0.74871847  0.23073790  0.36091684  1
  Nd  Nd3  1  0.74872068  0.63909504  0.86982561  1
  Nd  Nd4  1  0.74871356  0.13018533  0.76926589  1
  Nd  Nd5  1  0.24871847  0.76926210  0.63908316  1
  Nd  Nd6  1  0.24872068  0.36090496  0.13017439  1
  Nd  Nd7  1  0.24871356  0.86981467  0.23073411  1
  Ge  Ge8  1  0.16590709  0.33335241  0.66667540  1
  Ge  Ge9  1  0.66590709  0.66664759  0.33332460  1
  S  S10  1  0.54231955  0.33335185  0.66667481  1
  S  S11  1  0.04231955  0.66664815  0.33332519  1
  S  S12  1  0.77364142  0.25900927  0.09425554  1
  S  S13  1  0.77363916  0.90574495  0.16475771  1
  S  S14  1  0.77364050  0.83525231  0.74098941  1
  S  S15  1  0.27364142  0.74099073  0.90574446  1
  S  S16  1  0.27363916  0.09425505  0.83524229  1
  S  S17  1  0.27364050  0.16474769  0.25901059  1
  S  S18  1  0.01049472  0.41470812  0.89446651  1
  S  S19  1  0.01051120  0.10554817  0.52024740  1
  S  S20  1  0.01049358  0.47976696  0.58529682  1
  S  S21  1  0.51049472  0.58529188  0.10553349  1
  S  S22  1  0.51051120  0.89445183  0.47975260  1
  S  S23  1  0.51049358  0.52023304  0.41470318  1
