# generated using pymatgen
data_ZnCu2SnS4
_symmetry_space_group_name_H-M   'P 1'
_cell_length_a   6.37474218
_cell_length_b   6.68830863
_cell_length_c   7.72760490
_cell_angle_alpha   90.00000000
_cell_angle_beta   90.00000000
_cell_angle_gamma   90.00000000
_symmetry_Int_Tables_number   1
_chemical_formula_structural   ZnCu2SnS4
_chemical_formula_sum   'Zn2 Cu4 Sn2 S8'
_cell_volume   329.47604138
_cell_formula_units_Z   2
loop_
 _symmetry_equiv_pos_site_id
 _symmetry_equiv_pos_as_xyz
  1  'x, y, z'
loop_
 _atom_site_type_symbol
 _atom_site_label
 _atom_site_symmetry_multiplicity
 _atom_site_fract_x
 _atom_site_fract_y
 _atom_site_fract_z
 _atom_site_occupancy
  Zn  Zn0  1  0.50074426  0.84038264  0.50000000  1
  Zn  Zn1  1  0.00074426  0.15961736  0.00000000  1
  Cu  Cu2  1  0.49771673  0.33014756  0.24761577  1
  Cu  Cu3  1  0.49771673  0.33014756  0.75238423  1
  Cu  Cu4  1  0.99771673  0.66985244  0.25238423  1
  Cu  Cu5  1  0.99771673  0.66985244  0.74761577  1
  Sn  Sn6  1  0.00068835  0.16965213  0.50000000  1
  Sn  Sn7  1  0.50068835  0.83034787  -0.00000000  1
  S  S8  1  0.13409767  0.34504241  0.24059565  1
  S  S9  1  0.13409767  0.34504241  0.75940435  1
  S  S10  1  0.63409767  0.65495759  0.25940435  1
  S  S11  1  0.63409767  0.65495759  0.74059565  1
  S  S12  1  0.61171765  0.17748674  0.50000000  1
  S  S13  1  0.11171765  0.82251326  0.00000000  1
  S  S14  1  0.12832092  0.82112788  0.50000000  1
  S  S15  1  0.62832092  0.17887212  -0.00000000  1
