# generated using pymatgen
data_La7ZnNi2
_symmetry_space_group_name_H-M   'P 1'
_cell_length_a   3.81319630
_cell_length_b   12.40178390
_cell_length_c   12.40178390
_cell_angle_alpha   90.00000000
_cell_angle_beta   90.00000000
_cell_angle_gamma   90.00000000
_symmetry_Int_Tables_number   1
_chemical_formula_structural   La7ZnNi2
_chemical_formula_sum   'La14 Zn2 Ni4'
_cell_volume   586.48577377
_cell_formula_units_Z   2
loop_
 _symmetry_equiv_pos_site_id
 _symmetry_equiv_pos_as_xyz
  1  'x, y, z'
loop_
 _atom_site_type_symbol
 _atom_site_label
 _atom_site_symmetry_multiplicity
 _atom_site_fract_x
 _atom_site_fract_y
 _atom_site_fract_z
 _atom_site_occupancy
  La  La0  1  0.50000000  0.00000000  0.50000000  1
  La  La1  1  0.50000000  0.50000000  0.00000000  1
  La  La2  1  0.00000000  0.32284626  0.82284626  1
  La  La3  1  -0.00000000  0.67715374  0.17715374  1
  La  La4  1  0.00000000  0.17715374  0.32284626  1
  La  La5  1  -0.00000000  0.82284626  0.67715374  1
  La  La6  1  0.50000000  0.55786758  0.70548106  1
  La  La7  1  0.50000000  0.44213242  0.29451894  1
  La  La8  1  0.50000000  0.94213242  0.20548106  1
  La  La9  1  0.50000000  0.05786758  0.79451894  1
  La  La10  1  0.50000000  0.70548106  0.44213242  1
  La  La11  1  0.50000000  0.29451894  0.55786758  1
  La  La12  1  0.50000000  0.20548106  0.05786758  1
  La  La13  1  0.50000000  0.79451894  0.94213242  1
  Zn  Zn14  1  -0.00000000  0.50000000  0.50000000  1
  Zn  Zn15  1  -0.00000000  0.00000000  0.00000000  1
  Ni  Ni16  1  0.00000000  0.12904364  0.62904364  1
  Ni  Ni17  1  -0.00000000  0.87095636  0.37095636  1
  Ni  Ni18  1  0.00000000  0.37095636  0.12904364  1
  Ni  Ni19  1  -0.00000000  0.62904364  0.87095636  1
