# generated using pymatgen
data_KGd(MoO4)2
_symmetry_space_group_name_H-M   'P 1'
_cell_length_a   5.37129948
_cell_length_b   7.04441788
_cell_length_c   10.84508367
_cell_angle_alpha   75.60959965
_cell_angle_beta   76.84248813
_cell_angle_gamma   67.58125388
_symmetry_Int_Tables_number   1
_chemical_formula_structural   KGd(MoO4)2
_chemical_formula_sum   'K2 Gd2 Mo4 O16'
_cell_volume   363.37057134
_cell_formula_units_Z   2
loop_
 _symmetry_equiv_pos_site_id
 _symmetry_equiv_pos_as_xyz
  1  'x, y, z'
loop_
 _atom_site_type_symbol
 _atom_site_label
 _atom_site_symmetry_multiplicity
 _atom_site_fract_x
 _atom_site_fract_y
 _atom_site_fract_z
 _atom_site_occupancy
  K  K0  1  0.11465313  0.69527931  0.55685793  1
  K  K1  1  0.88534687  0.30472069  0.44314207  1
  Gd  Gd2  1  0.87852174  0.81495761  0.93818210  1
  Gd  Gd3  1  0.12147826  0.18504239  0.06181790  1
  Mo  Mo4  1  0.61475698  0.42862389  0.83030796  1
  Mo  Mo5  1  0.38524302  0.57137611  0.16969204  1
  Mo  Mo6  1  0.36397478  0.06076880  0.71725655  1
  Mo  Mo7  1  0.63602522  0.93923120  0.28274345  1
  O  O8  1  0.82234517  0.41350331  0.68097161  1
  O  O9  1  0.17765483  0.58649669  0.31902839  1
  O  O10  1  0.53920941  0.18732769  0.91549294  1
  O  O11  1  0.46079059  0.81267231  0.08450706  1
  O  O12  1  0.80376047  0.48358372  0.93175400  1
  O  O13  1  0.19623953  0.51641628  0.06824600  1
  O  O14  1  0.30140408  0.64171154  0.80828180  1
  O  O15  1  0.69859592  0.35828846  0.19171820  1
  O  O16  1  0.69917552  0.87524098  0.75049995  1
  O  O17  1  0.30082448  0.12475902  0.24950005  1
  O  O18  1  0.11537272  0.05874910  0.87158508  1
  O  O19  1  0.88462728  0.94125090  0.12841492  1
  O  O20  1  0.40424067  0.30474146  0.65393175  1
  O  O21  1  0.59575933  0.69525854  0.34606825  1
  O  O22  1  0.25295798  0.99952179  0.59697601  1
  O  O23  1  0.74704202  0.00047821  0.40302399  1
