# generated using pymatgen
data_Ce2Ir7
_symmetry_space_group_name_H-M   'P 1'
_cell_length_a   5.32641608
_cell_length_b   5.32641608
_cell_length_c   13.55807798
_cell_angle_alpha   78.67175036
_cell_angle_beta   78.67175036
_cell_angle_gamma   59.99999129
_symmetry_Int_Tables_number   1
_chemical_formula_structural   Ce2Ir7
_chemical_formula_sum   'Ce4 Ir14'
_cell_volume   324.43664507
_cell_formula_units_Z   2
loop_
 _symmetry_equiv_pos_site_id
 _symmetry_equiv_pos_as_xyz
  1  'x, y, z'
loop_
 _atom_site_type_symbol
 _atom_site_label
 _atom_site_symmetry_multiplicity
 _atom_site_fract_x
 _atom_site_fract_y
 _atom_site_fract_z
 _atom_site_occupancy
  Ce  Ce0  1  0.05029496  0.05029496  0.84911511  1
  Ce  Ce1  1  0.94970504  0.94970504  0.15088489  1
  Ce  Ce2  1  0.14713170  0.14713170  0.55860490  1
  Ce  Ce3  1  0.85286830  0.85286830  0.44139510  1
  Ir  Ir4  1  0.50000000  0.50000000  0.50000000  1
  Ir  Ir5  1  0.27782152  0.27782152  0.16653545  1
  Ir  Ir6  1  0.72217848  0.72217848  0.83346455  1
  Ir  Ir7  1  0.38913905  0.38913905  0.83258285  1
  Ir  Ir8  1  0.61086095  0.61086095  0.16741715  1
  Ir  Ir9  1  0.50000000  0.50000000  0.00000000  1
  Ir  Ir10  1  0.50000000  0.00000000  0.00000000  1
  Ir  Ir11  1  0.00000000  0.50000000  0.00000000  1
  Ir  Ir12  1  0.10828543  0.61156164  0.66859129  1
  Ir  Ir13  1  0.61156164  0.61156164  0.66859129  1
  Ir  Ir14  1  0.61156164  0.10828543  0.66859129  1
  Ir  Ir15  1  0.89171457  0.38843836  0.33140871  1
  Ir  Ir16  1  0.38843836  0.38843836  0.33140871  1
  Ir  Ir17  1  0.38843836  0.89171457  0.33140871  1
