# generated using pymatgen
data_NaVH2I2O9
_symmetry_space_group_name_H-M   'P 1'
_cell_length_a   5.33921965
_cell_length_b   9.16189271
_cell_length_c   9.24807488
_cell_angle_alpha   110.54342313
_cell_angle_beta   90.00000000
_cell_angle_gamma   90.00000000
_symmetry_Int_Tables_number   1
_chemical_formula_structural   NaVH2I2O9
_chemical_formula_sum   'Na2 V2 H4 I4 O18'
_cell_volume   423.62223704
_cell_formula_units_Z   2
loop_
 _symmetry_equiv_pos_site_id
 _symmetry_equiv_pos_as_xyz
  1  'x, y, z'
loop_
 _atom_site_type_symbol
 _atom_site_label
 _atom_site_symmetry_multiplicity
 _atom_site_fract_x
 _atom_site_fract_y
 _atom_site_fract_z
 _atom_site_occupancy
  Na  Na0  1  0.24175306  0.04014738  0.82787919  1
  Na  Na1  1  0.74175306  0.95985262  0.17212081  1
  V  V2  1  0.21705899  0.72562203  0.88661480  1
  V  V3  1  0.71705899  0.27437797  0.11338520  1
  H  H4  1  0.54861777  0.10565671  0.58747728  1
  H  H5  1  0.04861777  0.89434329  0.41252272  1
  H  H6  1  0.71349516  0.03056987  0.68250810  1
  H  H7  1  0.21349516  0.96943013  0.31749190  1
  I  I8  1  0.89955864  0.37898572  0.81295133  1
  I  I9  1  0.39955864  0.62101428  0.18704867  1
  I  I10  1  0.82541127  0.67817073  0.56640295  1
  I  I11  1  0.32541127  0.32182927  0.43359705  1
  O  O12  1  0.95214864  0.25952070  0.93904926  1
  O  O13  1  0.45214864  0.74047930  0.06095074  1
  O  O14  1  0.14546924  0.52342103  0.92586454  1
  O  O15  1  0.64546924  0.47657897  0.07413546  1
  O  O16  1  0.09268438  0.25937957  0.65587371  1
  O  O17  1  0.59268438  0.74062043  0.34412629  1
  O  O18  1  0.05747187  0.57998667  0.42163721  1
  O  O19  1  0.55747187  0.42001333  0.57836279  1
  O  O20  1  0.94068755  0.87851071  0.62433179  1
  O  O21  1  0.44068755  0.12148929  0.37566821  1
  O  O22  1  0.97200466  0.61349422  0.72385947  1
  O  O23  1  0.47200466  0.38650578  0.27614053  1
  O  O24  1  0.04779047  0.88386742  0.97235698  1
  O  O25  1  0.54779047  0.11613258  0.02764302  1
  O  O26  1  0.42853879  0.77387062  0.77863772  1
  O  O27  1  0.92853879  0.22612938  0.22136228  1
  O  O28  1  0.58643951  0.11351175  0.69396113  1
  O  O29  1  0.08643951  0.88648825  0.30603887  1
