# generated using pymatgen
data_Eu2Ga2GeS7
_symmetry_space_group_name_H-M   'P 1'
_cell_length_a   6.35609671
_cell_length_b   9.69454703
_cell_length_c   9.69454703
_cell_angle_alpha   90.00000000
_cell_angle_beta   90.00000000
_cell_angle_gamma   90.00000000
_symmetry_Int_Tables_number   1
_chemical_formula_structural   Eu2Ga2GeS7
_chemical_formula_sum   'Eu4 Ga4 Ge2 S14'
_cell_volume   597.37293211
_cell_formula_units_Z   2
loop_
 _symmetry_equiv_pos_site_id
 _symmetry_equiv_pos_as_xyz
  1  'x, y, z'
loop_
 _atom_site_type_symbol
 _atom_site_label
 _atom_site_symmetry_multiplicity
 _atom_site_fract_x
 _atom_site_fract_y
 _atom_site_fract_z
 _atom_site_occupancy
  Eu  Eu0  1  0.51654940  0.84694893  0.34694893  1
  Eu  Eu1  1  0.48345060  0.65305107  0.84694893  1
  Eu  Eu2  1  0.51654940  0.15305107  0.65305107  1
  Eu  Eu3  1  0.48345060  0.34694893  0.15305107  1
  Ga  Ga4  1  0.96951458  0.35320600  0.85320600  1
  Ga  Ga5  1  0.03048542  0.14679400  0.35320600  1
  Ga  Ga6  1  0.96951458  0.64679400  0.14679400  1
  Ga  Ga7  1  0.03048542  0.85320600  0.64679400  1
  Ge  Ge8  1  0.00000000  0.50000000  0.50000000  1
  Ge  Ge9  1  0.00000000  -0.00000000  -0.00000000  1
  S  S10  1  0.31626978  0.35458529  0.85458529  1
  S  S11  1  0.68373022  0.14541471  0.35458529  1
  S  S12  1  0.31626978  0.64541471  0.14541471  1
  S  S13  1  0.68373022  0.85458529  0.64541471  1
  S  S14  1  0.20179285  -0.00000000  0.50000000  1
  S  S15  1  0.79820715  0.50000000  -0.00000000  1
  S  S16  1  0.22643667  0.34120728  0.41891818  1
  S  S17  1  0.77356333  0.15879272  0.91891818  1
  S  S18  1  0.22643667  0.65879272  0.58108182  1
  S  S19  1  0.77356333  0.84120728  0.08108182  1
  S  S20  1  0.77356333  0.58108182  0.34120728  1
  S  S21  1  0.22643667  0.91891818  0.84120728  1
  S  S22  1  0.77356333  0.41891818  0.65879272  1
  S  S23  1  0.22643667  0.08108182  0.15879272  1
