# generated using pymatgen
data_In4Pd17Se4
_symmetry_space_group_name_H-M   'P 1'
_cell_length_a   4.03683976
_cell_length_b   10.50643285
_cell_length_c   10.50643285
_cell_angle_alpha   87.88488520
_cell_angle_beta   78.92388865
_cell_angle_gamma   78.92388865
_symmetry_Int_Tables_number   1
_chemical_formula_structural   In4Pd17Se4
_chemical_formula_sum   'In4 Pd17 Se4'
_cell_volume   429.16091778
_cell_formula_units_Z   1
loop_
 _symmetry_equiv_pos_site_id
 _symmetry_equiv_pos_as_xyz
  1  'x, y, z'
loop_
 _atom_site_type_symbol
 _atom_site_label
 _atom_site_symmetry_multiplicity
 _atom_site_fract_x
 _atom_site_fract_y
 _atom_site_fract_z
 _atom_site_occupancy
  In  In0  1  0.66161043  0.72284511  0.95393404  1
  In  In1  1  0.33838957  0.27715489  0.04606596  1
  In  In2  1  0.38445553  0.95393404  0.27715489  1
  In  In3  1  0.61554447  0.04606596  0.72284511  1
  Pd  Pd4  1  0.81537503  0.43631472  0.93293521  1
  Pd  Pd5  1  0.18462497  0.56368528  0.06706479  1
  Pd  Pd6  1  0.25168975  0.93293521  0.56368528  1
  Pd  Pd7  1  0.74831025  0.06706479  0.43631472  1
  Pd  Pd8  1  0.77230880  0.77303867  0.68234373  1
  Pd  Pd9  1  0.22769120  0.22696133  0.31765627  1
  Pd  Pd10  1  0.54534747  0.68234373  0.22696133  1
  Pd  Pd11  1  0.45465253  0.31765627  0.77303867  1
  Pd  Pd12  1  0.30187193  0.60690190  0.78935425  1
  Pd  Pd13  1  0.69812807  0.39309810  0.21064575  1
  Pd  Pd14  1  0.90877383  0.78935425  0.39309810  1
  Pd  Pd15  1  0.09122617  0.21064575  0.60690190  1
  Pd  Pd16  1  0.97882367  0.15766639  0.88468627  1
  Pd  Pd17  1  0.02117633  0.84233361  0.11531373  1
  Pd  Pd18  1  0.13649006  0.88468627  0.84233361  1
  Pd  Pd19  1  0.86350994  0.11531373  0.15766639  1
  Pd  Pd20  1  0.50000000  -0.00000000  -0.00000000  1
  Se  Se21  1  0.92875374  0.44829464  0.69419788  1
  Se  Se22  1  0.07124626  0.55170536  0.30580212  1
  Se  Se23  1  0.37704838  0.69419788  0.55170536  1
  Se  Se24  1  0.62295162  0.30580212  0.44829464  1
