# generated using pymatgen
data_NbCo2
_symmetry_space_group_name_H-M   'P 1'
_cell_length_a   4.77782804
_cell_length_b   4.77782804
_cell_length_c   15.58971081
_cell_angle_alpha   90.00000000
_cell_angle_beta   90.00000000
_cell_angle_gamma   120.02056532
_symmetry_Int_Tables_number   1
_chemical_formula_structural   NbCo2
_chemical_formula_sum   'Nb8 Co16'
_cell_volume   308.13404448
_cell_formula_units_Z   8
loop_
 _symmetry_equiv_pos_site_id
 _symmetry_equiv_pos_as_xyz
  1  'x, y, z'
loop_
 _atom_site_type_symbol
 _atom_site_label
 _atom_site_symmetry_multiplicity
 _atom_site_fract_x
 _atom_site_fract_y
 _atom_site_fract_z
 _atom_site_occupancy
  Nb  Nb0  1  0.00012347  0.99987653  0.59301276  1
  Nb  Nb1  1  0.99987653  0.00012347  0.40698724  1
  Nb  Nb2  1  0.99987653  0.00012347  0.09301276  1
  Nb  Nb3  1  0.00012347  0.99987653  0.90698724  1
  Nb  Nb4  1  0.66668653  0.33331347  0.34390668  1
  Nb  Nb5  1  0.33331347  0.66668653  0.65609332  1
  Nb  Nb6  1  0.33331347  0.66668653  0.84390668  1
  Nb  Nb7  1  0.66668653  0.33331347  0.15609332  1
  Co  Co8  1  0.66662905  0.33337095  0.62543208  1
  Co  Co9  1  0.33337095  0.66662905  0.37456792  1
  Co  Co10  1  0.33337095  0.66662905  0.12543208  1
  Co  Co11  1  0.66662905  0.33337095  0.87456792  1
  Co  Co12  1  0.50000000  0.00000000  0.50000000  1
  Co  Co13  1  0.50000000  0.50000000  0.50000000  1
  Co  Co14  1  0.00000000  0.50000000  0.50000000  1
  Co  Co15  1  0.50000000  0.00000000  0.00000000  1
  Co  Co16  1  0.50000000  0.50000000  0.00000000  1
  Co  Co17  1  0.00000000  0.50000000  0.00000000  1
  Co  Co18  1  0.83420587  0.66852793  0.75000000  1
  Co  Co19  1  0.83424427  0.16575573  0.75000000  1
  Co  Co20  1  0.33147207  0.16579413  0.75000000  1
  Co  Co21  1  0.16579413  0.33147207  0.25000000  1
  Co  Co22  1  0.16575573  0.83424427  0.25000000  1
  Co  Co23  1  0.66852793  0.83420587  0.25000000  1
