# generated using pymatgen
data_Tb5(In2Pd)2
_symmetry_space_group_name_H-M   'P 1'
_cell_length_a   3.67390139
_cell_length_b   8.10378646
_cell_length_c   18.39904471
_cell_angle_alpha   90.00000000
_cell_angle_beta   90.00000000
_cell_angle_gamma   90.00000000
_symmetry_Int_Tables_number   1
_chemical_formula_structural   Tb5(In2Pd)2
_chemical_formula_sum   'Tb10 In8 Pd4'
_cell_volume   547.78578567
_cell_formula_units_Z   2
loop_
 _symmetry_equiv_pos_site_id
 _symmetry_equiv_pos_as_xyz
  1  'x, y, z'
loop_
 _atom_site_type_symbol
 _atom_site_label
 _atom_site_symmetry_multiplicity
 _atom_site_fract_x
 _atom_site_fract_y
 _atom_site_fract_z
 _atom_site_occupancy
  Tb  Tb0  1  0.00000000  0.50000000  0.50000000  1
  Tb  Tb1  1  0.00000000  0.00000000  -0.00000000  1
  Tb  Tb2  1  -0.00000000  0.74432093  0.27925033  1
  Tb  Tb3  1  0.00000000  0.25567907  0.72074967  1
  Tb  Tb4  1  0.00000000  0.75567907  0.77925033  1
  Tb  Tb5  1  0.00000000  0.24432093  0.22074967  1
  Tb  Tb6  1  0.00000000  0.61468733  0.08203677  1
  Tb  Tb7  1  0.00000000  0.38531267  0.91796323  1
  Tb  Tb8  1  0.00000000  0.88531267  0.58203677  1
  Tb  Tb9  1  0.00000000  0.11468733  0.41796323  1
  In  In10  1  0.50000000  0.71263955  0.93002009  1
  In  In11  1  0.50000000  0.28736045  0.06997991  1
  In  In12  1  0.50000000  0.78736045  0.43002009  1
  In  In13  1  0.50000000  0.21263955  0.56997991  1
  In  In14  1  0.50000000  0.57689031  0.64850977  1
  In  In15  1  0.50000000  0.42310969  0.35149023  1
  In  In16  1  0.50000000  0.92310969  0.14850977  1
  In  In17  1  0.50000000  0.07689031  0.85149023  1
  Pd  Pd18  1  0.50000000  0.52796129  0.19564196  1
  Pd  Pd19  1  0.50000000  0.47203871  0.80435804  1
  Pd  Pd20  1  0.50000000  0.97203871  0.69564196  1
  Pd  Pd21  1  0.50000000  0.02796129  0.30435804  1
