# generated using pymatgen
data_Tm6Fe23
_symmetry_space_group_name_H-M   'P 1'
_cell_length_a   8.45886915
_cell_length_b   8.45886915
_cell_length_c   8.45886915
_cell_angle_alpha   60.00000000
_cell_angle_beta   60.00000000
_cell_angle_gamma   60.00000000
_symmetry_Int_Tables_number   1
_chemical_formula_structural   Tm6Fe23
_chemical_formula_sum   'Tm6 Fe23'
_cell_volume   427.97847171
_cell_formula_units_Z   1
loop_
 _symmetry_equiv_pos_site_id
 _symmetry_equiv_pos_as_xyz
  1  'x, y, z'
loop_
 _atom_site_type_symbol
 _atom_site_label
 _atom_site_symmetry_multiplicity
 _atom_site_fract_x
 _atom_site_fract_y
 _atom_site_fract_z
 _atom_site_occupancy
  Tm  Tm0  1  0.70977087  0.29022913  0.29022913  1
  Tm  Tm1  1  0.70977087  0.29022913  0.70977087  1
  Tm  Tm2  1  0.70977087  0.70977087  0.29022913  1
  Tm  Tm3  1  0.29022913  0.70977087  0.70977087  1
  Tm  Tm4  1  0.29022913  0.70977087  0.29022913  1
  Tm  Tm5  1  0.29022913  0.29022913  0.70977087  1
  Fe  Fe6  1  0.00000000  -0.00000000  0.00000000  1
  Fe  Fe7  1  0.50000000  -0.00000000  0.00000000  1
  Fe  Fe8  1  0.50000000  -0.00000000  0.50000000  1
  Fe  Fe9  1  0.50000000  0.50000000  0.00000000  1
  Fe  Fe10  1  0.00000000  0.50000000  0.50000000  1
  Fe  Fe11  1  0.00000000  0.50000000  0.00000000  1
  Fe  Fe12  1  0.00000000  -0.00000000  0.50000000  1
  Fe  Fe13  1  0.63580604  0.12139799  0.12139799  1
  Fe  Fe14  1  0.12139799  0.63580604  0.12139799  1
  Fe  Fe15  1  0.12139799  0.12139799  0.63580604  1
  Fe  Fe16  1  0.12139799  0.12139799  0.12139799  1
  Fe  Fe17  1  0.36419396  0.87860201  0.87860201  1
  Fe  Fe18  1  0.87860201  0.36419396  0.87860201  1
  Fe  Fe19  1  0.87860201  0.87860201  0.36419396  1
  Fe  Fe20  1  0.87860201  0.87860201  0.87860201  1
  Fe  Fe21  1  0.02430381  0.32523206  0.32523206  1
  Fe  Fe22  1  0.32523206  0.02430381  0.32523206  1
  Fe  Fe23  1  0.32523206  0.32523206  0.02430381  1
  Fe  Fe24  1  0.32523206  0.32523206  0.32523206  1
  Fe  Fe25  1  0.97569619  0.67476794  0.67476794  1
  Fe  Fe26  1  0.67476794  0.97569619  0.67476794  1
  Fe  Fe27  1  0.67476794  0.67476794  0.97569619  1
  Fe  Fe28  1  0.67476794  0.67476794  0.67476794  1
