# generated using pymatgen
data_Na(RuO2)2
_symmetry_space_group_name_H-M   'P 1'
_cell_length_a   2.81342680
_cell_length_b   9.53068537
_cell_length_c   11.27884549
_cell_angle_alpha   90.00000000
_cell_angle_beta   90.00000000
_cell_angle_gamma   90.00000000
_symmetry_Int_Tables_number   1
_chemical_formula_structural   Na(RuO2)2
_chemical_formula_sum   'Na4 Ru8 O16'
_cell_volume   302.42967315
_cell_formula_units_Z   4
loop_
 _symmetry_equiv_pos_site_id
 _symmetry_equiv_pos_as_xyz
  1  'x, y, z'
loop_
 _atom_site_type_symbol
 _atom_site_label
 _atom_site_symmetry_multiplicity
 _atom_site_fract_x
 _atom_site_fract_y
 _atom_site_fract_z
 _atom_site_occupancy
  Na  Na0  1  0.75000000  0.25915370  0.84418330  1
  Na  Na1  1  0.75000000  0.75915370  0.65581670  1
  Na  Na2  1  0.25000000  0.74084630  0.15581670  1
  Na  Na3  1  0.25000000  0.24084630  0.34418330  1
  Ru  Ru4  1  0.75000000  0.43953832  0.61668274  1
  Ru  Ru5  1  0.75000000  0.93953832  0.88331726  1
  Ru  Ru6  1  0.25000000  0.56046168  0.38331726  1
  Ru  Ru7  1  0.25000000  0.06046168  0.11668274  1
  Ru  Ru8  1  0.75000000  0.41462298  0.10521755  1
  Ru  Ru9  1  0.75000000  0.91462298  0.39478245  1
  Ru  Ru10  1  0.25000000  0.58537702  0.89478245  1
  Ru  Ru11  1  0.25000000  0.08537702  0.60521755  1
  O  O12  1  0.75000000  0.20913767  0.16000168  1
  O  O13  1  0.75000000  0.70913767  0.33999832  1
  O  O14  1  0.25000000  0.79086233  0.83999832  1
  O  O15  1  0.25000000  0.29086233  0.66000168  1
  O  O16  1  0.75000000  0.10972764  0.47216385  1
  O  O17  1  0.75000000  0.60972764  0.02783615  1
  O  O18  1  0.25000000  0.89027236  0.52783615  1
  O  O19  1  0.25000000  0.39027236  0.97216385  1
  O  O20  1  0.75000000  0.02781075  0.72237780  1
  O  O21  1  0.75000000  0.52781075  0.77762220  1
  O  O22  1  0.25000000  0.97218925  0.27762220  1
  O  O23  1  0.25000000  0.47218925  0.22237780  1
  O  O24  1  0.75000000  0.41427670  0.43690897  1
  O  O25  1  0.75000000  0.91427670  0.06309103  1
  O  O26  1  0.25000000  0.58572330  0.56309103  1
  O  O27  1  0.25000000  0.08572330  0.93690897  1
