# generated using pymatgen
data_NaLiSi2H4O7
_symmetry_space_group_name_H-M   'P 1'
_cell_length_a   5.16006517
_cell_length_b   8.38313791
_cell_length_c   8.38313791
_cell_angle_alpha   60.77196116
_cell_angle_beta   84.29403899
_cell_angle_gamma   84.29403899
_symmetry_Int_Tables_number   1
_chemical_formula_structural   NaLiSi2H4O7
_chemical_formula_sum   'Na2 Li2 Si4 H8 O14'
_cell_volume   314.35558893
_cell_formula_units_Z   2
loop_
 _symmetry_equiv_pos_site_id
 _symmetry_equiv_pos_as_xyz
  1  'x, y, z'
loop_
 _atom_site_type_symbol
 _atom_site_label
 _atom_site_symmetry_multiplicity
 _atom_site_fract_x
 _atom_site_fract_y
 _atom_site_fract_z
 _atom_site_occupancy
  Na  Na0  1  0.25000000  0.35316915  0.14683085  1
  Na  Na1  1  0.75000000  0.64683085  0.85316915  1
  Li  Li2  1  0.25000000  0.99130735  0.50869265  1
  Li  Li3  1  0.75000000  0.00869265  0.49130735  1
  Si  Si4  1  0.45426510  0.09012301  0.78335019  1
  Si  Si5  1  0.04573490  0.71664981  0.40987699  1
  Si  Si6  1  0.54573490  0.90987699  0.21664981  1
  Si  Si7  1  0.95426510  0.28335019  0.59012301  1
  H  H8  1  0.47384081  0.44715811  0.74799100  1
  H  H9  1  0.02615919  0.75200900  0.05284189  1
  H  H10  1  0.52615919  0.55284189  0.25200900  1
  H  H11  1  0.97384081  0.24799100  0.94715811  1
  H  H12  1  0.26941952  0.61120508  0.71819259  1
  H  H13  1  0.23058048  0.78180741  0.88879492  1
  H  H14  1  0.73058048  0.38879492  0.28180741  1
  H  H15  1  0.76941952  0.21819259  0.11120508  1
  O  O16  1  0.48995133  0.94815475  0.70492557  1
  O  O17  1  0.01004867  0.79507443  0.55184525  1
  O  O18  1  0.51004867  0.05184525  0.29507443  1
  O  O19  1  0.98995133  0.20492557  0.44815475  1
  O  O20  1  0.15109320  0.18233149  0.76222014  1
  O  O21  1  0.34890680  0.73777986  0.31766851  1
  O  O22  1  0.84890680  0.81766851  0.23777986  1
  O  O23  1  0.65109320  0.26222014  0.68233149  1
  O  O24  1  0.50000000  -0.00000000  -0.00000000  1
  O  O25  1  -0.00000000  0.50000000  0.50000000  1
  O  O26  1  0.40075517  0.52394009  0.80141145  1
  O  O27  1  0.09924483  0.69858855  0.97605991  1
  O  O28  1  0.59924483  0.47605991  0.19858855  1
  O  O29  1  0.90075517  0.30141145  0.02394009  1
