# generated using pymatgen
data_CsSiI3
_symmetry_space_group_name_H-M   'P 1'
_cell_length_a   6.12577682
_cell_length_b   6.12838859
_cell_length_c   6.11374248
_cell_angle_alpha   87.51433412
_cell_angle_beta   88.00301673
_cell_angle_gamma   86.71502769
_symmetry_Int_Tables_number   1
_chemical_formula_structural   CsSiI3
_chemical_formula_sum   'Cs1 Si1 I3'
_cell_volume   228.80361937
_cell_formula_units_Z   1
loop_
 _symmetry_equiv_pos_site_id
 _symmetry_equiv_pos_as_xyz
  1  'x, y, z'
loop_
 _atom_site_type_symbol
 _atom_site_label
 _atom_site_symmetry_multiplicity
 _atom_site_fract_x
 _atom_site_fract_y
 _atom_site_fract_z
 _atom_site_occupancy
  Cs  Cs0  1  0.00135469  0.99898758  0.00315425  1
  Si  Si1  1  0.54158374  0.53879488  0.53815303  1
  I  I2  1  0.50386666  0.49474763  0.97478303  1
  I  I3  1  0.49608206  0.97487086  0.50282007  1
  I  I4  1  0.97766085  0.49617106  0.50163862  1
