# generated using pymatgen
data_Th2Te3MoO13
_symmetry_space_group_name_H-M   'P 1'
_cell_length_a   7.19103217
_cell_length_b   11.50721035
_cell_length_c   14.22629790
_cell_angle_alpha   90.57023456
_cell_angle_beta   90.00000000
_cell_angle_gamma   90.00000000
_symmetry_Int_Tables_number   1
_chemical_formula_structural   Th2Te3MoO13
_chemical_formula_sum   'Th8 Te12 Mo4 O52'
_cell_volume   1177.14963761
_cell_formula_units_Z   4
loop_
 _symmetry_equiv_pos_site_id
 _symmetry_equiv_pos_as_xyz
  1  'x, y, z'
loop_
 _atom_site_type_symbol
 _atom_site_label
 _atom_site_symmetry_multiplicity
 _atom_site_fract_x
 _atom_site_fract_y
 _atom_site_fract_z
 _atom_site_occupancy
  Th  Th0  1  0.10805062  0.74711687  0.25279059  1
  Th  Th1  1  0.60805062  0.25288313  0.24720941  1
  Th  Th2  1  0.89194938  0.25288313  0.74720941  1
  Th  Th3  1  0.39194938  0.74711687  0.75279059  1
  Th  Th4  1  0.74396564  0.08069523  0.49698722  1
  Th  Th5  1  0.24396564  0.91930477  0.00301278  1
  Th  Th6  1  0.25603436  0.91930477  0.50301278  1
  Th  Th7  1  0.75603436  0.08069523  0.99698722  1
  Te  Te8  1  0.24321891  0.23199924  0.52066153  1
  Te  Te9  1  0.74321891  0.76800076  0.97933847  1
  Te  Te10  1  0.75678109  0.76800076  0.47933847  1
  Te  Te11  1  0.25678109  0.23199924  0.02066153  1
  Te  Te12  1  0.18526276  0.05593472  0.25428478  1
  Te  Te13  1  0.68526276  0.94406528  0.24571522  1
  Te  Te14  1  0.81473724  0.94406528  0.74571522  1
  Te  Te15  1  0.31473724  0.05593472  0.75428478  1
  Te  Te16  1  0.77834110  0.38722854  0.50225302  1
  Te  Te17  1  0.27834110  0.61277146  0.99774698  1
  Te  Te18  1  0.22165890  0.61277146  0.49774698  1
  Te  Te19  1  0.72165890  0.38722854  0.00225302  1
  Mo  Mo20  1  0.12994380  0.41767133  0.26138358  1
  Mo  Mo21  1  0.62994380  0.58232867  0.23861642  1
  Mo  Mo22  1  0.87005620  0.58232867  0.73861642  1
  Mo  Mo23  1  0.37005620  0.41767133  0.76138358  1
  O  O24  1  0.23947431  0.73783395  0.41033655  1
  O  O25  1  0.73947431  0.26216605  0.08966345  1
  O  O26  1  0.76052569  0.26216605  0.58966345  1
  O  O27  1  0.26052569  0.73783395  0.91033655  1
  O  O28  1  0.92441178  0.88694355  0.52367722  1
  O  O29  1  0.42441178  0.11305645  0.97632278  1
  O  O30  1  0.07558822  0.11305645  0.47632278  1
  O  O31  1  0.57558822  0.88694355  0.02367722  1
  O  O32  1  0.96683911  0.63185306  0.52469241  1
  O  O33  1  0.46683911  0.36814694  0.97530759  1
  O  O34  1  0.03316089  0.36814694  0.47530759  1
  O  O35  1  0.53316089  0.63185306  0.02469241  1
  O  O36  1  0.83148999  0.77400306  0.35255585  1
  O  O37  1  0.33148999  0.22599694  0.14744415  1
  O  O38  1  0.16851001  0.22599694  0.64744415  1
  O  O39  1  0.66851001  0.77400306  0.85255585  1
  O  O40  1  0.68201204  0.27136569  0.41407814  1
  O  O41  1  0.18201204  0.72863431  0.08592186  1
  O  O42  1  0.31798796  0.72863431  0.58592186  1
  O  O43  1  0.81798796  0.27136569  0.91407814  1
  O  O44  1  0.16275980  0.35472524  0.81125862  1
  O  O45  1  0.66275980  0.64527476  0.68874138  1
  O  O46  1  0.83724020  0.64527476  0.18874138  1
  O  O47  1  0.33724020  0.35472524  0.31125862  1
  O  O48  1  0.71453972  0.05632145  0.83255305  1
  O  O49  1  0.21453972  0.94367855  0.66744695  1
  O  O50  1  0.28546028  0.94367855  0.16744695  1
  O  O51  1  0.78546028  0.05632145  0.33255305  1
  O  O52  1  0.42537850  0.09854315  0.53645984  1
  O  O53  1  0.92537850  0.90145685  0.96354016  1
  O  O54  1  0.57462150  0.90145685  0.46354016  1
  O  O55  1  0.07462150  0.09854315  0.03645984  1
  O  O56  1  0.56735810  0.32066649  0.76290803  1
  O  O57  1  0.06735810  0.67933351  0.73709197  1
  O  O58  1  0.43264190  0.67933351  0.23709197  1
  O  O59  1  0.93264190  0.32066649  0.26290803  1
  O  O60  1  0.16524773  0.92981054  0.34202478  1
  O  O61  1  0.66524773  0.07018946  0.15797522  1
  O  O62  1  0.83475227  0.07018946  0.65797522  1
  O  O63  1  0.33475227  0.92981054  0.84202478  1
  O  O64  1  0.41096597  0.10520549  0.31179401  1
  O  O65  1  0.91096597  0.89479451  0.18820599  1
  O  O66  1  0.58903403  0.89479451  0.68820599  1
  O  O67  1  0.08903403  0.10520549  0.81179401  1
  O  O68  1  0.41052701  0.55404961  0.82456207  1
  O  O69  1  0.91052701  0.44595039  0.67543793  1
  O  O70  1  0.58947299  0.44595039  0.17543793  1
  O  O71  1  0.08947299  0.55404961  0.32456207  1
  O  O72  1  0.16513171  0.46381187  0.14463177  1
  O  O73  1  0.66513171  0.53618813  0.35536823  1
  O  O74  1  0.83486829  0.53618813  0.85536823  1
  O  O75  1  0.33486829  0.46381187  0.64463177  1
