# generated using pymatgen
data_Hg3As2(HO4)2
_symmetry_space_group_name_H-M   'P 1'
_cell_length_a   8.03400240
_cell_length_b   8.03400240
_cell_length_c   8.89747879
_cell_angle_alpha   100.22415406
_cell_angle_beta   110.69965921
_cell_angle_gamma   114.32825461
_symmetry_Int_Tables_number   1
_chemical_formula_structural   Hg3As2(HO4)2
_chemical_formula_sum   'Hg6 As4 H4 O16'
_cell_volume   452.97771998
_cell_formula_units_Z   2
loop_
 _symmetry_equiv_pos_site_id
 _symmetry_equiv_pos_as_xyz
  1  'x, y, z'
loop_
 _atom_site_type_symbol
 _atom_site_label
 _atom_site_symmetry_multiplicity
 _atom_site_fract_x
 _atom_site_fract_y
 _atom_site_fract_z
 _atom_site_occupancy
  Hg  Hg0  1  0.19412953  0.41964106  0.91869831  1
  Hg  Hg1  1  0.00094276  0.27543123  0.58130169  1
  Hg  Hg2  1  0.80587047  0.58035894  0.08130169  1
  Hg  Hg3  1  0.99905724  0.72456877  0.41869831  1
  Hg  Hg4  1  0.51443870  0.76443870  0.75000000  1
  Hg  Hg5  1  0.48556130  0.23556130  0.25000000  1
  As  As6  1  0.50593719  0.27071412  0.63210897  1
  As  As7  1  0.13860515  0.87382822  0.86789103  1
  As  As8  1  0.49406281  0.72928588  0.36789103  1
  As  As9  1  0.86139485  0.12617178  0.13210897  1
  H  H10  1  0.72229077  0.19107539  0.82754164  1
  H  H11  1  0.86353375  0.89474913  0.67245836  1
  H  H12  1  0.27770923  0.80892461  0.17245836  1
  H  H13  1  0.13646625  0.10525087  0.32754164  1
  O  O14  1  0.61001832  0.12601336  0.69747398  1
  O  O15  1  0.92853938  0.91254434  0.80252602  1
  O  O16  1  0.38998168  0.87398664  0.30252602  1
  O  O17  1  0.07146062  0.08745566  0.19747398  1
  O  O18  1  0.62793646  0.37858792  0.51811005  1
  O  O19  1  0.36047787  0.10982641  0.98188995  1
  O  O20  1  0.37206354  0.62141208  0.48188995  1
  O  O21  1  0.63952213  0.89017359  0.01811005  1
  O  O22  1  0.88729820  0.26904079  0.01186982  1
  O  O23  1  0.75717097  0.87542838  0.48813018  1
  O  O24  1  0.11270180  0.73095921  0.98813018  1
  O  O25  1  0.24282903  0.12457162  0.51186982  1
  O  O26  1  0.57385402  0.46215854  0.80828970  1
  O  O27  1  0.15386884  0.76556432  0.69171030  1
  O  O28  1  0.42614598  0.53784146  0.19171030  1
  O  O29  1  0.84613116  0.23443568  0.30828970  1
