# generated using pymatgen
data_Ca2Co2O5
_symmetry_space_group_name_H-M   'P 1'
_cell_length_a   5.33269234
_cell_length_b   11.12037005
_cell_length_c   15.10223885
_cell_angle_alpha   90.00000000
_cell_angle_beta   90.00000000
_cell_angle_gamma   89.59601530
_symmetry_Int_Tables_number   1
_chemical_formula_structural   Ca2Co2O5
_chemical_formula_sum   'Ca16 Co16 O40'
_cell_volume   895.56333930
_cell_formula_units_Z   8
loop_
 _symmetry_equiv_pos_site_id
 _symmetry_equiv_pos_as_xyz
  1  'x, y, z'
loop_
 _atom_site_type_symbol
 _atom_site_label
 _atom_site_symmetry_multiplicity
 _atom_site_fract_x
 _atom_site_fract_y
 _atom_site_fract_z
 _atom_site_occupancy
  Ca  Ca0  1  0.97923248  0.73973245  0.61029895  1
  Ca  Ca1  1  0.02076752  0.26026755  0.11029895  1
  Ca  Ca2  1  0.02076752  0.26026755  0.38970105  1
  Ca  Ca3  1  0.97923248  0.73973245  0.88970105  1
  Ca  Ca4  1  0.97968271  0.76236405  0.10956476  1
  Ca  Ca5  1  0.02031729  0.23763595  0.60956476  1
  Ca  Ca6  1  0.02031729  0.23763595  0.89043524  1
  Ca  Ca7  1  0.97968271  0.76236405  0.39043524  1
  Ca  Ca8  1  0.51145607  0.98942629  0.10939256  1
  Ca  Ca9  1  0.48854393  0.01057371  0.60939256  1
  Ca  Ca10  1  0.48854393  0.01057371  0.89060744  1
  Ca  Ca11  1  0.51145607  0.98942629  0.39060744  1
  Ca  Ca12  1  0.51175615  0.51100215  0.61027471  1
  Ca  Ca13  1  0.48824385  0.48899785  0.11027471  1
  Ca  Ca14  1  0.48824385  0.48899785  0.38972529  1
  Ca  Ca15  1  0.51175615  0.51100215  0.88972529  1
  Co  Co16  1  0.55301318  0.28032319  0.75000000  1
  Co  Co17  1  0.44698682  0.71967681  0.25000000  1
  Co  Co18  1  0.44756997  0.78121036  0.75000000  1
  Co  Co19  1  0.55243003  0.21878964  0.25000000  1
  Co  Co20  1  0.95620233  0.97107303  0.75000000  1
  Co  Co21  1  0.04379767  0.02892697  0.25000000  1
  Co  Co22  1  0.04436446  0.46976946  0.75000000  1
  Co  Co23  1  0.95563554  0.53023054  0.25000000  1
  Co  Co24  1  0.00000000  0.50000000  0.50000000  1
  Co  Co25  1  0.00000000  0.50000000  -0.00000000  1
  Co  Co26  1  0.00000000  -0.00000000  0.50000000  1
  Co  Co27  1  0.00000000  -0.00000000  -0.00000000  1
  Co  Co28  1  0.49127941  0.75104169  0.50027373  1
  Co  Co29  1  0.50872059  0.24895831  0.00027373  1
  Co  Co30  1  0.50872059  0.24895831  0.49972627  1
  Co  Co31  1  0.49127941  0.75104169  0.99972627  1
  O  O32  1  0.91733165  0.30654544  0.75000000  1
  O  O33  1  0.08266835  0.69345456  0.25000000  1
  O  O34  1  0.08372952  0.80662064  0.75000000  1
  O  O35  1  0.91627048  0.19337936  0.25000000  1
  O  O36  1  0.40996057  0.44183626  0.75000000  1
  O  O37  1  0.59003943  0.55816374  0.25000000  1
  O  O38  1  0.58941761  0.94170630  0.75000000  1
  O  O39  1  0.41058239  0.05829370  0.25000000  1
  O  O40  1  0.97411459  0.53249273  0.64165181  1
  O  O41  1  0.02588541  0.46750727  0.14165181  1
  O  O42  1  0.02588541  0.46750727  0.35834819  1
  O  O43  1  0.97411459  0.53249273  0.85834819  1
  O  O44  1  0.97449229  0.96758729  0.14216504  1
  O  O45  1  0.02550771  0.03241271  0.64216504  1
  O  O46  1  0.02550771  0.03241271  0.85783496  1
  O  O47  1  0.97449229  0.96758729  0.35783496  1
  O  O48  1  0.50765722  0.78235539  0.14089525  1
  O  O49  1  0.49234278  0.21764461  0.64089525  1
  O  O50  1  0.49234278  0.21764461  0.85910475  1
  O  O51  1  0.50765722  0.78235539  0.35910475  1
  O  O52  1  0.50761763  0.71725823  0.64092534  1
  O  O53  1  0.49238237  0.28274177  0.14092534  1
  O  O54  1  0.49238237  0.28274177  0.35907466  1
  O  O55  1  0.50761763  0.71725823  0.85907466  1
  O  O56  1  0.76993709  0.37850357  0.50984400  1
  O  O57  1  0.23006291  0.62149643  0.00984400  1
  O  O58  1  0.23006291  0.62149643  0.49015600  1
  O  O59  1  0.76993709  0.37850357  0.99015600  1
  O  O60  1  0.24609656  0.86725208  0.51025768  1
  O  O61  1  0.75390344  0.13274792  0.01025768  1
  O  O62  1  0.75390344  0.13274792  0.48974232  1
  O  O63  1  0.24609656  0.86725208  0.98974232  1
  O  O64  1  0.72797576  0.62811839  0.01481037  1
  O  O65  1  0.27202424  0.37188161  0.51481037  1
  O  O66  1  0.27202424  0.37188161  0.98518963  1
  O  O67  1  0.72797576  0.62811839  0.48518963  1
  O  O68  1  0.74562264  0.87930055  0.51579881  1
  O  O69  1  0.25437736  0.12069945  0.01579881  1
  O  O70  1  0.25437736  0.12069945  0.48420119  1
  O  O71  1  0.74562264  0.87930055  0.98420119  1
