# generated using pymatgen
data_BaTeMo2O9
_symmetry_space_group_name_H-M   'P 1'
_cell_length_a   5.78703784
_cell_length_b   15.04535661
_cell_length_c   18.10074683
_cell_angle_alpha   90.00000000
_cell_angle_beta   90.00000000
_cell_angle_gamma   89.94108670
_symmetry_Int_Tables_number   1
_chemical_formula_structural   BaTeMo2O9
_chemical_formula_sum   'Ba8 Te8 Mo16 O72'
_cell_volume   1575.99585989
_cell_formula_units_Z   8
loop_
 _symmetry_equiv_pos_site_id
 _symmetry_equiv_pos_as_xyz
  1  'x, y, z'
loop_
 _atom_site_type_symbol
 _atom_site_label
 _atom_site_symmetry_multiplicity
 _atom_site_fract_x
 _atom_site_fract_y
 _atom_site_fract_z
 _atom_site_occupancy
  Ba  Ba0  1  0.97154485  0.83844176  0.20119426  1
  Ba  Ba1  1  0.02845515  0.16155824  0.70119426  1
  Ba  Ba2  1  0.51204236  0.59200152  0.26311385  1
  Ba  Ba3  1  0.48795764  0.40799848  0.76311385  1
  Ba  Ba4  1  0.96959702  0.66094006  0.70370171  1
  Ba  Ba5  1  0.03040298  0.33905994  0.20370171  1
  Ba  Ba6  1  0.48541197  0.90720995  0.76347700  1
  Ba  Ba7  1  0.51458803  0.09279005  0.26347700  1
  Te  Te8  1  0.84601195  0.78980249  0.92887894  1
  Te  Te9  1  0.15398805  0.21019751  0.42887894  1
  Te  Te10  1  0.35591233  0.46674954  0.03606493  1
  Te  Te11  1  0.64408767  0.53325046  0.53606493  1
  Te  Te12  1  0.84696750  0.71349768  0.43015848  1
  Te  Te13  1  0.15303250  0.28650232  0.93015848  1
  Te  Te14  1  0.35225444  0.02964646  0.53702897  1
  Te  Te15  1  0.64774556  0.97035354  0.03702897  1
  Mo  Mo16  1  0.48381065  0.74392460  0.07265164  1
  Mo  Mo17  1  0.51618935  0.25607540  0.57265164  1
  Mo  Mo18  1  0.48357636  0.66183045  0.85067850  1
  Mo  Mo19  1  0.51642364  0.33816955  0.35067850  1
  Mo  Mo20  1  0.98843480  0.50923542  0.89110199  1
  Mo  Mo21  1  0.01156520  0.49076458  0.39110199  1
  Mo  Mo22  1  0.98299347  0.58984454  0.11230997  1
  Mo  Mo23  1  0.01700653  0.41015546  0.61230997  1
  Mo  Mo24  1  0.48376841  0.75862981  0.57397485  1
  Mo  Mo25  1  0.51623159  0.24137019  0.07397485  1
  Mo  Mo26  1  0.48238053  0.83818323  0.35086752  1
  Mo  Mo27  1  0.51761947  0.16181677  0.85086752  1
  Mo  Mo28  1  0.99057921  0.98921361  0.39057742  1
  Mo  Mo29  1  0.00942079  0.01078639  0.89057742  1
  Mo  Mo30  1  0.97576915  0.91087151  0.61347759  1
  Mo  Mo31  1  0.02423085  0.08912849  0.11347759  1
  O  O32  1  0.83145650  0.67066465  0.05596610  1
  O  O33  1  0.16854350  0.32933535  0.55596610  1
  O  O34  1  0.74040536  0.84559989  0.05055265  1
  O  O35  1  0.25959464  0.15440011  0.55055265  1
  O  O36  1  0.56798971  0.74035386  0.16777399  1
  O  O37  1  0.43201029  0.25964614  0.66777399  1
  O  O38  1  0.26169694  0.82396131  0.07439193  1
  O  O39  1  0.73830306  0.17603869  0.57439193  1
  O  O40  1  0.04805576  0.65080492  0.19404721  1
  O  O41  1  0.95194424  0.34919508  0.69404721  1
  O  O42  1  0.75548459  0.51931993  0.14120930  1
  O  O43  1  0.24451541  0.48068007  0.64120930  1
  O  O44  1  0.24430581  0.49316586  0.13486546  1
  O  O45  1  0.75569419  0.50683414  0.63486546  1
  O  O46  1  0.32308406  0.64124081  0.06334016  1
  O  O47  1  0.67691594  0.35875919  0.56334016  1
  O  O48  1  0.54298875  0.74352863  0.95384817  1
  O  O49  1  0.45701125  0.25647137  0.45384817  1
  O  O50  1  0.74300408  0.91154603  0.91174051  1
  O  O51  1  0.25699592  0.08845397  0.41174051  1
  O  O52  1  0.74155527  0.75929426  0.82940208  1
  O  O53  1  0.25844473  0.24070574  0.32940208  1
  O  O54  1  0.55731929  0.59633530  0.77228041  1
  O  O55  1  0.44268071  0.40366470  0.27228041  1
  O  O56  1  0.32468324  0.58384914  0.90744359  1
  O  O57  1  0.67531676  0.41615086  0.40744359  1
  O  O58  1  0.26120968  0.73186259  0.81662662  1
  O  O59  1  0.73879032  0.26813741  0.31662662  1
  O  O60  1  0.06729081  0.51323160  0.79569588  1
  O  O61  1  0.93270919  0.48676840  0.29569588  1
  O  O62  1  0.77765911  0.42452932  0.89049101  1
  O  O63  1  0.22234089  0.57547068  0.39049101  1
  O  O64  1  0.81596007  0.60878614  0.90164540  1
  O  O65  1  0.18403993  0.39121386  0.40164540  1
  O  O66  1  0.05113076  0.50916867  0.00952418  1
  O  O67  1  0.94886924  0.49083133  0.50952418  1
  O  O68  1  0.82631814  0.82976373  0.55671401  1
  O  O69  1  0.17368186  0.17023627  0.05671401  1
  O  O70  1  0.74163834  0.65690571  0.55138640  1
  O  O71  1  0.25836166  0.34309429  0.05138640  1
  O  O72  1  0.56175787  0.76369932  0.66953820  1
  O  O73  1  0.43824213  0.23630068  0.16953820  1
  O  O74  1  0.26629995  0.67697268  0.57552370  1
  O  O75  1  0.73370005  0.32302732  0.07552370  1
  O  O76  1  0.04933589  0.84841393  0.69365402  1
  O  O77  1  0.95066411  0.15158607  0.19365402  1
  O  O78  1  0.74585362  0.97939708  0.64359120  1
  O  O79  1  0.25414638  0.02060292  0.14359120  1
  O  O80  1  0.23808634  0.00558847  0.63634204  1
  O  O81  1  0.76191366  0.99441153  0.13634204  1
  O  O82  1  0.31785280  0.85998013  0.56212933  1
  O  O83  1  0.68214720  0.14001987  0.06212933  1
  O  O84  1  0.54253999  0.75806899  0.45449856  1
  O  O85  1  0.45746001  0.24193101  0.95449856  1
  O  O86  1  0.74541435  0.59161880  0.41252477  1
  O  O87  1  0.25458565  0.40838120  0.91252477  1
  O  O88  1  0.74328794  0.74242328  0.33006576  1
  O  O89  1  0.25671206  0.25757672  0.83006576  1
  O  O90  1  0.55718744  0.90478540  0.27339934  1
  O  O91  1  0.44281256  0.09521460  0.77339934  1
  O  O92  1  0.32051382  0.91548467  0.40837477  1
  O  O93  1  0.67948618  0.08451533  0.90837477  1
  O  O94  1  0.26195347  0.76896632  0.31542360  1
  O  O95  1  0.73804653  0.23103368  0.81542360  1
  O  O96  1  0.05755578  0.98365025  0.29465709  1
  O  O97  1  0.94244422  0.01634975  0.79465709  1
  O  O98  1  0.78452418  0.07635876  0.39203911  1
  O  O99  1  0.21547582  0.92364124  0.89203911  1
  O  O100  1  0.81448669  0.89113734  0.40389543  1
  O  O101  1  0.18551331  0.10886266  0.90389543  1
  O  O102  1  0.04465161  0.99093296  0.51120041  1
  O  O103  1  0.95534839  0.00906704  0.01120041  1
