# generated using pymatgen
data_AlNi9B8
_symmetry_space_group_name_H-M   'P 1'
_cell_length_a   5.39670989
_cell_length_b   5.39670989
_cell_length_c   10.74095879
_cell_angle_alpha   90.00000000
_cell_angle_beta   90.00000000
_cell_angle_gamma   97.43864295
_symmetry_Int_Tables_number   1
_chemical_formula_structural   AlNi9B8
_chemical_formula_sum   'Al2 Ni18 B16'
_cell_volume   310.19210212
_cell_formula_units_Z   2
loop_
 _symmetry_equiv_pos_site_id
 _symmetry_equiv_pos_as_xyz
  1  'x, y, z'
loop_
 _atom_site_type_symbol
 _atom_site_label
 _atom_site_symmetry_multiplicity
 _atom_site_fract_x
 _atom_site_fract_y
 _atom_site_fract_z
 _atom_site_occupancy
  Al  Al0  1  0.91772210  0.08227790  0.75000000  1
  Al  Al1  1  0.08227790  0.91772210  0.25000000  1
  Ni  Ni2  1  -0.00000000  -0.00000000  0.50000000  1
  Ni  Ni3  1  -0.00000000  -0.00000000  -0.00000000  1
  Ni  Ni4  1  0.71269993  0.28730007  0.58096345  1
  Ni  Ni5  1  0.28730007  0.71269993  0.41903655  1
  Ni  Ni6  1  0.71269993  0.28730007  0.91903655  1
  Ni  Ni7  1  0.28730007  0.71269993  0.08096345  1
  Ni  Ni8  1  0.95047793  0.60183122  0.75000000  1
  Ni  Ni9  1  0.60183122  0.95047793  0.25000000  1
  Ni  Ni10  1  0.04952207  0.39816878  0.25000000  1
  Ni  Ni11  1  0.39816878  0.04952207  0.75000000  1
  Ni  Ni12  1  0.24115776  0.37698383  0.61426660  1
  Ni  Ni13  1  0.37698383  0.24115776  0.38573340  1
  Ni  Ni14  1  0.24115776  0.37698383  0.88573340  1
  Ni  Ni15  1  0.37698383  0.24115776  0.11426660  1
  Ni  Ni16  1  0.75884224  0.62301617  0.38573340  1
  Ni  Ni17  1  0.62301617  0.75884224  0.61426660  1
  Ni  Ni18  1  0.75884224  0.62301617  0.11426660  1
  Ni  Ni19  1  0.62301617  0.75884224  0.88573340  1
  B  B20  1  0.56985568  0.43014432  0.75000000  1
  B  B21  1  0.43014432  0.56985568  0.25000000  1
  B  B22  1  0.35487837  0.64512163  0.75000000  1
  B  B23  1  0.64512163  0.35487837  0.25000000  1
  B  B24  1  0.77978367  0.22021633  0.12027821  1
  B  B25  1  0.22021633  0.77978367  0.87972179  1
  B  B26  1  0.77978367  0.22021633  0.37972179  1
  B  B27  1  0.22021633  0.77978367  0.62027821  1
  B  B28  1  0.95892175  0.61698656  0.55137346  1
  B  B29  1  0.61698656  0.95892175  0.44862654  1
  B  B30  1  0.95892175  0.61698656  0.94862654  1
  B  B31  1  0.61698656  0.95892175  0.05137346  1
  B  B32  1  0.04107825  0.38301344  0.44862654  1
  B  B33  1  0.38301344  0.04107825  0.55137346  1
  B  B34  1  0.04107825  0.38301344  0.05137346  1
  B  B35  1  0.38301344  0.04107825  0.94862654  1
