# generated using pymatgen
data_Sm4(GeS4)3
_symmetry_space_group_name_H-M   'P 1'
_cell_length_a   7.95370808
_cell_length_b   11.46093123
_cell_length_c   11.46093117
_cell_angle_alpha   114.81760382
_cell_angle_beta   103.37527822
_cell_angle_gamma   103.37527816
_symmetry_Int_Tables_number   1
_chemical_formula_structural   Sm4(GeS4)3
_chemical_formula_sum   'Sm8 Ge6 S24'
_cell_volume   856.35701887
_cell_formula_units_Z   2
loop_
 _symmetry_equiv_pos_site_id
 _symmetry_equiv_pos_as_xyz
  1  'x, y, z'
loop_
 _atom_site_type_symbol
 _atom_site_label
 _atom_site_symmetry_multiplicity
 _atom_site_fract_x
 _atom_site_fract_y
 _atom_site_fract_z
 _atom_site_occupancy
  Sm  Sm0  1  0.50014203  0.00000000  -0.00000000  1
  Sm  Sm1  1  0.00014203  0.00000000  -0.00000000  1
  Sm  Sm2  1  0.06529414  0.53953325  0.77667624  1
  Sm  Sm3  1  0.28861789  0.22332376  0.76285701  1
  Sm  Sm4  1  0.52576089  0.23714299  0.46046675  1
  Sm  Sm5  1  0.56529414  0.77667624  0.53953325  1
  Sm  Sm6  1  0.02576089  0.46046675  0.23714299  1
  Sm  Sm7  1  0.78861789  0.76285701  0.22332376  1
  Ge  Ge8  1  0.35633289  0.82543970  0.21221547  1
  Ge  Ge9  1  0.14411742  0.78778453  0.61322422  1
  Ge  Ge10  1  0.53089320  0.38677578  0.17456030  1
  Ge  Ge11  1  0.85633289  0.21221547  0.82543970  1
  Ge  Ge12  1  0.03089320  0.17456030  0.38677578  1
  Ge  Ge13  1  0.64411742  0.61322422  0.78778453  1
  S  S14  1  0.11594952  0.39801014  0.92802149  1
  S  S15  1  0.18792803  0.07197851  0.46998864  1
  S  S16  1  0.71793938  0.53001136  0.60198986  1
  S  S17  1  0.61594952  0.92802149  0.39801014  1
  S  S18  1  0.21793938  0.60198986  0.53001136  1
  S  S19  1  0.68792803  0.46998864  0.07197851  1
  S  S20  1  0.31367528  0.00338354  0.18590649  1
  S  S21  1  0.12776879  0.81409351  0.81747705  1
  S  S22  1  0.31029174  0.18252295  0.99661646  1
  S  S23  1  0.81367528  0.18590649  0.00338354  1
  S  S24  1  0.81029174  0.99661646  0.18252295  1
  S  S25  1  0.62776879  0.81747705  0.81409351  1
  S  S26  1  0.41496095  0.71077869  0.02523923  1
  S  S27  1  0.38972172  0.97476077  0.68553945  1
  S  S28  1  0.70418226  0.31446055  0.28922131  1
  S  S29  1  0.91496095  0.02523923  0.71077869  1
  S  S30  1  0.20418226  0.28922131  0.31446055  1
  S  S31  1  0.88972172  0.68553945  0.97476077  1
  S  S32  1  0.64440689  0.27805324  0.73174355  1
  S  S33  1  0.91266334  0.26825645  0.54630969  1
  S  S34  1  0.36635365  0.45369031  0.72194676  1
  S  S35  1  0.14440689  0.73174355  0.27805324  1
  S  S36  1  0.86635365  0.72194676  0.45369031  1
  S  S37  1  0.41266334  0.54630969  0.26825645  1
