# generated using pymatgen
data_U(PO3)4
_symmetry_space_group_name_H-M   'P 1'
_cell_length_a   8.30392046
_cell_length_b   8.84160780
_cell_length_c   14.67501798
_cell_angle_alpha   78.64602077
_cell_angle_beta   74.38345176
_cell_angle_gamma   62.15357349
_symmetry_Int_Tables_number   1
_chemical_formula_structural   U(PO3)4
_chemical_formula_sum   'U4 P16 O48'
_cell_volume   914.30117798
_cell_formula_units_Z   4
loop_
 _symmetry_equiv_pos_site_id
 _symmetry_equiv_pos_as_xyz
  1  'x, y, z'
loop_
 _atom_site_type_symbol
 _atom_site_label
 _atom_site_symmetry_multiplicity
 _atom_site_fract_x
 _atom_site_fract_y
 _atom_site_fract_z
 _atom_site_occupancy
  U  U0  1  0.62577726  0.66994672  0.60913121  1
  U  U1  1  0.37422274  0.33005328  0.39086879  1
  U  U2  1  0.90521410  0.84056137  0.88870944  1
  U  U3  1  0.09478590  0.15943863  0.11129056  1
  P  P4  1  0.24681909  0.01233296  0.74279547  1
  P  P5  1  0.75318091  0.98766704  0.25720453  1
  P  P6  1  0.30263013  0.47119984  0.74647796  1
  P  P7  1  0.69736987  0.52880016  0.25352204  1
  P  P8  1  0.60244111  0.86612068  0.13181188  1
  P  P9  1  0.39755889  0.13387932  0.86818812  1
  P  P10  1  0.88751265  0.64587039  0.36132176  1
  P  P11  1  0.11248735  0.35412961  0.63867824  1
  P  P12  1  0.87611261  0.91966456  0.63283855  1
  P  P13  1  0.12388739  0.08033544  0.36716145  1
  P  P14  1  0.26104388  0.72714029  0.02070944  1
  P  P15  1  0.73895612  0.27285971  0.97929056  1
  P  P16  1  0.62881589  0.62287356  0.87515159  1
  P  P17  1  0.37118411  0.37712644  0.12484841  1
  P  P18  1  0.23863657  0.74485399  0.49396561  1
  P  P19  1  0.76136343  0.25514601  0.50603439  1
  O  O20  1  0.78371335  0.64584682  0.89522012  1
  O  O21  1  0.21628665  0.35415318  0.10477988  1
  O  O22  1  0.34168479  0.57305404  0.09980284  1
  O  O23  1  0.65831521  0.42694596  0.90019716  1
  O  O24  1  0.79162759  0.71242262  0.45759226  1
  O  O25  1  0.20837241  0.28757738  0.54240774  1
  O  O26  1  0.86202504  0.10168663  0.58065688  1
  O  O27  1  0.13797496  0.89831337  0.41934312  1
  O  O28  1  0.74207348  0.87363115  0.60887263  1
  O  O29  1  0.25792652  0.12636885  0.39112737  1
  O  O30  1  0.90737038  0.79861634  0.28544418  1
  O  O31  1  0.09262962  0.20138366  0.71455582  1
  O  O32  1  0.62010618  0.94521405  0.21615883  1
  O  O33  1  0.37989382  0.05478595  0.78384117  1
  O  O34  1  0.41136308  0.30567516  0.81299823  1
  O  O35  1  0.58863692  0.69432484  0.18700177  1
  O  O36  1  0.41761009  0.98287010  0.10677391  1
  O  O37  1  0.58238991  0.01712990  0.89322609  1
  O  O38  1  0.77324594  0.82070504  0.05401622  1
  O  O39  1  0.22675406  0.17929496  0.94598378  1
  O  O40  1  0.15192837  0.68680549  0.97070576  1
  O  O41  1  0.84807163  0.31319451  0.02929424  1
  O  O42  1  0.36327827  0.92251011  0.65412175  1
  O  O43  1  0.63672173  0.07748989  0.34587825  1
  O  O44  1  0.58727765  0.67486322  0.77782546  1
  O  O45  1  0.41272235  0.32513678  0.22217454  1
  O  O46  1  0.41236658  0.74379771  0.50554744  1
  O  O47  1  0.58763342  0.25620229  0.49445256  1
  O  O48  1  0.07698000  0.49737962  0.34959102  1
  O  O49  1  0.92302000  0.50262038  0.65040898  1
  O  O50  1  0.14706349  0.92720321  0.81734486  1
  O  O51  1  0.85293651  0.07279679  0.18265514  1
  O  O52  1  0.86620247  0.92726956  0.73590723  1
  O  O53  1  0.13379753  0.07273044  0.26409277  1
  O  O54  1  0.44638069  0.52889942  0.68848638  1
  O  O55  1  0.55361931  0.47110058  0.31151362  1
  O  O56  1  0.24676500  0.58677255  0.46585900  1
  O  O57  1  0.75323500  0.41322745  0.53414100  1
  O  O58  1  0.74365272  0.60983314  0.32581069  1
  O  O59  1  0.25634728  0.39016686  0.67418931  1
  O  O60  1  0.08891307  0.79453664  0.59233700  1
  O  O61  1  0.91108693  0.20546336  0.40766300  1
  O  O62  1  0.44762082  0.72596894  0.95231108  1
  O  O63  1  0.55237918  0.27403106  0.04768892  1
  O  O64  1  0.16661711  0.89153066  0.06752187  1
  O  O65  1  0.83338289  0.10846934  0.93247813  1
  O  O66  1  0.12991528  0.59724991  0.80315212  1
  O  O67  1  0.87008472  0.40275009  0.19684788  1
