# generated using pymatgen
data_BaCaFe4O7
_symmetry_space_group_name_H-M   'P 1'
_cell_length_a   6.59082006
_cell_length_b   6.45646128
_cell_length_c   10.49199131
_cell_angle_alpha   89.59599040
_cell_angle_beta   90.79156574
_cell_angle_gamma   120.69081020
_symmetry_Int_Tables_number   1
_chemical_formula_structural   BaCaFe4O7
_chemical_formula_sum   'Ba2 Ca2 Fe8 O14'
_cell_volume   383.89784619
_cell_formula_units_Z   2
loop_
 _symmetry_equiv_pos_site_id
 _symmetry_equiv_pos_as_xyz
  1  'x, y, z'
loop_
 _atom_site_type_symbol
 _atom_site_label
 _atom_site_symmetry_multiplicity
 _atom_site_fract_x
 _atom_site_fract_y
 _atom_site_fract_z
 _atom_site_occupancy
  Ba  Ba0  1  0.67233885  0.33525589  0.99691936  1
  Ba  Ba1  1  0.33708296  0.66474411  0.49691936  1
  Ca  Ca2  1  0.66835100  0.33173456  0.62108421  1
  Ca  Ca3  1  0.33661645  0.66826544  0.12108421  1
  Fe  Fe4  1  0.99826053  0.99735332  0.05626595  1
  Fe  Fe5  1  0.00090721  0.00264668  0.55626595  1
  Fe  Fe6  1  0.14529699  0.80546555  0.81454766  1
  Fe  Fe7  1  0.63000333  0.84235551  0.82467816  1
  Fe  Fe8  1  0.20085922  0.33873660  0.81372473  1
  Fe  Fe9  1  0.33983144  0.19453445  0.31454766  1
  Fe  Fe10  1  0.78764782  0.15764449  0.32467816  1
  Fe  Fe11  1  0.86212262  0.66126340  0.31372473  1
  O  O12  1  0.51038394  0.51853049  0.74558729  1
  O  O13  1  0.01067225  0.47576785  0.75940001  1
  O  O14  1  0.46082420  0.99906928  0.76043322  1
  O  O15  1  0.99185346  0.48146951  0.24558729  1
  O  O16  1  0.53490440  0.52423215  0.25940001  1
  O  O17  1  0.46175492  0.00093072  0.26043322  1
  O  O18  1  0.09761743  0.76881758  0.99275819  1
  O  O19  1  0.67901139  0.92659123  0.00610270  1
  O  O20  1  0.25292711  0.32848572  0.99167730  1
  O  O21  1  0.32879985  0.23118242  0.49275819  1
  O  O22  1  0.75242016  0.07340877  0.50610270  1
  O  O23  1  0.92444138  0.67151428  0.49167730  1
  O  O24  1  0.00930738  0.00334368  0.25882124  1
  O  O25  1  0.00596370  0.99665632  0.75882124  1
