# generated using pymatgen
data_Ba3As4(HO7)2
_symmetry_space_group_name_H-M   'P 1'
_cell_length_a   7.44355931
_cell_length_b   7.44355931
_cell_length_c   14.58107645
_cell_angle_alpha   76.94959788
_cell_angle_beta   76.94959788
_cell_angle_gamma   70.46462637
_symmetry_Int_Tables_number   1
_chemical_formula_structural   Ba3As4(HO7)2
_chemical_formula_sum   'Ba6 As8 H4 O28'
_cell_volume   731.70976486
_cell_formula_units_Z   2
loop_
 _symmetry_equiv_pos_site_id
 _symmetry_equiv_pos_as_xyz
  1  'x, y, z'
loop_
 _atom_site_type_symbol
 _atom_site_label
 _atom_site_symmetry_multiplicity
 _atom_site_fract_x
 _atom_site_fract_y
 _atom_site_fract_z
 _atom_site_occupancy
  Ba  Ba0  1  0.61784859  0.38215141  0.25000000  1
  Ba  Ba1  1  0.38215141  0.61784859  0.75000000  1
  Ba  Ba2  1  0.77679280  0.76715853  0.95378316  1
  Ba  Ba3  1  0.23284147  0.22320720  0.54621684  1
  Ba  Ba4  1  0.22320720  0.23284147  0.04621684  1
  Ba  Ba5  1  0.76715853  0.77679280  0.45378316  1
  As  As6  1  0.26218347  0.70606612  0.03950396  1
  As  As7  1  0.29393388  0.73781653  0.46049604  1
  As  As8  1  0.73781653  0.29393388  0.96049604  1
  As  As9  1  0.70606612  0.26218347  0.53950396  1
  As  As10  1  0.87745609  0.79923553  0.19459677  1
  As  As11  1  0.20076447  0.12254391  0.30540323  1
  As  As12  1  0.12254391  0.20076447  0.80540323  1
  As  As13  1  0.79923553  0.87745609  0.69459677  1
  H  H14  1  0.03067091  0.50351859  0.27425941  1
  H  H15  1  0.49648141  0.96932909  0.22574059  1
  H  H16  1  0.96932909  0.49648141  0.72574059  1
  H  H17  1  0.50351859  0.03067091  0.77425941  1
  O  O18  1  0.05426189  0.87780732  0.10662533  1
  O  O19  1  0.12219268  0.94573811  0.39337467  1
  O  O20  1  0.94573811  0.12219268  0.89337467  1
  O  O21  1  0.87780732  0.05426189  0.60662533  1
  O  O22  1  0.00199901  0.63852256  0.28603861  1
  O  O23  1  0.36147744  0.99800099  0.21396139  1
  O  O24  1  0.99800099  0.36147744  0.71396139  1
  O  O25  1  0.63852256  0.00199901  0.78603861  1
  O  O26  1  0.38877144  0.86583517  0.99276171  1
  O  O27  1  0.13416483  0.61122856  0.50723829  1
  O  O28  1  0.61122856  0.13416483  0.00723829  1
  O  O29  1  0.86583517  0.38877144  0.49276171  1
  O  O30  1  0.35544042  0.50888903  0.11842227  1
  O  O31  1  0.49111097  0.64455958  0.38157773  1
  O  O32  1  0.64455958  0.49111097  0.88157773  1
  O  O33  1  0.50888903  0.35544042  0.61842227  1
  O  O34  1  0.16610920  0.63967039  0.96137830  1
  O  O35  1  0.36032961  0.83389080  0.53862170  1
  O  O36  1  0.83389080  0.36032961  0.03862170  1
  O  O37  1  0.63967039  0.16610920  0.46137830  1
  O  O38  1  0.77348811  0.67848457  0.14822159  1
  O  O39  1  0.32151543  0.22651189  0.35177841  1
  O  O40  1  0.22651189  0.32151543  0.85177841  1
  O  O41  1  0.67848457  0.77348811  0.64822159  1
  O  O42  1  0.72816567  0.98363121  0.24980087  1
  O  O43  1  0.01636879  0.27183433  0.25019913  1
  O  O44  1  0.27183433  0.01636879  0.75019913  1
  O  O45  1  0.98363121  0.72816567  0.74980087  1
