# generated using pymatgen
data_MnB6H14O17
_symmetry_space_group_name_H-M   'P 1'
_cell_length_a   10.22154232
_cell_length_b   11.55787702
_cell_length_c   13.06634639
_cell_angle_alpha   111.18986710
_cell_angle_beta   90.00000000
_cell_angle_gamma   90.00000000
_symmetry_Int_Tables_number   1
_chemical_formula_structural   MnB6H14O17
_chemical_formula_sum   'Mn4 B24 H56 O68'
_cell_volume   1439.27977353
_cell_formula_units_Z   4
loop_
 _symmetry_equiv_pos_site_id
 _symmetry_equiv_pos_as_xyz
  1  'x, y, z'
loop_
 _atom_site_type_symbol
 _atom_site_label
 _atom_site_symmetry_multiplicity
 _atom_site_fract_x
 _atom_site_fract_y
 _atom_site_fract_z
 _atom_site_occupancy
  Mn  Mn0  1  0.50000000  0.50000000  0.50000000  1
  Mn  Mn1  1  -0.00000000  0.00000000  0.50000000  1
  Mn  Mn2  1  0.50000000  0.00000000  0.00000000  1
  Mn  Mn3  1  -0.00000000  0.50000000  0.00000000  1
  B  B4  1  0.82175903  0.61803889  0.32272526  1
  B  B5  1  0.32175903  0.88196111  0.67727474  1
  B  B6  1  0.17824097  0.38196111  0.67727474  1
  B  B7  1  0.67824097  0.11803889  0.32272526  1
  B  B8  1  0.61547226  0.71144285  0.41795947  1
  B  B9  1  0.11547226  0.78855715  0.58204053  1
  B  B10  1  0.38452774  0.28855715  0.58204053  1
  B  B11  1  0.88452774  0.21144285  0.41795947  1
  B  B12  1  0.62634500  0.48425586  0.27315067  1
  B  B13  1  0.12634500  0.01574414  0.72684933  1
  B  B14  1  0.37365500  0.51574414  0.72684933  1
  B  B15  1  0.87365500  0.98425586  0.27315067  1
  B  B16  1  0.40162415  0.60235394  0.31537401  1
  B  B17  1  0.90162415  0.89764606  0.68462599  1
  B  B18  1  0.59837585  0.39764606  0.68462599  1
  B  B19  1  0.09837585  0.10235394  0.31537401  1
  B  B20  1  0.44684732  0.44224930  0.13209630  1
  B  B21  1  0.94684732  0.05775070  0.86790370  1
  B  B22  1  0.55315268  0.55775070  0.86790370  1
  B  B23  1  0.05315268  0.94224930  0.13209630  1
  B  B24  1  0.42504524  0.83271897  0.39352227  1
  B  B25  1  0.92504524  0.66728103  0.60647773  1
  B  B26  1  0.57495476  0.16728103  0.60647773  1
  B  B27  1  0.07495476  0.33271897  0.39352227  1
  H  H28  1  0.72096576  0.15109038  0.05628398  1
  H  H29  1  0.22096576  0.34890962  0.94371602  1
  H  H30  1  0.27903424  0.84890962  0.94371602  1
  H  H31  1  0.77903424  0.65109038  0.05628398  1
  H  H32  1  0.60981303  0.24873700  0.11294300  1
  H  H33  1  0.10981303  0.25126300  0.88705700  1
  H  H34  1  0.39018697  0.75126300  0.88705700  1
  H  H35  1  0.89018697  0.74873700  0.11294300  1
  H  H36  1  0.44710847  0.04621724  0.21826674  1
  H  H37  1  0.94710847  0.45378276  0.78173326  1
  H  H38  1  0.55289153  0.95378276  0.78173326  1
  H  H39  1  0.05289153  0.54621724  0.21826674  1
  H  H40  1  0.30230085  0.02103848  0.16690952  1
  H  H41  1  0.80230085  0.47896152  0.83309048  1
  H  H42  1  0.69769915  0.97896152  0.83309048  1
  H  H43  1  0.19769915  0.52103848  0.16690952  1
  H  H44  1  0.72658012  0.84948921  0.99279843  1
  H  H45  1  0.22658012  0.65051079  0.00720157  1
  H  H46  1  0.27341988  0.15051079  0.00720157  1
  H  H47  1  0.77341988  0.34948921  0.99279843  1
  H  H48  1  0.37251253  0.82011045  0.12007352  1
  H  H49  1  0.87251253  0.67988955  0.87992648  1
  H  H50  1  0.62748747  0.17988955  0.87992648  1
  H  H51  1  0.12748747  0.32011045  0.12007352  1
  H  H52  1  0.99609624  0.69972490  0.37554188  1
  H  H53  1  0.49609624  0.80027510  0.62445812  1
  H  H54  1  0.00390376  0.30027510  0.62445812  1
  H  H55  1  0.50390376  0.19972490  0.37554188  1
  H  H56  1  0.40962701  0.02137255  0.46257063  1
  H  H57  1  0.90962701  0.47862745  0.53742937  1
  H  H58  1  0.59037299  0.97862745  0.53742937  1
  H  H59  1  0.09037299  0.52137255  0.46257063  1
  H  H60  1  0.67998832  0.69856467  0.56342981  1
  H  H61  1  0.17998832  0.80143533  0.43657019  1
  H  H62  1  0.32001168  0.30143533  0.43657019  1
  H  H63  1  0.82001168  0.19856467  0.56342981  1
  H  H64  1  0.31239947  0.63508058  0.64515904  1
  H  H65  1  0.81239947  0.86491942  0.35484096  1
  H  H66  1  0.68760053  0.36491942  0.35484096  1
  H  H67  1  0.18760053  0.13508058  0.64515904  1
  H  H68  1  0.27356494  0.50910714  0.38708383  1
  H  H69  1  0.77356494  0.99089286  0.61291617  1
  H  H70  1  0.72643506  0.49089286  0.61291617  1
  H  H71  1  0.22643506  0.00910714  0.38708383  1
  H  H72  1  0.47514366  0.33501129  0.97751169  1
  H  H73  1  0.97514366  0.16498871  0.02248831  1
  H  H74  1  0.52485634  0.66498871  0.02248831  1
  H  H75  1  0.02485634  0.83501129  0.97751169  1
  H  H76  1  0.69051552  0.93284438  0.11586173  1
  H  H77  1  0.19051552  0.56715562  0.88413827  1
  H  H78  1  0.30948448  0.06715562  0.88413827  1
  H  H79  1  0.80948448  0.43284438  0.11586173  1
  H  H80  1  0.35626822  0.71457717  0.16815583  1
  H  H81  1  0.85626822  0.78542283  0.83184417  1
  H  H82  1  0.64373178  0.28542283  0.83184417  1
  H  H83  1  0.14373178  0.21457717  0.16815583  1
  O  O84  1  0.40525922  0.38521972  0.02534763  1
  O  O85  1  0.90525922  0.11478028  0.97465237  1
  O  O86  1  0.59474078  0.61478028  0.97465237  1
  O  O87  1  0.09474078  0.88521972  0.02534763  1
  O  O88  1  0.63376748  0.15973450  0.08967414  1
  O  O89  1  0.13376748  0.34026550  0.91032586  1
  O  O90  1  0.36623252  0.84026550  0.91032586  1
  O  O91  1  0.86623252  0.65973450  0.08967414  1
  O  O92  1  0.36377088  0.52912830  0.20225893  1
  O  O93  1  0.86377088  0.97087170  0.79774107  1
  O  O94  1  0.63622912  0.47087170  0.79774107  1
  O  O95  1  0.13622912  0.02912830  0.20225893  1
  O  O96  1  0.39622218  0.99867229  0.15027493  1
  O  O97  1  0.89622218  0.50132771  0.84972507  1
  O  O98  1  0.60377782  0.00132771  0.84972507  1
  O  O99  1  0.10377782  0.49867229  0.15027493  1
  O  O100  1  0.65308828  0.89126446  0.04169271  1
  O  O101  1  0.15308828  0.60873554  0.95830729  1
  O  O102  1  0.34691172  0.10873554  0.95830729  1
  O  O103  1  0.84691172  0.39126446  0.04169271  1
  O  O104  1  0.56544967  0.41305608  0.16742707  1
  O  O105  1  0.06544967  0.08694392  0.83257293  1
  O  O106  1  0.43455033  0.58694392  0.83257293  1
  O  O107  1  0.93455033  0.91305608  0.16742707  1
  O  O108  1  0.55118136  0.60720411  0.32378157  1
  O  O109  1  0.05118136  0.89279589  0.67621843  1
  O  O110  1  0.44881864  0.39279589  0.67621843  1
  O  O111  1  0.94881864  0.10720411  0.32378157  1
  O  O112  1  0.36432075  0.72926425  0.09901806  1
  O  O113  1  0.86432075  0.77073575  0.90098194  1
  O  O114  1  0.63567925  0.27073575  0.90098194  1
  O  O115  1  0.13567925  0.22926425  0.09901806  1
  O  O116  1  0.76213537  0.51124815  0.25455006  1
  O  O117  1  0.26213537  0.98875185  0.74544994  1
  O  O118  1  0.23786463  0.48875185  0.74544994  1
  O  O119  1  0.73786463  0.01124815  0.25455006  1
  O  O120  1  0.95671942  0.62495234  0.31976363  1
  O  O121  1  0.45671942  0.87504766  0.68023637  1
  O  O122  1  0.04328058  0.37504766  0.68023637  1
  O  O123  1  0.54328058  0.12495234  0.31976363  1
  O  O124  1  0.75284133  0.71661025  0.39372687  1
  O  O125  1  0.25284133  0.78338975  0.60627313  1
  O  O126  1  0.24715867  0.28338975  0.60627313  1
  O  O127  1  0.74715867  0.21661025  0.39372687  1
  O  O128  1  0.55025683  0.82838270  0.42980864  1
  O  O129  1  0.05025683  0.67161730  0.57019136  1
  O  O130  1  0.44974317  0.17161730  0.57019136  1
  O  O131  1  0.94974317  0.32838270  0.42980864  1
  O  O132  1  0.36442336  0.94567978  0.41392951  1
  O  O133  1  0.86442336  0.55432022  0.58607049  1
  O  O134  1  0.63557664  0.05432022  0.58607049  1
  O  O135  1  0.13557664  0.44567978  0.41392951  1
  O  O136  1  0.35286732  0.72914774  0.33721323  1
  O  O137  1  0.85286732  0.77085226  0.66278677  1
  O  O138  1  0.64713268  0.27085226  0.66278677  1
  O  O139  1  0.14713268  0.22914774  0.33721323  1
  O  O140  1  0.59707036  0.68612659  0.52261409  1
  O  O141  1  0.09707036  0.81387341  0.47738591  1
  O  O142  1  0.40292964  0.31387341  0.47738591  1
  O  O143  1  0.90292964  0.18612659  0.52261409  1
  O  O144  1  0.38317149  0.57855415  0.64711873  1
  O  O145  1  0.88317149  0.92144585  0.35288127  1
  O  O146  1  0.61682851  0.42144585  0.35288127  1
  O  O147  1  0.11682851  0.07855415  0.64711873  1
  O  O148  1  0.36046818  0.54973450  0.39568002  1
  O  O149  1  0.86046818  0.95026550  0.60431998  1
  O  O150  1  0.63953182  0.45026550  0.60431998  1
  O  O151  1  0.13953182  0.04973450  0.39568002  1
