# generated using pymatgen
data_SrYb4Si5O17
_symmetry_space_group_name_H-M   'P 1'
_cell_length_a   5.63764638
_cell_length_b   6.99024767
_cell_length_c   19.80220027
_cell_angle_alpha   90.00000000
_cell_angle_beta   90.00000000
_cell_angle_gamma   106.22132614
_symmetry_Int_Tables_number   1
_chemical_formula_structural   SrYb4Si5O17
_chemical_formula_sum   'Sr2 Yb8 Si10 O34'
_cell_volume   749.30895035
_cell_formula_units_Z   2
loop_
 _symmetry_equiv_pos_site_id
 _symmetry_equiv_pos_as_xyz
  1  'x, y, z'
loop_
 _atom_site_type_symbol
 _atom_site_label
 _atom_site_symmetry_multiplicity
 _atom_site_fract_x
 _atom_site_fract_y
 _atom_site_fract_z
 _atom_site_occupancy
  Sr  Sr0  1  0.75736126  0.24938504  0.75000000  1
  Sr  Sr1  1  0.24263874  0.75061496  0.25000000  1
  Yb  Yb2  1  0.70166656  0.88749923  0.54307081  1
  Yb  Yb3  1  0.29833344  0.11250077  0.04307081  1
  Yb  Yb4  1  0.29833344  0.11250077  0.45692919  1
  Yb  Yb5  1  0.70166656  0.88749923  0.95692919  1
  Yb  Yb6  1  0.35705044  0.53203749  0.66208091  1
  Yb  Yb7  1  0.64294956  0.46796251  0.16208091  1
  Yb  Yb8  1  0.64294956  0.46796251  0.33791909  1
  Yb  Yb9  1  0.35705044  0.53203749  0.83791909  1
  Si  Si10  1  0.92602803  0.72951968  0.75000000  1
  Si  Si11  1  0.07397197  0.27048032  0.25000000  1
  Si  Si12  1  0.22854055  0.99927359  0.63909495  1
  Si  Si13  1  0.77145945  0.00072641  0.13909495  1
  Si  Si14  1  0.77145945  0.00072641  0.36090505  1
  Si  Si15  1  0.22854055  0.99927359  0.86090505  1
  Si  Si16  1  0.80030040  0.40519828  0.56013806  1
  Si  Si17  1  0.19969960  0.59480172  0.06013806  1
  Si  Si18  1  0.19969960  0.59480172  0.43986194  1
  Si  Si19  1  0.80030040  0.40519828  0.93986194  1
  O  O20  1  0.11225169  0.58818523  0.75000000  1
  O  O21  1  0.88774831  0.41181477  0.25000000  1
  O  O22  1  0.64409323  0.58975806  0.75000000  1
  O  O23  1  0.35590677  0.41024194  0.25000000  1
  O  O24  1  0.97627246  0.88489824  0.68428621  1
  O  O25  1  0.02372754  0.11510176  0.18428621  1
  O  O26  1  0.02372754  0.11510176  0.31571379  1
  O  O27  1  0.97627246  0.88489824  0.81571379  1
  O  O28  1  0.36802091  0.20422890  0.67973454  1
  O  O29  1  0.63197909  0.79577110  0.17973454  1
  O  O30  1  0.63197909  0.79577110  0.32026546  1
  O  O31  1  0.36802091  0.20422890  0.82026546  1
  O  O32  1  0.11851648  0.04642857  0.56635241  1
  O  O33  1  0.88148352  0.95357143  0.06635241  1
  O  O34  1  0.88148352  0.95357143  0.43364759  1
  O  O35  1  0.11851648  0.04642857  0.93364759  1
  O  O36  1  0.40732014  0.85532838  0.62947343  1
  O  O37  1  0.59267986  0.14467162  0.12947343  1
  O  O38  1  0.59267986  0.14467162  0.37052657  1
  O  O39  1  0.40732014  0.85532838  0.87052657  1
  O  O40  1  0.94556150  0.37129953  0.62906917  1
  O  O41  1  0.05443850  0.62870047  0.12906917  1
  O  O42  1  0.05443850  0.62870047  0.37093083  1
  O  O43  1  0.94556150  0.37129953  0.87093083  1
  O  O44  1  0.63344678  0.19533170  0.52952352  1
  O  O45  1  0.36655322  0.80466830  0.02952352  1
  O  O46  1  0.36655322  0.80466830  0.47047648  1
  O  O47  1  0.63344678  0.19533170  0.97047648  1
  O  O48  1  -0.00000000  0.50000000  0.50000000  1
  O  O49  1  -0.00000000  0.50000000  -0.00000000  1
  O  O50  1  0.64572101  0.56209221  0.57778200  1
  O  O51  1  0.35427899  0.43790779  0.07778200  1
  O  O52  1  0.35427899  0.43790779  0.42221800  1
  O  O53  1  0.64572101  0.56209221  0.92221800  1
