# generated using pymatgen
data_KNaAl6Si6(HO6)4
_symmetry_space_group_name_H-M   'P 1'
_cell_length_a   5.21041646
_cell_length_b   9.06437718
_cell_length_c   20.07900946
_cell_angle_alpha   89.99994014
_cell_angle_beta   95.75734947
_cell_angle_gamma   89.99999607
_symmetry_Int_Tables_number   1
_chemical_formula_structural   KNaAl6Si6(HO6)4
_chemical_formula_sum   'K2 Na2 Al12 Si12 H8 O48'
_cell_volume   943.53152856
_cell_formula_units_Z   2
loop_
 _symmetry_equiv_pos_site_id
 _symmetry_equiv_pos_as_xyz
  1  'x, y, z'
loop_
 _atom_site_type_symbol
 _atom_site_label
 _atom_site_symmetry_multiplicity
 _atom_site_fract_x
 _atom_site_fract_y
 _atom_site_fract_z
 _atom_site_occupancy
  K  K0  1  0.00001547  0.90292606  0.74999437  1
  K  K1  1  0.99999608  0.09704996  0.25001118  1
  Na  Na2  1  0.49999957  0.42657021  0.75000058  1
  Na  Na3  1  0.49999556  0.57342389  0.24999947  1
  Al  Al4  1  0.24807122  0.91385847  0.50112819  1
  Al  Al5  1  0.46390058  0.73907238  0.63769591  1
  Al  Al6  1  0.75192808  0.91386185  0.99887323  1
  Al  Al7  1  0.53609850  0.73907453  0.86230405  1
  Al  Al8  1  0.75192018  0.08612796  0.49887473  1
  Al  Al9  1  0.53608589  0.26091747  0.36230558  1
  Al  Al10  1  0.24808134  0.08613090  0.00112529  1
  Al  Al11  1  0.46391344  0.26091849  0.13769499  1
  Al  Al12  1  0.74703744  0.41573540  0.49924524  1
  Al  Al13  1  0.25295466  0.41573929  0.00075479  1
  Al  Al14  1  0.25293710  0.58424974  0.50075572  1
  Al  Al15  1  0.74705517  0.58425103  0.99924446  1
  Si  Si16  1  0.45992920  0.07106174  0.63685806  1
  Si  Si17  1  0.54007516  0.07106174  0.86314232  1
  Si  Si18  1  0.54006012  0.92892743  0.36314518  1
  Si  Si19  1  0.45993123  0.92893190  0.13685631  1
  Si  Si20  1  0.98343591  0.56796713  0.63809836  1
  Si  Si21  1  0.94826403  0.24427475  0.63659812  1
  Si  Si22  1  0.01656146  0.56796820  0.86190189  1
  Si  Si23  1  0.05173849  0.24427451  0.86340179  1
  Si  Si24  1  0.01654721  0.43202173  0.36190206  1
  Si  Si25  1  0.05172535  0.75571545  0.36340261  1
  Si  Si26  1  0.98344998  0.43202102  0.13809835  1
  Si  Si27  1  0.94826917  0.75571508  0.13659812  1
  H  H28  1  0.36265538  0.34233299  0.55526405  1
  H  H29  1  0.63734075  0.34233485  0.94473445  1
  H  H30  1  0.63730540  0.65764253  0.44472433  1
  H  H31  1  0.36267911  0.65765081  0.05526709  1
  H  H32  1  0.87699897  0.85595406  0.56907386  1
  H  H33  1  0.12300025  0.85595603  0.93092637  1
  H  H34  1  0.12299010  0.14402959  0.43092764  1
  H  H35  1  0.87701137  0.14403394  0.06907317  1
  O  O36  1  0.46235441  0.05737335  0.55515577  1
  O  O37  1  0.37409291  0.74935129  0.55111737  1
  O  O38  1  0.45425212  0.43355616  0.54870892  1
  O  O39  1  0.41222874  0.91483427  0.67178257  1
  O  O40  1  0.24706959  0.19265051  0.65969128  1
  O  O41  1  0.74423699  0.13437700  0.66937038  1
  O  O42  1  0.53764660  0.05737180  0.94484449  1
  O  O43  1  0.62590115  0.74935316  0.94888315  1
  O  O44  1  0.54574223  0.43355870  0.95129205  1
  O  O45  1  0.58777209  0.91483528  0.82821563  1
  O  O46  1  0.75293055  0.19265316  0.84031006  1
  O  O47  1  0.25576808  0.13437895  0.83062865  1
  O  O48  1  0.53763482  0.94261271  0.44484712  1
  O  O49  1  0.62588981  0.25063406  0.44888399  1
  O  O50  1  0.54571763  0.56642236  0.45129373  1
  O  O51  1  0.58776146  0.08515473  0.32822035  1
  O  O52  1  0.75291715  0.80733902  0.34031205  1
  O  O53  1  0.25575477  0.86561398  0.33063072  1
  O  O54  1  0.46236034  0.94261989  0.05515441  1
  O  O55  1  0.37411094  0.25063660  0.05111629  1
  O  O56  1  0.45427016  0.56642977  0.04870541  1
  O  O57  1  0.41223139  0.08515841  0.17178297  1
  O  O58  1  0.24707614  0.80734177  0.15968996  1
  O  O59  1  0.74424109  0.86561654  0.16936887  1
  O  O60  1  0.96885252  0.54871371  0.55582116  1
  O  O61  1  0.89187469  0.24876869  0.55554754  1
  O  O62  1  0.95414932  0.94132726  0.54968435  1
  O  O63  1  0.90469012  0.40651700  0.67001145  1
  O  O64  1  0.78862686  0.69542646  0.65867676  1
  O  O65  1  0.27231974  0.60570462  0.67288566  1
  O  O66  1  0.03114000  0.54871495  0.94417893  1
  O  O67  1  0.10812747  0.24876902  0.94445204  1
  O  O68  1  0.04584701  0.94132883  0.95031701  1
  O  O69  1  0.09530653  0.40651803  0.82998909  1
  O  O70  1  0.21137239  0.69542589  0.84132194  1
  O  O71  1  0.72767668  0.60570465  0.82711432  1
  O  O72  1  0.03112217  0.45127603  0.44417936  1
  O  O73  1  0.10811324  0.75122125  0.44445256  1
  O  O74  1  0.04583917  0.05865905  0.45031912  1
  O  O75  1  0.09529201  0.59347358  0.32998938  1
  O  O76  1  0.21136105  0.30456455  0.34132426  1
  O  O77  1  0.72766475  0.39428445  0.32711478  1
  O  O78  1  0.96887103  0.45127711  0.05582102  1
  O  O79  1  0.89188345  0.75122194  0.05554774  1
  O  O80  1  0.95415669  0.05866284  0.04968021  1
  O  O81  1  0.90470658  0.59347287  0.17001238  1
  O  O82  1  0.78864017  0.30456202  0.15867682  1
  O  O83  1  0.27233628  0.39428860  0.17288401  1
