# generated using pymatgen
data_ThV2H4O9
_symmetry_space_group_name_H-M   'P 1'
_cell_length_a   7.12569591
_cell_length_b   7.48832659
_cell_length_c   7.83941774
_cell_angle_alpha   77.81671933
_cell_angle_beta   74.59832993
_cell_angle_gamma   85.04880531
_symmetry_Int_Tables_number   1
_chemical_formula_structural   ThV2H4O9
_chemical_formula_sum   'Th2 V4 H8 O18'
_cell_volume   393.99906025
_cell_formula_units_Z   2
loop_
 _symmetry_equiv_pos_site_id
 _symmetry_equiv_pos_as_xyz
  1  'x, y, z'
loop_
 _atom_site_type_symbol
 _atom_site_label
 _atom_site_symmetry_multiplicity
 _atom_site_fract_x
 _atom_site_fract_y
 _atom_site_fract_z
 _atom_site_occupancy
  Th  Th0  1  0.64177642  0.75534575  0.91698361  1
  Th  Th1  1  0.35822358  0.24465425  0.08301639  1
  V  V2  1  0.20631237  0.66423480  0.74586823  1
  V  V3  1  0.79368763  0.33576520  0.25413177  1
  V  V4  1  0.27211991  0.70744947  0.29270524  1
  V  V5  1  0.72788009  0.29255053  0.70729476  1
  H  H6  1  0.60206223  0.82659169  0.50886575  1
  H  H7  1  0.39793777  0.17340831  0.49113425  1
  H  H8  1  0.82978840  0.78912273  0.48721000  1
  H  H9  1  0.17021160  0.21087727  0.51279000  1
  H  H10  1  0.76663036  0.00885184  0.13422706  1
  H  H11  1  0.23336964  0.99114816  0.86577294  1
  H  H12  1  0.90456177  0.82390348  0.15701328  1
  H  H13  1  0.09543823  0.17609652  0.84298672  1
  O  O14  1  0.38272050  0.54718216  0.15802112  1
  O  O15  1  0.61727950  0.45281784  0.84197888  1
  O  O16  1  0.34326640  0.80417184  0.81419563  1
  O  O17  1  0.65673360  0.19582816  0.18580437  1
  O  O18  1  0.39315772  0.90394131  0.15888018  1
  O  O19  1  0.60684228  0.09605869  0.84111982  1
  O  O20  1  0.97136630  0.74897645  0.76521798  1
  O  O21  1  0.02863370  0.25102355  0.23478202  1
  O  O22  1  0.20953962  0.45547937  0.88091993  1
  O  O23  1  0.79046038  0.54452063  0.11908007  1
  O  O24  1  0.32696200  0.65758727  0.51020015  1
  O  O25  1  0.67303800  0.34241273  0.48979985  1
  O  O26  1  0.03158500  0.72869587  0.31801406  1
  O  O27  1  0.96841500  0.27130413  0.68198594  1
  O  O28  1  0.70624039  0.82577618  0.56897474  1
  O  O29  1  0.29375961  0.17422382  0.43102526  1
  O  O30  1  0.81134584  0.89231523  0.09022474  1
  O  O31  1  0.18865416  0.10768477  0.90977526  1
