# generated using pymatgen
data_S
_symmetry_space_group_name_H-M   'P 1'
_cell_length_a   10.22707635
_cell_length_b   14.09050288
_cell_length_c   19.20965990
_cell_angle_alpha   111.23276491
_cell_angle_beta   90.00000000
_cell_angle_gamma   90.00000000
_symmetry_Int_Tables_number   1
_chemical_formula_structural   S
_chemical_formula_sum   S80
_cell_volume   2580.28707505
_cell_formula_units_Z   80
loop_
 _symmetry_equiv_pos_site_id
 _symmetry_equiv_pos_as_xyz
  1  'x, y, z'
loop_
 _atom_site_type_symbol
 _atom_site_label
 _atom_site_symmetry_multiplicity
 _atom_site_fract_x
 _atom_site_fract_y
 _atom_site_fract_z
 _atom_site_occupancy
  S  S0  1  0.01224685  0.00000000  0.00000000  1
  S  S1  1  0.51216066  0.00000000  0.50000000  1
  S  S2  1  0.19442791  0.50000000  0.00000000  1
  S  S3  1  0.69533404  0.50000000  0.50000000  1
  S  S4  1  0.63199081  0.87506913  0.45092311  1
  S  S5  1  0.63199081  0.12493087  0.54907689  1
  S  S6  1  0.67644429  0.81472728  0.53153893  1
  S  S7  1  0.67644429  0.18527272  0.46846107  1
  S  S8  1  0.52833447  0.71432603  0.53075359  1
  S  S9  1  0.52833447  0.28567397  0.46924641  1
  S  S10  1  0.57568348  0.57495166  0.44998922  1
  S  S11  1  0.57568348  0.42504834  0.55001078  1
  S  S12  1  0.05001531  0.92945103  0.45719288  1
  S  S13  1  0.05001531  0.07054897  0.54280712  1
  S  S14  1  0.19071431  0.84181544  0.48273697  1
  S  S15  1  0.19071431  0.15818456  0.51726303  1
  S  S16  1  0.10406878  0.77660694  0.55182778  1
  S  S17  1  0.10406878  0.22339306  0.44817222  1
  S  S18  1  0.01576640  0.64285281  0.48388070  1
  S  S19  1  0.01576640  0.35714719  0.51611930  1
  S  S20  1  0.15602252  0.47056683  0.54217211  1
  S  S21  1  0.15602252  0.52943317  0.45782789  1
  S  S22  1  0.80532510  0.95093144  0.30290244  1
  S  S23  1  0.80532510  0.04906856  0.69709756  1
  S  S24  1  0.72330997  0.98470693  0.76829555  1
  S  S25  1  0.72330997  0.01529307  0.23170445  1
  S  S26  1  0.86568772  0.89627296  0.79127459  1
  S  S27  1  0.86568772  0.10372704  0.20872541  1
  S  S28  1  0.85954251  0.75476991  0.70613255  1
  S  S29  1  0.85954251  0.24523009  0.29386745  1
  S  S30  1  0.71987285  0.66922982  0.73440899  1
  S  S31  1  0.71987285  0.33077018  0.26559101  1
  S  S32  1  0.81100728  0.60226662  0.80147854  1
  S  S33  1  0.81100728  0.39773338  0.19852146  1
  S  S34  1  0.89667567  0.46883994  0.73205623  1
  S  S35  1  0.89667567  0.53116006  0.26794377  1
  S  S36  1  0.75500860  0.35624219  0.70669733  1
  S  S37  1  0.75500860  0.64375781  0.29330267  1
  S  S38  1  0.75824063  0.29647869  0.79048890  1
  S  S39  1  0.75824063  0.70352131  0.20951110  1
  S  S40  1  0.89725525  0.81813882  0.23700902  1
  S  S41  1  0.89725525  0.18186118  0.76299098  1
  S  S42  1  0.38219161  0.88876935  0.28208975  1
  S  S43  1  0.38219161  0.11123065  0.71791025  1
  S  S44  1  0.23394681  0.98786892  0.28051004  1
  S  S45  1  0.23394681  0.01213108  0.71948996  1
  S  S46  1  0.28275625  0.95123178  0.79925164  1
  S  S47  1  0.28275625  0.04876822  0.20074836  1
  S  S48  1  0.39998142  0.82544590  0.74792310  1
  S  S49  1  0.39998142  0.17455410  0.25207690  1
  S  S50  1  0.27805523  0.70138968  0.70068872  1
  S  S51  1  0.27805523  0.29861032  0.29931128  1
  S  S52  1  0.23841474  0.64092144  0.78187062  1
  S  S53  1  0.23841474  0.35907856  0.21812938  1
  S  S54  1  0.38661622  0.53919586  0.77815857  1
  S  S55  1  0.38661622  0.46080414  0.22184143  1
  S  S56  1  0.33410523  0.40010795  0.69887588  1
  S  S57  1  0.33410523  0.59989205  0.30112412  1
  S  S58  1  0.21716092  0.32713751  0.75175895  1
  S  S59  1  0.21716092  0.67286249  0.24824105  1
  S  S60  1  0.33952305  0.25096183  0.79950193  1
  S  S61  1  0.33952305  0.74903817  0.20049807  1
  S  S62  1  0.60417780  0.22288711  0.94721351  1
  S  S63  1  0.60417780  0.77711289  0.05278649  1
  S  S64  1  0.69019513  0.84215383  0.98327729  1
  S  S65  1  0.69019513  0.15784617  0.01672271  1
  S  S66  1  0.54884769  0.92924601  0.95753691  1
  S  S67  1  0.54884769  0.07075399  0.04246309  1
  S  S68  1  0.51497052  0.64374762  0.98507230  1
  S  S69  1  0.51497052  0.35625238  0.01492770  1
  S  S70  1  0.65478095  0.52994657  0.95805985  1
  S  S71  1  0.65478095  0.47005343  0.04194015  1
  S  S72  1  0.17491198  0.18622603  0.96937259  1
  S  S73  1  0.17491198  0.81377397  0.03062741  1
  S  S74  1  0.13157402  0.87507596  0.95022012  1
  S  S75  1  0.13157402  0.12492404  0.04977988  1
  S  S76  1  0.02696811  0.28688734  0.97060773  1
  S  S77  1  0.02696811  0.71311266  0.02939227  1
  S  S78  1  0.07567165  0.57402543  0.94875132  1
  S  S79  1  0.07567165  0.42597457  0.05124868  1
