# generated using pymatgen
data_K6Tl17
_symmetry_space_group_name_H-M   'P 1'
_cell_length_a   15.14861270
_cell_length_b   15.14861270
_cell_length_c   15.48731593
_cell_angle_alpha   90.00000000
_cell_angle_beta   90.00000000
_cell_angle_gamma   111.24785673
_symmetry_Int_Tables_number   1
_chemical_formula_structural   K6Tl17
_chemical_formula_sum   'K24 Tl68'
_cell_volume   3312.43815715
_cell_formula_units_Z   4
loop_
 _symmetry_equiv_pos_site_id
 _symmetry_equiv_pos_as_xyz
  1  'x, y, z'
loop_
 _atom_site_type_symbol
 _atom_site_label
 _atom_site_symmetry_multiplicity
 _atom_site_fract_x
 _atom_site_fract_y
 _atom_site_fract_z
 _atom_site_occupancy
  K  K0  1  0.11633267  0.42531492  0.50000000  1
  K  K1  1  0.88366733  0.57468508  0.50000000  1
  K  K2  1  0.57468508  0.88366733  0.00000000  1
  K  K3  1  0.42531492  0.11633267  0.00000000  1
  K  K4  1  0.75032010  0.80561328  0.50000000  1
  K  K5  1  0.24967990  0.19438672  0.50000000  1
  K  K6  1  0.19438672  0.24967990  0.00000000  1
  K  K7  1  0.80561328  0.75032010  0.00000000  1
  K  K8  1  0.78061318  0.10914688  0.50000000  1
  K  K9  1  0.21938682  0.89085312  0.50000000  1
  K  K10  1  0.89085312  0.21938682  0.00000000  1
  K  K11  1  0.10914688  0.78061318  0.00000000  1
  K  K12  1  0.06123754  0.39115224  0.21157743  1
  K  K13  1  0.93876246  0.60884776  0.21157743  1
  K  K14  1  0.60884776  0.93876246  0.28842257  1
  K  K15  1  0.39115224  0.06123754  0.28842257  1
  K  K16  1  0.93876246  0.60884776  0.78842257  1
  K  K17  1  0.06123754  0.39115224  0.78842257  1
  K  K18  1  0.39115224  0.06123754  0.71157743  1
  K  K19  1  0.60884776  0.93876246  0.71157743  1
  K  K20  1  0.27774263  0.27774263  0.25000000  1
  K  K21  1  0.72225737  0.72225737  0.25000000  1
  K  K22  1  0.72225737  0.72225737  0.75000000  1
  K  K23  1  0.27774263  0.27774263  0.75000000  1
  Tl  Tl24  1  0.02850344  0.11968711  0.17824560  1
  Tl  Tl25  1  0.97149656  0.88031289  0.17824560  1
  Tl  Tl26  1  0.88031289  0.97149656  0.32175440  1
  Tl  Tl27  1  0.11968711  0.02850344  0.32175440  1
  Tl  Tl28  1  0.97149656  0.88031289  0.82175440  1
  Tl  Tl29  1  0.02850344  0.11968711  0.82175440  1
  Tl  Tl30  1  0.11968711  0.02850344  0.67824560  1
  Tl  Tl31  1  0.88031289  0.97149656  0.67824560  1
  Tl  Tl32  1  -0.00000000  -0.00000000  0.50000000  1
  Tl  Tl33  1  -0.00000000  -0.00000000  0.00000000  1
  Tl  Tl34  1  0.83801147  0.16198853  0.25000000  1
  Tl  Tl35  1  0.16198853  0.83801147  0.25000000  1
  Tl  Tl36  1  0.16198853  0.83801147  0.75000000  1
  Tl  Tl37  1  0.83801147  0.16198853  0.75000000  1
  Tl  Tl38  1  0.50000000  0.50000000  0.25000000  1
  Tl  Tl39  1  0.50000000  0.50000000  0.75000000  1
  Tl  Tl40  1  0.02972759  0.20288815  0.37806560  1
  Tl  Tl41  1  0.97027241  0.79711185  0.37806560  1
  Tl  Tl42  1  0.79711185  0.97027241  0.12193440  1
  Tl  Tl43  1  0.20288815  0.02972759  0.12193440  1
  Tl  Tl44  1  0.97027241  0.79711185  0.62193440  1
  Tl  Tl45  1  0.02972759  0.20288815  0.62193440  1
  Tl  Tl46  1  0.20288815  0.02972759  0.87806560  1
  Tl  Tl47  1  0.79711185  0.97027241  0.87806560  1
  Tl  Tl48  1  0.79300020  0.35223068  0.17181100  1
  Tl  Tl49  1  0.20699980  0.64776932  0.17181100  1
  Tl  Tl50  1  0.64776932  0.20699980  0.32818900  1
  Tl  Tl51  1  0.35223068  0.79300020  0.32818900  1
  Tl  Tl52  1  0.20699980  0.64776932  0.82818900  1
  Tl  Tl53  1  0.79300020  0.35223068  0.82818900  1
  Tl  Tl54  1  0.35223068  0.79300020  0.67181100  1
  Tl  Tl55  1  0.64776932  0.20699980  0.67181100  1
  Tl  Tl56  1  0.70371055  0.45219353  0.31497077  1
  Tl  Tl57  1  0.29628945  0.54780647  0.31497077  1
  Tl  Tl58  1  0.54780647  0.29628945  0.18502923  1
  Tl  Tl59  1  0.45219353  0.70371055  0.18502923  1
  Tl  Tl60  1  0.29628945  0.54780647  0.68502923  1
  Tl  Tl61  1  0.70371055  0.45219353  0.68502923  1
  Tl  Tl62  1  0.45219353  0.70371055  0.81497077  1
  Tl  Tl63  1  0.54780647  0.29628945  0.81497077  1
  Tl  Tl64  1  0.68853432  0.33658824  0.50000000  1
  Tl  Tl65  1  0.31146568  0.66341176  0.50000000  1
  Tl  Tl66  1  0.66341176  0.31146568  0.00000000  1
  Tl  Tl67  1  0.33658824  0.68853432  0.00000000  1
  Tl  Tl68  1  0.87948133  0.35188588  0.37771013  1
  Tl  Tl69  1  0.12051867  0.64811412  0.37771013  1
  Tl  Tl70  1  0.64811412  0.12051867  0.12228987  1
  Tl  Tl71  1  0.35188588  0.87948133  0.12228987  1
  Tl  Tl72  1  0.12051867  0.64811412  0.62228987  1
  Tl  Tl73  1  0.87948133  0.35188588  0.62228987  1
  Tl  Tl74  1  0.35188588  0.87948133  0.87771013  1
  Tl  Tl75  1  0.64811412  0.12051867  0.87771013  1
  Tl  Tl76  1  0.68427047  0.51557975  0.11069680  1
  Tl  Tl77  1  0.31572953  0.48442025  0.11069680  1
  Tl  Tl78  1  0.48442025  0.31572953  0.38930320  1
  Tl  Tl79  1  0.51557975  0.68427047  0.38930320  1
  Tl  Tl80  1  0.31572953  0.48442025  0.88930320  1
  Tl  Tl81  1  0.68427047  0.51557975  0.88930320  1
  Tl  Tl82  1  0.51557975  0.68427047  0.61069680  1
  Tl  Tl83  1  0.48442025  0.31572953  0.61069680  1
  Tl  Tl84  1  0.62197141  0.53353334  0.50000000  1
  Tl  Tl85  1  0.37802859  0.46646666  0.50000000  1
  Tl  Tl86  1  0.46646666  0.37802859  0.00000000  1
  Tl  Tl87  1  0.53353334  0.62197141  0.00000000  1
  Tl  Tl88  1  0.50736960  0.11632060  0.50000000  1
  Tl  Tl89  1  0.49263040  0.88367940  0.50000000  1
  Tl  Tl90  1  0.88367940  0.49263040  0.00000000  1
  Tl  Tl91  1  0.11632060  0.50736960  0.00000000  1
