# generated using pymatgen
data_Ca2Al4Si4H10O21
_symmetry_space_group_name_H-M   'P 1'
_cell_length_a   8.89464155
_cell_length_b   9.41330534
_cell_length_c   11.73915885
_cell_angle_alpha   91.37240844
_cell_angle_beta   112.26215314
_cell_angle_gamma   90.00000000
_symmetry_Int_Tables_number   1
_chemical_formula_structural   Ca2Al4Si4H10O21
_chemical_formula_sum   'Ca4 Al8 Si8 H20 O42'
_cell_volume   909.32644402
_cell_formula_units_Z   2
loop_
 _symmetry_equiv_pos_site_id
 _symmetry_equiv_pos_as_xyz
  1  'x, y, z'
loop_
 _atom_site_type_symbol
 _atom_site_label
 _atom_site_symmetry_multiplicity
 _atom_site_fract_x
 _atom_site_fract_y
 _atom_site_fract_z
 _atom_site_occupancy
  Ca  Ca0  1  0.15628427  0.54489652  0.71075232  1
  Ca  Ca1  1  0.44553195  0.95510348  0.28924768  1
  Ca  Ca2  1  0.84371573  0.45510348  0.28924768  1
  Ca  Ca3  1  0.55446805  0.04489652  0.71075232  1
  Al  Al4  1  0.03261746  0.10095911  0.23259563  1
  Al  Al5  1  0.80002183  0.39904089  0.76740437  1
  Al  Al6  1  0.96738254  0.89904089  0.76740437  1
  Al  Al7  1  0.19997817  0.60095911  0.23259563  1
  Al  Al8  1  0.88279650  0.78594096  0.40004242  1
  Al  Al9  1  0.48275407  0.71405904  0.59995758  1
  Al  Al10  1  0.11720350  0.21405904  0.59995758  1
  Al  Al11  1  0.51724593  0.28594096  0.40004242  1
  Si  Si12  1  0.88515122  0.79007161  0.13482334  1
  Si  Si13  1  0.75032789  0.70992839  0.86517666  1
  Si  Si14  1  0.11484878  0.20992839  0.86517666  1
  Si  Si15  1  0.24967211  0.29007161  0.13482334  1
  Si  Si16  1  0.23030270  0.96117465  0.48037426  1
  Si  Si17  1  0.74992845  0.53882535  0.51962574  1
  Si  Si18  1  0.76969730  0.03882535  0.51962574  1
  Si  Si19  1  0.25007155  0.46117465  0.48037426  1
  H  H20  1  0.06495884  0.64940221  0.90735883  1
  H  H21  1  0.15760001  0.85059779  0.09264117  1
  H  H22  1  0.93504116  0.35059779  0.09264117  1
  H  H23  1  0.84239999  0.14940221  0.90735883  1
  H  H24  1  0.18359579  0.53016258  0.98651270  1
  H  H25  1  0.19708309  0.96983742  0.01348730  1
  H  H26  1  0.81640421  0.46983742  0.01348730  1
  H  H27  1  0.80291691  0.03016258  0.98651270  1
  H  H28  1  0.10317412  0.82795835  0.63576797  1
  H  H29  1  0.46740615  0.67204165  0.36423203  1
  H  H30  1  0.89682588  0.17204165  0.36423203  1
  H  H31  1  0.53259385  0.32795835  0.63576797  1
  H  H32  1  0.57901109  0.59534711  0.10000518  1
  H  H33  1  0.47900590  0.90465289  0.89999482  1
  H  H34  1  0.42098891  0.40465289  0.89999482  1
  H  H35  1  0.52099410  0.09534711  0.10000518  1
  H  H36  1  0.46726294  0.51575387  0.15401960  1
  H  H37  1  0.31324334  0.98424613  0.84598040  1
  H  H38  1  0.53273706  0.48424613  0.84598040  1
  H  H39  1  0.68675666  0.01575387  0.15401960  1
  O  O40  1  0.05368708  0.71768455  0.13961475  1
  O  O41  1  0.91407233  0.78231545  0.86038525  1
  O  O42  1  0.94631292  0.28231545  0.86038525  1
  O  O43  1  0.08592767  0.21768455  0.13961475  1
  O  O44  1  0.89893191  0.96427261  0.14334677  1
  O  O45  1  0.75558514  0.53572739  0.85665323  1
  O  O46  1  0.10106809  0.03572739  0.85665323  1
  O  O47  1  0.24441486  0.46427261  0.14334677  1
  O  O48  1  0.83413556  0.73058561  0.24484527  1
  O  O49  1  0.58929029  0.76941439  0.75515473  1
  O  O50  1  0.16586444  0.26941439  0.75515473  1
  O  O51  1  0.41070971  0.23058561  0.24484527  1
  O  O52  1  0.13788284  0.52313559  0.34484783  1
  O  O53  1  0.79303501  0.97686441  0.65515217  1
  O  O54  1  0.86211716  0.47686441  0.65515217  1
  O  O55  1  0.20696499  0.02313559  0.34484783  1
  O  O56  1  0.74203730  0.90939441  0.41602755  1
  O  O57  1  0.32600974  0.59060559  0.58397245  1
  O  O58  1  0.25796270  0.09060559  0.58397245  1
  O  O59  1  0.67399026  0.40939441  0.41602755  1
  O  O60  1  0.07829970  0.85951636  0.47082586  1
  O  O61  1  0.60747384  0.64048364  0.52917414  1
  O  O62  1  0.92170030  0.14048364  0.52917414  1
  O  O63  1  0.39252616  0.35951636  0.47082586  1
  O  O64  1  0.87055139  0.62165658  0.46588010  1
  O  O65  1  0.40467129  0.87834342  0.53411990  1
  O  O66  1  0.12944861  0.37834342  0.53411990  1
  O  O67  1  0.59532871  0.12165658  0.46588010  1
  O  O68  1  0.73853603  0.75000000  -0.00000000  1
  O  O69  1  0.26146397  0.25000000  -0.00000000  1
  O  O70  1  0.08391292  0.78994566  0.70639276  1
  O  O71  1  0.37752016  0.71005434  0.29360724  1
  O  O72  1  0.91608708  0.21005434  0.29360724  1
  O  O73  1  0.62247984  0.28994566  0.70639276  1
  O  O74  1  0.57424444  0.51312373  0.14719937  1
  O  O75  1  0.42704508  0.98687627  0.85280063  1
  O  O76  1  0.42575556  0.48687627  0.85280063  1
  O  O77  1  0.57295492  0.01312373  0.14719937  1
  O  O78  1  0.14625745  0.57763107  0.90660551  1
  O  O79  1  0.23965193  0.92236893  0.09339449  1
  O  O80  1  0.85374255  0.42236893  0.09339449  1
  O  O81  1  0.76034807  0.07763107  0.90660551  1
