# generated using pymatgen
data_Ce2Co7
_symmetry_space_group_name_H-M   'P 1'
_cell_length_a   4.89608674
_cell_length_b   4.89608674
_cell_length_c   24.67410138
_cell_angle_alpha   90.00000000
_cell_angle_beta   90.00000000
_cell_angle_gamma   120.08350600
_symmetry_Int_Tables_number   1
_chemical_formula_structural   Ce2Co7
_chemical_formula_sum   'Ce8 Co28'
_cell_volume   511.80453084
_cell_formula_units_Z   4
loop_
 _symmetry_equiv_pos_site_id
 _symmetry_equiv_pos_as_xyz
  1  'x, y, z'
loop_
 _atom_site_type_symbol
 _atom_site_label
 _atom_site_symmetry_multiplicity
 _atom_site_fract_x
 _atom_site_fract_y
 _atom_site_fract_z
 _atom_site_occupancy
  Ce  Ce0  1  0.66661722  0.33338278  0.52850536  1
  Ce  Ce1  1  0.33338278  0.66661722  0.47149464  1
  Ce  Ce2  1  0.33338278  0.66661722  0.02850536  1
  Ce  Ce3  1  0.66661722  0.33338278  0.97149464  1
  Ce  Ce4  1  0.66677150  0.33322850  0.67331248  1
  Ce  Ce5  1  0.33322850  0.66677150  0.32668752  1
  Ce  Ce6  1  0.33322850  0.66677150  0.17331248  1
  Ce  Ce7  1  0.66677150  0.33322850  0.82668752  1
  Co  Co8  1  0.00000000  -0.00000000  0.50000000  1
  Co  Co9  1  0.00000000  -0.00000000  0.00000000  1
  Co  Co10  1  0.16767480  0.33513423  0.75000000  1
  Co  Co11  1  0.16735613  0.83264387  0.75000000  1
  Co  Co12  1  0.66486577  0.83232520  0.75000000  1
  Co  Co13  1  0.83232520  0.66486577  0.25000000  1
  Co  Co14  1  0.83264387  0.16735613  0.25000000  1
  Co  Co15  1  0.33513423  0.16767480  0.25000000  1
  Co  Co16  1  0.16570352  0.33145433  0.58676919  1
  Co  Co17  1  0.16528634  0.83471366  0.58642466  1
  Co  Co18  1  0.66854567  0.83429648  0.58676919  1
  Co  Co19  1  0.83429648  0.66854567  0.41323081  1
  Co  Co20  1  0.83471366  0.16528634  0.41357534  1
  Co  Co21  1  0.33145433  0.16570352  0.41323081  1
  Co  Co22  1  0.83429648  0.66854567  0.08676919  1
  Co  Co23  1  0.83471366  0.16528634  0.08642466  1
  Co  Co24  1  0.33145433  0.16570352  0.08676919  1
  Co  Co25  1  0.16570352  0.33145433  0.91323081  1
  Co  Co26  1  0.16528634  0.83471366  0.91357534  1
  Co  Co27  1  0.66854567  0.83429648  0.91323081  1
  Co  Co28  1  1.00222728  -0.00222728  0.66804627  1
  Co  Co29  1  -0.00222728  1.00222728  0.33195373  1
  Co  Co30  1  -0.00222728  1.00222728  0.16804627  1
  Co  Co31  1  1.00222728  -0.00222728  0.83195373  1
  Co  Co32  1  0.66923195  0.33076805  0.33399140  1
  Co  Co33  1  0.33076805  0.66923195  0.66600860  1
  Co  Co34  1  0.33076805  0.66923195  0.83399140  1
  Co  Co35  1  0.66923195  0.33076805  0.16600860  1
