# generated using pymatgen
data_MgB6H14O17
_symmetry_space_group_name_H-M   'P 1'
_cell_length_a   10.17219509
_cell_length_b   11.45247387
_cell_length_c   12.80362230
_cell_angle_alpha   109.89020577
_cell_angle_beta   90.00000000
_cell_angle_gamma   90.00000000
_symmetry_Int_Tables_number   1
_chemical_formula_structural   MgB6H14O17
_chemical_formula_sum   'Mg4 B24 H56 O68'
_cell_volume   1402.60267795
_cell_formula_units_Z   4
loop_
 _symmetry_equiv_pos_site_id
 _symmetry_equiv_pos_as_xyz
  1  'x, y, z'
loop_
 _atom_site_type_symbol
 _atom_site_label
 _atom_site_symmetry_multiplicity
 _atom_site_fract_x
 _atom_site_fract_y
 _atom_site_fract_z
 _atom_site_occupancy
  Mg  Mg0  1  0.50000000  0.50000000  0.00000000  1
  Mg  Mg1  1  0.00000000  0.00000000  0.00000000  1
  Mg  Mg2  1  0.50000000  0.00000000  0.50000000  1
  Mg  Mg3  1  0.00000000  0.50000000  0.50000000  1
  B  B4  1  0.37406204  0.51628596  0.22404925  1
  B  B5  1  0.87406204  0.98371404  0.77595075  1
  B  B6  1  0.62593796  0.48371404  0.77595075  1
  B  B7  1  0.12593796  0.01628596  0.22404925  1
  B  B8  1  0.38485779  0.29137460  0.08101077  1
  B  B9  1  0.88485779  0.20862540  0.91898923  1
  B  B10  1  0.61514221  0.70862540  0.91898923  1
  B  B11  1  0.11514221  0.79137460  0.08101077  1
  B  B12  1  0.59902485  0.39970632  0.18318983  1
  B  B13  1  0.09902485  0.10029368  0.81681017  1
  B  B14  1  0.40097515  0.60029368  0.81681017  1
  B  B15  1  0.90097515  0.89970632  0.18318983  1
  B  B16  1  0.55409587  0.55916956  0.36679747  1
  B  B17  1  0.05409587  0.94083044  0.63320253  1
  B  B18  1  0.44590413  0.44083044  0.63320253  1
  B  B19  1  0.94590413  0.05916956  0.36679747  1
  B  B20  1  0.57585380  0.16943817  0.10626932  1
  B  B21  1  0.07585380  0.33056183  0.89373068  1
  B  B22  1  0.42414620  0.83056183  0.89373068  1
  B  B23  1  0.92414620  0.66943817  0.10626932  1
  B  B24  1  0.17692314  0.38348061  0.17435041  1
  B  B25  1  0.67692314  0.11651939  0.82564959  1
  B  B26  1  0.82307686  0.61651939  0.82564959  1
  B  B27  1  0.32307686  0.88348061  0.17435041  1
  H  H28  1  0.31867590  0.63650691  0.13790968  1
  H  H29  1  0.81867590  0.86349309  0.86209032  1
  H  H30  1  0.68132410  0.36349309  0.86209032  1
  H  H31  1  0.18132410  0.13650691  0.13790968  1
  H  H32  1  0.72217048  0.49400131  0.10568727  1
  H  H33  1  0.22217048  0.00599869  0.89431273  1
  H  H34  1  0.27782952  0.50599869  0.89431273  1
  H  H35  1  0.77782952  0.99400131  0.10568727  1
  H  H36  1  0.32426676  0.30670670  0.93237477  1
  H  H37  1  0.82426676  0.19329330  0.06762523  1
  H  H38  1  0.67573324  0.69329330  0.06762523  1
  H  H39  1  0.17573324  0.80670670  0.93237477  1
  H  H40  1  0.51922828  0.66302095  0.52131663  1
  H  H41  1  0.01922828  0.83697905  0.47868337  1
  H  H42  1  0.48077172  0.33697905  0.47868337  1
  H  H43  1  0.98077172  0.16302095  0.52131663  1
  H  H44  1  0.00427788  0.29700413  0.12312669  1
  H  H45  1  0.50427788  0.20299587  0.87687331  1
  H  H46  1  0.99572212  0.70299587  0.87687331  1
  H  H47  1  0.49572212  0.79700413  0.12312669  1
  H  H48  1  0.59020627  0.98069849  0.03715339  1
  H  H49  1  0.09020627  0.51930151  0.96284661  1
  H  H50  1  0.40979373  0.01930151  0.96284661  1
  H  H51  1  0.90979373  0.48069849  0.03715339  1
  H  H52  1  0.30543982  0.02862157  0.66425832  1
  H  H53  1  0.80543982  0.47137843  0.33574168  1
  H  H54  1  0.69456018  0.97137843  0.33574168  1
  H  H55  1  0.19456018  0.52862157  0.66425832  1
  H  H56  1  0.45088636  0.05448376  0.71563483  1
  H  H57  1  0.95088636  0.44551624  0.28436517  1
  H  H58  1  0.54911364  0.94551624  0.28436517  1
  H  H59  1  0.04911364  0.55448376  0.71563483  1
  H  H60  1  0.60345784  0.24604436  0.61086985  1
  H  H61  1  0.10345784  0.25395564  0.38913015  1
  H  H62  1  0.39654216  0.75395564  0.38913015  1
  H  H63  1  0.89654216  0.74604436  0.61086985  1
  H  H64  1  0.71488252  0.14712721  0.55455330  1
  H  H65  1  0.21488252  0.35287279  0.44544670  1
  H  H66  1  0.28511748  0.85287279  0.44544670  1
  H  H67  1  0.78511748  0.64712721  0.55455330  1
  H  H68  1  0.68394643  0.93903046  0.62255806  1
  H  H69  1  0.18394643  0.56096954  0.37744194  1
  H  H70  1  0.31605357  0.06096954  0.37744194  1
  H  H71  1  0.81605357  0.43903046  0.62255806  1
  H  H72  1  0.71956641  0.85903197  0.49712165  1
  H  H73  1  0.21956641  0.64096803  0.50287835  1
  H  H74  1  0.28043359  0.14096803  0.50287835  1
  H  H75  1  0.78043359  0.35903197  0.49712165  1
  H  H76  1  0.13143077  0.31698320  0.61557605  1
  H  H77  1  0.63143077  0.18301680  0.38442395  1
  H  H78  1  0.86856923  0.68301680  0.38442395  1
  H  H79  1  0.36856923  0.81698320  0.61557605  1
  H  H80  1  0.14528461  0.21541185  0.67184077  1
  H  H81  1  0.64528461  0.28458815  0.32815923  1
  H  H82  1  0.85471539  0.78458815  0.32815923  1
  H  H83  1  0.35471539  0.71541185  0.67184077  1
  O  O84  1  0.38573696  0.57601754  0.13942029  1
  O  O85  1  0.88573696  0.92398246  0.86057971  1
  O  O86  1  0.61426304  0.42398246  0.86057971  1
  O  O87  1  0.11426304  0.07601754  0.13942029  1
  O  O88  1  0.63555748  0.45270244  0.09909650  1
  O  O89  1  0.13555748  0.04729756  0.90090350  1
  O  O90  1  0.36444252  0.54729756  0.90090350  1
  O  O91  1  0.86444252  0.95270244  0.09909650  1
  O  O92  1  0.40550291  0.32173654  0.97619204  1
  O  O93  1  0.90550291  0.17826346  0.02380796  1
  O  O94  1  0.59449709  0.67826346  0.02380796  1
  O  O95  1  0.09449709  0.82173654  0.97619204  1
  O  O96  1  0.59281508  0.61619709  0.47540806  1
  O  O97  1  0.09281508  0.88380291  0.52459194  1
  O  O98  1  0.40718492  0.38380291  0.52459194  1
  O  O99  1  0.90718492  0.11619709  0.47540806  1
  O  O100  1  0.04157639  0.37411975  0.17724513  1
  O  O101  1  0.54157639  0.12588025  0.82275487  1
  O  O102  1  0.95842361  0.62588025  0.82275487  1
  O  O103  1  0.45842361  0.87411975  0.17724513  1
  O  O104  1  0.63674535  0.05551411  0.08465627  1
  O  O105  1  0.13674535  0.44448589  0.91534373  1
  O  O106  1  0.36325465  0.94448589  0.91534373  1
  O  O107  1  0.86325465  0.55551411  0.08465627  1
  O  O108  1  0.44863984  0.39298589  0.17713364  1
  O  O109  1  0.94863984  0.10701411  0.82286636  1
  O  O110  1  0.55136016  0.60701411  0.82286636  1
  O  O111  1  0.05136016  0.89298589  0.17713364  1
  O  O112  1  0.23610951  0.49031184  0.24173616  1
  O  O113  1  0.73610951  0.00968816  0.75826384  1
  O  O114  1  0.76389049  0.50968816  0.75826384  1
  O  O115  1  0.26389049  0.99031184  0.24173616  1
  O  O116  1  0.24641645  0.28554539  0.10366749  1
  O  O117  1  0.74641645  0.21445461  0.89633251  1
  O  O118  1  0.75358355  0.71445461  0.89633251  1
  O  O119  1  0.25358355  0.78554539  0.10366749  1
  O  O120  1  0.44980701  0.17384324  0.07015915  1
  O  O121  1  0.94980701  0.32615676  0.92984085  1
  O  O122  1  0.55019299  0.82615676  0.92984085  1
  O  O123  1  0.05019299  0.67384324  0.07015915  1
  O  O124  1  0.64902492  0.27239820  0.16254266  1
  O  O125  1  0.14902492  0.22760180  0.83745734  1
  O  O126  1  0.35097508  0.72760180  0.83745734  1
  O  O127  1  0.85097508  0.77239820  0.16254266  1
  O  O128  1  0.63901570  0.47442186  0.29629987  1
  O  O129  1  0.13901570  0.02557814  0.70370013  1
  O  O130  1  0.36098430  0.52557814  0.70370013  1
  O  O131  1  0.86098430  0.97442186  0.29629987  1
  O  O132  1  0.43451031  0.58772850  0.33036464  1
  O  O133  1  0.93451031  0.91227150  0.66963536  1
  O  O134  1  0.56548969  0.41227150  0.66963536  1
  O  O135  1  0.06548969  0.08772850  0.33036464  1
  O  O136  1  0.40000132  0.01149799  0.64599321  1
  O  O137  1  0.90000132  0.48850201  0.35400679  1
  O  O138  1  0.59999868  0.98850201  0.35400679  1
  O  O139  1  0.09999868  0.51149799  0.64599321  1
  O  O140  1  0.64729829  0.90247613  0.54621617  1
  O  O141  1  0.14729829  0.59752387  0.45378383  1
  O  O142  1  0.35270171  0.09752387  0.45378383  1
  O  O143  1  0.85270171  0.40247613  0.54621617  1
  O  O144  1  0.62318431  0.15615353  0.58006162  1
  O  O145  1  0.12318431  0.34384647  0.41993838  1
  O  O146  1  0.37681569  0.84384647  0.41993838  1
  O  O147  1  0.87681569  0.65615353  0.58006162  1
  O  O148  1  0.13975194  0.22692066  0.59936098  1
  O  O149  1  0.63975194  0.27307934  0.40063902  1
  O  O150  1  0.86024806  0.77307934  0.40063902  1
  O  O151  1  0.36024806  0.72692066  0.59936098  1
