# generated using pymatgen
data_Rb3H(SO4)2
_symmetry_space_group_name_H-M   'P 1'
_cell_length_a   8.60238645
_cell_length_b   11.75670627
_cell_length_c   11.75670627
_cell_angle_alpha   59.65683319
_cell_angle_beta   70.69132605
_cell_angle_gamma   70.69132605
_symmetry_Int_Tables_number   1
_chemical_formula_structural   Rb3H(SO4)2
_chemical_formula_sum   'Rb12 H4 S8 O32'
_cell_volume   948.68339475
_cell_formula_units_Z   4
loop_
 _symmetry_equiv_pos_site_id
 _symmetry_equiv_pos_as_xyz
  1  'x, y, z'
loop_
 _atom_site_type_symbol
 _atom_site_label
 _atom_site_symmetry_multiplicity
 _atom_site_fract_x
 _atom_site_fract_y
 _atom_site_fract_z
 _atom_site_occupancy
  Rb  Rb0  1  0.00000000  0.23117750  0.76882250  1
  Rb  Rb1  1  -0.00000000  0.76882250  0.23117750  1
  Rb  Rb2  1  0.47761638  0.76521559  0.76521559  1
  Rb  Rb3  1  0.52238362  0.23478441  0.23478441  1
  Rb  Rb4  1  0.88965479  0.36740528  0.36740528  1
  Rb  Rb5  1  0.11034521  0.63259472  0.63259472  1
  Rb  Rb6  1  0.59067534  0.66426165  0.14196678  1
  Rb  Rb7  1  0.59067534  0.14196678  0.66426165  1
  Rb  Rb8  1  0.40932466  0.33573835  0.85803322  1
  Rb  Rb9  1  0.40932466  0.85803322  0.33573835  1
  Rb  Rb10  1  0.07060870  0.14367547  0.14367547  1
  Rb  Rb11  1  0.92939130  0.85632453  0.85632453  1
  H  H12  1  0.71459008  0.50232130  0.78689108  1
  H  H13  1  0.71459008  0.78689108  0.50232130  1
  H  H14  1  0.28540992  0.49767870  0.21310892  1
  H  H15  1  0.28540992  0.21310892  0.49767870  1
  S  S16  1  0.82387988  0.47174799  0.94356417  1
  S  S17  1  0.82387988  0.94356417  0.47174799  1
  S  S18  1  0.17612012  0.52825201  0.05643583  1
  S  S19  1  0.17612012  0.05643583  0.52825201  1
  S  S20  1  0.30893937  0.95705676  0.95705676  1
  S  S21  1  0.69106063  0.04294324  0.04294324  1
  S  S22  1  0.65871873  0.55961795  0.55961795  1
  S  S23  1  0.34128127  0.44038205  0.44038205  1
  O  O24  1  0.68903427  0.45216314  0.88860117  1
  O  O25  1  0.68903427  0.88860117  0.45216314  1
  O  O26  1  0.31096573  0.54783686  0.11139883  1
  O  O27  1  0.31096573  0.11139883  0.54783686  1
  O  O28  1  0.80228945  0.61760329  0.89176456  1
  O  O29  1  0.80228945  0.89176456  0.61760329  1
  O  O30  1  0.19771055  0.38239671  0.10823544  1
  O  O31  1  0.19771055  0.10823544  0.38239671  1
  O  O32  1  0.98991751  0.40993949  0.88819750  1
  O  O33  1  0.98991751  0.88819750  0.40993949  1
  O  O34  1  0.01008249  0.59006051  0.11180250  1
  O  O35  1  0.01008249  0.11180250  0.59006051  1
  O  O36  1  0.77423486  0.40049635  0.08965706  1
  O  O37  1  0.77423486  0.08965706  0.40049635  1
  O  O38  1  0.22576514  0.59950365  0.91034294  1
  O  O39  1  0.22576514  0.91034294  0.59950365  1
  O  O40  1  0.48385932  0.90161165  0.90161165  1
  O  O41  1  0.51614068  0.09838835  0.09838835  1
  O  O42  1  0.28410718  0.89781110  0.10715978  1
  O  O43  1  0.28410718  0.10715978  0.89781110  1
  O  O44  1  0.71589282  0.10218890  0.89284022  1
  O  O45  1  0.71589282  0.89284022  0.10218890  1
  O  O46  1  0.18537466  0.92170585  0.92170585  1
  O  O47  1  0.81462534  0.07829415  0.07829415  1
  O  O48  1  0.70789565  0.41036689  0.62041328  1
  O  O49  1  0.70789565  0.62041328  0.41036689  1
  O  O50  1  0.29210435  0.58963311  0.37958672  1
  O  O51  1  0.29210435  0.37958672  0.58963311  1
  O  O52  1  0.75191205  0.61077314  0.61077314  1
  O  O53  1  0.24808795  0.38922686  0.38922686  1
  O  O54  1  0.47562116  0.60422211  0.60422211  1
  O  O55  1  0.52437884  0.39577789  0.39577789  1
