# generated using pymatgen
data_CaFe3Si2HO9
_symmetry_space_group_name_H-M   'P 1'
_cell_length_a   5.91470420
_cell_length_b   8.90872824
_cell_length_c   13.17787258
_cell_angle_alpha   90.00000000
_cell_angle_beta   90.00000000
_cell_angle_gamma   90.00000000
_symmetry_Int_Tables_number   1
_chemical_formula_structural   CaFe3Si2HO9
_chemical_formula_sum   'Ca4 Fe12 Si8 H4 O36'
_cell_volume   694.37494995
_cell_formula_units_Z   4
loop_
 _symmetry_equiv_pos_site_id
 _symmetry_equiv_pos_as_xyz
  1  'x, y, z'
loop_
 _atom_site_type_symbol
 _atom_site_label
 _atom_site_symmetry_multiplicity
 _atom_site_fract_x
 _atom_site_fract_y
 _atom_site_fract_z
 _atom_site_occupancy
  Ca  Ca0  1  0.75000000  0.13072082  0.68708686  1
  Ca  Ca1  1  0.75000000  0.36927918  0.18708686  1
  Ca  Ca2  1  0.25000000  0.86927918  0.31291314  1
  Ca  Ca3  1  0.25000000  0.63072082  0.81291314  1
  Fe  Fe4  1  0.01089768  0.44927882  0.60998580  1
  Fe  Fe5  1  0.48910232  0.05072118  0.10998580  1
  Fe  Fe6  1  0.51089768  0.55072118  0.39001420  1
  Fe  Fe7  1  0.98910232  0.94927882  0.89001420  1
  Fe  Fe8  1  0.98910232  0.55072118  0.39001420  1
  Fe  Fe9  1  0.51089768  0.94927882  0.89001420  1
  Fe  Fe10  1  0.48910232  0.44927882  0.60998580  1
  Fe  Fe11  1  0.01089768  0.05072118  0.10998580  1
  Fe  Fe12  1  0.25000000  0.75945219  0.55861731  1
  Fe  Fe13  1  0.25000000  0.74054781  0.05861731  1
  Fe  Fe14  1  0.75000000  0.24054781  0.44138269  1
  Fe  Fe15  1  0.75000000  0.25945219  0.94138269  1
  Si  Si16  1  0.25000000  0.13086672  0.54063749  1
  Si  Si17  1  0.25000000  0.36913328  0.04063749  1
  Si  Si18  1  0.75000000  0.86913328  0.45936251  1
  Si  Si19  1  0.75000000  0.63086672  0.95936251  1
  Si  Si20  1  0.25000000  0.27251145  0.82092039  1
  Si  Si21  1  0.25000000  0.22748855  0.32092039  1
  Si  Si22  1  0.75000000  0.72748855  0.17907961  1
  Si  Si23  1  0.75000000  0.77251145  0.67907961  1
  H  H24  1  0.75000000  0.43471862  0.77184327  1
  H  H25  1  0.75000000  0.06528138  0.27184327  1
  H  H26  1  0.25000000  0.56528138  0.22815673  1
  H  H27  1  0.25000000  0.93471862  0.72815673  1
  O  O28  1  0.75000000  0.46870485  0.49089432  1
  O  O29  1  0.75000000  0.03129515  0.99089432  1
  O  O30  1  0.25000000  0.53129515  0.50910568  1
  O  O31  1  0.25000000  0.96870485  0.00910568  1
  O  O32  1  0.01704346  0.22740933  0.56446933  1
  O  O33  1  0.48295654  0.27259067  0.06446933  1
  O  O34  1  0.51704346  0.77259067  0.43553067  1
  O  O35  1  0.98295654  0.72740933  0.93553067  1
  O  O36  1  0.98295654  0.77259067  0.43553067  1
  O  O37  1  0.51704346  0.72740933  0.93553067  1
  O  O38  1  0.48295654  0.22740933  0.56446933  1
  O  O39  1  0.01704346  0.27259067  0.06446933  1
  O  O40  1  0.25000000  0.39119317  0.72345050  1
  O  O41  1  0.25000000  0.10880683  0.22345050  1
  O  O42  1  0.75000000  0.60880683  0.27654950  1
  O  O43  1  0.75000000  0.89119317  0.77654950  1
  O  O44  1  0.01812465  0.17006059  0.82916054  1
  O  O45  1  0.48187535  0.32993941  0.32916054  1
  O  O46  1  0.51812465  0.82993941  0.17083946  1
  O  O47  1  0.98187535  0.67006059  0.67083946  1
  O  O48  1  0.98187535  0.82993941  0.17083946  1
  O  O49  1  0.51812465  0.67006059  0.67083946  1
  O  O50  1  0.48187535  0.17006059  0.82916054  1
  O  O51  1  0.01812465  0.32993941  0.32916054  1
  O  O52  1  0.25000000  0.39901079  0.91513472  1
  O  O53  1  0.25000000  0.10098921  0.41513472  1
  O  O54  1  0.75000000  0.60098921  0.08486528  1
  O  O55  1  0.75000000  0.89901079  0.58486528  1
  O  O56  1  0.75000000  0.47386929  0.89856904  1
  O  O57  1  0.75000000  0.02613071  0.39856904  1
  O  O58  1  0.25000000  0.52613071  0.10143096  1
  O  O59  1  0.25000000  0.97386929  0.60143096  1
  O  O60  1  0.75000000  0.39048842  0.70187800  1
  O  O61  1  0.75000000  0.10951158  0.20187800  1
  O  O62  1  0.25000000  0.60951158  0.29812200  1
  O  O63  1  0.25000000  0.89048842  0.79812200  1
