# generated using pymatgen
data_GeS2
_symmetry_space_group_name_H-M   'P 1'
_cell_length_a   6.96545133
_cell_length_b   6.96384682
_cell_length_c   22.86611834
_cell_angle_alpha   90.00000000
_cell_angle_beta   90.00000000
_cell_angle_gamma   118.82119451
_symmetry_Int_Tables_number   1
_chemical_formula_structural   GeS2
_chemical_formula_sum   'Ge12 S24'
_cell_volume   971.75924953
_cell_formula_units_Z   12
loop_
 _symmetry_equiv_pos_site_id
 _symmetry_equiv_pos_as_xyz
  1  'x, y, z'
loop_
 _atom_site_type_symbol
 _atom_site_label
 _atom_site_symmetry_multiplicity
 _atom_site_fract_x
 _atom_site_fract_y
 _atom_site_fract_z
 _atom_site_occupancy
  Ge  Ge0  1  0.99972784  0.00221874  0.01217566  1
  Ge  Ge1  1  0.99972784  0.50221874  0.98782434  1
  Ge  Ge2  1  0.24413007  0.24407780  0.26288299  1
  Ge  Ge3  1  0.24413007  0.74407780  0.73711701  1
  Ge  Ge4  1  0.49318526  0.00106902  0.48780743  1
  Ge  Ge5  1  0.49318526  0.50106902  0.51219257  1
  Ge  Ge6  1  0.74756623  0.24963837  0.23809616  1
  Ge  Ge7  1  0.74756623  0.74963837  0.76190384  1
  Ge  Ge8  1  0.13834486  0.39066100  0.12535254  1
  Ge  Ge9  1  0.13834486  0.89066100  0.87464746  1
  Ge  Ge10  1  0.63248072  0.38779071  0.37527190  1
  Ge  Ge11  1  0.63248072  0.88779071  0.62472810  1
  S  S12  1  0.28371914  0.63222918  0.05101685  1
  S  S13  1  0.28371914  0.13222918  0.94898315  1
  S  S14  1  0.14660401  0.07919254  0.10214281  1
  S  S15  1  0.14660401  0.57919254  0.89785719  1
  S  S16  1  0.37791332  0.53032041  0.20025483  1
  S  S17  1  0.37791332  0.03032041  0.79974517  1
  S  S18  1  0.87622804  0.53191624  0.30179876  1
  S  S19  1  0.87622804  0.03191624  0.69820124  1
  S  S20  1  0.77668712  0.63388777  0.44844802  1
  S  S21  1  0.77668712  0.13388777  0.55155198  1
  S  S22  1  0.76934009  0.14016023  0.99905930  1
  S  S23  1  0.76934009  0.64016023  0.00094070  1
  S  S24  1  0.82958339  0.40226864  0.14886148  1
  S  S25  1  0.82958339  0.90226864  0.85113852  1
  S  S26  1  0.38478547  0.01800200  0.24573979  1
  S  S27  1  0.38478547  0.51800200  0.75426021  1
  S  S28  1  0.88079257  0.01674259  0.25366473  1
  S  S29  1  0.88079257  0.51674259  0.74633527  1
  S  S30  1  0.30978953  0.37349864  0.35449542  1
  S  S31  1  0.30978953  0.87349864  0.64550458  1
  S  S32  1  0.61699863  0.06441571  0.39576878  1
  S  S33  1  0.61699863  0.56441571  0.60423122  1
  S  S34  1  0.26482370  0.63691043  0.49385692  1
  S  S35  1  0.26482370  0.13691043  0.50614308  1
