# generated using pymatgen
data_Dy2(Ni5B2)3
_symmetry_space_group_name_H-M   'P 1'
_cell_length_a   9.56587941
_cell_length_b   10.72576465
_cell_length_c   14.21972008
_cell_angle_alpha   90.00000000
_cell_angle_beta   94.49527190
_cell_angle_gamma   90.00000000
_symmetry_Int_Tables_number   1
_chemical_formula_structural   Dy2(Ni5B2)3
_chemical_formula_sum   'Dy12 Ni90 B36'
_cell_volume   1454.47472421
_cell_formula_units_Z   6
loop_
 _symmetry_equiv_pos_site_id
 _symmetry_equiv_pos_as_xyz
  1  'x, y, z'
loop_
 _atom_site_type_symbol
 _atom_site_label
 _atom_site_symmetry_multiplicity
 _atom_site_fract_x
 _atom_site_fract_y
 _atom_site_fract_z
 _atom_site_occupancy
  Dy  Dy0  1  0.29156320  0.87499886  0.97389120  1
  Dy  Dy1  1  0.20843680  0.37499886  0.02610880  1
  Dy  Dy2  1  0.70843680  0.12500114  0.02610880  1
  Dy  Dy3  1  0.79156320  0.62500114  0.97389120  1
  Dy  Dy4  1  0.33943585  0.61164063  0.68707932  1
  Dy  Dy5  1  0.16056415  0.11164063  0.31292068  1
  Dy  Dy6  1  0.66056415  0.38835937  0.31292068  1
  Dy  Dy7  1  0.83943585  0.88835937  0.68707932  1
  Dy  Dy8  1  0.06277724  0.64952820  0.36152154  1
  Dy  Dy9  1  0.43722276  0.14952820  0.63847846  1
  Dy  Dy10  1  0.93722276  0.35047180  0.63847846  1
  Dy  Dy11  1  0.56277724  0.85047180  0.36152154  1
  Ni  Ni12  1  0.50000000  0.50000000  -0.00000000  1
  Ni  Ni13  1  -0.00000000  -0.00000000  -0.00000000  1
  Ni  Ni14  1  0.30317477  0.48569593  0.86730395  1
  Ni  Ni15  1  0.19682523  0.98569593  0.13269605  1
  Ni  Ni16  1  0.69682523  0.51430407  0.13269605  1
  Ni  Ni17  1  0.80317477  0.01430407  0.86730395  1
  Ni  Ni18  1  0.43974844  0.79224469  0.82114608  1
  Ni  Ni19  1  0.06025156  0.29224469  0.17885392  1
  Ni  Ni20  1  0.56025156  0.20775531  0.17885392  1
  Ni  Ni21  1  0.93974844  0.70775531  0.82114608  1
  Ni  Ni22  1  0.03666193  0.76546329  0.99046592  1
  Ni  Ni23  1  0.46333807  0.26546329  0.00953408  1
  Ni  Ni24  1  0.96333807  0.23453671  0.00953408  1
  Ni  Ni25  1  0.53666193  0.73453671  0.99046592  1
  Ni  Ni26  1  0.17883728  0.75030706  0.14353672  1
  Ni  Ni27  1  0.32116272  0.25030706  0.85646328  1
  Ni  Ni28  1  0.82116272  0.24969294  0.85646328  1
  Ni  Ni29  1  0.67883728  0.74969294  0.14353672  1
  Ni  Ni30  1  0.16255610  0.52337035  0.18551745  1
  Ni  Ni31  1  0.33744390  0.02337035  0.81448255  1
  Ni  Ni32  1  0.83744390  0.47662965  0.81448255  1
  Ni  Ni33  1  0.66255610  0.97662965  0.18551745  1
  Ni  Ni34  1  0.05522195  0.54286476  0.92616465  1
  Ni  Ni35  1  0.44477805  0.04286476  0.07383535  1
  Ni  Ni36  1  0.94477805  0.45713524  0.07383535  1
  Ni  Ni37  1  0.55522195  0.95713524  0.92616465  1
  Ni  Ni38  1  0.19971553  0.70099637  0.84950039  1
  Ni  Ni39  1  0.30028447  0.20099637  0.15049961  1
  Ni  Ni40  1  0.80028447  0.29900363  0.15049961  1
  Ni  Ni41  1  0.69971553  0.79900363  0.84950039  1
  Ni  Ni42  1  0.43218984  0.81573890  0.15212443  1
  Ni  Ni43  1  0.06781016  0.31573890  0.84787557  1
  Ni  Ni44  1  0.56781016  0.18426110  0.84787557  1
  Ni  Ni45  1  0.93218984  0.68426110  0.15212443  1
  Ni  Ni46  1  0.06651252  0.92846221  0.84228324  1
  Ni  Ni47  1  0.43348748  0.42846221  0.15771676  1
  Ni  Ni48  1  0.93348748  0.07153779  0.15771676  1
  Ni  Ni49  1  0.56651252  0.57153779  0.84228324  1
  Ni  Ni50  1  0.29360372  0.62428885  0.03052287  1
  Ni  Ni51  1  0.20639628  0.12428885  0.96947713  1
  Ni  Ni52  1  0.70639628  0.37571115  0.96947713  1
  Ni  Ni53  1  0.79360372  0.87571115  0.03052287  1
  Ni  Ni54  1  0.09767683  0.76231698  0.68630714  1
  Ni  Ni55  1  0.40232317  0.26231698  0.31369286  1
  Ni  Ni56  1  0.90232317  0.23768302  0.31369286  1
  Ni  Ni57  1  0.59767683  0.73768302  0.68630714  1
  Ni  Ni58  1  0.08425718  0.52889928  0.75197756  1
  Ni  Ni59  1  0.41574282  0.02889928  0.24802244  1
  Ni  Ni60  1  0.91574282  0.47110072  0.24802244  1
  Ni  Ni61  1  0.58425718  0.97110072  0.75197756  1
  Ni  Ni62  1  0.20342454  0.77785944  0.52821743  1
  Ni  Ni63  1  0.29657546  0.27785944  0.47178257  1
  Ni  Ni64  1  0.79657546  0.22214056  0.47178257  1
  Ni  Ni65  1  0.70342454  0.72214056  0.52821743  1
  Ni  Ni66  1  0.01717518  0.91455427  0.42774351  1
  Ni  Ni67  1  0.48282482  0.41455427  0.57225649  1
  Ni  Ni68  1  0.98282482  0.08544573  0.57225649  1
  Ni  Ni69  1  0.51717518  0.58544573  0.42774351  1
  Ni  Ni70  1  0.35181652  0.49190879  0.30923454  1
  Ni  Ni71  1  0.14818348  0.99190879  0.69076546  1
  Ni  Ni72  1  0.64818348  0.50809121  0.69076546  1
  Ni  Ni73  1  0.85181652  0.00809121  0.30923454  1
  Ni  Ni74  1  0.05677638  0.87759705  0.25302227  1
  Ni  Ni75  1  0.44322362  0.37759705  0.74697773  1
  Ni  Ni76  1  0.94322362  0.12240295  0.74697773  1
  Ni  Ni77  1  0.55677638  0.62240295  0.25302227  1
  Ni  Ni78  1  0.29203924  0.53300280  0.48375786  1
  Ni  Ni79  1  0.20796076  0.03300280  0.51624214  1
  Ni  Ni80  1  0.70796076  0.46699720  0.51624214  1
  Ni  Ni81  1  0.79203924  0.96699720  0.48375786  1
  Ni  Ni82  1  0.37043477  0.88433209  0.66179606  1
  Ni  Ni83  1  0.12956523  0.38433209  0.33820394  1
  Ni  Ni84  1  0.62956523  0.11566791  0.33820394  1
  Ni  Ni85  1  0.87043477  0.61566791  0.66179606  1
  Ni  Ni86  1  0.44970033  0.74283019  0.53600918  1
  Ni  Ni87  1  0.05029967  0.24283019  0.46399082  1
  Ni  Ni88  1  0.55029967  0.25716981  0.46399082  1
  Ni  Ni89  1  0.94970033  0.75716981  0.53600918  1
  Ni  Ni90  1  0.27061830  0.88183965  0.38741886  1
  Ni  Ni91  1  0.22938170  0.38183965  0.61258114  1
  Ni  Ni92  1  0.72938170  0.11816035  0.61258114  1
  Ni  Ni93  1  0.77061830  0.61816035  0.38741886  1
  Ni  Ni94  1  0.07590408  0.56628921  0.56738634  1
  Ni  Ni95  1  0.42409592  0.06628921  0.43261366  1
  Ni  Ni96  1  0.92409592  0.43371079  0.43261366  1
  Ni  Ni97  1  0.57590408  0.93371079  0.56738634  1
  Ni  Ni98  1  0.32246344  0.71183634  0.28838110  1
  Ni  Ni99  1  0.17753656  0.21183634  0.71161890  1
  Ni  Ni100  1  0.67753656  0.28816366  0.71161890  1
  Ni  Ni101  1  0.82246344  0.78816366  0.28838110  1
  B  B102  1  0.39465507  0.64601958  0.90330806  1
  B  B103  1  0.10534493  0.14601958  0.09669194  1
  B  B104  1  0.60534493  0.35398042  0.09669194  1
  B  B105  1  0.89465507  0.85398042  0.90330806  1
  B  B106  1  0.24407906  0.85380791  0.77346333  1
  B  B107  1  0.25592094  0.35380791  0.22653667  1
  B  B108  1  0.75592094  0.14619209  0.22653667  1
  B  B109  1  0.74407906  0.64619209  0.77346333  1
  B  B110  1  0.07679472  0.60442295  0.06343327  1
  B  B111  1  0.42320528  0.10442295  0.93656673  1
  B  B112  1  0.92320528  0.39557705  0.93656673  1
  B  B113  1  0.57679472  0.89557705  0.06343327  1
  B  B114  1  0.28161498  0.88483471  0.24418951  1
  B  B115  1  0.21838502  0.38483471  0.75581049  1
  B  B116  1  0.71838502  0.11516529  0.75581049  1
  B  B117  1  0.78161498  0.61516529  0.24418951  1
  B  B118  1  0.07103781  0.90607756  0.57501779  1
  B  B119  1  0.42896219  0.40607756  0.42498221  1
  B  B120  1  0.92896219  0.09392244  0.42498221  1
  B  B121  1  0.57103781  0.59392244  0.57501779  1
  B  B122  1  0.33192038  0.69526676  0.42314464  1
  B  B123  1  0.16807962  0.19526676  0.57685536  1
  B  B124  1  0.66807962  0.30473324  0.57685536  1
  B  B125  1  0.83192038  0.80473324  0.42314464  1
  B  B126  1  0.37225887  0.92108844  0.51857611  1
  B  B127  1  0.12774113  0.42108844  0.48142389  1
  B  B128  1  0.62774113  0.07891156  0.48142389  1
  B  B129  1  0.87225887  0.57891156  0.51857611  1
  B  B130  1  0.00863933  0.87298775  0.10905128  1
  B  B131  1  0.49136067  0.37298775  0.89094872  1
  B  B132  1  0.99136067  0.12701225  0.89094872  1
  B  B133  1  0.50863933  0.62701225  0.10905128  1
  B  B134  1  0.35691643  0.61365437  0.17605960  1
  B  B135  1  0.14308357  0.11365437  0.82394040  1
  B  B136  1  0.64308357  0.38634563  0.82394040  1
  B  B137  1  0.85691643  0.88634563  0.17605960  1
