# generated using pymatgen
data_CrFeH18(NF)6
_symmetry_space_group_name_H-M   'P 1'
_cell_length_a   10.22380342
_cell_length_b   10.22380342
_cell_length_c   10.22380342
_cell_angle_alpha   90.00000000
_cell_angle_beta   90.00000000
_cell_angle_gamma   90.00000000
_symmetry_Int_Tables_number   1
_chemical_formula_structural   CrFeH18(NF)6
_chemical_formula_sum   'Cr4 Fe4 H72 N24 F24'
_cell_volume   1068.65487498
_cell_formula_units_Z   4
loop_
 _symmetry_equiv_pos_site_id
 _symmetry_equiv_pos_as_xyz
  1  'x, y, z'
loop_
 _atom_site_type_symbol
 _atom_site_label
 _atom_site_symmetry_multiplicity
 _atom_site_fract_x
 _atom_site_fract_y
 _atom_site_fract_z
 _atom_site_occupancy
  Cr  Cr0  1  0.00000000  0.00000000  0.50000000  1
  Cr  Cr1  1  0.00000000  0.50000000  -0.00000000  1
  Cr  Cr2  1  0.50000000  0.00000000  -0.00000000  1
  Cr  Cr3  1  0.50000000  0.50000000  0.50000000  1
  Fe  Fe4  1  0.50000000  0.50000000  -0.00000000  1
  Fe  Fe5  1  0.50000000  0.00000000  0.50000000  1
  Fe  Fe6  1  0.00000000  0.50000000  0.50000000  1
  Fe  Fe7  1  0.00000000  0.00000000  -0.00000000  1
  H  H8  1  0.12421367  0.63968549  0.17393988  1
  H  H9  1  0.87578633  0.13968549  0.32606012  1
  H  H10  1  0.37578633  0.36031451  0.67393988  1
  H  H11  1  0.62421367  0.86031451  0.82606012  1
  H  H12  1  0.17393988  0.12421367  0.63968549  1
  H  H13  1  0.32606012  0.87578633  0.13968549  1
  H  H14  1  0.67393988  0.37578633  0.36031451  1
  H  H15  1  0.82606012  0.62421367  0.86031451  1
  H  H16  1  0.63968549  0.17393988  0.12421367  1
  H  H17  1  0.13968549  0.32606012  0.87578633  1
  H  H18  1  0.36031451  0.67393988  0.37578633  1
  H  H19  1  0.86031451  0.82606012  0.62421367  1
  H  H20  1  0.87578633  0.36031451  0.82606012  1
  H  H21  1  0.12421367  0.86031451  0.67393988  1
  H  H22  1  0.62421367  0.63968549  0.32606012  1
  H  H23  1  0.37578633  0.13968549  0.17393988  1
  H  H24  1  0.82606012  0.87578633  0.36031451  1
  H  H25  1  0.67393988  0.12421367  0.86031451  1
  H  H26  1  0.32606012  0.62421367  0.63968549  1
  H  H27  1  0.17393988  0.37578633  0.13968549  1
  H  H28  1  0.36031451  0.82606012  0.87578633  1
  H  H29  1  0.86031451  0.67393988  0.12421367  1
  H  H30  1  0.63968549  0.32606012  0.62421367  1
  H  H31  1  0.13968549  0.17393988  0.37578633  1
  H  H32  1  0.22460748  0.62593784  0.04481643  1
  H  H33  1  0.77539252  0.12593784  0.45518357  1
  H  H34  1  0.27539252  0.37406216  0.54481643  1
  H  H35  1  0.72460748  0.87406216  0.95518357  1
  H  H36  1  0.04481643  0.22460748  0.62593784  1
  H  H37  1  0.45518357  0.77539252  0.12593784  1
  H  H38  1  0.54481643  0.27539252  0.37406216  1
  H  H39  1  0.95518357  0.72460748  0.87406216  1
  H  H40  1  0.62593784  0.04481643  0.22460748  1
  H  H41  1  0.12593784  0.45518357  0.77539252  1
  H  H42  1  0.37406216  0.54481643  0.27539252  1
  H  H43  1  0.87406216  0.95518357  0.72460748  1
  H  H44  1  0.77539252  0.37406216  0.95518357  1
  H  H45  1  0.22460748  0.87406216  0.54481643  1
  H  H46  1  0.72460748  0.62593784  0.45518357  1
  H  H47  1  0.27539252  0.12593784  0.04481643  1
  H  H48  1  0.95518357  0.77539252  0.37406216  1
  H  H49  1  0.54481643  0.22460748  0.87406216  1
  H  H50  1  0.45518357  0.72460748  0.62593784  1
  H  H51  1  0.04481643  0.27539252  0.12593784  1
  H  H52  1  0.37406216  0.95518357  0.77539252  1
  H  H53  1  0.87406216  0.54481643  0.22460748  1
  H  H54  1  0.62593784  0.45518357  0.72460748  1
  H  H55  1  0.12593784  0.04481643  0.27539252  1
  H  H56  1  0.10621204  0.73644965  0.04636000  1
  H  H57  1  0.89378796  0.23644965  0.45364000  1
  H  H58  1  0.39378796  0.26355035  0.54636000  1
  H  H59  1  0.60621204  0.76355035  0.95364000  1
  H  H60  1  0.04636000  0.10621204  0.73644965  1
  H  H61  1  0.45364000  0.89378796  0.23644965  1
  H  H62  1  0.54636000  0.39378796  0.26355035  1
  H  H63  1  0.95364000  0.60621204  0.76355035  1
  H  H64  1  0.73644965  0.04636000  0.10621204  1
  H  H65  1  0.23644965  0.45364000  0.89378796  1
  H  H66  1  0.26355035  0.54636000  0.39378796  1
  H  H67  1  0.76355035  0.95364000  0.60621204  1
  H  H68  1  0.89378796  0.26355035  0.95364000  1
  H  H69  1  0.10621204  0.76355035  0.54636000  1
  H  H70  1  0.60621204  0.73644965  0.45364000  1
  H  H71  1  0.39378796  0.23644965  0.04636000  1
  H  H72  1  0.95364000  0.89378796  0.26355035  1
  H  H73  1  0.54636000  0.10621204  0.76355035  1
  H  H74  1  0.45364000  0.60621204  0.73644965  1
  H  H75  1  0.04636000  0.39378796  0.23644965  1
  H  H76  1  0.26355035  0.95364000  0.89378796  1
  H  H77  1  0.76355035  0.54636000  0.10621204  1
  H  H78  1  0.73644965  0.45364000  0.60621204  1
  H  H79  1  0.23644965  0.04636000  0.39378796  1
  N  N80  1  0.42649797  0.87083571  0.14231088  1
  N  N81  1  0.57350203  0.37083571  0.35768912  1
  N  N82  1  0.07350203  0.12916429  0.64231088  1
  N  N83  1  0.92649797  0.62916429  0.85768912  1
  N  N84  1  0.14231088  0.42649797  0.87083571  1
  N  N85  1  0.35768912  0.57350203  0.37083571  1
  N  N86  1  0.64231088  0.07350203  0.12916429  1
  N  N87  1  0.85768912  0.92649797  0.62916429  1
  N  N88  1  0.87083571  0.14231088  0.42649797  1
  N  N89  1  0.37083571  0.35768912  0.57350203  1
  N  N90  1  0.12916429  0.64231088  0.07350203  1
  N  N91  1  0.62916429  0.85768912  0.92649797  1
  N  N92  1  0.57350203  0.12916429  0.85768912  1
  N  N93  1  0.42649797  0.62916429  0.64231088  1
  N  N94  1  0.92649797  0.87083571  0.35768912  1
  N  N95  1  0.07350203  0.37083571  0.14231088  1
  N  N96  1  0.85768912  0.57350203  0.12916429  1
  N  N97  1  0.64231088  0.42649797  0.62916429  1
  N  N98  1  0.35768912  0.92649797  0.87083571  1
  N  N99  1  0.14231088  0.07350203  0.37083571  1
  N  N100  1  0.12916429  0.85768912  0.57350203  1
  N  N101  1  0.62916429  0.64231088  0.42649797  1
  N  N102  1  0.87083571  0.35768912  0.92649797  1
  N  N103  1  0.37083571  0.14231088  0.07350203  1
  F  F104  1  0.56203122  0.61658595  0.14019450  1
  F  F105  1  0.43796878  0.11658595  0.35980550  1
  F  F106  1  0.93796878  0.38341405  0.64019450  1
  F  F107  1  0.06203122  0.88341405  0.85980550  1
  F  F108  1  0.14019450  0.56203122  0.61658595  1
  F  F109  1  0.35980550  0.43796878  0.11658595  1
  F  F110  1  0.64019450  0.93796878  0.38341405  1
  F  F111  1  0.85980550  0.06203122  0.88341405  1
  F  F112  1  0.61658595  0.14019450  0.56203122  1
  F  F113  1  0.11658595  0.35980550  0.43796878  1
  F  F114  1  0.38341405  0.64019450  0.93796878  1
  F  F115  1  0.88341405  0.85980550  0.06203122  1
  F  F116  1  0.43796878  0.38341405  0.85980550  1
  F  F117  1  0.56203122  0.88341405  0.64019450  1
  F  F118  1  0.06203122  0.61658595  0.35980550  1
  F  F119  1  0.93796878  0.11658595  0.14019450  1
  F  F120  1  0.85980550  0.43796878  0.38341405  1
  F  F121  1  0.64019450  0.56203122  0.88341405  1
  F  F122  1  0.35980550  0.06203122  0.61658595  1
  F  F123  1  0.14019450  0.93796878  0.11658595  1
  F  F124  1  0.38341405  0.85980550  0.43796878  1
  F  F125  1  0.88341405  0.64019450  0.56203122  1
  F  F126  1  0.61658595  0.35980550  0.06203122  1
  F  F127  1  0.11658595  0.14019450  0.93796878  1
