# generated using pymatgen
data_KNaAl6Si6(HO6)4
_symmetry_space_group_name_H-M   'P 1'
_cell_length_a   5.19526695
_cell_length_b   9.02010226
_cell_length_c   19.88538871
_cell_angle_alpha   89.99736694
_cell_angle_beta   94.68930505
_cell_angle_gamma   89.99930793
_symmetry_Int_Tables_number   1
_chemical_formula_structural   KNaAl6Si6(HO6)4
_chemical_formula_sum   'K2 Na2 Al12 Si12 H8 O48'
_cell_volume   928.74661799
_cell_formula_units_Z   2
loop_
 _symmetry_equiv_pos_site_id
 _symmetry_equiv_pos_as_xyz
  1  'x, y, z'
loop_
 _atom_site_type_symbol
 _atom_site_label
 _atom_site_symmetry_multiplicity
 _atom_site_fract_x
 _atom_site_fract_y
 _atom_site_fract_z
 _atom_site_occupancy
  K  K0  1  0.49984918  0.60088943  0.25006489  1
  K  K1  1  0.99988082  0.09930522  0.25006465  1
  Na  Na2  1  0.49996503  0.41876970  0.75013445  1
  Na  Na3  1  0.99982063  0.88500273  0.75005342  1
  Al  Al4  1  0.23487433  0.91349602  0.50852287  1
  Al  Al5  1  0.44467764  0.73961503  0.64592802  1
  Al  Al6  1  0.76487820  0.91360594  0.99162855  1
  Al  Al7  1  0.55504462  0.73974771  0.85422761  1
  Al  Al8  1  0.73752606  0.08545363  0.50613257  1
  Al  Al9  1  0.52900045  0.25965109  0.36847916  1
  Al  Al10  1  0.26222298  0.08557441  0.99402471  1
  Al  Al11  1  0.47069271  0.25970580  0.13169777  1
  Al  Al12  1  0.73308309  0.41479140  0.50635795  1
  Al  Al13  1  0.26665237  0.41490157  0.99381414  1
  Al  Al14  1  0.23934263  0.58364891  0.50803443  1
  Al  Al15  1  0.76037632  0.58375578  0.99212944  1
  Si  Si16  1  0.43737758  0.07054589  0.64549068  1
  Si  Si17  1  0.56238232  0.07067587  0.85466365  1
  Si  Si18  1  0.53330888  0.92933975  0.36909009  1
  Si  Si19  1  0.46645181  0.92938959  0.13105170  1
  Si  Si20  1  0.96201348  0.56953158  0.64610948  1
  Si  Si21  1  0.92792326  0.24324202  0.64459504  1
  Si  Si22  1  0.03771936  0.56965812  0.85407156  1
  Si  Si23  1  0.07182677  0.24336745  0.85556993  1
  Si  Si24  1  0.01055679  0.42929005  0.36838705  1
  Si  Si25  1  0.04447025  0.75541669  0.37020037  1
  Si  Si26  1  0.98911303  0.42935170  0.13178490  1
  Si  Si27  1  0.95530773  0.75548258  0.12994824  1
  H  H28  1  0.34414229  0.34092842  0.56228041  1
  H  H29  1  0.65566310  0.34099802  0.93794494  1
  H  H30  1  0.62893845  0.65839113  0.45323970  1
  H  H31  1  0.37068672  0.65854861  0.04685600  1
  H  H32  1  0.85841843  0.85382877  0.57622086  1
  H  H33  1  0.14129356  0.85400772  0.92389798  1
  H  H34  1  0.11464966  0.14540154  0.43861180  1
  H  H35  1  0.88501316  0.14554732  0.06150932  1
  O  O36  1  0.44459691  0.05705184  0.56302842  1
  O  O37  1  0.36393201  0.74878645  0.55844956  1
  O  O38  1  0.43775827  0.43340054  0.55691413  1
  O  O39  1  0.36763125  0.91478352  0.67973231  1
  O  O40  1  0.23078017  0.19933227  0.66760712  1
  O  O41  1  0.72795239  0.12664500  0.67730184  1
  O  O42  1  0.55515040  0.05717884  0.93712496  1
  O  O43  1  0.63581293  0.74890660  0.94170549  1
  O  O44  1  0.56200376  0.43348772  0.94326410  1
  O  O45  1  0.63209819  0.91490973  0.82042180  1
  O  O46  1  0.76898779  0.19945819  0.83254346  1
  O  O47  1  0.27182802  0.12680657  0.82285317  1
  O  O48  1  0.52720111  0.94175452  0.45152234  1
  O  O49  1  0.60956763  0.24957984  0.45607199  1
  O  O50  1  0.53471134  0.56560440  0.45741261  1
  O  O51  1  0.58568515  0.08462264  0.33286347  1
  O  O52  1  0.74746387  0.80690789  0.34620226  1
  O  O53  1  0.24971704  0.86613574  0.33643102  1
  O  O54  1  0.47252786  0.94184446  0.04862052  1
  O  O55  1  0.39019582  0.24968252  0.04409766  1
  O  O56  1  0.46496358  0.56574308  0.04274004  1
  O  O57  1  0.41401733  0.08465195  0.16728764  1
  O  O58  1  0.25233278  0.80693395  0.15393506  1
  O  O59  1  0.75007742  0.86622706  0.16370585  1
  O  O60  1  0.94916471  0.55114666  0.56308338  1
  O  O61  1  0.87703960  0.24797303  0.56285927  1
  O  O62  1  0.93797991  0.94088392  0.55759813  1
  O  O63  1  0.86972099  0.40707869  0.67687991  1
  O  O64  1  0.77405748  0.70306715  0.66752280  1
  O  O65  1  0.25292665  0.60167223  0.67989469  1
  O  O66  1  0.05056647  0.55125314  0.93709578  1
  O  O67  1  0.12269629  0.24808845  0.93730641  1
  O  O68  1  0.06174545  0.94103542  0.94255714  1
  O  O69  1  0.13003114  0.40722138  0.82330002  1
  O  O70  1  0.22564813  0.70321381  0.83266163  1
  O  O71  1  0.74680213  0.60178468  0.82028704  1
  O  O72  1  0.02281322  0.44792480  0.45156468  1
  O  O73  1  0.09496410  0.75074406  0.45189328  1
  O  O74  1  0.03403045  0.05773299  0.45658379  1
  O  O75  1  0.08942333  0.59246184  0.33669627  1
  O  O76  1  0.20478900  0.30097394  0.34676212  1
  O  O77  1  0.72466590  0.39206562  0.33376333  1
  O  O78  1  0.97686897  0.44798313  0.04860613  1
  O  O79  1  0.90479296  0.75082879  0.04825481  1
  O  O80  1  0.96568933  0.05785169  0.04356593  1
  O  O81  1  0.91030773  0.59254150  0.16346260  1
  O  O82  1  0.79485683  0.30107198  0.15343302  1
  O  O83  1  0.27498250  0.39208859  0.16641266  1
