# generated using pymatgen
data_LaO3
_symmetry_space_group_name_H-M   'P 1'
_cell_length_a   4.56195200
_cell_length_b   8.70227174
_cell_length_c   5.62558381
_cell_angle_alpha   62.91477679
_cell_angle_beta   113.92025511
_cell_angle_gamma   121.61611489
_symmetry_Int_Tables_number   1
_chemical_formula_structural   LaO3
_chemical_formula_sum   'La2 O6'
_cell_volume   165.18009990
_cell_formula_units_Z   2
loop_
 _symmetry_equiv_pos_site_id
 _symmetry_equiv_pos_as_xyz
  1  'x, y, z'
loop_
 _atom_site_type_symbol
 _atom_site_label
 _atom_site_symmetry_multiplicity
 _atom_site_fract_x
 _atom_site_fract_y
 _atom_site_fract_z
 _atom_site_occupancy
  La  La0  1  0.34730349  0.70251767  0.28957164  1
  La  La1  1  0.65269651  0.29748233  0.71042836  1
  O  O2  1  0.40163859  0.96204556  0.87918605  1
  O  O3  1  0.29695552  0.42750947  0.73889209  1
  O  O4  1  0.90880113  0.66880813  0.47998601  1
  O  O5  1  0.70304448  0.57249053  0.26110791  1
  O  O6  1  0.59836141  0.03795444  0.12081395  1
  O  O7  1  0.09119887  0.33119187  0.52001399  1
