# generated using pymatgen
data_Y2Sn3(PbS4)3
_symmetry_space_group_name_H-M   'P 1'
_cell_length_a   3.94249427
_cell_length_b   11.67189714
_cell_length_c   20.43898072
_cell_angle_alpha   90.00000000
_cell_angle_beta   90.00000000
_cell_angle_gamma   90.00000000
_symmetry_Int_Tables_number   1
_chemical_formula_structural   Y2Sn3(PbS4)3
_chemical_formula_sum   'Y4 Sn6 Pb6 S24'
_cell_volume   940.52805885
_cell_formula_units_Z   2
loop_
 _symmetry_equiv_pos_site_id
 _symmetry_equiv_pos_as_xyz
  1  'x, y, z'
loop_
 _atom_site_type_symbol
 _atom_site_label
 _atom_site_symmetry_multiplicity
 _atom_site_fract_x
 _atom_site_fract_y
 _atom_site_fract_z
 _atom_site_occupancy
  Y  Y0  1  0.00000000  0.54597971  0.41178207  1
  Y  Y1  1  0.00000000  0.04597971  0.58821793  1
  Y  Y2  1  0.00000000  0.86832043  0.10501697  1
  Y  Y3  1  0.00000000  0.36832043  0.89498303  1
  Sn  Sn4  1  0.50000000  0.69300653  0.24974687  1
  Sn  Sn5  1  0.50000000  0.19300653  0.75025313  1
  Sn  Sn6  1  0.50000000  0.17465314  0.08836023  1
  Sn  Sn7  1  0.50000000  0.67465314  0.91163977  1
  Sn  Sn8  1  0.50000000  0.20071647  0.42519156  1
  Sn  Sn9  1  0.50000000  0.70071647  0.57480844  1
  Pb  Pb10  1  -0.00000000  0.92308314  0.37770153  1
  Pb  Pb11  1  -0.00000000  0.42308314  0.62229847  1
  Pb  Pb12  1  0.00000000  0.28927252  0.25798813  1
  Pb  Pb13  1  -0.00000000  0.78927252  0.74201187  1
  Pb  Pb14  1  0.00000000  0.49670850  0.08595282  1
  Pb  Pb15  1  -0.00000000  0.99670850  0.91404718  1
  S  S16  1  -0.00000000  0.25509372  0.01735495  1
  S  S17  1  0.00000000  0.75509372  0.98264505  1
  S  S18  1  -0.00000000  0.09190359  0.15882992  1
  S  S19  1  -0.00000000  0.59190359  0.84117008  1
  S  S20  1  0.00000000  0.84438446  0.24264900  1
  S  S21  1  0.00000000  0.34438446  0.75735100  1
  S  S22  1  0.00000000  0.54832304  0.25795590  1
  S  S23  1  0.00000000  0.04832304  0.74204410  1
  S  S24  1  -0.00000000  0.25736537  0.49121119  1
  S  S25  1  -0.00000000  0.75736537  0.50878881  1
  S  S26  1  0.50000000  0.98005152  0.03107461  1
  S  S27  1  0.50000000  0.48005152  0.96892539  1
  S  S28  1  0.50000000  0.70317552  0.12421677  1
  S  S29  1  0.50000000  0.20317552  0.87578323  1
  S  S30  1  0.50000000  0.35626590  0.15736269  1
  S  S31  1  0.50000000  0.85626590  0.84263731  1
  S  S32  1  0.50000000  0.09205597  0.32266721  1
  S  S33  1  0.50000000  0.59205597  0.67733279  1
  S  S34  1  0.50000000  0.38966076  0.35966222  1
  S  S35  1  0.50000000  0.88966076  0.64033778  1
  S  S36  1  0.50000000  0.70918861  0.37350251  1
  S  S37  1  0.50000000  0.20918861  0.62649749  1
  S  S38  1  0.50000000  0.01149109  0.49040078  1
  S  S39  1  0.50000000  0.51149109  0.50959922  1
