# generated using pymatgen
data_Na2V2NiH4(OF)6
_symmetry_space_group_name_H-M   'P 1'
_cell_length_a   5.33051583
_cell_length_b   8.33076415
_cell_length_c   10.63787907
_cell_angle_alpha   91.23332037
_cell_angle_beta   90.00000000
_cell_angle_gamma   90.00000000
_symmetry_Int_Tables_number   1
_chemical_formula_structural   Na2V2NiH4(OF)6
_chemical_formula_sum   'Na4 V4 Ni2 H8 O12 F12'
_cell_volume   472.28973181
_cell_formula_units_Z   2
loop_
 _symmetry_equiv_pos_site_id
 _symmetry_equiv_pos_as_xyz
  1  'x, y, z'
loop_
 _atom_site_type_symbol
 _atom_site_label
 _atom_site_symmetry_multiplicity
 _atom_site_fract_x
 _atom_site_fract_y
 _atom_site_fract_z
 _atom_site_occupancy
  Na  Na0  1  0.54937374  0.53762991  0.66413776  1
  Na  Na1  1  0.04937374  0.46237009  0.83586224  1
  Na  Na2  1  0.45062626  0.46237009  0.33586224  1
  Na  Na3  1  0.95062626  0.53762991  0.16413776  1
  V  V4  1  0.97107240  0.28895016  0.49175832  1
  V  V5  1  0.47107240  0.71104984  0.00824168  1
  V  V6  1  0.02892760  0.71104984  0.50824168  1
  V  V7  1  0.52892760  0.28895016  0.99175832  1
  Ni  Ni8  1  0.50000000  -0.00000000  0.50000000  1
  Ni  Ni9  1  0.00000000  -0.00000000  0.00000000  1
  H  H10  1  0.56198026  0.15881501  0.71369599  1
  H  H11  1  0.06198026  0.84118499  0.78630401  1
  H  H12  1  0.43801974  0.84118499  0.28630401  1
  H  H13  1  0.93801974  0.15881501  0.21369599  1
  H  H14  1  0.43179029  0.99528860  0.73835667  1
  H  H15  1  0.93179029  0.00471140  0.76164333  1
  H  H16  1  0.56820971  0.00471140  0.26164333  1
  H  H17  1  0.06820971  0.99528860  0.23835667  1
  O  O18  1  0.57164771  0.04369820  0.69158513  1
  O  O19  1  0.07164771  0.95630180  0.80841487  1
  O  O20  1  0.42835229  0.95630180  0.30841487  1
  O  O21  1  0.92835229  0.04369820  0.19158513  1
  O  O22  1  0.18271729  0.14579667  0.51307558  1
  O  O23  1  0.68271729  0.85420333  0.98692442  1
  O  O24  1  0.81728271  0.85420333  0.48692442  1
  O  O25  1  0.31728271  0.14579667  0.01307558  1
  O  O26  1  0.69990058  0.19564652  0.45391547  1
  O  O27  1  0.19990058  0.80435348  0.04608453  1
  O  O28  1  0.30009942  0.80435348  0.54608453  1
  O  O29  1  0.80009942  0.19564652  0.95391547  1
  F  F30  1  0.22551721  0.47941514  0.52977918  1
  F  F31  1  0.72551721  0.52058486  0.97022082  1
  F  F32  1  0.77448279  0.52058486  0.47022082  1
  F  F33  1  0.27448279  0.47941514  0.02977918  1
  F  F34  1  0.87992996  0.33056719  0.66209367  1
  F  F35  1  0.37992996  0.66943281  0.83790633  1
  F  F36  1  0.12007004  0.66943281  0.33790633  1
  F  F37  1  0.62007004  0.33056719  0.16209367  1
  F  F38  1  0.06301514  0.33348137  0.32083507  1
  F  F39  1  0.56301514  0.66651863  0.17916493  1
  F  F40  1  0.93698486  0.66651863  0.67916493  1
  F  F41  1  0.43698486  0.33348137  0.82083507  1
