# generated using pymatgen
data_KAl2P2H9O13
_symmetry_space_group_name_H-M   'P 1'
_cell_length_a   5.59781624
_cell_length_b   9.47636304
_cell_length_c   9.89692065
_cell_angle_alpha   90.00000000
_cell_angle_beta   90.00000000
_cell_angle_gamma   90.00000000
_symmetry_Int_Tables_number   1
_chemical_formula_structural   KAl2P2H9O13
_chemical_formula_sum   'K2 Al4 P4 H18 O26'
_cell_volume   525.00134523
_cell_formula_units_Z   2
loop_
 _symmetry_equiv_pos_site_id
 _symmetry_equiv_pos_as_xyz
  1  'x, y, z'
loop_
 _atom_site_type_symbol
 _atom_site_label
 _atom_site_symmetry_multiplicity
 _atom_site_fract_x
 _atom_site_fract_y
 _atom_site_fract_z
 _atom_site_occupancy
  K  K0  1  0.00827758  0.50000000  0.50000000  1
  K  K1  1  0.00827758  -0.00000000  0.00000000  1
  Al  Al2  1  0.04949483  0.13783354  0.61147791  1
  Al  Al3  1  0.04949483  0.86216646  0.38852209  1
  Al  Al4  1  0.04949483  0.36216646  0.11147791  1
  Al  Al5  1  0.04949483  0.63783354  0.88852209  1
  P  P6  1  0.79945943  0.34961193  0.82765060  1
  P  P7  1  0.79945943  0.65038807  0.17234940  1
  P  P8  1  0.79945943  0.15038807  0.32765060  1
  P  P9  1  0.79945943  0.84961193  0.67234940  1
  H  H10  1  0.41980175  0.76266456  0.52432014  1
  H  H11  1  0.41980175  0.23733544  0.47567986  1
  H  H12  1  0.41980175  0.73733544  0.02432014  1
  H  H13  1  0.41980175  0.26266456  0.97567986  1
  H  H14  1  0.42930322  0.70747703  0.36866527  1
  H  H15  1  0.42930322  0.29252297  0.63133473  1
  H  H16  1  0.42930322  0.79252297  0.86866527  1
  H  H17  1  0.42930322  0.20747703  0.13133473  1
  H  H18  1  0.40215333  0.65311619  0.72030051  1
  H  H19  1  0.40215333  0.34688381  0.27969949  1
  H  H20  1  0.40215333  0.84688381  0.22030051  1
  H  H21  1  0.40215333  0.15311619  0.77969949  1
  H  H22  1  0.38209533  0.50937207  0.23189675  1
  H  H23  1  0.38209533  0.49062793  0.76810325  1
  H  H24  1  0.38209533  0.99062793  0.73189675  1
  H  H25  1  0.38209533  0.00937207  0.26810325  1
  H  H26  1  0.36672693  -0.00000000  0.50000000  1
  H  H27  1  0.36672693  0.50000000  0.00000000  1
  O  O28  1  0.82444929  0.48754542  0.17763286  1
  O  O29  1  0.82444929  0.51245458  0.82236714  1
  O  O30  1  0.82444929  0.01245458  0.67763286  1
  O  O31  1  0.82444929  0.98754542  0.32236714  1
  O  O32  1  0.86436146  0.20915512  0.46910534  1
  O  O33  1  0.86436146  0.79084488  0.53089466  1
  O  O34  1  0.86436146  0.29084488  0.96910534  1
  O  O35  1  0.86436146  0.70915512  0.03089466  1
  O  O36  1  0.96433582  0.28614073  0.71920415  1
  O  O37  1  0.96433582  0.71385927  0.28079585  1
  O  O38  1  0.96433582  0.21385927  0.21920415  1
  O  O39  1  0.96433582  0.78614073  0.78079585  1
  O  O40  1  0.53161624  0.31453240  0.79960043  1
  O  O41  1  0.53161624  0.68546760  0.20039957  1
  O  O42  1  0.53161624  0.18546760  0.29960043  1
  O  O43  1  0.53161624  0.81453240  0.70039957  1
  O  O44  1  0.32233415  0.26994152  0.55334628  1
  O  O45  1  0.32233415  0.73005848  0.44665372  1
  O  O46  1  0.32233415  0.23005848  0.05334628  1
  O  O47  1  0.32233415  0.76994152  0.94665372  1
  O  O48  1  0.28701530  0.07541030  0.75680706  1
  O  O49  1  0.28701530  0.92458970  0.24319294  1
  O  O50  1  0.28701530  0.42458970  0.25680706  1
  O  O51  1  0.28701530  0.57541030  0.74319294  1
  O  O52  1  0.19304516  -0.00000000  0.50000000  1
  O  O53  1  0.19304516  0.50000000  0.00000000  1
