# generated using pymatgen
data_ErHSO5
_symmetry_space_group_name_H-M   'P 1'
_cell_length_a   7.99086721
_cell_length_b   8.15207435
_cell_length_c   10.94528494
_cell_angle_alpha   90.00000000
_cell_angle_beta   90.00000000
_cell_angle_gamma   94.15443402
_symmetry_Int_Tables_number   1
_chemical_formula_structural   ErHSO5
_chemical_formula_sum   'Er8 H8 S8 O40'
_cell_volume   711.12585097
_cell_formula_units_Z   8
loop_
 _symmetry_equiv_pos_site_id
 _symmetry_equiv_pos_as_xyz
  1  'x, y, z'
loop_
 _atom_site_type_symbol
 _atom_site_label
 _atom_site_symmetry_multiplicity
 _atom_site_fract_x
 _atom_site_fract_y
 _atom_site_fract_z
 _atom_site_occupancy
  Er  Er0  1  0.68833658  0.90889401  0.92630478  1
  Er  Er1  1  0.18833658  0.40889401  0.57369522  1
  Er  Er2  1  0.31166342  0.09110599  0.07369522  1
  Er  Er3  1  0.81166342  0.59110599  0.42630478  1
  Er  Er4  1  0.66057279  0.37430757  0.93798990  1
  Er  Er5  1  0.16057279  0.87430757  0.56201010  1
  Er  Er6  1  0.33942721  0.62569243  0.06201010  1
  Er  Er7  1  0.83942721  0.12569243  0.43798990  1
  H  H8  1  0.65887905  0.13117597  0.12270271  1
  H  H9  1  0.15887905  0.63117597  0.37729729  1
  H  H10  1  0.34112095  0.86882403  0.87729729  1
  H  H11  1  0.84112095  0.36882403  0.62270271  1
  H  H12  1  0.31279113  0.35379066  0.90819710  1
  H  H13  1  0.81279113  0.85379066  0.59180290  1
  H  H14  1  0.68720887  0.64620934  0.09180290  1
  H  H15  1  0.18720887  0.14620934  0.40819710  1
  S  S16  1  0.00028714  0.63545094  0.82977283  1
  S  S17  1  0.50028714  0.13545094  0.67022717  1
  S  S18  1  0.99971286  0.36454906  0.17022717  1
  S  S19  1  0.49971286  0.86454906  0.32977283  1
  S  S20  1  0.04361896  0.13368620  0.80932370  1
  S  S21  1  0.54361896  0.63368620  0.69067630  1
  S  S22  1  0.95638104  0.86631380  0.19067630  1
  S  S23  1  0.45638104  0.36631380  0.30932370  1
  O  O24  1  0.92591206  0.78396063  0.87383814  1
  O  O25  1  0.42591206  0.28396063  0.62616186  1
  O  O26  1  0.07408794  0.21603937  0.12616186  1
  O  O27  1  0.57408794  0.71603937  0.37383814  1
  O  O28  1  0.06141879  0.65756646  0.70014558  1
  O  O29  1  0.56141879  0.15756646  0.79985442  1
  O  O30  1  0.93858121  0.34243354  0.29985442  1
  O  O31  1  0.43858121  0.84243354  0.20014558  1
  O  O32  1  0.87063438  0.49570551  0.82926674  1
  O  O33  1  0.37063438  0.99570551  0.67073326  1
  O  O34  1  0.12936562  0.50429449  0.17073326  1
  O  O35  1  0.62936562  0.00429449  0.32926674  1
  O  O36  1  0.14531164  0.59926400  0.90713377  1
  O  O37  1  0.64531164  0.09926400  0.59286623  1
  O  O38  1  0.85468836  0.40073600  0.09286623  1
  O  O39  1  0.35468836  0.90073600  0.40713377  1
  O  O40  1  0.87847364  0.14794543  0.87186106  1
  O  O41  1  0.37847364  0.64794543  0.62813894  1
  O  O42  1  0.12152636  0.85205457  0.12813894  1
  O  O43  1  0.62152636  0.35205457  0.37186106  1
  O  O44  1  0.11343327  0.29577564  0.76165698  1
  O  O45  1  0.61343327  0.79577564  0.73834302  1
  O  O46  1  0.88656673  0.70422436  0.23834302  1
  O  O47  1  0.38656673  0.20422436  0.26165698  1
  O  O48  1  0.01563871  0.01908205  0.70520255  1
  O  O49  1  0.51563871  0.51908205  0.79479745  1
  O  O50  1  0.98436129  0.98091795  0.29479745  1
  O  O51  1  0.48436129  0.48091795  0.20520255  1
  O  O52  1  0.16490729  0.07233724  0.89728637  1
  O  O53  1  0.66490729  0.57233724  0.60271363  1
  O  O54  1  0.83509271  0.92766276  0.10271363  1
  O  O55  1  0.33509271  0.42766276  0.39728637  1
  O  O56  1  0.59896035  0.13140371  0.04485890  1
  O  O57  1  0.09896035  0.63140371  0.45514110  1
  O  O58  1  0.40103965  0.86859629  0.95514110  1
  O  O59  1  0.90103965  0.36859629  0.54485890  1
  O  O60  1  0.37348250  0.35747290  0.98626525  1
  O  O61  1  0.87348250  0.85747290  0.51373475  1
  O  O62  1  0.62651750  0.64252710  0.01373475  1
  O  O63  1  0.12651750  0.14252710  0.48626525  1
