# generated using pymatgen
data_Cd3H14S3(NO8)2
_symmetry_space_group_name_H-M   'P 1'
_cell_length_a   8.06700773
_cell_length_b   10.23060344
_cell_length_c   10.33143277
_cell_angle_alpha   90.00000000
_cell_angle_beta   112.98007057
_cell_angle_gamma   90.00000000
_symmetry_Int_Tables_number   1
_chemical_formula_structural   Cd3H14S3(NO8)2
_chemical_formula_sum   'Cd6 H28 S6 N4 O32'
_cell_volume   784.99059200
_cell_formula_units_Z   2
loop_
 _symmetry_equiv_pos_site_id
 _symmetry_equiv_pos_as_xyz
  1  'x, y, z'
loop_
 _atom_site_type_symbol
 _atom_site_label
 _atom_site_symmetry_multiplicity
 _atom_site_fract_x
 _atom_site_fract_y
 _atom_site_fract_z
 _atom_site_occupancy
  Cd  Cd0  1  0.12678494  0.79928375  0.17850254  1
  Cd  Cd1  1  0.94828240  0.79928375  0.82149746  1
  Cd  Cd2  1  0.87321506  0.29928375  0.82149746  1
  Cd  Cd3  1  0.05171760  0.29928375  0.17850254  1
  Cd  Cd4  1  0.31072787  0.08533312  1.00000000  1
  Cd  Cd5  1  0.68927213  0.58533312  0.00000000  1
  H  H6  1  0.02423673  0.58230878  1.00000000  1
  H  H7  1  0.97576327  0.08230878  0.00000000  1
  H  H8  1  0.30588734  0.82315552  0.00000000  1
  H  H9  1  0.69411266  0.32315552  1.00000000  1
  H  H10  1  0.41826625  0.63290438  0.34994797  1
  H  H11  1  0.06831828  0.63290438  0.65005203  1
  H  H12  1  0.58173375  0.13290438  0.65005203  1
  H  H13  1  0.93168172  0.13290438  0.34994797  1
  H  H14  1  0.40064164  0.61852109  0.19326920  1
  H  H15  1  0.20737244  0.61852109  0.80673080  1
  H  H16  1  0.59935836  0.11852109  0.80673080  1
  H  H17  1  0.79262756  0.11852109  0.19326920  1
  H  H18  1  0.75128299  0.94286356  0.39646283  1
  H  H19  1  0.35482016  0.94286356  0.60353717  1
  H  H20  1  0.24871701  0.44286356  0.60353717  1
  H  H21  1  0.64517984  0.44286356  0.39646283  1
  H  H22  1  0.61642285  0.81856517  0.30434923  1
  H  H23  1  0.31207361  0.81856517  0.69565077  1
  H  H24  1  0.38357715  0.31856517  0.69565077  1
  H  H25  1  0.68792639  0.31856517  0.30434923  1
  H  H26  1  0.72610294  0.80742707  0.47818249  1
  H  H27  1  0.24792046  0.80742707  0.52181751  1
  H  H28  1  0.27389706  0.30742707  0.52181751  1
  H  H29  1  0.75207954  0.30742707  0.47818249  1
  H  H30  1  0.84322153  0.80264182  0.37200742  1
  H  H31  1  0.47121410  0.80264182  0.62799258  1
  H  H32  1  0.15677847  0.30264182  0.62799258  1
  H  H33  1  0.52878590  0.30264182  0.37200742  1
  S  S34  1  0.37833415  0.07454729  0.35697874  1
  S  S35  1  0.02135541  0.07454729  0.64302126  1
  S  S36  1  0.62166585  0.57454729  0.64302126  1
  S  S37  1  0.97864459  0.57454729  0.35697874  1
  S  S38  1  0.68751032  0.91792353  1.00000000  1
  S  S39  1  0.31248968  0.41792353  0.00000000  1
  N  N40  1  0.73414821  0.84334061  0.38707029  1
  N  N41  1  0.34707792  0.84334061  0.61292971  1
  N  N42  1  0.26585179  0.34334061  0.61292971  1
  N  N43  1  0.65292208  0.34334061  0.38707029  1
  O  O44  1  0.22962894  0.97826829  0.32170661  1
  O  O45  1  0.90792234  0.97826829  0.67829340  1
  O  O46  1  0.77037106  0.47826829  0.67829339  1
  O  O47  1  0.09207766  0.47826829  0.32170660  1
  O  O48  1  0.46105373  0.07242996  0.25025978  1
  O  O49  1  0.21079395  0.07242996  0.74974022  1
  O  O50  1  0.53894627  0.57242996  0.74974022  1
  O  O51  1  0.78920605  0.57242996  0.25025978  1
  O  O52  1  0.51861953  0.04648982  0.49783617  1
  O  O53  1  0.02078336  0.04648982  0.50216383  1
  O  O54  1  0.48138047  0.54648982  0.50216383  1
  O  O55  1  0.97921664  0.54648982  0.49783617  1
  O  O56  1  0.30563895  0.21111212  0.36068599  1
  O  O57  1  0.94495295  0.21111212  0.63931401  1
  O  O58  1  0.69436105  0.71111212  0.63931401  1
  O  O59  1  0.05504705  0.71111212  0.36068599  1
  O  O60  1  0.85720093  0.91844172  0.12884389  1
  O  O61  1  0.72835704  0.91844172  0.87115611  1
  O  O62  1  0.14279907  0.41844172  0.87115611  1
  O  O63  1  0.27164296  0.41844172  0.12884389  1
  O  O64  1  0.57211848  0.80363693  0.00000000  1
  O  O65  1  0.42788152  0.30363693  1.00000000  1
  O  O66  1  0.59069551  0.04380068  0.00000000  1
  O  O67  1  0.40930449  0.54380068  1.00000000  1
  O  O68  1  0.95387141  0.66020213  0.00000000  1
  O  O69  1  0.04612859  0.16020213  1.00000000  1
  O  O70  1  0.20543874  0.87679765  1.00000000  1
  O  O71  1  0.79456126  0.37679765  0.00000000  1
  O  O72  1  0.40256132  0.68401919  0.26327967  1
  O  O73  1  0.13928165  0.68401919  0.73672033  1
  O  O74  1  0.59743868  0.18401919  0.73672033  1
  O  O75  1  0.86071835  0.18401919  0.26327967  1
