# generated using pymatgen
data_SrLaTaCoO6
_symmetry_space_group_name_H-M   'P 1'
_cell_length_a   5.68314030
_cell_length_b   5.68314050
_cell_length_c   34.15800140
_cell_angle_alpha   60.05727960
_cell_angle_beta   60.05727845
_cell_angle_gamma   59.99999697
_symmetry_Int_Tables_number   1
_chemical_formula_structural   SrLaTaCoO6
_chemical_formula_sum   'Sr6 La6 Ta6 Co6 O36'
_cell_volume   780.78178483
_cell_formula_units_Z   6
loop_
 _symmetry_equiv_pos_site_id
 _symmetry_equiv_pos_as_xyz
  1  'x, y, z'
loop_
 _atom_site_type_symbol
 _atom_site_label
 _atom_site_symmetry_multiplicity
 _atom_site_fract_x
 _atom_site_fract_y
 _atom_site_fract_z
 _atom_site_occupancy
  Sr  Sr0  1  0.27161353  0.27161353  0.03086024  1
  Sr  Sr1  1  0.24284528  0.24284528  0.21191036  1
  Sr  Sr2  1  0.24948049  0.24948049  0.37525975  1
  Sr  Sr3  1  0.75158444  0.75158444  0.12420778  1
  Sr  Sr4  1  0.24903848  0.24903848  0.54214776  1
  Sr  Sr5  1  0.25218689  0.25218689  0.70723955  1
  La  La6  1  0.74810281  0.74810281  0.29261560  1
  La  La7  1  0.74950993  0.74950993  0.45857804  1
  La  La8  1  0.22218104  0.22218104  0.88890948  1
  La  La9  1  0.75127174  0.75127174  0.62436413  1
  La  La10  1  0.74994358  0.74994358  0.79169521  1
  La  La11  1  0.75083634  0.75083634  0.95791483  1
  Ta  Ta12  1  0.99450517  0.99450517  0.16941442  1
  Ta  Ta13  1  0.50383988  0.50383988  0.08141306  1
  Ta  Ta14  1  0.99980496  0.99980496  0.33343052  1
  Ta  Ta15  1  0.00063576  0.00063576  0.66634912  1
  Ta  Ta16  1  0.99940882  0.99940882  0.50029559  1
  Ta  Ta17  1  0.00292146  0.00292146  0.83187227  1
  Co  Co18  1  0.00089455  0.00089455  0.99955273  1
  Co  Co19  1  0.49996052  0.49996052  0.25001974  1
  Co  Co20  1  0.49914703  0.49914703  0.41709348  1
  Co  Co21  1  0.50011830  0.50011830  0.58327385  1
  Co  Co22  1  0.49962615  0.49962615  0.75018692  1
  Co  Co23  1  0.49784534  0.49784534  0.91774433  1
  O  O24  1  0.25807523  0.74495971  0.04200123  1
  O  O25  1  0.24952560  0.24952560  0.12581631  1
  O  O26  1  0.74495971  0.25807523  0.04200123  1
  O  O27  1  0.24952560  0.74605091  0.12581631  1
  O  O28  1  0.74495971  0.74495971  0.04200123  1
  O  O29  1  0.74605091  0.24952560  0.12581631  1
  O  O30  1  0.23871532  0.75396379  0.20889252  1
  O  O31  1  0.24602676  0.24602676  0.29206750  1
  O  O32  1  0.75396379  0.23871532  0.20889252  1
  O  O33  1  0.24602676  0.75554350  0.29206750  1
  O  O34  1  0.75396379  0.75396379  0.20889252  1
  O  O35  1  0.75554350  0.24602676  0.29206750  1
  O  O36  1  0.24676474  0.75358210  0.37434518  1
  O  O37  1  0.24582973  0.24582973  0.45900973  1
  O  O38  1  0.75358210  0.24676474  0.37434518  1
  O  O39  1  0.24582973  0.75428019  0.45900973  1
  O  O40  1  0.75358210  0.75358210  0.37434518  1
  O  O41  1  0.24587258  0.75342282  0.54121396  1
  O  O42  1  0.75428019  0.24582973  0.45900973  1
  O  O43  1  0.24665345  0.24665345  0.62537034  1
  O  O44  1  0.75342282  0.24587258  0.54121396  1
  O  O45  1  0.24665345  0.75447105  0.62537034  1
  O  O46  1  0.75342282  0.75342282  0.54121396  1
  O  O47  1  0.75447105  0.24665345  0.62537034  1
  O  O48  1  0.24649920  0.24649920  0.79215660  1
  O  O49  1  0.24585787  0.75386998  0.70773336  1
  O  O50  1  0.75386998  0.24585787  0.70773336  1
  O  O51  1  0.24649920  0.75406402  0.79215660  1
  O  O52  1  0.75386998  0.75386998  0.70773336  1
  O  O53  1  0.75406402  0.24649920  0.79215660  1
  O  O54  1  0.24781268  0.75446316  0.87387684  1
  O  O55  1  0.25212811  0.25212811  0.95540019  1
  O  O56  1  0.75446316  0.24781268  0.87387684  1
  O  O57  1  0.25212811  0.76334062  0.95540019  1
  O  O58  1  0.75446316  0.75446316  0.87387684  1
  O  O59  1  0.76334062  0.25212811  0.95540019  1
