# generated using pymatgen
data_Nd2Co7
_symmetry_space_group_name_H-M   'P 1'
_cell_length_a   5.05737299
_cell_length_b   5.05737299
_cell_length_c   24.48007008
_cell_angle_alpha   90.00000000
_cell_angle_beta   90.00000000
_cell_angle_gamma   120.04696131
_symmetry_Int_Tables_number   1
_chemical_formula_structural   Nd2Co7
_chemical_formula_sum   'Nd8 Co28'
_cell_volume   541.98535214
_cell_formula_units_Z   4
loop_
 _symmetry_equiv_pos_site_id
 _symmetry_equiv_pos_as_xyz
  1  'x, y, z'
loop_
 _atom_site_type_symbol
 _atom_site_label
 _atom_site_symmetry_multiplicity
 _atom_site_fract_x
 _atom_site_fract_y
 _atom_site_fract_z
 _atom_site_occupancy
  Nd  Nd0  1  0.66670899  0.33329101  0.52774555  1
  Nd  Nd1  1  0.33329101  0.66670899  0.47225445  1
  Nd  Nd2  1  0.33329101  0.66670899  0.02774555  1
  Nd  Nd3  1  0.66670899  0.33329101  0.97225445  1
  Nd  Nd4  1  0.66666455  0.33333545  0.67320446  1
  Nd  Nd5  1  0.33333545  0.66666455  0.32679554  1
  Nd  Nd6  1  0.33333545  0.66666455  0.17320446  1
  Nd  Nd7  1  0.66666455  0.33333545  0.82679554  1
  Co  Co8  1  0.00000000  0.00000000  0.50000000  1
  Co  Co9  1  0.00000000  0.00000000  0.00000000  1
  Co  Co10  1  0.16645783  0.33289904  0.75000000  1
  Co  Co11  1  0.16650959  0.83349041  0.75000000  1
  Co  Co12  1  0.66710096  0.83354217  0.75000000  1
  Co  Co13  1  0.83354217  0.66710096  0.25000000  1
  Co  Co14  1  0.83349041  0.16650959  0.25000000  1
  Co  Co15  1  0.33289904  0.16645783  0.25000000  1
  Co  Co16  1  0.16564594  0.33120153  0.58864520  1
  Co  Co17  1  0.16562939  0.83437061  0.58862362  1
  Co  Co18  1  0.66879847  0.83435406  0.58864520  1
  Co  Co19  1  0.83435406  0.66879847  0.41135480  1
  Co  Co20  1  0.83437061  0.16562939  0.41137638  1
  Co  Co21  1  0.33120153  0.16564594  0.41135480  1
  Co  Co22  1  0.83435406  0.66879847  0.08864520  1
  Co  Co23  1  0.83437061  0.16562939  0.08862362  1
  Co  Co24  1  0.33120153  0.16564594  0.08864520  1
  Co  Co25  1  0.16564594  0.33120153  0.91135480  1
  Co  Co26  1  0.16562939  0.83437061  0.91137638  1
  Co  Co27  1  0.66879847  0.83435406  0.91135480  1
  Co  Co28  1  0.00003261  -0.00003261  0.66828161  1
  Co  Co29  1  -0.00003261  0.00003261  0.33171839  1
  Co  Co30  1  -0.00003261  0.00003261  0.16828161  1
  Co  Co31  1  0.00003261  -0.00003261  0.83171839  1
  Co  Co32  1  0.66674064  0.33325936  0.33165856  1
  Co  Co33  1  0.33325936  0.66674064  0.66834144  1
  Co  Co34  1  0.33325936  0.66674064  0.83165856  1
  Co  Co35  1  0.66674064  0.33325936  0.16834144  1
