# generated using pymatgen
data_Na3NpH2Se2O11
_symmetry_space_group_name_H-M   'P 1'
_cell_length_a   7.14326256
_cell_length_b   8.15582957
_cell_length_c   9.89356243
_cell_angle_alpha   89.15961205
_cell_angle_beta   95.91884285
_cell_angle_gamma   111.82404600
_symmetry_Int_Tables_number   1
_chemical_formula_structural   Na3NpH2Se2O11
_chemical_formula_sum   'Na6 Np2 H4 Se4 O22'
_cell_volume   532.05390418
_cell_formula_units_Z   2
loop_
 _symmetry_equiv_pos_site_id
 _symmetry_equiv_pos_as_xyz
  1  'x, y, z'
loop_
 _atom_site_type_symbol
 _atom_site_label
 _atom_site_symmetry_multiplicity
 _atom_site_fract_x
 _atom_site_fract_y
 _atom_site_fract_z
 _atom_site_occupancy
  Na  Na0  1  0.88815338  0.27505613  0.60108821  1
  Na  Na1  1  0.11184662  0.72494387  0.39891179  1
  Na  Na2  1  0.84152267  0.78777807  0.09084046  1
  Na  Na3  1  0.15847733  0.21222193  0.90915954  1
  Na  Na4  1  0.53624147  0.91821832  0.81838599  1
  Na  Na5  1  0.46375853  0.08178168  0.18161401  1
  Np  Np6  1  0.91256979  0.72882641  0.74205634  1
  Np  Np7  1  0.08743021  0.27117359  0.25794366  1
  H  H8  1  0.48282039  0.67522382  0.59510089  1
  H  H9  1  0.51717961  0.32477618  0.40489911  1
  H  H10  1  0.43384972  0.51352135  0.69324519  1
  H  H11  1  0.56615028  0.48647865  0.30675481  1
  Se  Se12  1  0.71903772  0.31508881  0.95201117  1
  Se  Se13  1  0.28096228  0.68491119  0.04798883  1
  Se  Se14  1  0.70493926  0.87141530  0.41322635  1
  Se  Se15  1  0.29506074  0.12858470  0.58677365  1
  O  O16  1  0.92491236  0.57372817  0.61316883  1
  O  O17  1  0.07508764  0.42627183  0.38683117  1
  O  O18  1  0.90155353  0.89294252  0.86475327  1
  O  O19  1  0.09844647  0.10705748  0.13524673  1
  O  O20  1  0.84012046  0.23835954  0.84903891  1
  O  O21  1  0.15987954  0.76164046  0.15096109  1
  O  O22  1  0.82218580  0.92020646  0.57331859  1
  O  O23  1  0.17781420  0.07979354  0.42668141  1
  O  O24  1  0.78582359  0.73766491  0.32964685  1
  O  O25  1  0.21417641  0.26233509  0.67035315  1
  O  O26  1  0.73561097  0.52105432  0.91168323  1
  O  O27  1  0.26438903  0.47894568  0.08831677  1
  O  O28  1  0.52183535  0.63827958  0.68630045  1
  O  O29  1  0.47816465  0.36172042  0.31369955  1
  O  O30  1  0.47698300  0.17780370  0.94303634  1
  O  O31  1  0.52301700  0.82219630  0.05696366  1
  O  O32  1  0.45906709  0.77338230  0.42718167  1
  O  O33  1  0.54093291  0.22661770  0.57281833  1
  O  O34  1  0.24720645  0.93540129  0.66605507  1
  O  O35  1  0.75279355  0.06459871  0.33394493  1
  O  O36  1  0.18827218  0.67977074  0.88361708  1
  O  O37  1  0.81172782  0.32022926  0.11638292  1
