# generated using pymatgen
data_FeSiO3
_symmetry_space_group_name_H-M   'P 1'
_cell_length_a   5.31542406
_cell_length_b   9.22673690
_cell_length_c   9.58724049
_cell_angle_alpha   90.00000000
_cell_angle_beta   103.08430453
_cell_angle_gamma   90.00000000
_symmetry_Int_Tables_number   1
_chemical_formula_structural   FeSiO3
_chemical_formula_sum   'Fe8 Si8 O24'
_cell_volume   457.98956758
_cell_formula_units_Z   8
loop_
 _symmetry_equiv_pos_site_id
 _symmetry_equiv_pos_as_xyz
  1  'x, y, z'
loop_
 _atom_site_type_symbol
 _atom_site_label
 _atom_site_symmetry_multiplicity
 _atom_site_fract_x
 _atom_site_fract_y
 _atom_site_fract_z
 _atom_site_occupancy
  Fe  Fe0  1  0.47770266  0.84631937  0.74769154  1
  Fe  Fe1  1  0.02229734  0.34631937  0.25230846  1
  Fe  Fe2  1  0.52229734  0.15368063  0.25230846  1
  Fe  Fe3  1  0.97770266  0.65368063  0.74769154  1
  Fe  Fe4  1  0.47367233  0.48766263  0.74827066  1
  Fe  Fe5  1  0.02632767  0.98766263  0.25172934  1
  Fe  Fe6  1  0.52632767  0.51233737  0.25172934  1
  Fe  Fe7  1  0.97367233  0.01233737  0.74827066  1
  Si  Si8  1  0.74318363  0.16216754  0.95422766  1
  Si  Si9  1  0.75681637  0.66216754  0.04577234  1
  Si  Si10  1  0.25681637  0.83783246  0.04577234  1
  Si  Si11  1  0.24318363  0.33783246  0.95422766  1
  Si  Si12  1  0.19063813  0.66604778  0.44715705  1
  Si  Si13  1  0.30936187  0.16604778  0.55284295  1
  Si  Si14  1  0.80936187  0.33395222  0.55284295  1
  Si  Si15  1  0.69063813  0.83395222  0.44715705  1
  O  O16  1  0.80799921  0.16161970  0.12898057  1
  O  O17  1  0.69200079  0.66161970  0.87101943  1
  O  O18  1  0.19200079  0.83838030  0.87101943  1
  O  O19  1  0.30799921  0.33838030  0.12898057  1
  O  O20  1  0.26804802  0.66244781  0.62293343  1
  O  O21  1  0.23195198  0.16244781  0.37706657  1
  O  O22  1  0.73195198  0.33755219  0.37706657  1
  O  O23  1  0.76804802  0.83755219  0.62293343  1
  O  O24  1  0.71036783  0.00527630  0.87553560  1
  O  O25  1  0.78963217  0.50527630  0.12446440  1
  O  O26  1  0.28963217  0.99472370  0.12446440  1
  O  O27  1  0.21036783  0.49472370  0.87553560  1
  O  O28  1  0.24819528  0.52106663  0.36421328  1
  O  O29  1  0.25180472  0.02106663  0.63578672  1
  O  O30  1  0.75180472  0.47893337  0.63578672  1
  O  O31  1  0.74819528  0.97893337  0.36421328  1
  O  O32  1  0.98979779  0.23168794  0.89447519  1
  O  O33  1  0.51020221  0.73168794  0.10552481  1
  O  O34  1  0.01020221  0.76831206  0.10552481  1
  O  O35  1  0.48979779  0.26831206  0.89447519  1
  O  O36  1  0.37412151  0.79624058  0.39701887  1
  O  O37  1  0.12587849  0.29624058  0.60298113  1
  O  O38  1  0.62587849  0.20375942  0.60298113  1
  O  O39  1  0.87412151  0.70375942  0.39701887  1
