# generated using pymatgen
data_HoAgS2
_symmetry_space_group_name_H-M   'P 1'
_cell_length_a   7.63309374
_cell_length_b   7.63895340
_cell_length_c   12.49629762
_cell_angle_alpha   90.00000000
_cell_angle_beta   90.07234340
_cell_angle_gamma   90.00000000
_symmetry_Int_Tables_number   1
_chemical_formula_structural   HoAgS2
_chemical_formula_sum   'Ho8 Ag8 S16'
_cell_volume   728.64412934
_cell_formula_units_Z   8
loop_
 _symmetry_equiv_pos_site_id
 _symmetry_equiv_pos_as_xyz
  1  'x, y, z'
loop_
 _atom_site_type_symbol
 _atom_site_label
 _atom_site_symmetry_multiplicity
 _atom_site_fract_x
 _atom_site_fract_y
 _atom_site_fract_z
 _atom_site_occupancy
  Ho  Ho0  1  0.74535825  0.50169652  0.00375659  1
  Ho  Ho1  1  0.25464175  0.00169652  0.99624341  1
  Ho  Ho2  1  0.00192719  0.25439399  0.75366206  1
  Ho  Ho3  1  0.99807281  0.75439399  0.24633794  1
  Ho  Ho4  1  0.50193443  0.74646688  0.74662567  1
  Ho  Ho5  1  0.49806557  0.24646688  0.25337433  1
  Ho  Ho6  1  0.75424437  0.99917481  0.50417062  1
  Ho  Ho7  1  0.24575563  0.49917481  0.49582938  1
  Ag  Ag8  1  0.49180289  0.26304614  0.76146815  1
  Ag  Ag9  1  0.50819711  0.76304614  0.23853185  1
  Ag  Ag10  1  0.00014073  0.75608262  0.73043057  1
  Ag  Ag11  1  0.99985927  0.25608262  0.26956943  1
  Ag  Ag12  1  0.75162267  0.00326584  0.02109848  1
  Ag  Ag13  1  0.24837733  0.50326584  0.97890152  1
  Ag  Ag14  1  0.75643480  0.50996141  0.52281589  1
  Ag  Ag15  1  0.24356520  0.00996141  0.47718411  1
  S  S16  1  0.02074886  0.77111049  0.46460317  1
  S  S17  1  0.97925114  0.27111049  0.53539683  1
  S  S18  1  0.48272424  0.23242945  0.47474421  1
  S  S19  1  0.51727576  0.73242945  0.52525579  1
  S  S20  1  0.72659090  0.52327711  0.22424840  1
  S  S21  1  0.27340910  0.02327711  0.77575160  1
  S  S22  1  0.72998646  0.48007863  0.78487613  1
  S  S23  1  0.27001354  0.98007863  0.21512387  1
  S  S24  1  0.76945503  0.98284774  0.72413504  1
  S  S25  1  0.23054497  0.48284774  0.27586496  1
  S  S26  1  0.22703824  0.52578528  0.71466995  1
  S  S27  1  0.77296176  0.02578528  0.28533005  1
  S  S28  1  0.01919130  0.27095664  0.97401692  1
  S  S29  1  0.98080870  0.77095664  0.02598308  1
  S  S30  1  0.48004738  0.73182645  0.96485384  1
  S  S31  1  0.51995262  0.23182645  0.03514616  1
