# generated using pymatgen
data_SrSn2H10Cl6O5
_symmetry_space_group_name_H-M   'P 1'
_cell_length_a   9.29470184
_cell_length_b   9.69510605
_cell_length_c   9.69510605
_cell_angle_alpha   76.55197476
_cell_angle_beta   69.59384007
_cell_angle_gamma   69.59384007
_symmetry_Int_Tables_number   1
_chemical_formula_structural   SrSn2H10Cl6O5
_chemical_formula_sum   'Sr2 Sn4 H20 Cl12 O10'
_cell_volume   761.29284289
_cell_formula_units_Z   2
loop_
 _symmetry_equiv_pos_site_id
 _symmetry_equiv_pos_as_xyz
  1  'x, y, z'
loop_
 _atom_site_type_symbol
 _atom_site_label
 _atom_site_symmetry_multiplicity
 _atom_site_fract_x
 _atom_site_fract_y
 _atom_site_fract_z
 _atom_site_occupancy
  Sr  Sr0  1  0.25000000  0.00845166  0.99154834  1
  Sr  Sr1  1  0.75000000  0.99154834  0.00845166  1
  Sn  Sn2  1  0.52095325  0.52569301  0.73959186  1
  Sn  Sn3  1  0.97904675  0.26040814  0.47430699  1
  Sn  Sn4  1  0.47904675  0.47430699  0.26040814  1
  Sn  Sn5  1  0.02095325  0.73959186  0.52569301  1
  H  H6  1  0.40434478  0.92240053  0.65838182  1
  H  H7  1  0.09565522  0.34161818  0.07759947  1
  H  H8  1  0.59565522  0.07759947  0.34161818  1
  H  H9  1  0.90434478  0.65838182  0.92240053  1
  H  H10  1  0.22296432  0.93393465  0.70277971  1
  H  H11  1  0.27703568  0.29722029  0.06606535  1
  H  H12  1  0.77703568  0.06606535  0.29722029  1
  H  H13  1  0.72296432  0.70277971  0.93393465  1
  H  H14  1  0.04643992  0.76940176  0.11352516  1
  H  H15  1  0.45356008  0.88647484  0.23059824  1
  H  H16  1  0.95356008  0.23059824  0.88647484  1
  H  H17  1  0.54643992  0.11352516  0.76940176  1
  H  H18  1  0.12000978  0.75313276  0.94659955  1
  H  H19  1  0.37999022  0.05340045  0.24686724  1
  H  H20  1  0.87999022  0.24686724  0.05340045  1
  H  H21  1  0.62000978  0.94659955  0.75313276  1
  H  H22  1  0.26198081  0.21528406  0.67580551  1
  H  H23  1  0.23801919  0.32419449  0.78471594  1
  H  H24  1  0.73801919  0.78471594  0.32419449  1
  H  H25  1  0.76198081  0.67580551  0.21528406  1
  Cl  Cl26  1  0.20699925  0.55399279  0.82501951  1
  Cl  Cl27  1  0.29300075  0.17498049  0.44600721  1
  Cl  Cl28  1  0.79300075  0.44600721  0.17498049  1
  Cl  Cl29  1  0.70699925  0.82501951  0.55399279  1
  Cl  Cl30  1  0.59757410  0.31091552  0.58032687  1
  Cl  Cl31  1  0.90242590  0.41967313  0.68908448  1
  Cl  Cl32  1  0.40242590  0.68908448  0.41967313  1
  Cl  Cl33  1  0.09757410  0.58032687  0.31091552  1
  Cl  Cl34  1  0.53074701  0.31475583  0.97398115  1
  Cl  Cl35  1  0.96925299  0.02601885  0.68524417  1
  Cl  Cl36  1  0.46925299  0.68524417  0.02601885  1
  Cl  Cl37  1  0.03074701  0.97398115  0.31475583  1
  O  O38  1  0.31395945  0.90581689  0.74327269  1
  O  O39  1  0.18604055  0.25672731  0.09418311  1
  O  O40  1  0.68604055  0.09418311  0.25672731  1
  O  O41  1  0.81395945  0.74327269  0.90581689  1
  O  O42  1  0.06359032  0.82936857  0.01538532  1
  O  O43  1  0.43640968  0.98461468  0.17063143  1
  O  O44  1  0.93640968  0.17063143  0.98461468  1
  O  O45  1  0.56359032  0.01538532  0.82936857  1
  O  O46  1  0.25000000  0.22060673  0.77939327  1
  O  O47  1  0.75000000  0.77939327  0.22060673  1
