# generated using pymatgen
data_Si3Pb11O17
_symmetry_space_group_name_H-M   'P 1'
_cell_length_a   7.47389206
_cell_length_b   13.31018947
_cell_length_c   22.96699103
_cell_angle_alpha   100.46736738
_cell_angle_beta   99.30225208
_cell_angle_gamma   92.47207144
_symmetry_Int_Tables_number   1
_chemical_formula_structural   Si3Pb11O17
_chemical_formula_sum   'Si12 Pb44 O68'
_cell_volume   2210.96849788
_cell_formula_units_Z   4
loop_
 _symmetry_equiv_pos_site_id
 _symmetry_equiv_pos_as_xyz
  1  'x, y, z'
loop_
 _atom_site_type_symbol
 _atom_site_label
 _atom_site_symmetry_multiplicity
 _atom_site_fract_x
 _atom_site_fract_y
 _atom_site_fract_z
 _atom_site_occupancy
  Si  Si0  1  0.10460160  0.11545783  0.14910666  1
  Si  Si1  1  0.89539840  0.88454217  0.85089334  1
  Si  Si2  1  0.31166376  0.90208261  0.14450263  1
  Si  Si3  1  0.68833624  0.09791739  0.85549737  1
  Si  Si4  1  0.20344781  0.88631984  0.41367151  1
  Si  Si5  1  0.79655219  0.11368016  0.58632849  1
  Si  Si6  1  0.26286684  0.60383560  0.58139337  1
  Si  Si7  1  0.73713316  0.39616440  0.41860663  1
  Si  Si8  1  0.40275820  0.38744308  0.85268728  1
  Si  Si9  1  0.59724180  0.61255692  0.14731272  1
  Si  Si10  1  0.18101320  0.59842482  0.84750263  1
  Si  Si11  1  0.81898680  0.40157518  0.15249737  1
  Pb  Pb12  1  0.25889105  0.00301050  0.00513199  1
  Pb  Pb13  1  0.74110895  0.99698950  0.99486801  1
  Pb  Pb14  1  0.00612451  0.25433891  0.01230638  1
  Pb  Pb15  1  0.99387549  0.74566109  0.98769362  1
  Pb  Pb16  1  0.24552572  0.49505519  0.99582712  1
  Pb  Pb17  1  0.75447428  0.50494481  0.00417288  1
  Pb  Pb18  1  0.50036242  0.75159447  0.00503386  1
  Pb  Pb19  1  0.49963758  0.24840553  0.99496614  1
  Pb  Pb20  1  0.29635327  0.37346705  0.14063421  1
  Pb  Pb21  1  0.70364673  0.62653295  0.85936579  1
  Pb  Pb22  1  0.11214871  0.63995386  0.13581454  1
  Pb  Pb23  1  0.88785129  0.36004614  0.86418546  1
  Pb  Pb24  1  0.16139681  0.01662430  0.28700465  1
  Pb  Pb25  1  0.83860319  0.98337570  0.71299535  1
  Pb  Pb26  1  0.42626768  0.26139884  0.28383316  1
  Pb  Pb27  1  0.57373232  0.73860116  0.71616684  1
  Pb  Pb28  1  0.14382793  0.51255335  0.28078933  1
  Pb  Pb29  1  0.85617207  0.48744665  0.71921067  1
  Pb  Pb30  1  0.39408849  0.76652177  0.27791303  1
  Pb  Pb31  1  0.60591151  0.23347823  0.72208697  1
  Pb  Pb32  1  0.01335414  0.13119668  0.44308815  1
  Pb  Pb33  1  0.98664586  0.86880332  0.55691185  1
  Pb  Pb34  1  0.22998613  0.41383391  0.42370888  1
  Pb  Pb35  1  0.77001387  0.58616609  0.57629112  1
  Pb  Pb36  1  0.03158009  0.66238886  0.43150545  1
  Pb  Pb37  1  0.96841991  0.33761114  0.56849455  1
  Pb  Pb38  1  0.29015916  0.11373272  0.59167513  1
  Pb  Pb39  1  0.70984084  0.88626728  0.40832487  1
  Pb  Pb40  1  0.49824215  0.34821202  0.56396081  1
  Pb  Pb41  1  0.50175785  0.65178798  0.43603919  1
  Pb  Pb42  1  0.49718189  0.85952101  0.58111744  1
  Pb  Pb43  1  0.50281811  0.14047899  0.41888256  1
  Pb  Pb44  1  0.10641638  0.24262294  0.72652754  1
  Pb  Pb45  1  0.89358362  0.75737706  0.27347246  1
  Pb  Pb46  1  0.36116634  0.46846398  0.70409541  1
  Pb  Pb47  1  0.63883366  0.53153602  0.29590459  1
  Pb  Pb48  1  0.06254918  0.74222903  0.70418842  1
  Pb  Pb49  1  0.93745082  0.25777097  0.29581158  1
  Pb  Pb50  1  0.33982870  0.98696192  0.72294786  1
  Pb  Pb51  1  0.66017130  0.01303808  0.27705214  1
  Pb  Pb52  1  0.20733392  0.13476859  0.86511230  1
  Pb  Pb53  1  0.79266608  0.86523141  0.13488770  1
  Pb  Pb54  1  0.38033279  0.85347494  0.85995394  1
  Pb  Pb55  1  0.61966721  0.14652506  0.14004606  1
  O  O56  1  0.27849648  0.35139086  0.04196029  1
  O  O57  1  0.72150352  0.64860914  0.95803971  1
  O  O58  1  0.03343263  0.60036195  0.03692895  1
  O  O59  1  0.96656737  0.39963805  0.96307105  1
  O  O60  1  0.20936623  0.00809811  0.13351877  1
  O  O61  1  0.79063377  0.99190189  0.86648123  1
  O  O62  1  0.20048672  0.19863518  0.11622253  1
  O  O63  1  0.79951328  0.80136482  0.88377747  1
  O  O64  1  0.38708812  0.57778357  0.11164452  1
  O  O65  1  0.61291188  0.42221643  0.88835548  1
  O  O66  1  0.14911162  0.80809107  0.12425768  1
  O  O67  1  0.85088838  0.19190893  0.87574232  1
  O  O68  1  0.47163084  0.89132330  0.10234814  1
  O  O69  1  0.52836916  0.10867670  0.89765186  1
  O  O70  1  0.13533768  0.15200476  0.22333067  1
  O  O71  1  0.86466232  0.84799524  0.77666933  1
  O  O72  1  0.39934928  0.91709829  0.21639979  1
  O  O73  1  0.60065072  0.08290171  0.78360021  1
  O  O74  1  0.43543543  0.10359865  0.31365926  1
  O  O75  1  0.56456457  0.89640135  0.68634074  1
  O  O76  1  0.20397755  0.35542082  0.31781209  1
  O  O77  1  0.79602245  0.64457918  0.68218791  1
  O  O78  1  0.09799713  0.15092522  0.35629039  1
  O  O79  1  0.90200287  0.84907478  0.64370961  1
  O  O80  1  0.23275655  0.56172551  0.38780663  1
  O  O81  1  0.76724345  0.43827449  0.61219337  1
  O  O82  1  0.00083806  0.83823900  0.37360447  1
  O  O83  1  0.99916194  0.16176100  0.62639553  1
  O  O84  1  0.34912090  0.91158195  0.36965138  1
  O  O85  1  0.65087910  0.08841805  0.63034862  1
  O  O86  1  0.27339477  0.79593735  0.45176140  1
  O  O87  1  0.72660523  0.20406265  0.54823860  1
  O  O88  1  0.16759819  0.99225791  0.45863080  1
  O  O89  1  0.83240181  0.00774209  0.54136920  1
  O  O90  1  0.21307595  0.58961192  0.50846018  1
  O  O91  1  0.78692405  0.41038808  0.49153982  1
  O  O92  1  0.36190520  0.50380876  0.60179921  1
  O  O93  1  0.63809480  0.49619124  0.39820079  1
  O  O94  1  0.07751231  0.61655287  0.61348479  1
  O  O95  1  0.92248769  0.38344713  0.38651521  1
  O  O96  1  0.40407022  0.70813515  0.61222860  1
  O  O97  1  0.59592978  0.29186485  0.38777140  1
  O  O98  1  0.25528663  0.94923337  0.60779913  1
  O  O99  1  0.74471337  0.05076663  0.39220087  1
  O  O100  1  0.33625249  0.14149156  0.69476073  1
  O  O101  1  0.66374751  0.85850844  0.30523927  1
  O  O102  1  0.45305820  0.32046670  0.65375754  1
  O  O103  1  0.54694180  0.67953330  0.34624246  1
  O  O104  1  0.08254520  0.38885520  0.68695647  1
  O  O105  1  0.91745480  0.61114480  0.31304353  1
  O  O106  1  0.40431741  0.33543607  0.78155255  1
  O  O107  1  0.59568259  0.66456393  0.21844745  1
  O  O108  1  0.10208121  0.60048345  0.77655661  1
  O  O109  1  0.89791879  0.39951655  0.22344339  1
  O  O110  1  0.28908221  0.49172784  0.85148514  1
  O  O111  1  0.71091779  0.50827216  0.14851486  1
  O  O112  1  0.29113591  0.31249382  0.88698867  1
  O  O113  1  0.70886409  0.68750618  0.11301133  1
  O  O114  1  0.01548302  0.59519305  0.88742230  1
  O  O115  1  0.98451698  0.40480695  0.11257770  1
  O  O116  1  0.33799035  0.69331836  0.87787597  1
  O  O117  1  0.66200965  0.30668164  0.12212403  1
  O  O118  1  0.11139021  0.91458191  0.88081883  1
  O  O119  1  0.88860979  0.08541809  0.11918117  1
  O  O120  1  0.22088023  0.15272646  0.96307127  1
  O  O121  1  0.77911977  0.84727354  0.03692873  1
  O  O122  1  0.46763212  0.90004577  0.95909201  1
  O  O123  1  0.53236788  0.09995423  0.04090799  1
