# generated using pymatgen
data_Ga21Rh4
_symmetry_space_group_name_H-M   'P 1'
_cell_length_a   6.56618714
_cell_length_b   6.57121637
_cell_length_c   20.54906599
_cell_angle_alpha   90.00000000
_cell_angle_beta   99.19345973
_cell_angle_gamma   90.00000000
_symmetry_Int_Tables_number   1
_chemical_formula_structural   Ga21Rh4
_chemical_formula_sum   'Ga42 Rh8'
_cell_volume   875.25831254
_cell_formula_units_Z   2
loop_
 _symmetry_equiv_pos_site_id
 _symmetry_equiv_pos_as_xyz
  1  'x, y, z'
loop_
 _atom_site_type_symbol
 _atom_site_label
 _atom_site_symmetry_multiplicity
 _atom_site_fract_x
 _atom_site_fract_y
 _atom_site_fract_z
 _atom_site_occupancy
  Ga  Ga0  1  -0.00000000  -0.00000000  -0.00000000  1
  Ga  Ga1  1  0.50000000  0.50000000  -0.00000000  1
  Ga  Ga2  1  0.12073254  -0.00000000  0.24146509  1
  Ga  Ga3  1  0.62073254  0.50000000  0.24146509  1
  Ga  Ga4  1  0.87926746  -0.00000000  0.75853491  1
  Ga  Ga5  1  0.37926746  0.50000000  0.75853491  1
  Ga  Ga6  1  0.24325942  -0.00000000  0.48651884  1
  Ga  Ga7  1  0.74325942  0.50000000  0.48651884  1
  Ga  Ga8  1  0.75674058  -0.00000000  0.51348116  1
  Ga  Ga9  1  0.25674058  0.50000000  0.51348116  1
  Ga  Ga10  1  0.68243345  0.85195668  0.06822492  1
  Ga  Ga11  1  0.38579146  0.14804332  0.06822492  1
  Ga  Ga12  1  0.88579146  0.35195668  0.06822492  1
  Ga  Ga13  1  0.18243345  0.64804332  0.06822492  1
  Ga  Ga14  1  0.31756655  0.14804332  0.93177508  1
  Ga  Ga15  1  0.61420854  0.85195668  0.93177508  1
  Ga  Ga16  1  0.11420854  0.64804332  0.93177508  1
  Ga  Ga17  1  0.81756655  0.35195668  0.93177508  1
  Ga  Ga18  1  0.73450075  0.14843334  0.17171020  1
  Ga  Ga19  1  0.43720944  0.85156666  0.17171020  1
  Ga  Ga20  1  0.93720944  0.64843334  0.17171020  1
  Ga  Ga21  1  0.23450075  0.35156666  0.17171020  1
  Ga  Ga22  1  0.26549925  0.85156666  0.82828980  1
  Ga  Ga23  1  0.56279056  0.14843334  0.82828980  1
  Ga  Ga24  1  0.06279056  0.35156666  0.82828980  1
  Ga  Ga25  1  0.76549925  0.64843334  0.82828980  1
  Ga  Ga26  1  0.79842949  0.14472797  0.30561741  1
  Ga  Ga27  1  0.50718792  0.85527203  0.30561741  1
  Ga  Ga28  1  0.00718792  0.64472797  0.30561741  1
  Ga  Ga29  1  0.29842949  0.35527203  0.30561741  1
  Ga  Ga30  1  0.20157051  0.85527203  0.69438259  1
  Ga  Ga31  1  0.49281208  0.14472797  0.69438259  1
  Ga  Ga32  1  0.99281208  0.35527203  0.69438259  1
  Ga  Ga33  1  0.70157051  0.64472797  0.69438259  1
  Ga  Ga34  1  0.86506659  0.83930604  0.40793073  1
  Ga  Ga35  1  0.54286414  0.16069396  0.40793073  1
  Ga  Ga36  1  0.04286414  0.33930604  0.40793073  1
  Ga  Ga37  1  0.36506659  0.66069396  0.40793073  1
  Ga  Ga38  1  0.13493341  0.16069396  0.59206927  1
  Ga  Ga39  1  0.45713586  0.83930604  0.59206927  1
  Ga  Ga40  1  0.95713586  0.66069396  0.59206927  1
  Ga  Ga41  1  0.63493341  0.33930604  0.59206927  1
  Rh  Rh42  1  0.06040420  -0.00000000  0.12080841  1
  Rh  Rh43  1  0.56040420  0.50000000  0.12080841  1
  Rh  Rh44  1  0.93959580  -0.00000000  0.87919159  1
  Rh  Rh45  1  0.43959580  0.50000000  0.87919159  1
  Rh  Rh46  1  0.18185138  -0.00000000  0.36370275  1
  Rh  Rh47  1  0.68185138  0.50000000  0.36370275  1
  Rh  Rh48  1  0.81814862  -0.00000000  0.63629725  1
  Rh  Rh49  1  0.31814862  0.50000000  0.63629725  1
