# generated using pymatgen
data_Sr9ThCl22
_symmetry_space_group_name_H-M   'P 1'
_cell_length_a   9.94616343
_cell_length_b   27.83240093
_cell_length_c   22.94885700
_cell_angle_alpha   11.52347397
_cell_angle_beta   57.13599060
_cell_angle_gamma   51.20017049
_symmetry_Int_Tables_number   1
_chemical_formula_structural   Sr9ThCl22
_chemical_formula_sum   'Sr9 Th1 Cl22'
_cell_volume   879.16619294
_cell_formula_units_Z   1
loop_
 _symmetry_equiv_pos_site_id
 _symmetry_equiv_pos_as_xyz
  1  'x, y, z'
loop_
 _atom_site_type_symbol
 _atom_site_label
 _atom_site_symmetry_multiplicity
 _atom_site_fract_x
 _atom_site_fract_y
 _atom_site_fract_z
 _atom_site_occupancy
  Sr  Sr0  1  0.50000000  0.00000000  -0.00000000  1
  Sr  Sr1  1  0.39952247  0.19856740  0.00238767  1
  Sr  Sr2  1  0.29984334  0.39953003  0.00078329  1
  Sr  Sr3  1  0.19999385  0.59998156  0.00003073  1
  Sr  Sr4  1  0.89954287  0.19862861  0.00228566  1
  Sr  Sr5  1  0.80000615  0.40001844  0.99996927  1
  Sr  Sr6  1  0.10045713  0.80137139  0.99771434  1
  Sr  Sr7  1  0.70015666  0.60046997  0.99921671  1
  Sr  Sr8  1  0.60047753  0.80143260  0.99761233  1
  Th  Th9  1  -0.00000000  0.00000000  -0.00000000  1
  Cl  Cl10  1  0.10059281  0.04698885  0.25372341  1
  Cl  Cl11  1  0.59869494  0.05087439  0.24983787  1
  Cl  Cl12  1  0.50000000  0.25021471  0.24978529  1
  Cl  Cl13  1  0.28643859  0.16096781  0.73165439  1
  Cl  Cl14  1  0.40130506  0.45111328  0.24817446  1
  Cl  Cl15  1  1.00000000  0.24978529  0.25021471  1
  Cl  Cl16  1  0.17906078  0.37353283  0.73384498  1
  Cl  Cl17  1  0.28643859  0.69566624  0.19695595  1
  Cl  Cl18  1  0.82093922  0.16116561  0.73145659  1
  Cl  Cl19  1  0.50000000  0.50000000  0.50000000  1
  Cl  Cl20  1  0.89940719  0.45102348  0.24826426  1
  Cl  Cl21  1  0.17906078  0.83883439  0.26854341  1
  Cl  Cl22  1  0.10059281  0.54897652  0.75173574  1
  Cl  Cl23  1  0.82093922  0.62646717  0.26615502  1
  Cl  Cl24  1  0.71356141  0.30433376  0.80304405  1
  Cl  Cl25  1  0.00000000  0.75021471  0.74978529  1
  Cl  Cl26  1  0.71356141  0.83903219  0.26834561  1
  Cl  Cl27  1  -0.00000000  0.50000000  0.50000000  1
  Cl  Cl28  1  0.59869494  0.54888672  0.75182554  1
  Cl  Cl29  1  0.50000000  0.74978529  0.75021471  1
  Cl  Cl30  1  0.40130506  0.94912561  0.75016213  1
  Cl  Cl31  1  0.89940719  0.95301115  0.74627659  1
