# generated using pymatgen
data_B13H27C6S3F4
_symmetry_space_group_name_H-M   'P 1'
_cell_length_a   11.92200704
_cell_length_b   13.84854291
_cell_length_c   14.37904442
_cell_angle_alpha   84.77532913
_cell_angle_beta   88.02799634
_cell_angle_gamma   88.23082510
_symmetry_Int_Tables_number   1
_chemical_formula_structural   B13H27C6S3F4
_chemical_formula_sum   'B52 H108 C24 S12 F16'
_cell_volume   2361.83369958
_cell_formula_units_Z   4
loop_
 _symmetry_equiv_pos_site_id
 _symmetry_equiv_pos_as_xyz
  1  'x, y, z'
loop_
 _atom_site_type_symbol
 _atom_site_label
 _atom_site_symmetry_multiplicity
 _atom_site_fract_x
 _atom_site_fract_y
 _atom_site_fract_z
 _atom_site_occupancy
  B  B0  1  0.37720767  0.37113627  0.38871125  1
  B  B1  1  0.62279233  0.62886373  0.61128875  1
  B  B2  1  0.25578657  0.35439389  0.46113166  1
  B  B3  1  0.74421343  0.64560611  0.53886834  1
  B  B4  1  0.26286252  0.31149498  0.34681397  1
  B  B5  1  0.73713748  0.68850502  0.65318603  1
  B  B6  1  0.34002793  0.39660589  0.27078896  1
  B  B7  1  0.65997207  0.60339411  0.72921104  1
  B  B8  1  0.38025778  0.49264627  0.33835052  1
  B  B9  1  0.61974222  0.50735373  0.66164948  1
  B  B10  1  0.32800531  0.46597322  0.45523813  1
  B  B11  1  0.67199469  0.53402678  0.54476187  1
  B  B12  1  0.14139702  0.37325262  0.38658109  1
  B  B13  1  0.85860298  0.62674738  0.61341891  1
  B  B14  1  0.18988712  0.39834008  0.26979656  1
  B  B15  1  0.81011288  0.60165992  0.73020344  1
  B  B16  1  0.26342341  0.50806480  0.26676340  1
  B  B17  1  0.73657659  0.49193520  0.73323660  1
  B  B18  1  0.25556701  0.55237409  0.37836114  1
  B  B19  1  0.74443299  0.44762591  0.62163886  1
  B  B20  1  0.17866375  0.46758298  0.45374766  1
  B  B21  1  0.82133625  0.53241702  0.54625234  1
  B  B22  1  0.13802316  0.49516162  0.33567807  1
  B  B23  1  0.86197684  0.50483838  0.66432193  1
  B  B24  1  0.77380147  0.81996191  0.20902318  1
  B  B25  1  0.22619853  0.18003809  0.79097682  1
  B  B26  1  0.83626534  0.87965768  0.10753487  1
  B  B27  1  0.16373466  0.12034232  0.89246513  1
  B  B28  1  0.69654461  0.83473298  0.10580046  1
  B  B29  1  0.30345539  0.16526702  0.89419954  1
  B  B30  1  0.69213920  0.72316549  0.17900545  1
  B  B31  1  0.30786080  0.27683451  0.82099455  1
  B  B32  1  0.82932148  0.69922623  0.22623604  1
  B  B33  1  0.17067852  0.30077377  0.77376396  1
  B  B34  1  0.91726718  0.79573541  0.18160855  1
  B  B35  1  0.08273282  0.20426459  0.81839145  1
  B  B36  1  0.79471274  0.81634002  0.01416685  1
  B  B37  1  0.20528726  0.18365998  0.98583315  1
  B  B38  1  0.70546412  0.72159025  0.05516188  1
  B  B39  1  0.29453588  0.27840975  0.94483812  1
  B  B40  1  0.78874143  0.64082237  0.12936927  1
  B  B41  1  0.21125857  0.35917763  0.87063073  1
  B  B42  1  0.92619368  0.68324978  0.13130582  1
  B  B43  1  0.07380632  0.31675022  0.86869418  1
  B  B44  1  0.93069021  0.79361691  0.05805562  1
  B  B45  1  0.06930979  0.20638309  0.94194438  1
  B  B46  1  0.85039071  0.69581193  0.02580512  1
  B  B47  1  0.14960929  0.30418807  0.97419488  1
  B  B48  1  0.69153679  0.20777319  0.12354047  1
  B  B49  1  0.30846321  0.79222681  0.87645953  1
  B  B50  1  0.74507707  0.04797431  0.58870634  1
  B  B51  1  0.25492293  0.95202569  0.41129366  1
  H  H52  1  0.59109152  0.23101483  0.55506929  1
  H  H53  1  0.40890848  0.76898517  0.44493071  1
  H  H54  1  0.50629512  0.33735438  0.57630958  1
  H  H55  1  0.49370488  0.66264562  0.42369042  1
  H  H56  1  0.43904175  0.22654033  0.55610281  1
  H  H57  1  0.56095825  0.77345967  0.44389719  1
  H  H58  1  0.44866212  0.15083951  0.39607322  1
  H  H59  1  0.55133788  0.84916049  0.60392678  1
  H  H60  1  0.51906584  0.20908682  0.29269828  1
  H  H61  1  0.48093416  0.79091318  0.70730172  1
  H  H62  1  0.60041807  0.15867725  0.38925505  1
  H  H63  1  0.39958193  0.84132275  0.61074495  1
  H  H64  1  0.07753601  0.21108526  0.53895033  1
  H  H65  1  0.92246399  0.78891474  0.46104967  1
  H  H66  1  0.00194183  0.31688112  0.57525931  1
  H  H67  1  0.99805817  0.68311888  0.42474069  1
  H  H68  1  0.92520043  0.21641275  0.54075323  1
  H  H69  1  0.07479957  0.78358725  0.45924677  1
  H  H70  1  0.91709279  0.17697287  0.36082155  1
  H  H71  1  0.08290721  0.82302713  0.63917845  1
  H  H72  1  0.00838937  0.23452700  0.27262289  1
  H  H73  1  0.99161063  0.76547300  0.72737711  1
  H  H74  1  0.06752102  0.15608959  0.36730593  1
  H  H75  1  0.93247898  0.84391041  0.63269407  1
  H  H76  1  0.46755544  0.59054345  0.14651038  1
  H  H77  1  0.53244456  0.40945655  0.85348962  1
  H  H78  1  0.40821285  0.50274552  0.07850829  1
  H  H79  1  0.59178715  0.49725448  0.92149171  1
  H  H80  1  0.40279491  0.62941405  0.03657096  1
  H  H81  1  0.59720509  0.37058595  0.96342904  1
  H  H82  1  0.27997043  0.75801700  0.12116185  1
  H  H83  1  0.72002957  0.24198300  0.87883815  1
  H  H84  1  0.18905424  0.72759039  0.22150857  1
  H  H85  1  0.81094576  0.27240961  0.77849143  1
  H  H86  1  0.33902085  0.71877542  0.23413530  1
  H  H87  1  0.66097915  0.28122458  0.76586470  1
  H  H88  1  0.25372082  0.30077862  0.53098105  1
  H  H89  1  0.74627918  0.69922138  0.46901895  1
  H  H90  1  0.26528567  0.22731806  0.33522889  1
  H  H91  1  0.73471433  0.77268194  0.66477111  1
  H  H92  1  0.39662669  0.37221304  0.20636171  1
  H  H93  1  0.60337331  0.62778696  0.79363829  1
  H  H94  1  0.46613156  0.53442416  0.32086192  1
  H  H95  1  0.53386844  0.46557584  0.67913808  1
  H  H96  1  0.37739617  0.48956554  0.52015183  1
  H  H97  1  0.62260383  0.51043446  0.47984817  1
  H  H98  1  0.14076372  0.37535944  0.20451947  1
  H  H99  1  0.85923628  0.62464056  0.79548053  1
  H  H100  1  0.25248953  0.63669791  0.38984420  1
  H  H101  1  0.74751047  0.36330209  0.61015580  1
  H  H102  1  0.12183144  0.49215343  0.51803602  1
  H  H103  1  0.87816856  0.50784657  0.48196398  1
  H  H104  1  0.05172213  0.53797059  0.31710502  1
  H  H105  1  0.94827787  0.46202941  0.68289498  1
  H  H106  1  0.79379512  0.02141685  0.38318590  1
  H  H107  1  0.20620488  0.97858315  0.61681410  1
  H  H108  1  0.90802544  0.95774402  0.32897102  1
  H  H109  1  0.09197456  0.04225598  0.67102898  1
  H  H110  1  0.81329511  0.03492549  0.25711332  1
  H  H111  1  0.18670489  0.96507451  0.74288668  1
  H  H112  1  0.60254451  0.99833078  0.24311903  1
  H  H113  1  0.39745549  0.00166922  0.75688097  1
  H  H114  1  0.53961666  0.88561453  0.28811442  1
  H  H115  1  0.46038334  0.11438547  0.71188558  1
  H  H116  1  0.57403858  0.97144486  0.36765546  1
  H  H117  1  0.42596142  0.02855514  0.63234454  1
  H  H118  1  0.81923798  0.03319914  0.93172036  1
  H  H119  1  0.18076202  0.96680086  0.06827964  1
  H  H120  1  0.94352906  0.96558483  0.89891586  1
  H  H121  1  0.05647094  0.03441517  0.10108414  1
  H  H122  1  0.84982779  0.01536160  0.80983262  1
  H  H123  1  0.15017221  0.98463840  0.19016738  1
  H  H124  1  0.63232910  0.95119160  0.80691850  1
  H  H125  1  0.36767090  0.04880840  0.19308150  1
  H  H126  1  0.58137020  0.86122735  0.89568703  1
  H  H127  1  0.41862980  0.13877265  0.10431297  1
  H  H128  1  0.62351385  0.97708498  0.92806024  1
  H  H129  1  0.37648615  0.02291502  0.07193976  1
  H  H130  1  0.82679381  0.47759618  0.29060637  1
  H  H131  1  0.17320619  0.52240382  0.70939363  1
  H  H132  1  0.67807624  0.50394735  0.28886199  1
  H  H133  1  0.32192376  0.49605265  0.71113801  1
  H  H134  1  0.73106183  0.38714596  0.25897641  1
  H  H135  1  0.26893817  0.61285404  0.74102359  1
  H  H136  1  0.86181195  0.36550362  0.10980924  1
  H  H137  1  0.13818805  0.63449638  0.89019076  1
  H  H138  1  0.89438003  0.46327237  0.02376765  1
  H  H139  1  0.10561997  0.53672763  0.97623235  1
  H  H140  1  0.95265845  0.46072924  0.13834948  1
  H  H141  1  0.04734155  0.53927076  0.86165052  1
  H  H142  1  0.85401108  0.96447338  0.10056140  1
  H  H143  1  0.14598892  0.03552662  0.89943860  1
  H  H144  1  0.61547374  0.88703128  0.09699171  1
  H  H145  1  0.38452626  0.11296872  0.90300829  1
  H  H146  1  0.60790234  0.69850559  0.22129895  1
  H  H147  1  0.39209766  0.30149441  0.77870105  1
  H  H148  1  0.84057939  0.65820157  0.30222779  1
  H  H149  1  0.15942061  0.34179843  0.69777221  1
  H  H150  1  0.99156338  0.82155239  0.22655609  1
  H  H151  1  0.00843662  0.17844761  0.77344391  1
  H  H152  1  0.63124614  0.69552227  0.01034463  1
  H  H153  1  0.36875386  0.30447773  0.98965537  1
  H  H154  1  0.00661043  0.62992729  0.13962651  1
  H  H155  1  0.99338957  0.37007271  0.86037349  1
  H  H156  1  0.01456941  0.81752605  0.01541559  1
  H  H157  1  0.98543059  0.18247395  0.98458441  1
  H  H158  1  0.87622217  0.65271964  0.95946155  1
  H  H159  1  0.12377783  0.34728036  0.04053845  1
  C  C160  1  0.51218819  0.27161789  0.53953791  1
  C  C161  1  0.48781181  0.72838211  0.46046209  1
  C  C162  1  0.52004157  0.19406967  0.36865292  1
  C  C163  1  0.47995843  0.80593033  0.63134708  1
  C  C164  1  0.00241936  0.25800369  0.52947286  1
  C  C165  1  0.99758064  0.74199631  0.47052714  1
  C  C166  1  -0.00000443  0.20844015  0.34658921  1
  C  C167  1  0.00000443  0.79155985  0.65341079  1
  C  C168  1  0.40126448  0.57691393  0.09879643  1
  C  C169  1  0.59873552  0.42308607  0.90120357  1
  C  C170  1  0.26982091  0.71200684  0.18705177  1
  C  C171  1  0.73017909  0.28799316  0.81294823  1
  C  C172  1  0.82152853  0.98580396  0.32075723  1
  C  C173  1  0.17847147  0.01419604  0.67924277  1
  C  C174  1  0.59827554  0.94158766  0.30148796  1
  C  C175  1  0.40172446  0.05841234  0.69851204  1
  C  C176  1  0.85606616  0.98417867  0.88265588  1
  C  C177  1  0.14393384  0.01582133  0.11734412  1
  C  C178  1  0.63900736  0.92085309  0.88004261  1
  C  C179  1  0.36099264  0.07914691  0.11995739  1
  C  C180  1  0.74814687  0.46460335  0.25688085  1
  C  C181  1  0.25185313  0.53539665  0.74311915  1
  C  C182  1  0.88046734  0.44293931  0.09843293  1
  C  C183  1  0.11953266  0.55706069  0.90156707  1
  S  S184  1  0.51881777  0.30958560  0.41652931  1
  S  S185  1  0.48118223  0.69041440  0.58347069  1
  S  S186  1  0.99980056  0.31370459  0.41146748  1
  S  S187  1  0.00019944  0.68629541  0.58853252  1
  S  S188  1  0.26411306  0.59064125  0.15332781  1
  S  S189  1  0.73588694  0.40935875  0.84667219  1
  S  S190  1  0.73363978  0.88244209  0.31917765  1
  S  S191  1  0.26636022  0.11755791  0.68082235  1
  S  S192  1  0.78067266  0.87300663  0.88968967  1
  S  S193  1  0.21932734  0.12699337  0.11031033  1
  S  S194  1  0.75512182  0.50695159  0.13506413  1
  S  S195  1  0.24487818  0.49304841  0.86493587  1
  F  F196  1  0.75825242  0.12964542  0.52085748  1
  F  F197  1  0.24174758  0.87035458  0.47914252  1
  F  F198  1  0.69022074  0.07916680  0.67048885  1
  F  F199  1  0.30977926  0.92083320  0.32951115  1
  F  F200  1  0.67887181  0.97882769  0.55018477  1
  F  F201  1  0.32112819  0.02117231  0.44981523  1
  F  F202  1  0.85205758  0.00663128  0.61102392  1
  F  F203  1  0.14794242  0.99336872  0.38897608  1
  F  F204  1  0.74144923  0.21850221  0.03234454  1
  F  F205  1  0.25855077  0.78149779  0.96765546  1
  F  F206  1  0.63396811  0.11912438  0.13659770  1
  F  F207  1  0.36603189  0.88087562  0.86340230  1
  F  F208  1  0.77652443  0.20854334  0.19086149  1
  F  F209  1  0.22347557  0.79145666  0.80913851  1
  F  F210  1  0.61429421  0.28646677  0.13541472  1
  F  F211  1  0.38570579  0.71353323  0.86458528  1
