# generated using pymatgen
data_Nd10Se14O
_symmetry_space_group_name_H-M   'P 1'
_cell_length_a   15.24888283
_cell_length_b   15.24888283
_cell_length_c   15.24888283
_cell_angle_alpha   93.96998517
_cell_angle_beta   117.73501576
_cell_angle_gamma   117.73501576
_symmetry_Int_Tables_number   1
_chemical_formula_structural   Nd10Se14O
_chemical_formula_sum   'Nd40 Se56 O4'
_cell_volume   2586.37848756
_cell_formula_units_Z   4
loop_
 _symmetry_equiv_pos_site_id
 _symmetry_equiv_pos_as_xyz
  1  'x, y, z'
loop_
 _atom_site_type_symbol
 _atom_site_label
 _atom_site_symmetry_multiplicity
 _atom_site_fract_x
 _atom_site_fract_y
 _atom_site_fract_z
 _atom_site_occupancy
  Nd  Nd0  1  0.84385761  0.02075027  0.41801492  1
  Nd  Nd1  1  0.39726464  0.07415731  0.91801492  1
  Nd  Nd2  1  0.34385761  0.91801492  0.52075027  1
  Nd  Nd3  1  0.60273536  0.67689266  0.02075027  1
  Nd  Nd4  1  0.15614239  0.97924973  0.58198508  1
  Nd  Nd5  1  0.60273536  0.92584269  0.08198508  1
  Nd  Nd6  1  0.65614239  0.08198508  0.47924973  1
  Nd  Nd7  1  0.39726464  0.32310734  0.97924973  1
  Nd  Nd8  1  0.10273536  0.52075027  0.17689266  1
  Nd  Nd9  1  0.65614239  0.57415731  0.67689266  1
  Nd  Nd10  1  0.89726464  0.41801492  0.57415731  1
  Nd  Nd11  1  0.15614239  0.17689266  0.07415731  1
  Nd  Nd12  1  0.89726464  0.47924973  0.82310734  1
  Nd  Nd13  1  0.34385761  0.42584269  0.32310734  1
  Nd  Nd14  1  0.10273536  0.58198508  0.42584269  1
  Nd  Nd15  1  0.84385761  0.82310734  0.92584269  1
  Nd  Nd16  1  0.37413773  0.80497940  0.18816433  1
  Nd  Nd17  1  0.38318493  0.31402660  0.68816433  1
  Nd  Nd18  1  0.87413773  0.68816433  0.30497940  1
  Nd  Nd19  1  0.61681507  0.93084166  0.80497940  1
  Nd  Nd20  1  0.62586227  0.19502060  0.81183567  1
  Nd  Nd21  1  0.61681507  0.68597340  0.31183567  1
  Nd  Nd22  1  0.12586227  0.31183567  0.69502060  1
  Nd  Nd23  1  0.38318493  0.06915834  0.19502060  1
  Nd  Nd24  1  0.11681507  0.30497940  0.43084166  1
  Nd  Nd25  1  0.12586227  0.81402660  0.93084166  1
  Nd  Nd26  1  0.88318493  0.18816433  0.81402660  1
  Nd  Nd27  1  0.62586227  0.43084166  0.31402660  1
  Nd  Nd28  1  0.88318493  0.69502060  0.56915834  1
  Nd  Nd29  1  0.87413773  0.18597340  0.06915834  1
  Nd  Nd30  1  0.11681507  0.81183567  0.18597340  1
  Nd  Nd31  1  0.37413773  0.56915834  0.68597340  1
  Nd  Nd32  1  0.48199012  0.74099506  0.49099506  1
  Nd  Nd33  1  0.75000000  0.50900494  0.99099506  1
  Nd  Nd34  1  0.98199012  0.99099506  0.24099506  1
  Nd  Nd35  1  0.25000000  0.75900494  0.74099506  1
  Nd  Nd36  1  0.51800988  0.25900494  0.50900494  1
  Nd  Nd37  1  0.25000000  0.49099506  0.00900494  1
  Nd  Nd38  1  0.01800988  0.00900494  0.75900494  1
  Nd  Nd39  1  0.75000000  0.24099506  0.25900494  1
  Se  Se40  1  0.59584459  0.62101168  0.47966536  1
  Se  Se41  1  0.85865368  0.38382077  0.97966536  1
  Se  Se42  1  0.09584459  0.97966536  0.12101168  1
  Se  Se43  1  0.14134632  0.52516709  0.62101168  1
  Se  Se44  1  0.40415541  0.37898832  0.52033464  1
  Se  Se45  1  0.14134632  0.61617923  0.02033464  1
  Se  Se46  1  0.90415541  0.02033464  0.87898832  1
  Se  Se47  1  0.85865368  0.47483291  0.37898832  1
  Se  Se48  1  0.64134632  0.12101168  0.02516709  1
  Se  Se49  1  0.90415541  0.88382077  0.52516709  1
  Se  Se50  1  0.35865368  0.47966536  0.88382077  1
  Se  Se51  1  0.40415541  0.02516709  0.38382077  1
  Se  Se52  1  0.35865368  0.87898832  0.97483291  1
  Se  Se53  1  0.09584459  0.11617923  0.47483291  1
  Se  Se54  1  0.64134632  0.52033464  0.11617923  1
  Se  Se55  1  0.59584459  0.97483291  0.61617923  1
  Se  Se56  1  0.58585442  0.02186917  0.25006773  1
  Se  Se57  1  0.22819856  0.16421331  0.75006773  1
  Se  Se58  1  0.08585442  0.75006773  0.52186917  1
  Se  Se59  1  0.77180144  0.93601475  0.02186917  1
  Se  Se60  1  0.41414558  0.97813083  0.74993227  1
  Se  Se61  1  0.77180144  0.83578669  0.24993227  1
  Se  Se62  1  0.91414558  0.24993227  0.47813083  1
  Se  Se63  1  0.22819856  0.06398525  0.97813083  1
  Se  Se64  1  0.27180144  0.52186917  0.43601475  1
  Se  Se65  1  0.91414558  0.66421331  0.93601475  1
  Se  Se66  1  0.72819856  0.25006773  0.66421331  1
  Se  Se67  1  0.41414558  0.43601475  0.16421331  1
  Se  Se68  1  0.72819856  0.47813083  0.56398525  1
  Se  Se69  1  0.08585442  0.33578669  0.06398525  1
  Se  Se70  1  0.27180144  0.74993227  0.33578669  1
  Se  Se71  1  0.58585442  0.56398525  0.83578669  1
  Se  Se72  1  0.89155623  0.10117727  0.63318304  1
  Se  Se73  1  0.53200577  0.24162681  0.13318304  1
  Se  Se74  1  0.39155623  0.13318304  0.60117727  1
  Se  Se75  1  0.46799423  0.70962104  0.10117727  1
  Se  Se76  1  0.10844377  0.89882273  0.36681696  1
  Se  Se77  1  0.46799423  0.75837319  0.86681696  1
  Se  Se78  1  0.60844377  0.86681696  0.39882273  1
  Se  Se79  1  0.53200577  0.29037896  0.89882273  1
  Se  Se80  1  0.96799423  0.60117727  0.20962104  1
  Se  Se81  1  0.60844377  0.74162681  0.70962104  1
  Se  Se82  1  0.03200577  0.63318304  0.74162681  1
  Se  Se83  1  0.10844377  0.20962104  0.24162681  1
  Se  Se84  1  0.03200577  0.39882273  0.79037896  1
  Se  Se85  1  0.39155623  0.25837319  0.29037896  1
  Se  Se86  1  0.96799423  0.36681696  0.25837319  1
  Se  Se87  1  0.89155623  0.79037896  0.75837319  1
  Se  Se88  1  0.64572528  0.25000000  0.39572528  1
  Se  Se89  1  0.14572528  0.25000000  0.89572528  1
  Se  Se90  1  0.14572528  0.89572528  0.75000000  1
  Se  Se91  1  0.85427472  0.10427472  0.25000000  1
  Se  Se92  1  0.35427472  0.75000000  0.60427472  1
  Se  Se93  1  0.85427472  0.75000000  0.10427472  1
  Se  Se94  1  0.64572528  0.39572528  0.75000000  1
  Se  Se95  1  0.35427472  0.60427472  0.25000000  1
  O  O96  1  0.75000000  0.12500000  0.87500000  1
  O  O97  1  0.75000000  0.62500000  0.37500000  1
  O  O98  1  0.25000000  0.37500000  0.62500000  1
  O  O99  1  0.25000000  0.87500000  0.12500000  1
