# generated using pymatgen
data_Cs2Mo4O13
_symmetry_space_group_name_H-M   'P 1'
_cell_length_a   8.66724717
_cell_length_b   8.96239420
_cell_length_c   10.73229263
_cell_angle_alpha   106.80165577
_cell_angle_beta   103.36380225
_cell_angle_gamma   109.61024491
_symmetry_Int_Tables_number   1
_chemical_formula_structural   Cs2Mo4O13
_chemical_formula_sum   'Cs4 Mo8 O26'
_cell_volume   700.25619994
_cell_formula_units_Z   2
loop_
 _symmetry_equiv_pos_site_id
 _symmetry_equiv_pos_as_xyz
  1  'x, y, z'
loop_
 _atom_site_type_symbol
 _atom_site_label
 _atom_site_symmetry_multiplicity
 _atom_site_fract_x
 _atom_site_fract_y
 _atom_site_fract_z
 _atom_site_occupancy
  Cs  Cs0  1  0.58252187  0.13283385  0.30448654  1
  Cs  Cs1  1  0.41747813  0.86716615  0.69551346  1
  Cs  Cs2  1  0.85340800  0.80637558  0.58904005  1
  Cs  Cs3  1  0.14659200  0.19362442  0.41095995  1
  Mo  Mo4  1  0.62567727  0.43712059  0.73600679  1
  Mo  Mo5  1  0.37432273  0.56287941  0.26399321  1
  Mo  Mo6  1  0.64863435  0.70793123  0.04908633  1
  Mo  Mo7  1  0.35136565  0.29206877  0.95091367  1
  Mo  Mo8  1  0.00297769  0.41599778  0.71542883  1
  Mo  Mo9  1  0.99702231  0.58400222  0.28457117  1
  Mo  Mo10  1  0.96674259  0.29002938  0.96724182  1
  Mo  Mo11  1  0.03325741  0.70997062  0.03275818  1
  O  O12  1  0.15029797  0.92725595  0.14260779  1
  O  O13  1  0.84970203  0.07274405  0.85739221  1
  O  O14  1  0.81125978  0.48606894  0.66333472  1
  O  O15  1  0.18874022  0.51393106  0.33666528  1
  O  O16  1  0.47925472  0.56981207  0.11239132  1
  O  O17  1  0.52074528  0.43018793  0.88760868  1
  O  O18  1  0.20081701  0.30374457  0.07022964  1
  O  O19  1  0.79918299  0.69625543  0.92977036  1
  O  O20  1  0.85168108  0.39748275  0.87245214  1
  O  O21  1  0.14831892  0.60251725  0.12754786  1
  O  O22  1  0.85194752  0.48995510  0.35711251  1
  O  O23  1  0.14805248  0.51004490  0.64288749  1
  O  O24  1  0.13919951  0.37957007  0.86305116  1
  O  O25  1  0.86080049  0.62042993  0.13694884  1
  O  O26  1  0.88770308  0.20070357  0.59191005  1
  O  O27  1  0.11229692  0.79929643  0.40808995  1
  O  O28  1  0.51808344  0.53787851  0.65898753  1
  O  O29  1  0.48191656  0.46212149  0.34101247  1
  O  O30  1  0.77229295  0.89577963  0.20107912  1
  O  O31  1  0.22770705  0.10422037  0.79892088  1
  O  O32  1  0.49810853  0.21726913  0.63183823  1
  O  O33  1  0.50189147  0.78273087  0.36816177  1
  O  O34  1  0.89245360  0.31241070  0.11007794  1
  O  O35  1  0.10754640  0.68758930  0.88992206  1
  O  O36  1  0.51857385  0.77111140  0.94849826  1
  O  O37  1  0.48142615  0.22888860  0.05150174  1
