# generated using pymatgen
data_BaEu2Sc2O7
_symmetry_space_group_name_H-M   'P 1'
_cell_length_a   5.87427127
_cell_length_b   5.87427127
_cell_length_c   20.13909888
_cell_angle_alpha   90.00000000
_cell_angle_beta   90.00000000
_cell_angle_gamma   90.00000000
_symmetry_Int_Tables_number   1
_chemical_formula_structural   BaEu2Sc2O7
_chemical_formula_sum   'Ba4 Eu8 Sc8 O28'
_cell_volume   694.94115288
_cell_formula_units_Z   4
loop_
 _symmetry_equiv_pos_site_id
 _symmetry_equiv_pos_as_xyz
  1  'x, y, z'
loop_
 _atom_site_type_symbol
 _atom_site_label
 _atom_site_symmetry_multiplicity
 _atom_site_fract_x
 _atom_site_fract_y
 _atom_site_fract_z
 _atom_site_occupancy
  Ba  Ba0  1  0.23784159  0.76215841  0.50000000  1
  Ba  Ba1  1  0.76215841  0.23784159  0.50000000  1
  Ba  Ba2  1  0.26215841  0.26215841  0.00000000  1
  Ba  Ba3  1  0.73784159  0.73784159  -0.00000000  1
  Eu  Eu4  1  0.21429440  0.78570560  0.31481930  1
  Eu  Eu5  1  0.78570560  0.21429440  0.31481930  1
  Eu  Eu6  1  0.28570560  0.28570560  0.81481930  1
  Eu  Eu7  1  0.71429440  0.71429440  0.81481930  1
  Eu  Eu8  1  0.78570560  0.21429440  0.68518070  1
  Eu  Eu9  1  0.21429440  0.78570560  0.68518070  1
  Eu  Eu10  1  0.71429440  0.71429440  0.18518070  1
  Eu  Eu11  1  0.28570560  0.28570560  0.18518070  1
  Sc  Sc12  1  0.23643489  0.76356511  0.10378717  1
  Sc  Sc13  1  0.76356511  0.23643489  0.10378717  1
  Sc  Sc14  1  0.26356511  0.26356511  0.60378717  1
  Sc  Sc15  1  0.73643489  0.73643489  0.60378717  1
  Sc  Sc16  1  0.76356511  0.23643489  0.89621283  1
  Sc  Sc17  1  0.23643489  0.76356511  0.89621283  1
  Sc  Sc18  1  0.73643489  0.73643489  0.39621283  1
  Sc  Sc19  1  0.26356511  0.26356511  0.39621283  1
  O  O20  1  0.28481898  0.28481898  0.50000000  1
  O  O21  1  0.71518102  0.71518102  0.50000000  1
  O  O22  1  0.21518102  0.78481898  0.00000000  1
  O  O23  1  0.78481898  0.21518102  -0.00000000  1
  O  O24  1  0.31890843  0.68109157  0.21091121  1
  O  O25  1  0.68109157  0.31890843  0.21091121  1
  O  O26  1  0.18109157  0.18109157  0.71091121  1
  O  O27  1  0.81890843  0.81890843  0.71091121  1
  O  O28  1  0.68109157  0.31890843  0.78908879  1
  O  O29  1  0.31890843  0.68109157  0.78908879  1
  O  O30  1  0.81890843  0.81890843  0.28908879  1
  O  O31  1  0.18109157  0.18109157  0.28908879  1
  O  O32  1  -0.00000000  0.50000000  0.38653234  1
  O  O33  1  0.50000000  0.00000000  0.88653234  1
  O  O34  1  -0.00000000  0.50000000  0.61346766  1
  O  O35  1  0.50000000  0.00000000  0.11346766  1
  O  O36  1  0.50000000  0.00000000  0.38653234  1
  O  O37  1  0.00000000  0.50000000  0.88653234  1
  O  O38  1  0.50000000  0.00000000  0.61346766  1
  O  O39  1  0.00000000  0.50000000  0.11346766  1
  O  O40  1  0.50000000  0.50000000  0.36840729  1
  O  O41  1  -0.00000000  0.00000000  0.86840729  1
  O  O42  1  0.50000000  0.50000000  0.63159271  1
  O  O43  1  0.00000000  0.00000000  0.13159271  1
  O  O44  1  0.50000000  0.50000000  0.09553250  1
  O  O45  1  -0.00000000  0.00000000  0.59553250  1
  O  O46  1  0.50000000  0.50000000  0.90446750  1
  O  O47  1  -0.00000000  0.00000000  0.40446750  1
