# generated using pymatgen
data_KMgAs(H6O5)2
_symmetry_space_group_name_H-M   'P 1'
_cell_length_a   6.24244737
_cell_length_b   7.22341008
_cell_length_c   11.24913292
_cell_angle_alpha   90.00000000
_cell_angle_beta   90.00000000
_cell_angle_gamma   90.00000000
_symmetry_Int_Tables_number   1
_chemical_formula_structural   KMgAs(H6O5)2
_chemical_formula_sum   'K2 Mg2 As2 H24 O20'
_cell_volume   507.24317097
_cell_formula_units_Z   2
loop_
 _symmetry_equiv_pos_site_id
 _symmetry_equiv_pos_as_xyz
  1  'x, y, z'
loop_
 _atom_site_type_symbol
 _atom_site_label
 _atom_site_symmetry_multiplicity
 _atom_site_fract_x
 _atom_site_fract_y
 _atom_site_fract_z
 _atom_site_occupancy
  K  K0  1  0.61528594  0.00000000  0.29400484  1
  K  K1  1  0.38471406  0.50000000  0.79400484  1
  Mg  Mg2  1  0.37115598  0.50000000  0.12144416  1
  Mg  Mg3  1  0.62884402  -0.00000000  0.62144416  1
  As  As4  1  0.00694609  -0.00000000  0.00803325  1
  As  As5  1  0.99305391  0.50000000  0.50803325  1
  H  H6  1  0.01113405  0.38790059  0.99661043  1
  H  H7  1  0.01113405  0.61209941  0.99661043  1
  H  H8  1  0.98886595  0.11209941  0.49661043  1
  H  H9  1  0.98886595  0.88790059  0.49661043  1
  H  H10  1  0.70754435  0.60134452  0.26469406  1
  H  H11  1  0.70754435  0.39865548  0.26469406  1
  H  H12  1  0.29245565  0.89865548  0.76469406  1
  H  H13  1  0.29245565  0.10134452  0.76469406  1
  H  H14  1  0.17237833  0.18199089  0.20351391  1
  H  H15  1  0.17237833  0.81800911  0.20351391  1
  H  H16  1  0.82762167  0.31800911  0.70351391  1
  H  H17  1  0.82762167  0.68199089  0.70351391  1
  H  H18  1  0.20573659  0.30396821  0.31873759  1
  H  H19  1  0.20573659  0.69603179  0.31873759  1
  H  H20  1  0.79426341  0.19603179  0.81873759  1
  H  H21  1  0.79426341  0.80396821  0.81873759  1
  H  H22  1  0.40320886  0.17801464  0.99262701  1
  H  H23  1  0.40320886  0.82198536  0.99262701  1
  H  H24  1  0.59679114  0.32198536  0.49262701  1
  H  H25  1  0.59679114  0.67801464  0.49262701  1
  H  H26  1  0.64658154  0.25262465  0.99942273  1
  H  H27  1  0.64658154  0.74737535  0.99942273  1
  H  H28  1  0.35341846  0.24737535  0.49942273  1
  H  H29  1  0.35341846  0.75262465  0.49942273  1
  O  O30  1  0.00846164  0.00000000  0.16102144  1
  O  O31  1  0.99153836  0.50000000  0.66102144  1
  O  O32  1  0.26462130  -0.00000000  0.95230672  1
  O  O33  1  0.73537870  0.50000000  0.45230672  1
  O  O34  1  0.88016244  0.19609635  0.95560636  1
  O  O35  1  0.88016244  0.80390365  0.95560636  1
  O  O36  1  0.11983756  0.30390365  0.45560636  1
  O  O37  1  0.11983756  0.69609635  0.45560636  1
  O  O38  1  0.26899567  0.28059004  0.23713903  1
  O  O39  1  0.26899567  0.71940996  0.23713903  1
  O  O40  1  0.73100433  0.21940996  0.73713903  1
  O  O41  1  0.73100433  0.78059004  0.73713903  1
  O  O42  1  0.49224036  0.29126234  0.01194629  1
  O  O43  1  0.49224036  0.70873766  0.01194629  1
  O  O44  1  0.50775964  0.20873766  0.51194629  1
  O  O45  1  0.50775964  0.79126234  0.51194629  1
  O  O46  1  0.67678955  0.50000000  0.21012099  1
  O  O47  1  0.32321045  -0.00000000  0.71012099  1
  O  O48  1  0.10386258  0.50000000  0.00945178  1
  O  O49  1  0.89613742  0.00000000  0.50945178  1
