# generated using pymatgen
data_K3AlF6
_symmetry_space_group_name_H-M   'P 1'
_cell_length_a   8.73553402
_cell_length_b   10.52726914
_cell_length_c   10.52726914
_cell_angle_alpha   80.08760045
_cell_angle_beta   65.48695984
_cell_angle_gamma   65.48695984
_symmetry_Int_Tables_number   1
_chemical_formula_structural   K3AlF6
_chemical_formula_sum   'K15 Al5 F30'
_cell_volume   801.45032839
_cell_formula_units_Z   5
loop_
 _symmetry_equiv_pos_site_id
 _symmetry_equiv_pos_as_xyz
  1  'x, y, z'
loop_
 _atom_site_type_symbol
 _atom_site_label
 _atom_site_symmetry_multiplicity
 _atom_site_fract_x
 _atom_site_fract_y
 _atom_site_fract_z
 _atom_site_occupancy
  K  K0  1  0.25000000  0.50000000  0.50000000  1
  K  K1  1  0.75000000  0.50000000  0.50000000  1
  K  K2  1  0.51620133  0.31767233  0.10427810  1
  K  K3  1  0.93815176  0.68232767  0.89572190  1
  K  K4  1  0.83387366  0.10427810  0.68232767  1
  K  K5  1  0.62047943  0.89572190  0.31767233  1
  K  K6  1  0.48379867  0.68232767  0.89572190  1
  K  K7  1  0.06184824  0.31767233  0.10427810  1
  K  K8  1  0.16612634  0.89572190  0.31767233  1
  K  K9  1  0.37952057  0.10427810  0.68232767  1
  K  K10  1  0.50000000  -0.00000000  0.00000000  1
  K  K11  1  0.08595172  0.64574508  0.18235149  1
  K  K12  1  0.91404828  0.35425492  0.81764851  1
  K  K13  1  0.73169679  0.18235149  0.35425492  1
  K  K14  1  0.26830321  0.81764851  0.64574508  1
  Al  Al15  1  -0.00000000  -0.00000000  0.00000000  1
  Al  Al16  1  0.59373084  0.60508746  0.20745085  1
  Al  Al17  1  0.40626916  0.39491254  0.79254915  1
  Al  Al18  1  0.19881831  0.20745085  0.39491254  1
  Al  Al19  1  0.80118169  0.79254915  0.60508746  1
  F  F20  1  0.87925904  0.18621383  0.05526808  1
  F  F21  1  0.12074096  0.81378617  0.94473192  1
  F  F22  1  0.06547287  0.05526808  0.81378617  1
  F  F23  1  0.93452713  0.94473192  0.18621383  1
  F  F24  1  0.79127643  0.00000000  0.00000000  1
  F  F25  1  0.20872357  1.00000000  1.00000000  1
  F  F26  1  0.54986777  0.77628557  0.12397890  1
  F  F27  1  0.45013223  0.22371443  0.87602110  1
  F  F28  1  0.32615334  0.12397890  0.22371443  1
  F  F29  1  0.67384666  0.87602110  0.77628557  1
  F  F30  1  0.46376757  0.69241986  0.38004501  1
  F  F31  1  0.53623243  0.30758014  0.61995499  1
  F  F32  1  0.15618743  0.38004501  0.30758014  1
  F  F33  1  0.84381257  0.61995499  0.69241986  1
  F  F34  1  0.63600309  0.43656815  0.29142566  1
  F  F35  1  0.36399691  0.56343185  0.70857434  1
  F  F36  1  0.07257124  0.29142566  0.56343185  1
  F  F37  1  0.92742876  0.70857434  0.43656815  1
  F  F38  1  0.72276372  0.52266551  0.03180705  1
  F  F39  1  0.27723628  0.47733449  0.96819295  1
  F  F40  1  0.24542923  0.03180705  0.47733449  1
  F  F41  1  0.75457077  0.96819295  0.52266551  1
  F  F42  1  0.38242618  0.60746142  0.20427427  1
  F  F43  1  0.19416187  0.39253858  0.79572573  1
  F  F44  1  0.98988760  0.20427427  0.39253858  1
  F  F45  1  0.58670046  0.79572573  0.60746142  1
  F  F46  1  0.61757382  0.39253858  0.79572573  1
  F  F47  1  0.80583813  0.60746142  0.20427427  1
  F  F48  1  0.01011240  0.79572573  0.60746142  1
  F  F49  1  0.41329954  0.20427427  0.39253858  1
