# generated using pymatgen
data_H4PbI3N
_symmetry_space_group_name_H-M   'P 1'
_cell_length_a   4.97227010
_cell_length_b   10.81597303
_cell_length_c   16.96162745
_cell_angle_alpha   90.00000000
_cell_angle_beta   90.00000000
_cell_angle_gamma   90.00000000
_symmetry_Int_Tables_number   1
_chemical_formula_structural   H4PbI3N
_chemical_formula_sum   'H16 Pb4 I12 N4'
_cell_volume   912.19529468
_cell_formula_units_Z   4
loop_
 _symmetry_equiv_pos_site_id
 _symmetry_equiv_pos_as_xyz
  1  'x, y, z'
loop_
 _atom_site_type_symbol
 _atom_site_label
 _atom_site_symmetry_multiplicity
 _atom_site_fract_x
 _atom_site_fract_y
 _atom_site_fract_z
 _atom_site_occupancy
  H  H0  1  0.25000000  0.53766273  0.22998333  1
  H  H1  1  0.25000000  0.03766273  0.27001667  1
  H  H2  1  0.75000000  0.46233727  0.77001667  1
  H  H3  1  0.75000000  0.96233727  0.72998333  1
  H  H4  1  0.25000000  0.52264609  0.12982213  1
  H  H5  1  0.25000000  0.02264609  0.37017787  1
  H  H6  1  0.75000000  0.47735391  0.87017787  1
  H  H7  1  0.75000000  0.97735391  0.62982213  1
  H  H8  1  0.08186143  0.64078936  0.17408852  1
  H  H9  1  0.41813857  0.14078936  0.32591148  1
  H  H10  1  0.58186143  0.35921064  0.82591148  1
  H  H11  1  0.91813857  0.85921064  0.67408852  1
  H  H12  1  0.91813857  0.35921064  0.82591148  1
  H  H13  1  0.58186143  0.85921064  0.67408852  1
  H  H14  1  0.41813857  0.64078936  0.17408852  1
  H  H15  1  0.08186143  0.14078936  0.32591148  1
  Pb  Pb16  1  0.25000000  0.83046008  0.94229976  1
  Pb  Pb17  1  0.25000000  0.33046008  0.55770024  1
  Pb  Pb18  1  0.75000000  0.16953992  0.05770024  1
  Pb  Pb19  1  0.75000000  0.66953992  0.44229976  1
  I  I20  1  0.75000000  0.00900855  0.88368335  1
  I  I21  1  0.75000000  0.50900855  0.61631665  1
  I  I22  1  0.25000000  0.99099145  0.11631665  1
  I  I23  1  0.25000000  0.49099145  0.38368335  1
  I  I24  1  0.25000000  0.69896156  0.78109824  1
  I  I25  1  0.25000000  0.19896156  0.71890176  1
  I  I26  1  0.75000000  0.30103844  0.21890176  1
  I  I27  1  0.75000000  0.80103844  0.28109824  1
  I  I28  1  0.75000000  0.66123118  0.00710454  1
  I  I29  1  0.75000000  0.16123118  0.49289546  1
  I  I30  1  0.25000000  0.33876882  0.99289546  1
  I  I31  1  0.25000000  0.83876882  0.50710454  1
  N  N32  1  0.25000000  0.58487543  0.17638834  1
  N  N33  1  0.25000000  0.08487543  0.32361166  1
  N  N34  1  0.75000000  0.41512457  0.82361166  1
  N  N35  1  0.75000000  0.91512457  0.67638834  1
