# generated using pymatgen
data_ZnCr6Si2Pb10(O16F)2
_symmetry_space_group_name_H-M   'P 1'
_cell_length_a   9.65360639
_cell_length_b   10.11368662
_cell_length_c   10.15031249
_cell_angle_alpha   65.72374048
_cell_angle_beta   72.35806171
_cell_angle_gamma   69.36589183
_symmetry_Int_Tables_number   1
_chemical_formula_structural   ZnCr6Si2Pb10(O16F)2
_chemical_formula_sum   'Zn1 Cr6 Si2 Pb10 O32 F2'
_cell_volume   830.76704224
_cell_formula_units_Z   1
loop_
 _symmetry_equiv_pos_site_id
 _symmetry_equiv_pos_as_xyz
  1  'x, y, z'
loop_
 _atom_site_type_symbol
 _atom_site_label
 _atom_site_symmetry_multiplicity
 _atom_site_fract_x
 _atom_site_fract_y
 _atom_site_fract_z
 _atom_site_occupancy
  Zn  Zn0  1  0.50000000  -0.00000000  0.50000000  1
  Cr  Cr1  1  0.03447991  0.64340063  0.28253322  1
  Cr  Cr2  1  0.96552009  0.35659937  0.71746678  1
  Cr  Cr3  1  0.74095002  0.84563206  0.98042329  1
  Cr  Cr4  1  0.25904998  0.15436794  0.01957671  1
  Cr  Cr5  1  0.76989723  0.16231184  0.51151278  1
  Cr  Cr6  1  0.23010277  0.83768816  0.48848722  1
  Si  Si7  1  0.47549436  0.33816195  0.20932160  1
  Si  Si8  1  0.52450564  0.66183805  0.79067840  1
  Pb  Pb9  1  0.37119314  0.73970824  0.14895249  1
  Pb  Pb10  1  0.62880686  0.26029176  0.85104751  1
  Pb  Pb11  1  0.34755968  0.34142242  0.56788270  1
  Pb  Pb12  1  0.65244032  0.65857758  0.43211730  1
  Pb  Pb13  1  0.17759023  0.96902966  0.79002791  1
  Pb  Pb14  1  0.82240977  0.03097034  0.20997209  1
  Pb  Pb15  1  0.14643421  0.25185509  0.32719290  1
  Pb  Pb16  1  0.85356579  0.74814491  0.67280710  1
  Pb  Pb17  1  0.76510807  0.47000394  0.08031542  1
  Pb  Pb18  1  0.23489193  0.52999606  0.91968458  1
  O  O19  1  0.97782738  0.51484298  0.26350060  1
  O  O20  1  0.02217262  0.48515702  0.73649940  1
  O  O21  1  0.18412729  0.56107118  0.36295527  1
  O  O22  1  0.81587271  0.43892882  0.63704473  1
  O  O23  1  0.11218549  0.26365219  0.61715772  1
  O  O24  1  0.88781451  0.73634781  0.38284228  1
  O  O25  1  0.08321158  0.76619601  0.12041247  1
  O  O26  1  0.91678842  0.23380399  0.87958753  1
  O  O27  1  0.64981603  0.72858959  0.13010178  1
  O  O28  1  0.35018397  0.27141041  0.86989822  1
  O  O29  1  0.63360756  0.94239430  0.85769570  1
  O  O30  1  0.36639244  0.05760570  0.14230430  1
  O  O31  1  0.78517194  0.96780795  0.02196424  1
  O  O32  1  0.21482806  0.03219205  0.97803576  1
  O  O33  1  0.89467699  0.73487465  0.90862195  1
  O  O34  1  0.10532301  0.26512535  0.09137805  1
  O  O35  1  0.89256704  0.08451229  0.62030418  1
  O  O36  1  0.10743296  0.91548771  0.37969582  1
  O  O37  1  0.85053562  0.25675087  0.34525112  1
  O  O38  1  0.14946438  0.74324913  0.65474888  1
  O  O39  1  0.71765401  0.02646153  0.49314367  1
  O  O40  1  0.28234599  0.97353847  0.50685633  1
  O  O41  1  0.61917583  0.27949750  0.58106179  1
  O  O42  1  0.38082417  0.72050250  0.41893821  1
  O  O43  1  0.51260409  0.48837946  0.20544502  1
  O  O44  1  0.48739591  0.51162054  0.79455498  1
  O  O45  1  0.43023613  0.22962006  0.38261741  1
  O  O46  1  0.56976387  0.77037994  0.61738259  1
  O  O47  1  0.36634061  0.74211091  0.88336775  1
  O  O48  1  0.63365939  0.25788909  0.11663225  1
  O  O49  1  0.32624652  0.38412514  0.13789378  1
  O  O50  1  0.67375348  0.61587486  0.86210622  1
  F  F51  1  0.39093908  0.06929431  0.67847985  1
  F  F52  1  0.60906092  0.93070569  0.32152015  1
