# generated using pymatgen
data_Sr3LaCu2HgBiO10
_symmetry_space_group_name_H-M   'P 1'
_cell_length_a   3.82846551
_cell_length_b   7.74024447
_cell_length_c   9.59161014
_cell_angle_alpha   66.12026109
_cell_angle_beta   90.04643424
_cell_angle_gamma   89.80225077
_symmetry_Int_Tables_number   1
_chemical_formula_structural   Sr3LaCu2HgBiO10
_chemical_formula_sum   'Sr3 La1 Cu2 Hg1 Bi1 O10'
_cell_volume   259.89741099
_cell_formula_units_Z   1
loop_
 _symmetry_equiv_pos_site_id
 _symmetry_equiv_pos_as_xyz
  1  'x, y, z'
loop_
 _atom_site_type_symbol
 _atom_site_label
 _atom_site_symmetry_multiplicity
 _atom_site_fract_x
 _atom_site_fract_y
 _atom_site_fract_z
 _atom_site_occupancy
  Sr  Sr0  1  0.49667929  0.10422368  0.29769044  1
  Sr  Sr1  1  0.49816490  0.60132250  0.29362882  1
  Sr  Sr2  1  0.49741226  0.89840180  0.69827361  1
  La  La3  1  0.49985685  0.40159805  0.69836932  1
  Cu  Cu4  1  0.99790948  0.24552865  0.50795113  1
  Cu  Cu5  1  0.99757590  0.75457857  0.49356853  1
  Hg  Hg6  1  0.99532811  0.49743043  0.00369206  1
  Bi  Bi7  1  0.95766607  0.99654655  0.99984004  1
  O  O8  1  0.00356581  0.39395022  0.23560029  1
  O  O9  1  0.99681271  0.49327258  0.51614735  1
  O  O10  1  0.00096636  0.87543686  0.24569632  1
  O  O11  1  0.99639644  0.00319351  0.49404647  1
  O  O12  1  0.53382803  0.19345906  0.98888285  1
  O  O13  1  0.49802529  0.25158484  0.51014425  1
  O  O14  1  0.49757979  0.74331218  0.50153463  1
  O  O15  1  0.52434425  0.81867631  0.99488471  1
  O  O16  1  0.00311943  0.13296799  0.74908345  1
  O  O17  1  0.00476904  0.59451622  0.77096573  1
