# generated using pymatgen
data_Sc(Ga5Mo)8
_symmetry_space_group_name_H-M   'P 1'
_cell_length_a   9.63097544
_cell_length_b   9.63097544
_cell_length_c   9.63097499
_cell_angle_alpha   94.71946869
_cell_angle_beta   94.71946869
_cell_angle_gamma   94.71946675
_symmetry_Int_Tables_number   1
_chemical_formula_structural   Sc(Ga5Mo)8
_chemical_formula_sum   'Sc1 Ga40 Mo8'
_cell_volume   883.70723463
_cell_formula_units_Z   1
loop_
 _symmetry_equiv_pos_site_id
 _symmetry_equiv_pos_as_xyz
  1  'x, y, z'
loop_
 _atom_site_type_symbol
 _atom_site_label
 _atom_site_symmetry_multiplicity
 _atom_site_fract_x
 _atom_site_fract_y
 _atom_site_fract_z
 _atom_site_occupancy
  Sc  Sc0  1  0.00000000  0.00000000  0.00000000  1
  Ga  Ga1  1  0.50000000  0.50000000  0.50000000  1
  Ga  Ga2  1  0.50000000  0.00000000  0.50000000  1
  Ga  Ga3  1  0.00000000  0.50000000  0.50000000  1
  Ga  Ga4  1  0.50000000  0.50000000  0.00000000  1
  Ga  Ga5  1  0.63674740  0.26866522  0.61168128  1
  Ga  Ga6  1  0.26866522  0.61168128  0.63674740  1
  Ga  Ga7  1  0.61168128  0.63674740  0.26866522  1
  Ga  Ga8  1  0.36325260  0.73133478  0.38831872  1
  Ga  Ga9  1  0.73133478  0.38831872  0.36325260  1
  Ga  Ga10  1  0.38831872  0.36325260  0.73133478  1
  Ga  Ga11  1  0.77904030  0.67603852  0.53705809  1
  Ga  Ga12  1  0.67603852  0.53705809  0.77904030  1
  Ga  Ga13  1  0.53705809  0.77904030  0.67603852  1
  Ga  Ga14  1  0.22095970  0.32396148  0.46294191  1
  Ga  Ga15  1  0.32396148  0.46294191  0.22095970  1
  Ga  Ga16  1  0.46294191  0.22095970  0.32396148  1
  Ga  Ga17  1  0.07205634  0.78005989  0.45190166  1
  Ga  Ga18  1  0.78005989  0.45190166  0.07205634  1
  Ga  Ga19  1  0.45190166  0.07205634  0.78005989  1
  Ga  Ga20  1  0.92794366  0.21994011  0.54809834  1
  Ga  Ga21  1  0.21994011  0.54809834  0.92794366  1
  Ga  Ga22  1  0.54809834  0.92794366  0.21994011  1
  Ga  Ga23  1  0.78554404  0.96704574  0.59824362  1
  Ga  Ga24  1  0.96704574  0.59824362  0.78554404  1
  Ga  Ga25  1  0.59824362  0.78554404  0.96704574  1
  Ga  Ga26  1  0.21445596  0.03295426  0.40175638  1
  Ga  Ga27  1  0.03295426  0.40175638  0.21445596  1
  Ga  Ga28  1  0.40175638  0.21445596  0.03295426  1
  Ga  Ga29  1  0.73221088  0.05445365  0.87007970  1
  Ga  Ga30  1  0.05445365  0.87007970  0.73221088  1
  Ga  Ga31  1  0.87007970  0.73221088  0.05445365  1
  Ga  Ga32  1  0.26778912  0.94554635  0.12992030  1
  Ga  Ga33  1  0.94554635  0.12992030  0.26778912  1
  Ga  Ga34  1  0.12992030  0.26778912  0.94554635  1
  Ga  Ga35  1  0.17407709  0.12289151  0.68453195  1
  Ga  Ga36  1  0.12289151  0.68453195  0.17407709  1
  Ga  Ga37  1  0.68453195  0.17407709  0.12289151  1
  Ga  Ga38  1  0.82592291  0.87710849  0.31546805  1
  Ga  Ga39  1  0.87710849  0.31546805  0.82592291  1
  Ga  Ga40  1  0.31546805  0.82592291  0.87710849  1
  Mo  Mo41  1  0.79875320  0.79875320  0.79875320  1
  Mo  Mo42  1  0.20124680  0.20124680  0.20124680  1
  Mo  Mo43  1  0.61129355  0.29374777  0.88745789  1
  Mo  Mo44  1  0.29374777  0.88745789  0.61129355  1
  Mo  Mo45  1  0.88745789  0.61129355  0.29374777  1
  Mo  Mo46  1  0.38870645  0.70625223  0.11254211  1
  Mo  Mo47  1  0.70625223  0.11254211  0.38870645  1
  Mo  Mo48  1  0.11254211  0.38870645  0.70625223  1
