# generated using pymatgen
data_Nd4(SiS4)3
_symmetry_space_group_name_H-M   'P 1'
_cell_length_a   7.98855327
_cell_length_b   11.43594967
_cell_length_c   11.43594964
_cell_angle_alpha   114.75077091
_cell_angle_beta   103.46487104
_cell_angle_gamma   103.46487100
_symmetry_Int_Tables_number   1
_chemical_formula_structural   Nd4(SiS4)3
_chemical_formula_sum   'Nd8 Si6 S24'
_cell_volume   855.72443962
_cell_formula_units_Z   2
loop_
 _symmetry_equiv_pos_site_id
 _symmetry_equiv_pos_as_xyz
  1  'x, y, z'
loop_
 _atom_site_type_symbol
 _atom_site_label
 _atom_site_symmetry_multiplicity
 _atom_site_fract_x
 _atom_site_fract_y
 _atom_site_fract_z
 _atom_site_occupancy
  Nd  Nd0  1  0.50184056  -0.00000000  -0.00000000  1
  Nd  Nd1  1  0.00184056  -0.00000000  -0.00000000  1
  Nd  Nd2  1  0.79294871  0.76492886  0.22457993  1
  Nd  Nd3  1  0.56836878  0.77542007  0.54034894  1
  Nd  Nd4  1  0.02801985  0.45965106  0.23507114  1
  Nd  Nd5  1  0.29294871  0.22457993  0.76492886  1
  Nd  Nd6  1  0.52801985  0.23507114  0.45965106  1
  Nd  Nd7  1  0.06836878  0.54034894  0.77542007  1
  Si  Si8  1  0.36019001  0.82702379  0.21317620  1
  Si  Si9  1  0.14701380  0.78682380  0.61384759  1
  Si  Si10  1  0.53316622  0.38615241  0.17297621  1
  Si  Si11  1  0.86019001  0.21317620  0.82702379  1
  Si  Si12  1  0.03316622  0.17297621  0.38615241  1
  Si  Si13  1  0.64701380  0.61384759  0.78682380  1
  S  S14  1  0.60846658  0.92619237  0.39251766  1
  S  S15  1  0.21594892  0.60748234  0.53367471  1
  S  S16  1  0.68227422  0.46632529  0.07380763  1
  S  S17  1  0.10846658  0.39251766  0.92619237  1
  S  S18  1  0.18227422  0.07380763  0.46632529  1
  S  S19  1  0.71594892  0.53367471  0.60748234  1
  S  S20  1  0.31281720  0.99513784  0.18574571  1
  S  S21  1  0.12707149  0.81425429  0.80939214  1
  S  S22  1  0.31767936  0.19060786  0.00486216  1
  S  S23  1  0.81281720  0.18574571  0.99513784  1
  S  S24  1  0.81767936  0.00486216  0.19060786  1
  S  S25  1  0.62707149  0.80939214  0.81425429  1
  S  S26  1  0.41351932  0.71427539  0.03401930  1
  S  S27  1  0.37950002  0.96598070  0.68025609  1
  S  S28  1  0.69924393  0.31974391  0.28572461  1
  S  S29  1  0.91351932  0.03401930  0.71427539  1
  S  S30  1  0.19924393  0.28572461  0.31974391  1
  S  S31  1  0.87950002  0.68025609  0.96598070  1
  S  S32  1  0.15292007  0.73135426  0.26847491  1
  S  S33  1  0.88444516  0.73152509  0.46287935  1
  S  S34  1  0.42156581  0.53712065  0.26864574  1
  S  S35  1  0.65292007  0.26847491  0.73135426  1
  S  S36  1  0.92156581  0.26864574  0.53712065  1
  S  S37  1  0.38444516  0.46287935  0.73152509  1
