# generated using pymatgen
data_CaH8(NO5)2
_symmetry_space_group_name_H-M   'P 1'
_cell_length_a   9.25340071
_cell_length_b   12.76281320
_cell_length_c   14.99882904
_cell_angle_alpha   106.06729629
_cell_angle_beta   90.00000000
_cell_angle_gamma   90.00000000
_symmetry_Int_Tables_number   1
_chemical_formula_structural   CaH8(NO5)2
_chemical_formula_sum   'Ca8 H64 N16 O80'
_cell_volume   1702.15922098
_cell_formula_units_Z   8
loop_
 _symmetry_equiv_pos_site_id
 _symmetry_equiv_pos_as_xyz
  1  'x, y, z'
loop_
 _atom_site_type_symbol
 _atom_site_label
 _atom_site_symmetry_multiplicity
 _atom_site_fract_x
 _atom_site_fract_y
 _atom_site_fract_z
 _atom_site_occupancy
  Ca  Ca0  1  0.08935379  0.58419789  0.13427114  1
  Ca  Ca1  1  0.41064621  0.08419789  0.63427114  1
  Ca  Ca2  1  0.91064621  0.41580211  0.86572886  1
  Ca  Ca3  1  0.58935379  0.91580211  0.36572886  1
  Ca  Ca4  1  0.08854387  0.09337940  0.13337264  1
  Ca  Ca5  1  0.41145613  0.59337940  0.63337264  1
  Ca  Ca6  1  0.91145613  0.90662060  0.86662736  1
  Ca  Ca7  1  0.58854387  0.40662060  0.36662736  1
  H  H8  1  0.00432192  0.37493549  0.18013080  1
  H  H9  1  0.49567808  0.87493549  0.68013080  1
  H  H10  1  0.99567808  0.62506451  0.81986920  1
  H  H11  1  0.50432192  0.12506451  0.31986920  1
  H  H12  1  0.11487885  0.43745923  0.25735084  1
  H  H13  1  0.38512115  0.93745923  0.75735084  1
  H  H14  1  0.88512115  0.56254077  0.74264916  1
  H  H15  1  0.61487885  0.06254077  0.24264916  1
  H  H16  1  0.29424391  0.38365420  0.10840472  1
  H  H17  1  0.20575609  0.88365420  0.60840472  1
  H  H18  1  0.70575609  0.61634580  0.89159528  1
  H  H19  1  0.79424391  0.11634580  0.39159528  1
  H  H20  1  0.37387146  0.47133572  0.07044203  1
  H  H21  1  0.12612854  0.97133572  0.57044203  1
  H  H22  1  0.62612854  0.52866428  0.92955797  1
  H  H23  1  0.87387146  0.02866428  0.42955797  1
  H  H24  1  0.35910367  0.72918452  0.14616865  1
  H  H25  1  0.14089633  0.22918452  0.64616865  1
  H  H26  1  0.64089633  0.27081548  0.85383135  1
  H  H27  1  0.85910367  0.77081548  0.35383135  1
  H  H28  1  0.31164747  0.68191281  0.04313410  1
  H  H29  1  0.18835253  0.18191281  0.54313410  1
  H  H30  1  0.68835253  0.31808719  0.95686590  1
  H  H31  1  0.81164747  0.81808719  0.45686590  1
  H  H32  1  0.99558989  0.80704296  0.12981229  1
  H  H33  1  0.50441011  0.30704296  0.62981229  1
  H  H34  1  0.00441011  0.19295704  0.87018771  1
  H  H35  1  0.49558989  0.69295704  0.37018771  1
  H  H36  1  0.85918389  0.73833649  0.08752248  1
  H  H37  1  0.64081611  0.23833649  0.58752248  1
  H  H38  1  0.14081611  0.26166351  0.91247752  1
  H  H39  1  0.35918389  0.76166351  0.41247752  1
  H  H40  1  0.95239324  0.96410500  0.25393475  1
  H  H41  1  0.54760676  0.46410500  0.75393475  1
  H  H42  1  0.04760676  0.03589500  0.74606525  1
  H  H43  1  0.45239324  0.53589500  0.24606525  1
  H  H44  1  0.11866835  0.93867705  0.25162902  1
  H  H45  1  0.38133165  0.43867705  0.75162902  1
  H  H46  1  0.88133165  0.06132295  0.74837098  1
  H  H47  1  0.61866835  0.56132295  0.24837098  1
  H  H48  1  0.37417855  0.00333397  0.18175242  1
  H  H49  1  0.12582145  0.50333397  0.68175242  1
  H  H50  1  0.62582145  0.99666603  0.81824758  1
  H  H51  1  0.87417855  0.49666603  0.31824758  1
  H  H52  1  0.37553255  0.98108408  0.07438354  1
  H  H53  1  0.12446745  0.48108408  0.57438354  1
  H  H54  1  0.62446745  0.01891592  0.92561646  1
  H  H55  1  0.87553255  0.51891592  0.42561646  1
  H  H56  1  0.35653253  0.23444322  0.14465191  1
  H  H57  1  0.14346747  0.73444322  0.64465191  1
  H  H58  1  0.64346747  0.76555678  0.85534809  1
  H  H59  1  0.85653253  0.26555678  0.35534809  1
  H  H60  1  0.31267457  0.18651275  0.04101758  1
  H  H61  1  0.18732543  0.68651275  0.54101758  1
  H  H62  1  0.68732543  0.81348725  0.95898242  1
  H  H63  1  0.81267457  0.31348725  0.45898242  1
  H  H64  1  0.98556282  0.24866161  0.02445781  1
  H  H65  1  0.51443718  0.74866161  0.52445781  1
  H  H66  1  0.01443718  0.75133839  0.97554219  1
  H  H67  1  0.48556282  0.25133839  0.47554219  1
  H  H68  1  0.85339557  0.24099637  0.08908264  1
  H  H69  1  0.64660443  0.74099637  0.58908264  1
  H  H70  1  0.14660443  0.75900363  0.91091736  1
  H  H71  1  0.35339557  0.25900363  0.41091736  1
  N  N72  1  0.13233003  0.71111219  0.32946291  1
  N  N73  1  0.36766997  0.21111219  0.82946291  1
  N  N74  1  0.86766997  0.28888781  0.67053709  1
  N  N75  1  0.63233003  0.78888781  0.17053709  1
  N  N76  1  0.76209867  0.51037856  0.09418139  1
  N  N77  1  0.73790133  0.01037856  0.59418139  1
  N  N78  1  0.23790133  0.48962144  0.90581861  1
  N  N79  1  0.26209867  0.98962144  0.40581861  1
  N  N80  1  0.12114934  0.21727609  0.33054325  1
  N  N81  1  0.37885066  0.71727609  0.83054325  1
  N  N82  1  0.87885066  0.78272391  0.66945675  1
  N  N83  1  0.62114934  0.28272391  0.16945675  1
  N  N84  1  0.76411794  0.00769118  0.08998532  1
  N  N85  1  0.73588206  0.50769118  0.58998532  1
  N  N86  1  0.23588206  0.99230882  0.91001468  1
  N  N87  1  0.26411794  0.49230882  0.41001468  1
  O  O88  1  0.01304059  0.71777906  0.28807725  1
  O  O89  1  0.48695941  0.21777906  0.78807725  1
  O  O90  1  0.98695941  0.28222094  0.71192275  1
  O  O91  1  0.51304059  0.78222094  0.21192275  1
  O  O92  1  0.22806699  0.64731534  0.28364184  1
  O  O93  1  0.27193301  0.14731534  0.78364184  1
  O  O94  1  0.77193301  0.35268466  0.71635816  1
  O  O95  1  0.72806699  0.85268466  0.21635816  1
  O  O96  1  0.15447526  0.76573086  0.41161822  1
  O  O97  1  0.34552474  0.26573086  0.91161822  1
  O  O98  1  0.84552474  0.23426914  0.58838178  1
  O  O99  1  0.65447526  0.73426914  0.08838178  1
  O  O100  1  0.87711126  0.49007863  0.04303671  1
  O  O101  1  0.62288874  0.99007863  0.54303671  1
  O  O102  1  0.12288874  0.50992137  0.95696329  1
  O  O103  1  0.37711126  0.00992137  0.45696329  1
  O  O104  1  0.77606766  0.57034919  0.17607721  1
  O  O105  1  0.72393234  0.07034919  0.67607721  1
  O  O106  1  0.22393234  0.42965081  0.82392279  1
  O  O107  1  0.27606766  0.92965081  0.32392279  1
  O  O108  1  0.64311598  0.47119799  0.06196669  1
  O  O109  1  0.85688402  0.97119799  0.56196669  1
  O  O110  1  0.35688402  0.52880201  0.93803331  1
  O  O111  1  0.14311598  0.02880201  0.43803331  1
  O  O112  1  0.27413493  0.70143904  0.10644913  1
  O  O113  1  0.22586507  0.20143904  0.60644913  1
  O  O114  1  0.72586507  0.29856096  0.89355087  1
  O  O115  1  0.77413493  0.79856096  0.39355087  1
  O  O116  1  0.30640206  0.46289702  0.11811428  1
  O  O117  1  0.19359794  0.96289702  0.61811428  1
  O  O118  1  0.69359794  0.53710298  0.88188572  1
  O  O119  1  0.80640206  0.03710298  0.38188572  1
  O  O120  1  0.96616102  0.73718941  0.08517218  1
  O  O121  1  0.53383898  0.23718941  0.58517218  1
  O  O122  1  0.03383898  0.26281059  0.91482782  1
  O  O123  1  0.46616102  0.76281059  0.41482782  1
  O  O124  1  0.03267079  0.44830981  0.21867195  1
  O  O125  1  0.46732921  0.94830981  0.71867195  1
  O  O126  1  0.96732921  0.55169019  0.78132805  1
  O  O127  1  0.53267079  0.05169019  0.28132805  1
  O  O128  1  0.00339921  0.22265585  0.28634516  1
  O  O129  1  0.49660079  0.72265585  0.78634516  1
  O  O130  1  0.99660079  0.77734415  0.71365484  1
  O  O131  1  0.50339921  0.27734415  0.21365484  1
  O  O132  1  0.22265910  0.16038569  0.28458843  1
  O  O133  1  0.27734090  0.66038569  0.78458843  1
  O  O134  1  0.77734090  0.83961431  0.71541157  1
  O  O135  1  0.72265910  0.33961431  0.21541157  1
  O  O136  1  0.13499588  0.26636387  0.41460777  1
  O  O137  1  0.36500412  0.76636387  0.91460777  1
  O  O138  1  0.86500412  0.73363613  0.58539223  1
  O  O139  1  0.63499588  0.23363613  0.08539223  1
  O  O140  1  0.87906997  0.98655000  0.03942659  1
  O  O141  1  0.62093003  0.48655000  0.53942659  1
  O  O142  1  0.12093003  0.01345000  0.96057341  1
  O  O143  1  0.37906997  0.51345000  0.46057341  1
  O  O144  1  0.77738972  0.07047309  0.17099244  1
  O  O145  1  0.72261028  0.57047309  0.67099244  1
  O  O146  1  0.22261028  0.92952691  0.82900756  1
  O  O147  1  0.27738972  0.42952691  0.32900756  1
  O  O148  1  0.64554346  0.96649844  0.05852526  1
  O  O149  1  0.85445654  0.46649844  0.55852526  1
  O  O150  1  0.35445654  0.03350156  0.94147474  1
  O  O151  1  0.14554346  0.53350156  0.44147474  1
  O  O152  1  0.27226494  0.22594425  0.10157867  1
  O  O153  1  0.22773506  0.72594425  0.60157867  1
  O  O154  1  0.72773506  0.77405575  0.89842133  1
  O  O155  1  0.77226494  0.27405575  0.39842133  1
  O  O156  1  0.31062731  0.98857543  0.12696639  1
  O  O157  1  0.18937269  0.48857543  0.62696639  1
  O  O158  1  0.68937269  0.01142457  0.87303361  1
  O  O159  1  0.81062731  0.51142457  0.37303361  1
  O  O160  1  0.95967524  0.23980466  0.08663984  1
  O  O161  1  0.54032476  0.73980466  0.58663984  1
  O  O162  1  0.04032476  0.76019534  0.91336016  1
  O  O163  1  0.45967524  0.26019534  0.41336016  1
  O  O164  1  0.03603808  0.94782949  0.21213032  1
  O  O165  1  0.46396192  0.44782949  0.71213032  1
  O  O166  1  0.96396192  0.05217051  0.78786968  1
  O  O167  1  0.53603808  0.55217051  0.28786968  1
