# generated using pymatgen
data_TeAsHO5
_symmetry_space_group_name_H-M   'P 1'
_cell_length_a   6.06590551
_cell_length_b   7.71414007
_cell_length_c   10.09824500
_cell_angle_alpha   103.49525728
_cell_angle_beta   90.00000000
_cell_angle_gamma   90.00000000
_symmetry_Int_Tables_number   1
_chemical_formula_structural   TeAsHO5
_chemical_formula_sum   'Te4 As4 H4 O20'
_cell_volume   459.48274779
_cell_formula_units_Z   4
loop_
 _symmetry_equiv_pos_site_id
 _symmetry_equiv_pos_as_xyz
  1  'x, y, z'
loop_
 _atom_site_type_symbol
 _atom_site_label
 _atom_site_symmetry_multiplicity
 _atom_site_fract_x
 _atom_site_fract_y
 _atom_site_fract_z
 _atom_site_occupancy
  Te  Te0  1  0.37760454  0.62018293  0.92016693  1
  Te  Te1  1  0.87760454  0.37981707  0.57983307  1
  Te  Te2  1  0.62239546  0.37981707  0.07983307  1
  Te  Te3  1  0.12239546  0.62018293  0.42016693  1
  As  As4  1  0.13348436  0.21509325  0.91589260  1
  As  As5  1  0.63348436  0.78490675  0.58410740  1
  As  As6  1  0.86651564  0.78490675  0.08410740  1
  As  As7  1  0.36651564  0.21509325  0.41589260  1
  H  H8  1  0.19316799  0.06022062  0.69438662  1
  H  H9  1  0.69316799  0.93977938  0.80561338  1
  H  H10  1  0.80683201  0.93977938  0.30561338  1
  H  H11  1  0.30683201  0.06022062  0.19438662  1
  O  O12  1  0.38029924  0.57487744  0.10095696  1
  O  O13  1  0.88029924  0.42512256  0.39904304  1
  O  O14  1  0.61970076  0.42512256  0.89904304  1
  O  O15  1  0.11970076  0.57487744  0.60095696  1
  O  O16  1  0.89453045  0.20044935  0.00228697  1
  O  O17  1  0.39453045  0.79955065  0.49771303  1
  O  O18  1  0.10546955  0.79955065  0.99771303  1
  O  O19  1  0.60546955  0.20044935  0.50228697  1
  O  O20  1  0.15094060  0.40854210  0.85619888  1
  O  O21  1  0.65094060  0.59145790  0.64380112  1
  O  O22  1  0.84905940  0.59145790  0.14380112  1
  O  O23  1  0.34905940  0.40854210  0.35619888  1
  O  O24  1  0.35646513  0.18533193  0.01365189  1
  O  O25  1  0.85646513  0.81466807  0.48634811  1
  O  O26  1  0.64353487  0.81466807  0.98634811  1
  O  O27  1  0.14353487  0.18533193  0.51365189  1
  O  O28  1  0.10830677  0.03762843  0.77143745  1
  O  O29  1  0.60830677  0.96237157  0.72856255  1
  O  O30  1  0.89169323  0.96237157  0.22856255  1
  O  O31  1  0.39169323  0.03762843  0.27143745  1
