# generated using pymatgen
data_K5Li2EuF10
_symmetry_space_group_name_H-M   'P 1'
_cell_length_a   7.01101836
_cell_length_b   7.82892577
_cell_length_c   21.00531327
_cell_angle_alpha   90.00000000
_cell_angle_beta   90.00000000
_cell_angle_gamma   90.00000000
_symmetry_Int_Tables_number   1
_chemical_formula_structural   K5Li2EuF10
_chemical_formula_sum   'K20 Li8 Eu4 F40'
_cell_volume   1152.95522727
_cell_formula_units_Z   4
loop_
 _symmetry_equiv_pos_site_id
 _symmetry_equiv_pos_as_xyz
  1  'x, y, z'
loop_
 _atom_site_type_symbol
 _atom_site_label
 _atom_site_symmetry_multiplicity
 _atom_site_fract_x
 _atom_site_fract_y
 _atom_site_fract_z
 _atom_site_occupancy
  K  K0  1  0.75246960  0.02176722  0.04282411  1
  K  K1  1  0.74753040  0.47823278  0.54282411  1
  K  K2  1  0.24753040  0.52176722  0.95717589  1
  K  K3  1  0.25246960  0.97823278  0.45717589  1
  K  K4  1  0.24753040  0.97823278  0.95717589  1
  K  K5  1  0.25246960  0.52176722  0.45717589  1
  K  K6  1  0.75246960  0.47823278  0.04282411  1
  K  K7  1  0.74753040  0.02176722  0.54282411  1
  K  K8  1  0.92836364  0.97420557  0.21689464  1
  K  K9  1  0.57163636  0.52579443  0.71689464  1
  K  K10  1  0.07163636  0.47420557  0.78310536  1
  K  K11  1  0.42836364  0.02579443  0.28310536  1
  K  K12  1  0.07163636  0.02579443  0.78310536  1
  K  K13  1  0.42836364  0.47420557  0.28310536  1
  K  K14  1  0.92836364  0.52579443  0.21689464  1
  K  K15  1  0.57163636  0.97420557  0.71689464  1
  K  K16  1  0.43524376  0.75000000  0.13978752  1
  K  K17  1  0.06475624  0.75000000  0.63978752  1
  K  K18  1  0.56475624  0.25000000  0.86021248  1
  K  K19  1  0.93524376  0.25000000  0.36021248  1
  Li  Li20  1  0.46986896  0.75000000  0.57742871  1
  Li  Li21  1  0.03013104  0.75000000  0.07742871  1
  Li  Li22  1  0.53013104  0.25000000  0.42257129  1
  Li  Li23  1  0.96986896  0.25000000  0.92257129  1
  Li  Li24  1  0.34297701  0.75000000  0.82782063  1
  Li  Li25  1  0.15702299  0.75000000  0.32782063  1
  Li  Li26  1  0.65702299  0.25000000  0.17217937  1
  Li  Li27  1  0.84297701  0.25000000  0.67217937  1
  Eu  Eu28  1  0.74078526  0.75000000  0.39284935  1
  Eu  Eu29  1  0.75921474  0.75000000  0.89284935  1
  Eu  Eu30  1  0.25921474  0.25000000  0.60715065  1
  Eu  Eu31  1  0.24078526  0.25000000  0.10715065  1
  F  F32  1  0.54645092  0.75000000  0.49126140  1
  F  F33  1  0.95354908  0.75000000  0.99126140  1
  F  F34  1  0.45354908  0.25000000  0.50873860  1
  F  F35  1  0.04645092  0.25000000  0.00873860  1
  F  F36  1  0.94936691  0.75000000  0.47967453  1
  F  F37  1  0.55063309  0.75000000  0.97967453  1
  F  F38  1  0.05063309  0.25000000  0.52032547  1
  F  F39  1  0.44936691  0.25000000  0.02032547  1
  F  F40  1  0.65668694  0.03946085  0.40964936  1
  F  F41  1  0.84331306  0.46053915  0.90964936  1
  F  F42  1  0.34331306  0.53946085  0.59035064  1
  F  F43  1  0.15668694  0.96053915  0.09035064  1
  F  F44  1  0.34331306  0.96053915  0.59035064  1
  F  F45  1  0.15668694  0.53946085  0.09035064  1
  F  F46  1  0.65668694  0.46053915  0.40964936  1
  F  F47  1  0.84331306  0.03946085  0.90964936  1
  F  F48  1  0.99935031  0.92520462  0.35349884  1
  F  F49  1  0.50064969  0.57479538  0.85349884  1
  F  F50  1  0.00064969  0.42520462  0.64650116  1
  F  F51  1  0.49935031  0.07479538  0.14650116  1
  F  F52  1  0.00064969  0.07479538  0.64650116  1
  F  F53  1  0.49935031  0.42520462  0.14650116  1
  F  F54  1  0.99935031  0.57479538  0.35349884  1
  F  F55  1  0.50064969  0.92520462  0.85349884  1
  F  F56  1  0.69104083  0.75000000  0.28370968  1
  F  F57  1  0.80895917  0.75000000  0.78370968  1
  F  F58  1  0.30895917  0.25000000  0.71629032  1
  F  F59  1  0.19104083  0.25000000  0.21629032  1
  F  F60  1  0.81119511  0.75000000  0.12695875  1
  F  F61  1  0.68880489  0.75000000  0.62695875  1
  F  F62  1  0.18880489  0.25000000  0.87304125  1
  F  F63  1  0.31119511  0.25000000  0.37304125  1
  F  F64  1  0.29164438  0.75000000  0.74099698  1
  F  F65  1  0.20835562  0.75000000  0.24099698  1
  F  F66  1  0.70835562  0.25000000  0.25900302  1
  F  F67  1  0.79164438  0.25000000  0.75900302  1
  F  F68  1  0.10637363  0.75000000  0.86910639  1
  F  F69  1  0.39362637  0.75000000  0.36910639  1
  F  F70  1  0.89362637  0.25000000  0.13089361  1
  F  F71  1  0.60637363  0.25000000  0.63089361  1
