# generated using pymatgen
data_BaTeMo2O9
_symmetry_space_group_name_H-M   'P 1'
_cell_length_a   5.79168518
_cell_length_b   15.10439006
_cell_length_c   18.04993309
_cell_angle_alpha   90.00000000
_cell_angle_beta   90.00000000
_cell_angle_gamma   90.00000000
_symmetry_Int_Tables_number   1
_chemical_formula_structural   BaTeMo2O9
_chemical_formula_sum   'Ba8 Te8 Mo16 O72'
_cell_volume   1579.00583747
_cell_formula_units_Z   8
loop_
 _symmetry_equiv_pos_site_id
 _symmetry_equiv_pos_as_xyz
  1  'x, y, z'
loop_
 _atom_site_type_symbol
 _atom_site_label
 _atom_site_symmetry_multiplicity
 _atom_site_fract_x
 _atom_site_fract_y
 _atom_site_fract_z
 _atom_site_occupancy
  Ba  Ba0  1  0.02642617  0.66194447  0.29869022  1
  Ba  Ba1  1  0.97357383  0.33805553  0.79869022  1
  Ba  Ba2  1  0.02642617  0.83805553  0.79869022  1
  Ba  Ba3  1  0.97357383  0.16194447  0.29869022  1
  Ba  Ba4  1  0.51002997  0.90869275  0.23761211  1
  Ba  Ba5  1  0.48997003  0.09130725  0.73761211  1
  Ba  Ba6  1  0.51002997  0.59130725  0.73761211  1
  Ba  Ba7  1  0.48997003  0.40869275  0.23761211  1
  Te  Te8  1  0.15036144  0.71170356  0.57386992  1
  Te  Te9  1  0.84963856  0.28829644  0.07386992  1
  Te  Te10  1  0.15036144  0.78829644  0.07386992  1
  Te  Te11  1  0.84963856  0.21170356  0.57386992  1
  Te  Te12  1  0.64488953  0.03335333  0.46144071  1
  Te  Te13  1  0.35511047  0.96664667  0.96144071  1
  Te  Te14  1  0.64488953  0.46664667  0.96144071  1
  Te  Te15  1  0.35511047  0.53335333  0.46144071  1
  Mo  Mo16  1  0.51599461  0.75766748  0.42775358  1
  Mo  Mo17  1  0.48400539  0.24233252  0.92775358  1
  Mo  Mo18  1  0.51599461  0.74233252  0.92775358  1
  Mo  Mo19  1  0.48400539  0.25766748  0.42775358  1
  Mo  Mo20  1  0.51958181  0.83751133  0.64921765  1
  Mo  Mo21  1  0.48041819  0.16248867  0.14921765  1
  Mo  Mo22  1  0.51958181  0.66248867  0.14921765  1
  Mo  Mo23  1  0.48041819  0.33751133  0.64921765  1
  Mo  Mo24  1  0.01085873  0.98997979  0.60885306  1
  Mo  Mo25  1  0.98914127  0.01002021  0.10885306  1
  Mo  Mo26  1  0.01085873  0.51002021  0.10885306  1
  Mo  Mo27  1  0.98914127  0.48997979  0.60885306  1
  Mo  Mo28  1  0.02167184  0.91164072  0.38734044  1
  Mo  Mo29  1  0.97832816  0.08835928  0.88734044  1
  Mo  Mo30  1  0.02167184  0.58835928  0.88734044  1
  Mo  Mo31  1  0.97832816  0.41164072  0.38734044  1
  O  O32  1  0.17359143  0.83036990  0.44248032  1
  O  O33  1  0.82640857  0.16963010  0.94248032  1
  O  O34  1  0.17359143  0.66963010  0.94248032  1
  O  O35  1  0.82640857  0.33036990  0.44248032  1
  O  O36  1  0.25726994  0.65567854  0.44695766  1
  O  O37  1  0.74273006  0.34432146  0.94695766  1
  O  O38  1  0.25726994  0.84432146  0.94695766  1
  O  O39  1  0.74273006  0.15567854  0.44695766  1
  O  O40  1  0.44000616  0.76144283  0.33183749  1
  O  O41  1  0.55999384  0.23855717  0.83183749  1
  O  O42  1  0.44000616  0.73855717  0.83183749  1
  O  O43  1  0.55999384  0.26144283  0.33183749  1
  O  O44  1  0.73464324  0.67652251  0.42765824  1
  O  O45  1  0.26535676  0.32347749  0.92765824  1
  O  O46  1  0.73464324  0.82347749  0.92765824  1
  O  O47  1  0.26535676  0.17652251  0.42765824  1
  O  O48  1  0.95157574  0.85112082  0.30577486  1
  O  O49  1  0.04842426  0.14887918  0.80577486  1
  O  O50  1  0.95157574  0.64887918  0.80577486  1
  O  O51  1  0.04842426  0.35112082  0.30577486  1
  O  O52  1  0.24861022  0.98162540  0.35755717  1
  O  O53  1  0.75138978  0.01837460  0.85755717  1
  O  O54  1  0.24861022  0.51837460  0.85755717  1
  O  O55  1  0.75138978  0.48162540  0.35755717  1
  O  O56  1  0.75682941  0.00546650  0.36285024  1
  O  O57  1  0.24317059  0.99453350  0.86285024  1
  O  O58  1  0.75682941  0.49453350  0.86285024  1
  O  O59  1  0.24317059  0.50546650  0.36285024  1
  O  O60  1  0.68063628  0.85866752  0.43809225  1
  O  O61  1  0.31936372  0.14133248  0.93809225  1
  O  O62  1  0.68063628  0.64133248  0.93809225  1
  O  O63  1  0.31936372  0.35866752  0.43809225  1
  O  O64  1  0.45203467  0.75710356  0.54679941  1
  O  O65  1  0.54796533  0.24289644  0.04679941  1
  O  O66  1  0.45203467  0.74289644  0.04679941  1
  O  O67  1  0.54796533  0.25710356  0.54679941  1
  O  O68  1  0.25391539  0.59083308  0.58957407  1
  O  O69  1  0.74608461  0.40916692  0.08957407  1
  O  O70  1  0.25391539  0.90916692  0.08957407  1
  O  O71  1  0.74608461  0.09083308  0.58957407  1
  O  O72  1  0.25735564  0.74236290  0.67262682  1
  O  O73  1  0.74264436  0.25763710  0.17262682  1
  O  O74  1  0.25735564  0.75763710  0.17262682  1
  O  O75  1  0.74264436  0.24236290  0.67262682  1
  O  O76  1  0.44844117  0.90147530  0.72858910  1
  O  O77  1  0.55155883  0.09852470  0.22858910  1
  O  O78  1  0.44844117  0.59852470  0.22858910  1
  O  O79  1  0.55155883  0.40147530  0.72858910  1
  O  O80  1  0.67987942  0.91555966  0.59313289  1
  O  O81  1  0.32012058  0.08444034  0.09313289  1
  O  O82  1  0.67987942  0.58444034  0.09313289  1
  O  O83  1  0.32012058  0.41555966  0.59313289  1
  O  O84  1  0.74063018  0.76704233  0.68278581  1
  O  O85  1  0.25936982  0.23295767  0.18278581  1
  O  O86  1  0.74063018  0.73295767  0.18278581  1
  O  O87  1  0.25936982  0.26704233  0.68278581  1
  O  O88  1  0.94258100  0.98620014  0.70496569  1
  O  O89  1  0.05741900  0.01379986  0.20496569  1
  O  O90  1  0.94258100  0.51379986  0.20496569  1
  O  O91  1  0.05741900  0.48620014  0.70496569  1
  O  O92  1  0.22135010  0.07488340  0.60717204  1
  O  O93  1  0.77864990  0.92511660  0.10717204  1
  O  O94  1  0.22135010  0.42511660  0.10717204  1
  O  O95  1  0.77864990  0.57488340  0.60717204  1
  O  O96  1  0.18491298  0.89136998  0.59796087  1
  O  O97  1  0.81508702  0.10863002  0.09796087  1
  O  O98  1  0.18491298  0.60863002  0.09796087  1
  O  O99  1  0.81508702  0.39136998  0.59796087  1
  O  O100  1  0.94881284  0.99128878  0.48901736  1
  O  O101  1  0.05118716  0.00871122  0.98901736  1
  O  O102  1  0.94881284  0.50871122  0.98901736  1
  O  O103  1  0.05118716  0.49128878  0.48901736  1
