# generated using pymatgen
data_K3Mg18Sn11
_symmetry_space_group_name_H-M   'P 1'
_cell_length_a   11.91321663
_cell_length_b   11.91316890
_cell_length_c   13.93665564
_cell_angle_alpha   90.00000000
_cell_angle_beta   90.00000000
_cell_angle_gamma   120.00118902
_symmetry_Int_Tables_number   1
_chemical_formula_structural   K3Mg18Sn11
_chemical_formula_sum   'K6 Mg36 Sn22'
_cell_volume   1712.93283926
_cell_formula_units_Z   2
loop_
 _symmetry_equiv_pos_site_id
 _symmetry_equiv_pos_as_xyz
  1  'x, y, z'
loop_
 _atom_site_type_symbol
 _atom_site_label
 _atom_site_symmetry_multiplicity
 _atom_site_fract_x
 _atom_site_fract_y
 _atom_site_fract_z
 _atom_site_occupancy
  K  K0  1  0.66659790  0.33330189  0.08268648  1
  K  K1  1  0.33340210  0.66669811  0.58268648  1
  K  K2  1  0.33340210  0.66669811  0.91731352  1
  K  K3  1  0.66659790  0.33330189  0.41731352  1
  K  K4  1  0.33338281  0.66668999  0.25000000  1
  K  K5  1  0.66661719  0.33331001  0.75000000  1
  Mg  Mg6  1  0.10982780  0.85450422  0.25000000  1
  Mg  Mg7  1  0.14549504  0.25532619  0.25000000  1
  Mg  Mg8  1  0.74465838  0.89015823  0.25000000  1
  Mg  Mg9  1  0.89017220  0.14549578  0.75000000  1
  Mg  Mg10  1  0.85450496  0.74467381  0.75000000  1
  Mg  Mg11  1  0.25534162  0.10984177  0.75000000  1
  Mg  Mg12  1  0.85287037  0.73107129  0.08363978  1
  Mg  Mg13  1  0.26892886  0.12180196  0.08363953  1
  Mg  Mg14  1  0.87819497  0.14712599  0.08363912  1
  Mg  Mg15  1  0.14712963  0.26892871  0.58363978  1
  Mg  Mg16  1  0.73107114  0.87819804  0.58363953  1
  Mg  Mg17  1  0.12180503  0.85287401  0.58363912  1
  Mg  Mg18  1  0.14712963  0.26892871  0.91636022  1
  Mg  Mg19  1  0.73107114  0.87819804  0.91636047  1
  Mg  Mg20  1  0.12180503  0.85287401  0.91636088  1
  Mg  Mg21  1  0.85287037  0.73107129  0.41636022  1
  Mg  Mg22  1  0.26892886  0.12180196  0.41636047  1
  Mg  Mg23  1  0.87819497  0.14712599  0.41636088  1
  Mg  Mg24  1  0.62647435  0.56733086  0.25000000  1
  Mg  Mg25  1  0.43266707  0.05913952  0.25000000  1
  Mg  Mg26  1  0.94085649  0.37352667  0.25000000  1
  Mg  Mg27  1  0.37352565  0.43266914  0.75000000  1
  Mg  Mg28  1  0.56733293  0.94086048  0.75000000  1
  Mg  Mg29  1  0.05914351  0.62647333  0.75000000  1
  Mg  Mg30  1  0.05701242  0.62297727  0.08366611  1
  Mg  Mg31  1  0.37702201  0.43403244  0.08366616  1
  Mg  Mg32  1  0.56596953  0.94299326  0.08366579  1
  Mg  Mg33  1  0.94298758  0.37702273  0.58366611  1
  Mg  Mg34  1  0.62297799  0.56596756  0.58366616  1
  Mg  Mg35  1  0.43403047  0.05700674  0.58366579  1
  Mg  Mg36  1  0.94298758  0.37702273  0.91633389  1
  Mg  Mg37  1  0.62297799  0.56596756  0.91633384  1
  Mg  Mg38  1  0.43403047  0.05700674  0.91633421  1
  Mg  Mg39  1  0.05701242  0.62297727  0.41633389  1
  Mg  Mg40  1  0.37702201  0.43403244  0.41633384  1
  Mg  Mg41  1  0.56596953  0.94299326  0.41633421  1
  Sn  Sn42  1  0.00000011  0.00000023  0.14016737  1
  Sn  Sn43  1  0.99999989  -0.00000023  0.64016737  1
  Sn  Sn44  1  0.99999989  -0.00000023  0.85983263  1
  Sn  Sn45  1  0.00000011  0.00000023  0.35983263  1
  Sn  Sn46  1  0.29594013  0.88678686  0.08403453  1
  Sn  Sn47  1  0.11321567  0.40915522  0.08403401  1
  Sn  Sn48  1  0.59084986  0.70406051  0.08403451  1
  Sn  Sn49  1  0.70405987  0.11321314  0.58403453  1
  Sn  Sn50  1  0.88678433  0.59084478  0.58403401  1
  Sn  Sn51  1  0.40915014  0.29593949  0.58403451  1
  Sn  Sn52  1  0.70405987  0.11321314  0.91596547  1
  Sn  Sn53  1  0.88678433  0.59084478  0.91596599  1
  Sn  Sn54  1  0.40915014  0.29593949  0.91596549  1
  Sn  Sn55  1  0.29594013  0.88678686  0.41596547  1
  Sn  Sn56  1  0.11321567  0.40915522  0.41596599  1
  Sn  Sn57  1  0.59084986  0.70406051  0.41596549  1
  Sn  Sn58  1  0.88589972  0.58538125  0.25000000  1
  Sn  Sn59  1  0.41461395  0.30051788  0.25000000  1
  Sn  Sn60  1  0.69947990  0.11409676  0.25000000  1
  Sn  Sn61  1  0.11410028  0.41461875  0.75000000  1
  Sn  Sn62  1  0.58538605  0.69948212  0.75000000  1
  Sn  Sn63  1  0.30052010  0.88590324  0.75000000  1
