# generated using pymatgen
data_SrH18Cl2O17
_symmetry_space_group_name_H-M   'P 1'
_cell_length_a   6.88478533
_cell_length_b   10.22768681
_cell_length_c   11.31271169
_cell_angle_alpha   90.00000000
_cell_angle_beta   90.00000000
_cell_angle_gamma   109.66839688
_symmetry_Int_Tables_number   1
_chemical_formula_structural   SrH18Cl2O17
_chemical_formula_sum   'Sr2 H36 Cl4 O34'
_cell_volume   750.11349011
_cell_formula_units_Z   2
loop_
 _symmetry_equiv_pos_site_id
 _symmetry_equiv_pos_as_xyz
  1  'x, y, z'
loop_
 _atom_site_type_symbol
 _atom_site_label
 _atom_site_symmetry_multiplicity
 _atom_site_fract_x
 _atom_site_fract_y
 _atom_site_fract_z
 _atom_site_occupancy
  Sr  Sr0  1  0.44123511  0.00000000  0.75000000  1
  Sr  Sr1  1  0.55876489  1.00000000  0.25000000  1
  H  H2  1  0.21731307  0.52904878  0.06228724  1
  H  H3  1  0.31173571  0.52904878  0.93771276  1
  H  H4  1  0.21731307  0.52904878  0.43771276  1
  H  H5  1  0.31173571  0.52904878  0.56228724  1
  H  H6  1  0.78268693  0.47095122  0.93771276  1
  H  H7  1  0.68826429  0.47095122  0.06228724  1
  H  H8  1  0.78268693  0.47095122  0.56228724  1
  H  H9  1  0.68826429  0.47095122  0.43771276  1
  H  H10  1  0.76905035  0.08044925  0.96143183  1
  H  H11  1  0.31139890  0.08044925  0.03856817  1
  H  H12  1  0.76905035  0.08044925  0.53856817  1
  H  H13  1  0.31139890  0.08044925  0.46143183  1
  H  H14  1  0.23094965  0.91955075  0.03856817  1
  H  H15  1  0.68860110  0.91955075  0.96143183  1
  H  H16  1  0.23094965  0.91955075  0.46143183  1
  H  H17  1  0.68860110  0.91955075  0.53856817  1
  H  H18  1  0.22909769  0.73068860  0.93173432  1
  H  H19  1  0.50159090  0.73068860  0.06826568  1
  H  H20  1  0.22909769  0.73068860  0.56826568  1
  H  H21  1  0.50159090  0.73068860  0.43173432  1
  H  H22  1  0.77090231  0.26931140  0.06826568  1
  H  H23  1  0.49840910  0.26931140  0.93173432  1
  H  H24  1  0.77090231  0.26931140  0.43173432  1
  H  H25  1  0.49840910  0.26931140  0.56826568  1
  H  H26  1  0.05933908  0.78369157  0.87904970  1
  H  H27  1  0.72435249  0.78369157  0.12095030  1
  H  H28  1  0.05933908  0.78369157  0.62095030  1
  H  H29  1  0.72435249  0.78369157  0.37904970  1
  H  H30  1  0.94066092  0.21630843  0.12095030  1
  H  H31  1  0.27564751  0.21630843  0.87904970  1
  H  H32  1  0.94066092  0.21630843  0.37904970  1
  H  H33  1  0.27564751  0.21630843  0.62095030  1
  H  H34  1  0.96034829  0.00000000  0.81738145  1
  H  H35  1  0.03965171  1.00000000  0.18261855  1
  H  H36  1  0.96034829  0.00000000  0.68261855  1
  H  H37  1  0.03965171  1.00000000  0.31738145  1
  Cl  Cl38  1  0.64752042  0.66139744  0.75000000  1
  Cl  Cl39  1  0.01387702  0.66139744  0.25000000  1
  Cl  Cl40  1  0.35247958  0.33860256  0.25000000  1
  Cl  Cl41  1  0.98612298  0.33860256  0.75000000  1
  O  O42  1  0.77712636  0.68795870  0.85643721  1
  O  O43  1  0.91083234  0.68795870  0.14356279  1
  O  O44  1  0.77712636  0.68795870  0.64356279  1
  O  O45  1  0.91083234  0.68795870  0.35643721  1
  O  O46  1  0.22287364  0.31204130  0.14356279  1
  O  O47  1  0.08916766  0.31204130  0.85643721  1
  O  O48  1  0.22287364  0.31204130  0.35643721  1
  O  O49  1  0.08916766  0.31204130  0.64356279  1
  O  O50  1  0.29549045  0.59098091  -0.00000000  1
  O  O51  1  0.29549045  0.59098091  0.50000000  1
  O  O52  1  0.70450955  0.40901909  -0.00000000  1
  O  O53  1  0.70450955  0.40901909  0.50000000  1
  O  O54  1  0.72673267  0.00000000  0.90639862  1
  O  O55  1  0.27326733  1.00000000  0.09360138  1
  O  O56  1  0.72673267  0.00000000  0.59360138  1
  O  O57  1  0.27326733  1.00000000  0.40639862  1
  O  O58  1  0.20411285  0.81621703  0.90538831  1
  O  O59  1  0.61210419  0.81621703  0.09461169  1
  O  O60  1  0.20411285  0.81621703  0.59461169  1
  O  O61  1  0.61210419  0.81621703  0.40538831  1
  O  O62  1  0.79588715  0.18378297  0.09461169  1
  O  O63  1  0.38789581  0.18378297  0.90538831  1
  O  O64  1  0.79588715  0.18378297  0.40538831  1
  O  O65  1  0.38789581  0.18378297  0.59461169  1
  O  O66  1  0.52423747  0.75298893  0.75000000  1
  O  O67  1  0.22875146  0.75298893  0.25000000  1
  O  O68  1  0.47576253  0.24701107  0.25000000  1
  O  O69  1  0.77124854  0.24701107  0.75000000  1
  O  O70  1  0.51065498  0.51799226  0.75000000  1
  O  O71  1  0.00733728  0.51799226  0.25000000  1
  O  O72  1  0.48934502  0.48200774  0.25000000  1
  O  O73  1  0.99266272  0.48200774  0.75000000  1
  O  O74  1  0.05191623  1.00000000  0.75000000  1
  O  O75  1  0.94808377  0.00000000  0.25000000  1
