# generated using pymatgen
data_MgAl2As2(HO)18
_symmetry_space_group_name_H-M   'P 1'
_cell_length_a   5.45721177
_cell_length_b   7.03659212
_cell_length_c   10.54602355
_cell_angle_alpha   97.84035854
_cell_angle_beta   101.70405775
_cell_angle_gamma   109.87022739
_symmetry_Int_Tables_number   1
_chemical_formula_structural   MgAl2As2(HO)18
_chemical_formula_sum   'Mg1 Al2 As2 H18 O18'
_cell_volume   363.54942367
_cell_formula_units_Z   1
loop_
 _symmetry_equiv_pos_site_id
 _symmetry_equiv_pos_as_xyz
  1  'x, y, z'
loop_
 _atom_site_type_symbol
 _atom_site_label
 _atom_site_symmetry_multiplicity
 _atom_site_fract_x
 _atom_site_fract_y
 _atom_site_fract_z
 _atom_site_occupancy
  Mg  Mg0  1  0.50000000  0.00000000  0.50000000  1
  Al  Al1  1  -0.00000000  0.50000000  0.00000000  1
  Al  Al2  1  -0.00000000  0.00000000  0.00000000  1
  As  As3  1  0.48284624  0.07385325  0.83362976  1
  As  As4  1  0.51715376  0.92614675  0.16637024  1
  H  H5  1  0.90476962  0.31108801  0.17041405  1
  H  H6  1  0.09523038  0.68891199  0.82958595  1
  H  H7  1  0.02199994  0.00488318  0.62239414  1
  H  H8  1  0.97800006  0.99511682  0.37760586  1
  H  H9  1  0.83470823  0.50567476  0.22037079  1
  H  H10  1  0.16529177  0.49432524  0.77962921  1
  H  H11  1  0.55869150  0.58945426  0.76183348  1
  H  H12  1  0.44130850  0.41054574  0.23816652  1
  H  H13  1  0.68915959  0.39952298  0.45275665  1
  H  H14  1  0.31084041  0.60047702  0.54724335  1
  H  H15  1  0.80463630  0.40760078  0.60467744  1
  H  H16  1  0.19536370  0.59239922  0.39532256  1
  H  H17  1  0.41024541  0.35212067  0.68550892  1
  H  H18  1  0.58975459  0.64787933  0.31449108  1
  H  H19  1  0.80488033  0.94488452  0.70476563  1
  H  H20  1  0.19511967  0.05511548  0.29523437  1
  H  H21  1  0.68181376  0.67138387  0.00835099  1
  H  H22  1  0.31818624  0.32861613  0.99164901  1
  O  O23  1  0.87148705  0.71622417  0.00519602  1
  O  O24  1  0.12851295  0.28377583  0.99480398  1
  O  O25  1  0.69360600  0.93804419  0.84740762  1
  O  O26  1  0.30639400  0.06195581  0.15259238  1
  O  O27  1  0.62840497  0.31705473  0.93606847  1
  O  O28  1  0.37159503  0.68294527  0.06393153  1
  O  O29  1  0.19417768  0.93603010  0.87589073  1
  O  O30  1  0.80582232  0.06396990  0.12410927  1
  O  O31  1  0.38871474  0.09317754  0.67182262  1
  O  O32  1  0.61128526  0.90682246  0.32817738  1
  O  O33  1  0.97261011  0.46831293  0.18314566  1
  O  O34  1  0.02738989  0.53168707  0.81685434  1
  O  O35  1  0.39427707  0.49076355  0.69629350  1
  O  O36  1  0.60572293  0.50923645  0.30370650  1
  O  O37  1  0.82570480  0.95902015  0.61442532  1
  O  O38  1  0.17429520  0.04097985  0.38557468  1
  O  O39  1  0.73508106  0.31723352  0.51565979  1
  O  O40  1  0.26491894  0.68276648  0.48434021  1
