# generated using pymatgen
data_Y3(AgGe)4
_symmetry_space_group_name_H-M   'P 1'
_cell_length_a   4.34838307
_cell_length_b   7.17258906
_cell_length_c   8.37856918
_cell_angle_alpha   115.34272491
_cell_angle_beta   105.04005890
_cell_angle_gamma   90.00000000
_symmetry_Int_Tables_number   1
_chemical_formula_structural   Y3(AgGe)4
_chemical_formula_sum   'Y3 Ag4 Ge4'
_cell_volume   226.22746967
_cell_formula_units_Z   1
loop_
 _symmetry_equiv_pos_site_id
 _symmetry_equiv_pos_as_xyz
  1  'x, y, z'
loop_
 _atom_site_type_symbol
 _atom_site_label
 _atom_site_symmetry_multiplicity
 _atom_site_fract_x
 _atom_site_fract_y
 _atom_site_fract_z
 _atom_site_occupancy
  Y  Y0  1  0.87392260  0.37392260  0.74784521  1
  Y  Y1  1  0.12607740  0.62607740  0.25215479  1
  Y  Y2  1  0.00000000  -0.00000000  0.00000000  1
  Ag  Ag3  1  0.33092036  0.63418696  0.66184072  1
  Ag  Ag4  1  0.66907964  0.36581304  0.33815928  1
  Ag  Ag5  1  0.33092036  0.02765376  0.66184072  1
  Ag  Ag6  1  0.66907964  0.97234624  0.33815928  1
  Ge  Ge7  1  0.21683845  0.21683845  0.43367689  1
  Ge  Ge8  1  0.78316155  0.78316155  0.56632311  1
  Ge  Ge9  1  0.50000000  0.68170307  1.00000000  1
  Ge  Ge10  1  0.50000000  0.31829693  0.00000000  1
