# generated using pymatgen
data_Nb39C34
_symmetry_space_group_name_H-M   'P 1'
_cell_length_a   3.18207314
_cell_length_b   3.18207298
_cell_length_c   123.57611794
_cell_angle_alpha   59.86580583
_cell_angle_beta   59.86580756
_cell_angle_gamma   60.00439051
_symmetry_Int_Tables_number   1
_chemical_formula_structural   Nb39C34
_chemical_formula_sum   'Nb39 C34'
_cell_volume   883.01954291
_cell_formula_units_Z   1
loop_
 _symmetry_equiv_pos_site_id
 _symmetry_equiv_pos_as_xyz
  1  'x, y, z'
loop_
 _atom_site_type_symbol
 _atom_site_label
 _atom_site_symmetry_multiplicity
 _atom_site_fract_x
 _atom_site_fract_y
 _atom_site_fract_z
 _atom_site_occupancy
  Nb  Nb0  1  0.00305965  0.00305965  0.99975780  1
  Nb  Nb1  1  0.99107666  0.99107666  0.02632788  1
  Nb  Nb2  1  -0.00012739  -0.00012739  0.05129048  1
  Nb  Nb3  1  0.99333751  0.99333751  0.10307831  1
  Nb  Nb4  1  0.00781792  0.00781792  0.07631880  1
  Nb  Nb5  1  0.00295648  0.00295648  0.12797620  1
  Nb  Nb6  1  0.99735885  0.99735885  0.15405150  1
  Nb  Nb7  1  0.00638339  0.00638339  0.17899381  1
  Nb  Nb8  1  0.99178066  0.99178066  0.20576003  1
  Nb  Nb9  1  -0.00004375  -0.00004375  0.23077299  1
  Nb  Nb10  1  0.99745279  0.99745279  0.28224982  1
  Nb  Nb11  1  0.00913730  0.00913730  0.25570891  1
  Nb  Nb12  1  0.99710286  0.99710286  0.33355222  1
  Nb  Nb13  1  0.00965483  0.00965483  0.30695592  1
  Nb  Nb14  1  0.00120648  0.00120648  0.35888165  1
  Nb  Nb15  1  0.99685600  0.99685600  0.38485278  1
  Nb  Nb16  1  0.00199393  0.00199393  0.41010433  1
  Nb  Nb17  1  0.99933062  0.99933062  0.43595124  1
  Nb  Nb18  1  0.99867064  0.99867064  0.48728574  1
  Nb  Nb19  1  0.00140442  0.00140442  0.46143223  1
  Nb  Nb20  1  -0.00062962  -0.00062962  0.53850380  1
  Nb  Nb21  1  0.00051947  0.00051947  0.51277919  1
  Nb  Nb22  1  0.00008964  0.00008964  0.56409220  1
  Nb  Nb23  1  0.00016228  0.00016228  0.58973387  1
  Nb  Nb24  1  0.00005988  0.00005988  0.61538018  1
  Nb  Nb25  1  0.00009951  0.00009951  0.64102304  1
  Nb  Nb26  1  0.99979881  0.99979881  0.66667965  1
  Nb  Nb27  1  0.99972323  0.99972323  0.69232868  1
  Nb  Nb28  1  -0.00020763  -0.00020763  0.71797514  1
  Nb  Nb29  1  0.00039490  0.00039490  0.74355702  1
  Nb  Nb30  1  -0.00052531  -0.00052531  0.76927133  1
  Nb  Nb31  1  0.00140730  0.00140730  0.79476227  1
  Nb  Nb32  1  0.99873064  0.99873064  0.82061500  1
  Nb  Nb33  1  0.00071442  0.00071442  0.84610470  1
  Nb  Nb34  1  0.99794616  0.99794616  0.87194841  1
  Nb  Nb35  1  0.00325170  0.00325170  0.89718349  1
  Nb  Nb36  1  0.99909306  0.99909306  0.92314486  1
  Nb  Nb37  1  0.00256809  0.00256809  0.94852735  1
  Nb  Nb38  1  0.99057013  0.99057013  0.97507884  1
  C  C39  1  0.50927297  0.50927297  0.03774813  1
  C  C40  1  0.48917766  0.48917766  0.06492579  1
  C  C41  1  0.49890538  0.49890538  0.11547230  1
  C  C42  1  0.50115672  0.50115672  0.16657796  1
  C  C43  1  0.51097819  0.51097819  0.21710886  1
  C  C44  1  0.49021060  0.49021060  0.24434178  1
  C  C45  1  0.51173751  0.51173751  0.29396475  1
  C  C46  1  0.50348456  0.50348456  0.32023878  1
  C  C47  1  0.50127084  0.50127084  0.34604353  1
  C  C48  1  0.50048978  0.50048978  0.37175053  1
  C  C49  1  0.50020794  0.50020794  0.39742326  1
  C  C50  1  0.50073099  0.50073099  0.42301234  1
  C  C51  1  0.49993889  0.49993889  0.44872177  1
  C  C52  1  0.50037919  0.50037919  0.47433075  1
  C  C53  1  0.49962802  0.49962802  0.50002838  1
  C  C54  1  0.50017584  0.50017584  0.52563404  1
  C  C55  1  0.49985790  0.49985790  0.55129977  1
  C  C56  1  0.50038514  0.50038514  0.57689656  1
  C  C57  1  0.49982427  0.49982427  0.60257753  1
  C  C58  1  0.49992639  0.49992639  0.62821541  1
  C  C59  1  0.49988289  0.49988289  0.65385871  1
  C  C60  1  0.50003711  0.50003711  0.67947791  1
  C  C61  1  0.49969931  0.49969931  0.70514630  1
  C  C62  1  0.50028738  0.50028738  0.73074519  1
  C  C63  1  0.49980888  0.49980888  0.75642434  1
  C  C64  1  0.50021481  0.50021481  0.78203772  1
  C  C65  1  0.49955218  0.49955218  0.80772673  1
  C  C66  1  0.50021071  0.50021071  0.83331524  1
  C  C67  1  0.49940103  0.49940103  0.85902310  1
  C  C68  1  0.49993255  0.49993255  0.88462443  1
  C  C69  1  0.49984787  0.49984787  0.91028469  1
  C  C70  1  0.49868914  0.49868914  0.93600537  1
  C  C71  1  0.49637690  0.49637690  0.96181807  1
  C  C72  1  0.48814396  0.48814396  0.98807833  1
