# generated using pymatgen
data_BaLa2Ti3O10
_symmetry_space_group_name_H-M   'P 1'
_cell_length_a   3.91910672
_cell_length_b   7.74496712
_cell_length_c   14.67693106
_cell_angle_alpha   90.00000000
_cell_angle_beta   97.67261219
_cell_angle_gamma   90.00000000
_symmetry_Int_Tables_number   1
_chemical_formula_structural   BaLa2Ti3O10
_chemical_formula_sum   'Ba2 La4 Ti6 O20'
_cell_volume   441.50561576
_cell_formula_units_Z   2
loop_
 _symmetry_equiv_pos_site_id
 _symmetry_equiv_pos_as_xyz
  1  'x, y, z'
loop_
 _atom_site_type_symbol
 _atom_site_label
 _atom_site_symmetry_multiplicity
 _atom_site_fract_x
 _atom_site_fract_y
 _atom_site_fract_z
 _atom_site_occupancy
  Ba  Ba0  1  0.26587399  0.24110094  0.53174798  1
  Ba  Ba1  1  0.73412601  0.74110094  0.46825202  1
  La  La2  1  0.57459645  0.24240693  0.14919290  1
  La  La3  1  0.42540355  0.74240693  0.85080710  1
  La  La4  1  0.42639832  0.24251481  0.85279665  1
  La  La5  1  0.57360168  0.74251481  0.14720335  1
  Ti  Ti6  1  0.00001976  0.49127648  0.00003951  1
  Ti  Ti7  1  0.99998024  0.99127648  0.99996049  1
  Ti  Ti8  1  0.14455351  0.49063835  0.28910701  1
  Ti  Ti9  1  0.85544649  0.99063835  0.71089299  1
  Ti  Ti10  1  0.85531777  0.49170148  0.71063554  1
  Ti  Ti11  1  0.14468223  0.99170148  0.28936446  1
  O  O12  1  0.50000682  0.48345932  0.00001364  1
  O  O13  1  0.49999318  0.98345932  0.99998636  1
  O  O14  1  0.99662312  0.23943794  0.99324624  1
  O  O15  1  0.00337688  0.73943794  0.00675376  1
  O  O16  1  0.87170275  0.24229056  0.74340551  1
  O  O17  1  0.12829725  0.74229056  0.25659449  1
  O  O18  1  0.13314206  0.24196018  0.26628412  1
  O  O19  1  0.86685794  0.74196018  0.73371588  1
  O  O20  1  0.06654456  0.48193230  0.13308912  1
  O  O21  1  0.93345544  0.98193230  0.86691088  1
  O  O22  1  0.93352206  0.50391292  0.86704412  1
  O  O23  1  0.06647794  0.00391292  0.13295588  1
  O  O24  1  0.20582317  0.51185193  0.41164635  1
  O  O25  1  0.79417683  0.01185193  0.58835365  1
  O  O26  1  0.79403927  0.46929091  0.58807853  1
  O  O27  1  0.20596073  0.96929091  0.41192147  1
  O  O28  1  0.63027998  0.49470114  0.26055996  1
  O  O29  1  0.36972002  0.99470114  0.73944004  1
  O  O30  1  0.36953462  0.48892382  0.73906923  1
  O  O31  1  0.63046538  0.98892382  0.26093077  1
