# generated using pymatgen
data_LaTe2
_symmetry_space_group_name_H-M   'P 1'
_cell_length_a   4.57998400
_cell_length_b   9.26867288
_cell_length_c   9.26924589
_cell_angle_alpha   89.99827451
_cell_angle_beta   90.02108071
_cell_angle_gamma   89.99882777
_symmetry_Int_Tables_number   1
_chemical_formula_structural   LaTe2
_chemical_formula_sum   'La4 Te8'
_cell_volume   393.48292323
_cell_formula_units_Z   4
loop_
 _symmetry_equiv_pos_site_id
 _symmetry_equiv_pos_as_xyz
  1  'x, y, z'
loop_
 _atom_site_type_symbol
 _atom_site_label
 _atom_site_symmetry_multiplicity
 _atom_site_fract_x
 _atom_site_fract_y
 _atom_site_fract_z
 _atom_site_occupancy
  La  La0  1  0.97934405  0.00000322  0.27329225  1
  La  La1  1  0.02912614  0.50000689  0.27445941  1
  La  La2  1  0.50339411  0.24987476  0.72707527  1
  La  La3  1  0.50339200  0.75012149  0.72705241  1
  Te  Te4  1  0.00410999  0.25026896  0.99872813  1
  Te  Te5  1  0.00411172  0.74972928  0.99872113  1
  Te  Te6  1  0.43812056  0.99999685  0.00037400  1
  Te  Te7  1  0.57037962  0.50000301  0.00048815  1
  Te  Te8  1  0.99808383  0.99999634  0.63339059  1
  Te  Te9  1  0.00965219  0.50000002  0.63396807  1
  Te  Te10  1  0.50444356  0.24988359  0.36667574  1
  Te  Te11  1  0.50444223  0.75011561  0.36667484  1
