# generated using pymatgen
data_LaCrSe2O
_symmetry_space_group_name_H-M   'P 1'
_cell_length_a   3.93069877
_cell_length_b   6.25812985
_cell_length_c   8.42014472
_cell_angle_alpha   90.15493382
_cell_angle_beta   90.00000000
_cell_angle_gamma   108.30331026
_symmetry_Int_Tables_number   1
_chemical_formula_structural   LaCrSe2O
_chemical_formula_sum   'La2 Cr2 Se4 O2'
_cell_volume   196.64581586
_cell_formula_units_Z   2
loop_
 _symmetry_equiv_pos_site_id
 _symmetry_equiv_pos_as_xyz
  1  'x, y, z'
loop_
 _atom_site_type_symbol
 _atom_site_label
 _atom_site_symmetry_multiplicity
 _atom_site_fract_x
 _atom_site_fract_y
 _atom_site_fract_z
 _atom_site_occupancy
  La  La0  1  0.72805616  0.45611231  0.30703835  1
  La  La1  1  0.27194384  0.54388769  0.69296165  1
  Cr  Cr2  1  -0.00000000  -0.00000000  0.50000000  1
  Cr  Cr3  1  0.50000000  -0.00000000  -0.00000000  1
  Se  Se4  1  0.85979282  0.71958565  0.97166610  1
  Se  Se5  1  0.14020718  0.28041435  0.02833390  1
  Se  Se6  1  0.54703002  0.09406005  0.69881479  1
  Se  Se7  1  0.45296998  0.90593995  0.30118521  1
  O  O8  1  0.83370073  0.66740147  0.55857495  1
  O  O9  1  0.16629927  0.33259853  0.44142505  1
