# generated using pymatgen
data_Ba3GaSe4Cl
_symmetry_space_group_name_H-M   'P 1'
_cell_length_a   8.89245534
_cell_length_b   10.00763768
_cell_length_c   12.94674496
_cell_angle_alpha   90.00000000
_cell_angle_beta   90.00000000
_cell_angle_gamma   90.00000000
_symmetry_Int_Tables_number   1
_chemical_formula_structural   Ba3GaSe4Cl
_chemical_formula_sum   'Ba12 Ga4 Se16 Cl4'
_cell_volume   1152.16282706
_cell_formula_units_Z   4
loop_
 _symmetry_equiv_pos_site_id
 _symmetry_equiv_pos_as_xyz
  1  'x, y, z'
loop_
 _atom_site_type_symbol
 _atom_site_label
 _atom_site_symmetry_multiplicity
 _atom_site_fract_x
 _atom_site_fract_y
 _atom_site_fract_z
 _atom_site_occupancy
  Ba  Ba0  1  0.91737306  0.75000000  0.49091015  1
  Ba  Ba1  1  0.58262694  0.75000000  0.99091015  1
  Ba  Ba2  1  0.08262694  0.25000000  0.50908985  1
  Ba  Ba3  1  0.41737306  0.25000000  0.00908985  1
  Ba  Ba4  1  0.57719022  0.01971006  0.66989270  1
  Ba  Ba5  1  0.92280978  0.48028994  0.16989270  1
  Ba  Ba6  1  0.42280978  0.51971006  0.33010730  1
  Ba  Ba7  1  0.07719022  0.98028994  0.83010730  1
  Ba  Ba8  1  0.42280978  0.98028994  0.33010730  1
  Ba  Ba9  1  0.07719022  0.51971006  0.83010730  1
  Ba  Ba10  1  0.57719022  0.48028994  0.66989270  1
  Ba  Ba11  1  0.92280978  0.01971006  0.16989270  1
  Ga  Ga12  1  0.31319619  0.75000000  0.60934744  1
  Ga  Ga13  1  0.18680381  0.75000000  0.10934744  1
  Ga  Ga14  1  0.68680381  0.25000000  0.39065256  1
  Ga  Ga15  1  0.81319619  0.25000000  0.89065256  1
  Se  Se16  1  0.81322098  0.04389742  0.42409783  1
  Se  Se17  1  0.68677902  0.45610258  0.92409783  1
  Se  Se18  1  0.18677902  0.54389742  0.57590217  1
  Se  Se19  1  0.31322098  0.95610258  0.07590217  1
  Se  Se20  1  0.18677902  0.95610258  0.57590217  1
  Se  Se21  1  0.31322098  0.54389742  0.07590217  1
  Se  Se22  1  0.81322098  0.45610258  0.42409783  1
  Se  Se23  1  0.68677902  0.04389742  0.92409783  1
  Se  Se24  1  0.13907765  0.75000000  0.29389114  1
  Se  Se25  1  0.36092235  0.75000000  0.79389114  1
  Se  Se26  1  0.86092235  0.25000000  0.70610886  1
  Se  Se27  1  0.63907765  0.25000000  0.20610886  1
  Se  Se28  1  0.54100282  0.75000000  0.50599188  1
  Se  Se29  1  0.95899718  0.75000000  0.00599188  1
  Se  Se30  1  0.45899718  0.25000000  0.49400812  1
  Se  Se31  1  0.04100282  0.25000000  0.99400812  1
  Cl  Cl32  1  0.83866382  0.75000000  0.72879879  1
  Cl  Cl33  1  0.66133618  0.75000000  0.22879879  1
  Cl  Cl34  1  0.16133618  0.25000000  0.27120121  1
  Cl  Cl35  1  0.33866382  0.25000000  0.77120121  1
