# generated using pymatgen
data_Tm(Co2B)6
_symmetry_space_group_name_H-M   'P 1'
_cell_length_a   5.95027693
_cell_length_b   5.95027693
_cell_length_c   5.95027628
_cell_angle_alpha   104.11251641
_cell_angle_beta   104.11251641
_cell_angle_gamma   104.11251279
_symmetry_Int_Tables_number   1
_chemical_formula_structural   Tm(Co2B)6
_chemical_formula_sum   'Tm1 Co12 B6'
_cell_volume   187.56561056
_cell_formula_units_Z   1
loop_
 _symmetry_equiv_pos_site_id
 _symmetry_equiv_pos_as_xyz
  1  'x, y, z'
loop_
 _atom_site_type_symbol
 _atom_site_label
 _atom_site_symmetry_multiplicity
 _atom_site_fract_x
 _atom_site_fract_y
 _atom_site_fract_z
 _atom_site_occupancy
  Tm  Tm0  1  0.00000000  0.00000000  -0.00000000  1
  Co  Co1  1  0.86773653  0.13226347  0.50000000  1
  Co  Co2  1  0.13226347  0.50000000  0.86773653  1
  Co  Co3  1  0.50000000  0.86773653  0.13226347  1
  Co  Co4  1  0.86773653  0.50000000  0.13226347  1
  Co  Co5  1  0.50000000  0.13226347  0.86773653  1
  Co  Co6  1  0.13226347  0.86773653  0.50000000  1
  Co  Co7  1  0.81448998  0.54656469  0.54656469  1
  Co  Co8  1  0.54656469  0.54656469  0.81448998  1
  Co  Co9  1  0.54656469  0.81448998  0.54656469  1
  Co  Co10  1  0.18551002  0.45343531  0.45343531  1
  Co  Co11  1  0.45343531  0.45343531  0.18551002  1
  Co  Co12  1  0.45343531  0.18551002  0.45343531  1
  B  B13  1  0.32120334  0.76543938  0.76543938  1
  B  B14  1  0.76543938  0.76543938  0.32120334  1
  B  B15  1  0.76543938  0.32120334  0.76543938  1
  B  B16  1  0.67879666  0.23456062  0.23456062  1
  B  B17  1  0.23456062  0.23456062  0.67879666  1
  B  B18  1  0.23456062  0.67879666  0.23456062  1
