# generated using pymatgen
data_NiH8(NO5)2
_symmetry_space_group_name_H-M   'P 1'
_cell_length_a   5.73385864
_cell_length_b   7.55054048
_cell_length_c   10.52034936
_cell_angle_alpha   72.04010617
_cell_angle_beta   80.90741390
_cell_angle_gamma   78.39212234
_symmetry_Int_Tables_number   1
_chemical_formula_structural   NiH8(NO5)2
_chemical_formula_sum   'Ni2 H16 N4 O20'
_cell_volume   422.15238720
_cell_formula_units_Z   2
loop_
 _symmetry_equiv_pos_site_id
 _symmetry_equiv_pos_as_xyz
  1  'x, y, z'
loop_
 _atom_site_type_symbol
 _atom_site_label
 _atom_site_symmetry_multiplicity
 _atom_site_fract_x
 _atom_site_fract_y
 _atom_site_fract_z
 _atom_site_occupancy
  Ni  Ni0  1  -0.00000000  0.00000000  -0.00000000  1
  Ni  Ni1  1  0.50000000  0.50000000  0.50000000  1
  H  H2  1  0.43444644  0.79852280  0.03930909  1
  H  H3  1  0.56555356  0.20147720  0.96069091  1
  H  H4  1  0.25776067  0.65256055  0.08403217  1
  H  H5  1  0.74223933  0.34743945  0.91596783  1
  H  H6  1  0.70009943  0.95081929  0.23769795  1
  H  H7  1  0.29990057  0.04918071  0.76230205  1
  H  H8  1  0.86468120  0.10264339  0.20487865  1
  H  H9  1  0.13531880  0.89735661  0.79512135  1
  H  H10  1  0.93611053  0.47919910  0.38231456  1
  H  H11  1  0.06388947  0.52080090  0.61768544  1
  H  H12  1  0.79081509  0.41815360  0.29567789  1
  H  H13  1  0.20918491  0.58184640  0.70432211  1
  H  H14  1  0.27846729  0.87793488  0.40131803  1
  H  H15  1  0.72153271  0.12206512  0.59868197  1
  H  H16  1  0.29709673  0.76523098  0.29314015  1
  H  H17  1  0.70290327  0.23476902  0.70685985  1
  N  N18  1  0.16458577  0.30333310  0.08209278  1
  N  N19  1  0.83541423  0.69666690  0.91790722  1
  N  N20  1  0.34013836  0.22101649  0.39405208  1
  N  N21  1  0.65986164  0.77898351  0.60594792  1
  O  O22  1  0.27255676  0.78026248  0.08471962  1
  O  O23  1  0.72744324  0.21973752  0.91528038  1
  O  O24  1  0.85817572  0.97792639  0.19526272  1
  O  O25  1  0.14182428  0.02207361  0.80473728  1
  O  O26  1  0.23374951  0.17406130  0.02030981  1
  O  O27  1  0.76625049  0.82593870  0.97969019  1
  O  O28  1  0.31572138  0.39594275  0.09016966  1
  O  O29  1  0.68427862  0.60405725  0.90983034  1
  O  O30  1  0.95014792  0.33079056  0.13069996  1
  O  O31  1  0.04985208  0.66920944  0.86930004  1
  O  O32  1  0.34862546  0.75927814  0.37865027  1
  O  O33  1  0.65137454  0.24072186  0.62134973  1
  O  O34  1  0.77884634  0.50773922  0.34722495  1
  O  O35  1  0.22115366  0.49226078  0.65277505  1
  O  O36  1  0.27154808  0.38178648  0.42079759  1
  O  O37  1  0.72845192  0.61821352  0.57920241  1
  O  O38  1  0.18080170  0.13142193  0.38988466  1
  O  O39  1  0.81919830  0.86857807  0.61011534  1
  O  O40  1  0.55794435  0.16236744  0.37308276  1
  O  O41  1  0.44205565  0.83763256  0.62691724  1
