# generated using pymatgen
data_Na7Zn3Ga(SiO4)4
_symmetry_space_group_name_H-M   'P 1'
_cell_length_a   5.20813927
_cell_length_b   10.43855411
_cell_length_c   15.16826032
_cell_angle_alpha   90.00000000
_cell_angle_beta   90.51702546
_cell_angle_gamma   90.00000000
_symmetry_Int_Tables_number   1
_chemical_formula_structural   Na7Zn3Ga(SiO4)4
_chemical_formula_sum   'Na14 Zn6 Ga2 Si8 O32'
_cell_volume   824.59562606
_cell_formula_units_Z   2
loop_
 _symmetry_equiv_pos_site_id
 _symmetry_equiv_pos_as_xyz
  1  'x, y, z'
loop_
 _atom_site_type_symbol
 _atom_site_label
 _atom_site_symmetry_multiplicity
 _atom_site_fract_x
 _atom_site_fract_y
 _atom_site_fract_z
 _atom_site_occupancy
  Na  Na0  1  0.04798970  0.00883484  0.44068201  1
  Na  Na1  1  0.04798970  0.49116516  0.94068201  1
  Na  Na2  1  0.07075722  0.22938608  0.31446047  1
  Na  Na3  1  0.07075722  0.27061392  0.81446047  1
  Na  Na4  1  0.48275700  0.56376328  0.08811072  1
  Na  Na5  1  0.48275700  0.93623672  0.58811072  1
  Na  Na6  1  0.51888093  0.98071653  0.07565551  1
  Na  Na7  1  0.51888093  0.51928347  0.57565551  1
  Na  Na8  1  0.53227208  0.25788775  0.17790357  1
  Na  Na9  1  0.53227208  0.24211225  0.67790357  1
  Na  Na10  1  0.91891813  0.70830348  0.30030439  1
  Na  Na11  1  0.91891813  0.79169652  0.80030439  1
  Na  Na12  1  0.94884496  0.98470184  0.94144604  1
  Na  Na13  1  0.94884496  0.51529816  0.44144604  1
  Zn  Zn14  1  0.03310122  0.22556385  0.06077206  1
  Zn  Zn15  1  0.03310122  0.27443615  0.56077206  1
  Zn  Zn16  1  0.97595973  0.73217990  0.06160637  1
  Zn  Zn17  1  0.97595973  0.76782010  0.56160637  1
  Zn  Zn18  1  0.97703794  0.03471366  0.68644336  1
  Zn  Zn19  1  0.97703794  0.46528634  0.18644336  1
  Ga  Ga20  1  0.04332815  0.52539565  0.68993576  1
  Ga  Ga21  1  0.04332815  0.97460435  0.18993576  1
  Si  Si22  1  0.44062941  0.73036464  0.42980358  1
  Si  Si23  1  0.44062941  0.76963536  0.92980358  1
  Si  Si24  1  0.43046100  0.48109042  0.31228437  1
  Si  Si25  1  0.43046100  0.01890958  0.81228437  1
  Si  Si26  1  0.55963179  0.50959166  0.81543945  1
  Si  Si27  1  0.55963179  0.99040834  0.31543945  1
  Si  Si28  1  0.56415892  0.23326797  0.43891672  1
  Si  Si29  1  0.56415892  0.26673203  0.93891672  1
  O  O30  1  0.02476572  0.80374619  0.17808561  1
  O  O31  1  0.02476572  0.69625381  0.67808561  1
  O  O32  1  0.02291461  0.54967052  0.07630580  1
  O  O33  1  0.02291461  0.95032948  0.57630580  1
  O  O34  1  0.13020508  0.72903995  0.43679803  1
  O  O35  1  0.13020508  0.77096005  0.93679803  1
  O  O36  1  0.12306790  0.50434721  0.30855872  1
  O  O37  1  0.12306790  0.99565279  0.80855872  1
  O  O38  1  0.39643838  0.02108840  0.22403136  1
  O  O39  1  0.39643838  0.47891160  0.72403136  1
  O  O40  1  0.42730726  0.23193472  0.03143414  1
  O  O41  1  0.42730726  0.26806528  0.53143414  1
  O  O42  1  0.45954338  0.08884427  0.39754303  1
  O  O43  1  0.45954338  0.41115573  0.89754303  1
  O  O44  1  0.47863876  0.33448608  0.35740268  1
  O  O45  1  0.47863876  0.16551392  0.85740268  1
  O  O46  1  0.52261450  0.65718401  0.85447853  1
  O  O47  1  0.52261450  0.84281599  0.35447853  1
  O  O48  1  0.54933716  0.58944264  0.38646462  1
  O  O49  1  0.54933716  0.91055736  0.88646462  1
  O  O50  1  0.58687324  0.75595183  0.02438525  1
  O  O51  1  0.58687324  0.74404817  0.52438525  1
  O  O52  1  0.57825946  0.48279885  0.21915802  1
  O  O53  1  0.57825946  0.01720115  0.71915802  1
  O  O54  1  0.86566577  0.01698208  0.30132639  1
  O  O55  1  0.86566577  0.48301792  0.80132639  1
  O  O56  1  0.87571916  0.22719355  0.44412421  1
  O  O57  1  0.87571916  0.27280645  0.94412421  1
  O  O58  1  0.96558467  0.04007917  0.08083379  1
  O  O59  1  0.96558467  0.45992083  0.58083379  1
  O  O60  1  0.00533677  0.21830762  0.67930545  1
  O  O61  1  0.00533677  0.28169238  0.17930545  1
