# generated using pymatgen
data_Tl4SnI6
_symmetry_space_group_name_H-M   'P 1'
_cell_length_a   4.65913279
_cell_length_b   10.08444821
_cell_length_c   19.47989003
_cell_angle_alpha   90.00000000
_cell_angle_beta   90.00000000
_cell_angle_gamma   90.00000000
_symmetry_Int_Tables_number   1
_chemical_formula_structural   Tl4SnI6
_chemical_formula_sum   'Tl8 Sn2 I12'
_cell_volume   915.25841224
_cell_formula_units_Z   2
loop_
 _symmetry_equiv_pos_site_id
 _symmetry_equiv_pos_as_xyz
  1  'x, y, z'
loop_
 _atom_site_type_symbol
 _atom_site_label
 _atom_site_symmetry_multiplicity
 _atom_site_fract_x
 _atom_site_fract_y
 _atom_site_fract_z
 _atom_site_occupancy
  Tl  Tl0  1  0.50000000  0.10639154  0.41923314  1
  Tl  Tl1  1  0.50000000  0.89360846  0.58076686  1
  Tl  Tl2  1  0.50000000  0.39360846  0.91923314  1
  Tl  Tl3  1  0.50000000  0.60639154  0.08076686  1
  Tl  Tl4  1  0.50000000  0.29242772  0.20483067  1
  Tl  Tl5  1  0.50000000  0.70757228  0.79516933  1
  Tl  Tl6  1  0.50000000  0.20757228  0.70483067  1
  Tl  Tl7  1  0.50000000  0.79242772  0.29516933  1
  Sn  Sn8  1  0.00000000  -0.00000000  0.00000000  1
  Sn  Sn9  1  0.00000000  0.50000000  0.50000000  1
  I  I10  1  0.00000000  0.30018137  0.05321339  1
  I  I11  1  0.00000000  0.69981863  0.94678661  1
  I  I12  1  0.00000000  0.19981863  0.55321339  1
  I  I13  1  0.00000000  0.80018137  0.44678661  1
  I  I14  1  0.00000000  0.09233506  0.28645515  1
  I  I15  1  0.00000000  0.90766494  0.71354485  1
  I  I16  1  0.00000000  0.40766494  0.78645515  1
  I  I17  1  0.00000000  0.59233506  0.21354485  1
  I  I18  1  0.50000000  0.44085264  0.38869351  1
  I  I19  1  0.50000000  0.55914736  0.61130649  1
  I  I20  1  0.50000000  0.05914736  0.88869351  1
  I  I21  1  0.50000000  0.94085264  0.11130649  1
