# generated using pymatgen
data_Zn17Co3
_symmetry_space_group_name_H-M   'P 1'
_cell_length_a   7.68920913
_cell_length_b   11.25161235
_cell_length_c   11.25161234
_cell_angle_alpha   120.00000260
_cell_angle_beta   90.00000000
_cell_angle_gamma   90.00000000
_symmetry_Int_Tables_number   1
_chemical_formula_structural   Zn17Co3
_chemical_formula_sum   'Zn51 Co9'
_cell_volume   843.02764181
_cell_formula_units_Z   3
loop_
 _symmetry_equiv_pos_site_id
 _symmetry_equiv_pos_as_xyz
  1  'x, y, z'
loop_
 _atom_site_type_symbol
 _atom_site_label
 _atom_site_symmetry_multiplicity
 _atom_site_fract_x
 _atom_site_fract_y
 _atom_site_fract_z
 _atom_site_occupancy
  Zn  Zn0  1  0.83304296  0.68938562  0.75821060  1
  Zn  Zn1  1  0.16637596  0.06882497  0.31061438  1
  Zn  Zn2  1  0.83304296  0.31061438  0.24178940  1
  Zn  Zn3  1  0.49970996  0.24178940  0.93117503  1
  Zn  Zn4  1  0.16637596  0.93117503  0.68938562  1
  Zn  Zn5  1  0.49970996  0.75821060  0.06882497  1
  Zn  Zn6  1  0.99312052  0.57295576  0.88708468  1
  Zn  Zn7  1  0.32645352  0.31412893  0.42704424  1
  Zn  Zn8  1  0.99312052  0.42704424  0.11291532  1
  Zn  Zn9  1  0.65978752  0.11291532  0.68587107  1
  Zn  Zn10  1  0.32645352  0.68587107  0.57295576  1
  Zn  Zn11  1  0.65978752  0.88708468  0.31412893  1
  Zn  Zn12  1  0.79192900  0.62670802  0.10852646  1
  Zn  Zn13  1  0.12526200  0.48181844  0.37329198  1
  Zn  Zn14  1  0.79192900  0.37329198  0.89147354  1
  Zn  Zn15  1  0.45859600  0.89147354  0.51818156  1
  Zn  Zn16  1  0.12526200  0.51818156  0.62670802  1
  Zn  Zn17  1  0.45859600  0.10852646  0.48181844  1
  Zn  Zn18  1  0.51106635  0.77988636  0.84745306  1
  Zn  Zn19  1  0.84439935  0.06756670  0.22011364  1
  Zn  Zn20  1  0.51106635  0.22011364  0.15254694  1
  Zn  Zn21  1  0.17773335  0.15254694  0.93243330  1
  Zn  Zn22  1  0.84439935  0.93243330  0.77988636  1
  Zn  Zn23  1  0.17773335  0.84745306  0.06756670  1
  Zn  Zn24  1  0.98961997  0.84344679  0.26745060  1
  Zn  Zn25  1  0.32295297  0.42400381  0.15655321  1
  Zn  Zn26  1  0.98961997  0.15655321  0.73254940  1
  Zn  Zn27  1  0.65628697  0.73254940  0.57599619  1
  Zn  Zn28  1  0.32295297  0.57599619  0.84344679  1
  Zn  Zn29  1  0.65628697  0.26745060  0.42400381  1
  Zn  Zn30  1  0.82118302  0.81392798  0.02455098  1
  Zn  Zn31  1  0.15451602  0.21062300  0.18607202  1
  Zn  Zn32  1  0.82118302  0.18607202  0.97544902  1
  Zn  Zn33  1  0.48785002  0.97544902  0.78937700  1
  Zn  Zn34  1  0.15451602  0.78937700  0.81392798  1
  Zn  Zn35  1  0.48785002  0.02455098  0.21062300  1
  Zn  Zn36  1  0.85762408  0.88882973  0.51875640  1
  Zn  Zn37  1  0.19095708  0.62992667  0.11117027  1
  Zn  Zn38  1  0.85762408  0.11117027  0.48124360  1
  Zn  Zn39  1  0.52429108  0.48124360  0.37007333  1
  Zn  Zn40  1  0.19095708  0.37007333  0.88882973  1
  Zn  Zn41  1  0.52429108  0.51875640  0.62992667  1
  Zn  Zn42  1  0.83300655  0.38405500  0.66136253  1
  Zn  Zn43  1  0.16633955  0.27730753  0.61594500  1
  Zn  Zn44  1  0.83300655  0.61594500  0.33863747  1
  Zn  Zn45  1  0.49967355  0.33863747  0.72269247  1
  Zn  Zn46  1  0.16633955  0.72269247  0.38405500  1
  Zn  Zn47  1  0.49967355  0.66136253  0.27730753  1
  Zn  Zn48  1  0.49475721  0.50000000  -0.00000000  1
  Zn  Zn49  1  0.82809021  0.50000000  0.50000000  1
  Zn  Zn50  1  0.16142421  -0.00000000  0.50000000  1
  Co  Co51  1  0.66219875  0.57481963  0.86005800  1
  Co  Co52  1  0.99553175  0.28523837  0.42518037  1
  Co  Co53  1  0.66219875  0.42518037  0.13994200  1
  Co  Co54  1  0.32886575  0.13994200  0.71476163  1
  Co  Co55  1  0.99553175  0.71476163  0.57481963  1
  Co  Co56  1  0.32886575  0.86005800  0.28523837  1
  Co  Co57  1  0.00000040  -0.00000000  -0.00000000  1
  Co  Co58  1  0.33333340  -0.00000000  -0.00000000  1
  Co  Co59  1  0.66666740  -0.00000000  -0.00000000  1
