# generated using pymatgen
data_Sm2NiRuO6
_symmetry_space_group_name_H-M   'P 1'
_cell_length_a   5.38883370
_cell_length_b   5.78638438
_cell_length_c   7.76061806
_cell_angle_alpha   89.99282381
_cell_angle_beta   90.35192510
_cell_angle_gamma   90.00754112
_symmetry_Int_Tables_number   1
_chemical_formula_structural   Sm2NiRuO6
_chemical_formula_sum   'Sm4 Ni2 Ru2 O12'
_cell_volume   241.98596176
_cell_formula_units_Z   2
loop_
 _symmetry_equiv_pos_site_id
 _symmetry_equiv_pos_as_xyz
  1  'x, y, z'
loop_
 _atom_site_type_symbol
 _atom_site_label
 _atom_site_symmetry_multiplicity
 _atom_site_fract_x
 _atom_site_fract_y
 _atom_site_fract_z
 _atom_site_occupancy
  Sm  Sm0  1  0.02197972  0.42864852  0.25083150  1
  Sm  Sm1  1  0.97802028  0.57135148  0.74916850  1
  Sm  Sm2  1  0.47808639  0.92864242  0.24928863  1
  Sm  Sm3  1  0.52191361  0.07135758  0.75071137  1
  Ni  Ni4  1  0.00000000  0.00000000  0.50000000  1
  Ni  Ni5  1  0.50000000  0.50000000  -0.00000000  1
  Ru  Ru6  1  0.00000000  0.00000000  -0.00000000  1
  Ru  Ru7  1  0.50000000  0.50000000  0.50000000  1
  O  O8  1  0.89084721  0.03654083  0.24619923  1
  O  O9  1  0.10915279  0.96345917  0.75380077  1
  O  O10  1  0.60919549  0.53655496  0.25374164  1
  O  O11  1  0.39080451  0.46344504  0.74625836  1
  O  O12  1  0.18870173  0.70203092  0.05771084  1
  O  O13  1  0.81129827  0.29796908  0.94228916  1
  O  O14  1  0.31137042  0.20232819  0.44217255  1
  O  O15  1  0.68862958  0.79767181  0.55782745  1
  O  O16  1  0.30417690  0.19371837  0.05179007  1
  O  O17  1  0.69582310  0.80628163  0.94820993  1
  O  O18  1  0.19560625  0.69383024  0.44805131  1
  O  O19  1  0.80439375  0.30616976  0.55194869  1
