# generated using pymatgen
data_Sm2Sn3(PbS4)3
_symmetry_space_group_name_H-M   'P 1'
_cell_length_a   3.96854782
_cell_length_b   11.71954231
_cell_length_c   20.60556683
_cell_angle_alpha   90.00000000
_cell_angle_beta   90.00000000
_cell_angle_gamma   90.00000000
_symmetry_Int_Tables_number   1
_chemical_formula_structural   Sm2Sn3(PbS4)3
_chemical_formula_sum   'Sm4 Sn6 Pb6 S24'
_cell_volume   958.35593100
_cell_formula_units_Z   2
loop_
 _symmetry_equiv_pos_site_id
 _symmetry_equiv_pos_as_xyz
  1  'x, y, z'
loop_
 _atom_site_type_symbol
 _atom_site_label
 _atom_site_symmetry_multiplicity
 _atom_site_fract_x
 _atom_site_fract_y
 _atom_site_fract_z
 _atom_site_occupancy
  Sm  Sm0  1  0.50000000  0.64964277  0.41231585  1
  Sm  Sm1  1  0.50000000  0.14964277  0.58768415  1
  Sm  Sm2  1  0.50000000  0.82497822  0.89439627  1
  Sm  Sm3  1  0.50000000  0.32497822  0.10560373  1
  Sn  Sn4  1  0.00000000  0.00168627  0.74991672  1
  Sn  Sn5  1  -0.00000000  0.50168627  0.25008328  1
  Sn  Sn6  1  -0.00000000  0.51860112  0.91182758  1
  Sn  Sn7  1  0.00000000  0.01860112  0.08817242  1
  Sn  Sn8  1  -0.00000000  0.99417805  0.42473624  1
  Sn  Sn9  1  -0.00000000  0.49417805  0.57526376  1
  Pb  Pb10  1  0.50000000  0.40321837  0.74253501  1
  Pb  Pb11  1  0.50000000  0.90321837  0.25746499  1
  Pb  Pb12  1  0.50000000  0.19863211  0.91363926  1
  Pb  Pb13  1  0.50000000  0.69863211  0.08636074  1
  Pb  Pb14  1  0.50000000  0.77099802  0.62292280  1
  Pb  Pb15  1  0.50000000  0.27099802  0.37707720  1
  S  S16  1  -0.00000000  0.99474799  0.87481694  1
  S  S17  1  0.00000000  0.49474799  0.12518306  1
  S  S18  1  0.00000000  0.98214252  0.62670900  1
  S  S19  1  0.00000000  0.48214252  0.37329100  1
  S  S20  1  0.00000000  0.68314570  0.51167459  1
  S  S21  1  0.00000000  0.18314570  0.48832541  1
  S  S22  1  0.50000000  0.64580040  0.25793697  1
  S  S23  1  0.50000000  0.14580040  0.74206303  1
  S  S24  1  0.50000000  0.85137193  0.75613126  1
  S  S25  1  0.50000000  0.35137193  0.24386874  1
  S  S26  1  0.50000000  0.59921483  0.84120912  1
  S  S27  1  0.50000000  0.09921483  0.15879088  1
  S  S28  1  0.50000000  0.43794842  0.98177745  1
  S  S29  1  0.50000000  0.93794842  0.01822255  1
  S  S30  1  0.50000000  0.93480285  0.48986365  1
  S  S31  1  0.50000000  0.43480285  0.51013635  1
  S  S32  1  0.00000000  0.33789408  0.84275202  1
  S  S33  1  0.00000000  0.83789408  0.15724798  1
  S  S34  1  0.00000000  0.71108611  0.97051728  1
  S  S35  1  -0.00000000  0.21108611  0.02948272  1
  S  S36  1  -0.00000000  0.80702558  0.35917961  1
  S  S37  1  -0.00000000  0.30702558  0.64082039  1
  S  S38  1  -0.00000000  0.60218466  0.67708135  1
  S  S39  1  0.00000000  0.10218466  0.32291865  1
