# generated using pymatgen
data_RePbBrO4
_symmetry_space_group_name_H-M   'P 1'
_cell_length_a   4.67980336
_cell_length_b   5.89205432
_cell_length_c   9.83759921
_cell_angle_alpha   90.00000000
_cell_angle_beta   90.00000000
_cell_angle_gamma   90.00000000
_symmetry_Int_Tables_number   1
_chemical_formula_structural   RePbBrO4
_chemical_formula_sum   'Re2 Pb2 Br2 O8'
_cell_volume   271.25857259
_cell_formula_units_Z   2
loop_
 _symmetry_equiv_pos_site_id
 _symmetry_equiv_pos_as_xyz
  1  'x, y, z'
loop_
 _atom_site_type_symbol
 _atom_site_label
 _atom_site_symmetry_multiplicity
 _atom_site_fract_x
 _atom_site_fract_y
 _atom_site_fract_z
 _atom_site_occupancy
  Re  Re0  1  0.41775772  -0.00000000  0.36835516  1
  Re  Re1  1  0.91775772  0.50000000  0.63164484  1
  Pb  Pb2  1  0.42209186  0.00000000  0.81276199  1
  Pb  Pb3  1  0.92209186  0.50000000  0.18723801  1
  Br  Br4  1  0.99337159  0.00000000  0.03397400  1
  Br  Br5  1  0.49337159  0.50000000  0.96602600  1
  O  O6  1  0.04673931  -0.00000000  0.36716935  1
  O  O7  1  0.54673931  0.50000000  0.63283065  1
  O  O8  1  0.52985007  0.24803460  0.28275328  1
  O  O9  1  0.02985007  0.25196540  0.71724672  1
  O  O10  1  0.02985007  0.74803460  0.71724672  1
  O  O11  1  0.52985007  0.75196540  0.28275328  1
  O  O12  1  0.52852937  0.00000000  0.53831007  1
  O  O13  1  0.02852937  0.50000000  0.46168993  1
