# generated using pymatgen
data_Nd4Re6O19
_symmetry_space_group_name_H-M   'P 1'
_cell_length_a   7.83545028
_cell_length_b   7.83545028
_cell_length_c   7.83545028
_cell_angle_alpha   109.47122063
_cell_angle_beta   109.47122063
_cell_angle_gamma   109.47122063
_symmetry_Int_Tables_number   1
_chemical_formula_structural   Nd4Re6O19
_chemical_formula_sum   'Nd4 Re6 O19'
_cell_volume   370.31387715
_cell_formula_units_Z   1
loop_
 _symmetry_equiv_pos_site_id
 _symmetry_equiv_pos_as_xyz
  1  'x, y, z'
loop_
 _atom_site_type_symbol
 _atom_site_label
 _atom_site_symmetry_multiplicity
 _atom_site_fract_x
 _atom_site_fract_y
 _atom_site_fract_z
 _atom_site_occupancy
  Nd  Nd0  1  0.68822872  0.68822872  0.68822872  1
  Nd  Nd1  1  0.31177128  -0.00000000  -0.00000000  1
  Nd  Nd2  1  0.00000000  0.31177128  -0.00000000  1
  Nd  Nd3  1  -0.00000000  0.00000000  0.31177128  1
  Re  Re4  1  0.36656636  0.86656636  0.50000000  1
  Re  Re5  1  0.63343364  0.13343364  0.50000000  1
  Re  Re6  1  0.86656636  0.50000000  0.36656636  1
  Re  Re7  1  0.13343364  0.50000000  0.63343364  1
  Re  Re8  1  0.50000000  0.36656636  0.86656636  1
  Re  Re9  1  0.50000000  0.63343364  0.13343364  1
  O  O10  1  0.68066645  0.68066645  -0.00000000  1
  O  O11  1  0.31933355  0.31933355  -0.00000000  1
  O  O12  1  0.68066645  -0.00000000  0.68066645  1
  O  O13  1  0.31933355  0.00000000  0.31933355  1
  O  O14  1  -0.00000000  0.68066645  0.68066645  1
  O  O15  1  0.00000000  0.31933355  0.31933355  1
  O  O16  1  -0.00000000  -0.00000000  -0.00000000  1
  O  O17  1  0.35853789  0.62076230  0.30237168  1
  O  O18  1  0.64146211  0.94383380  0.26222441  1
  O  O19  1  0.68160939  0.37923770  0.73777559  1
  O  O20  1  0.62076230  0.30237168  0.35853789  1
  O  O21  1  0.31839061  0.05616620  0.69762832  1
  O  O22  1  0.94383380  0.26222441  0.64146211  1
  O  O23  1  0.37923770  0.73777559  0.68160939  1
  O  O24  1  0.05616620  0.69762832  0.31839061  1
  O  O25  1  0.30237168  0.35853789  0.62076230  1
  O  O26  1  0.73777559  0.68160939  0.37923770  1
  O  O27  1  0.69762832  0.31839061  0.05616620  1
  O  O28  1  0.26222441  0.64146211  0.94383380  1
