# generated using pymatgen
data_MgTeMoO6
_symmetry_space_group_name_H-M   'P 1'
_cell_length_a   5.08877828
_cell_length_b   5.36432344
_cell_length_c   9.27286005
_cell_angle_alpha   90.00000000
_cell_angle_beta   90.00000000
_cell_angle_gamma   90.00000000
_symmetry_Int_Tables_number   1
_chemical_formula_structural   MgTeMoO6
_chemical_formula_sum   'Mg2 Te2 Mo2 O12'
_cell_volume   253.12916690
_cell_formula_units_Z   2
loop_
 _symmetry_equiv_pos_site_id
 _symmetry_equiv_pos_as_xyz
  1  'x, y, z'
loop_
 _atom_site_type_symbol
 _atom_site_label
 _atom_site_symmetry_multiplicity
 _atom_site_fract_x
 _atom_site_fract_y
 _atom_site_fract_z
 _atom_site_occupancy
  Mg  Mg0  1  0.00000000  0.50000000  0.03193966  1
  Mg  Mg1  1  0.50000000  0.00000000  0.96806034  1
  Te  Te2  1  0.00000000  0.00000000  0.23620265  1
  Te  Te3  1  0.50000000  0.50000000  0.76379735  1
  Mo  Mo4  1  0.00000000  0.00000000  0.69654166  1
  Mo  Mo5  1  0.50000000  0.50000000  0.30345834  1
  O  O6  1  0.23589008  0.67657027  0.20202068  1
  O  O7  1  0.76410992  0.32342973  0.20202068  1
  O  O8  1  0.26410992  0.17657027  0.79797932  1
  O  O9  1  0.73589008  0.82342973  0.79797932  1
  O  O10  1  0.22020305  0.17115554  0.10127516  1
  O  O11  1  0.77979695  0.82884446  0.10127516  1
  O  O12  1  0.27979695  0.67115554  0.89872484  1
  O  O13  1  0.72020305  0.32884446  0.89872484  1
  O  O14  1  0.34119109  0.28973352  0.41586446  1
  O  O15  1  0.65880891  0.71026648  0.41586446  1
  O  O16  1  0.15880891  0.78973352  0.58413554  1
  O  O17  1  0.84119109  0.21026648  0.58413554  1
