# generated using pymatgen
data_Rb3PrCl6
_symmetry_space_group_name_H-M   'P 1'
_cell_length_a   8.19692044
_cell_length_b   13.85358969
_cell_length_c   13.27347983
_cell_angle_alpha   108.19645932
_cell_angle_beta   90.00000000
_cell_angle_gamma   90.00000000
_symmetry_Int_Tables_number   1
_chemical_formula_structural   Rb3PrCl6
_chemical_formula_sum   'Rb12 Pr4 Cl24'
_cell_volume   1431.91581645
_cell_formula_units_Z   4
loop_
 _symmetry_equiv_pos_site_id
 _symmetry_equiv_pos_as_xyz
  1  'x, y, z'
loop_
 _atom_site_type_symbol
 _atom_site_label
 _atom_site_symmetry_multiplicity
 _atom_site_fract_x
 _atom_site_fract_y
 _atom_site_fract_z
 _atom_site_occupancy
  Rb  Rb0  1  0.43564207  0.68629120  0.73408931  1
  Rb  Rb1  1  0.56435793  0.31370880  0.26591069  1
  Rb  Rb2  1  0.93564207  0.31370880  0.76591069  1
  Rb  Rb3  1  0.06435793  0.68629120  0.23408931  1
  Rb  Rb4  1  0.96733008  0.90195810  0.64107809  1
  Rb  Rb5  1  0.03266992  0.09804190  0.35892191  1
  Rb  Rb6  1  0.46733008  0.09804190  0.85892191  1
  Rb  Rb7  1  0.53266992  0.90195810  0.14107809  1
  Rb  Rb8  1  0.93477994  0.67866908  0.88720302  1
  Rb  Rb9  1  0.06522006  0.32133092  0.11279698  1
  Rb  Rb10  1  0.43477994  0.32133092  0.61279698  1
  Rb  Rb11  1  0.56522006  0.67866908  0.38720302  1
  Pr  Pr12  1  0.00000000  0.50000000  0.50000000  1
  Pr  Pr13  1  0.50000000  0.50000000  -0.00000000  1
  Pr  Pr14  1  0.00000000  -0.00000000  -0.00000000  1
  Pr  Pr15  1  0.50000000  -0.00000000  0.50000000  1
  Cl  Cl16  1  0.49964542  0.88004423  0.62977568  1
  Cl  Cl17  1  0.50035458  0.11995577  0.37022432  1
  Cl  Cl18  1  0.99964542  0.11995577  0.87022432  1
  Cl  Cl19  1  0.00035458  0.88004423  0.12977568  1
  Cl  Cl20  1  0.29121366  0.65554007  0.99518352  1
  Cl  Cl21  1  0.70878634  0.34445993  0.00481648  1
  Cl  Cl22  1  0.79121366  0.34445993  0.50481648  1
  Cl  Cl23  1  0.20878634  0.65554007  0.49518352  1
  Cl  Cl24  1  0.78534675  0.65315461  0.60661679  1
  Cl  Cl25  1  0.21465325  0.34684539  0.39338321  1
  Cl  Cl26  1  0.28534675  0.34684539  0.89338321  1
  Cl  Cl27  1  0.71465325  0.65315461  0.10661679  1
  Cl  Cl28  1  0.64266001  0.50033730  0.80894042  1
  Cl  Cl29  1  0.35733999  0.49966270  0.19105958  1
  Cl  Cl30  1  0.14266001  0.49966270  0.69105958  1
  Cl  Cl31  1  0.85733999  0.50033730  0.30894042  1
  Cl  Cl32  1  0.18062600  0.86223173  0.84541234  1
  Cl  Cl33  1  0.81937400  0.13776827  0.15458766  1
  Cl  Cl34  1  0.68062600  0.13776827  0.65458766  1
  Cl  Cl35  1  0.31937400  0.86223173  0.34541234  1
  Cl  Cl36  1  0.71719985  0.89831421  0.90407398  1
  Cl  Cl37  1  0.28280015  0.10168579  0.09592602  1
  Cl  Cl38  1  0.21719985  0.10168579  0.59592602  1
  Cl  Cl39  1  0.78280015  0.89831421  0.40407398  1
