# generated using pymatgen
data_Si9Ni25
_symmetry_space_group_name_H-M   'P 1'
_cell_length_a   6.68146906
_cell_length_b   6.68146907
_cell_length_c   9.62654007
_cell_angle_alpha   90.00000000
_cell_angle_beta   90.00000000
_cell_angle_gamma   119.99999904
_symmetry_Int_Tables_number   1
_chemical_formula_structural   Si9Ni25
_chemical_formula_sum   'Si9 Ni25'
_cell_volume   372.17293081
_cell_formula_units_Z   1
loop_
 _symmetry_equiv_pos_site_id
 _symmetry_equiv_pos_as_xyz
  1  'x, y, z'
loop_
 _atom_site_type_symbol
 _atom_site_label
 _atom_site_symmetry_multiplicity
 _atom_site_fract_x
 _atom_site_fract_y
 _atom_site_fract_z
 _atom_site_occupancy
  Si  Si0  1  0.99040141  0.32850362  0.67673020  1
  Si  Si1  1  0.00959859  0.67149638  0.32326980  1
  Si  Si2  1  0.33810221  0.00959859  0.67673020  1
  Si  Si3  1  0.66189779  0.99040141  0.32326980  1
  Si  Si4  1  0.67149638  0.66189779  0.67673020  1
  Si  Si5  1  0.32850362  0.33810221  0.32326980  1
  Si  Si6  1  0.66666700  0.33333300  0.97840066  1
  Si  Si7  1  0.33333300  0.66666700  0.02159934  1
  Si  Si8  1  -0.00000000  -0.00000000  -0.00000000  1
  Ni  Ni9  1  0.65857619  0.70919695  0.92360079  1
  Ni  Ni10  1  0.34142381  0.29080305  0.07639921  1
  Ni  Ni11  1  0.05062077  0.34142381  0.92360079  1
  Ni  Ni12  1  0.94937923  0.65857619  0.07639921  1
  Ni  Ni13  1  0.29080305  0.94937923  0.92360079  1
  Ni  Ni14  1  0.70919695  0.05062077  0.07639921  1
  Ni  Ni15  1  0.66666700  0.33333300  0.60748998  1
  Ni  Ni16  1  0.33333300  0.66666700  0.39251002  1
  Ni  Ni17  1  -0.00000000  -0.00000000  0.75587509  1
  Ni  Ni18  1  -0.00000000  -0.00000000  0.24412491  1
  Ni  Ni19  1  -0.00000000  -0.00000000  0.50000000  1
  Ni  Ni20  1  0.66666700  0.33333300  0.23920747  1
  Ni  Ni21  1  0.33333300  0.66666700  0.76079253  1
  Ni  Ni22  1  0.67134220  0.07756800  0.81295651  1
  Ni  Ni23  1  0.32865780  0.92243200  0.18704349  1
  Ni  Ni24  1  0.40622579  0.32865780  0.81295651  1
  Ni  Ni25  1  0.59377421  0.67134220  0.18704349  1
  Ni  Ni26  1  0.92243200  0.59377421  0.81295651  1
  Ni  Ni27  1  0.07756800  0.40622579  0.18704349  1
  Ni  Ni28  1  0.62186655  0.93539852  0.56757306  1
  Ni  Ni29  1  0.37813345  0.06460148  0.43242694  1
  Ni  Ni30  1  0.31353197  0.37813345  0.56757306  1
  Ni  Ni31  1  0.68646803  0.62186655  0.43242694  1
  Ni  Ni32  1  0.06460148  0.68646803  0.56757306  1
  Ni  Ni33  1  0.93539852  0.31353197  0.43242694  1
