# generated using pymatgen
data_Rb2Mo4O13
_symmetry_space_group_name_H-M   'P 1'
_cell_length_a   8.48010556
_cell_length_b   8.59836847
_cell_length_c   10.51904629
_cell_angle_alpha   104.28042686
_cell_angle_beta   106.45050270
_cell_angle_gamma   109.84063250
_symmetry_Int_Tables_number   1
_chemical_formula_structural   Rb2Mo4O13
_chemical_formula_sum   'Rb4 Mo8 O26'
_cell_volume   640.03925214
_cell_formula_units_Z   2
loop_
 _symmetry_equiv_pos_site_id
 _symmetry_equiv_pos_as_xyz
  1  'x, y, z'
loop_
 _atom_site_type_symbol
 _atom_site_label
 _atom_site_symmetry_multiplicity
 _atom_site_fract_x
 _atom_site_fract_y
 _atom_site_fract_z
 _atom_site_occupancy
  Rb  Rb0  1  0.30970539  0.34869505  0.57181656  1
  Rb  Rb1  1  0.69029461  0.65130495  0.42818344  1
  Rb  Rb2  1  0.62216596  0.07259468  0.30551618  1
  Rb  Rb3  1  0.37783404  0.92740532  0.69448382  1
  Mo  Mo4  1  0.22639395  0.53973693  0.04156873  1
  Mo  Mo5  1  0.77360605  0.46026307  0.95843127  1
  Mo  Mo6  1  0.77791293  0.84703988  0.94253200  1
  Mo  Mo7  1  0.22208707  0.15296012  0.05746800  1
  Mo  Mo8  1  0.05225818  0.87290648  0.26781470  1
  Mo  Mo9  1  0.94774182  0.12709352  0.73218530  1
  Mo  Mo10  1  0.07611448  0.49709596  0.28872308  1
  Mo  Mo11  1  0.92388552  0.50290404  0.71127692  1
  O  O12  1  0.58466711  0.71959947  0.78195301  1
  O  O13  1  0.41533289  0.28040053  0.21804699  1
  O  O14  1  0.99062570  0.68281223  0.33690762  1
  O  O15  1  0.00937430  0.31718777  0.66309238  1
  O  O16  1  0.77921822  0.69262592  0.06129872  1
  O  O17  1  0.22078178  0.30737408  0.93870128  1
  O  O18  1  0.70357786  0.97692701  0.04060161  1
  O  O19  1  0.29642214  0.02307299  0.95939839  1
  O  O20  1  0.09746076  0.64560172  0.13227210  1
  O  O21  1  0.90253924  0.35439828  0.86772790  1
  O  O22  1  0.97115611  0.34531967  0.35602676  1
  O  O23  1  0.02884389  0.65468033  0.64397324  1
  O  O24  1  0.06756909  0.97947982  0.11595562  1
  O  O25  1  0.93243091  0.02052018  0.88404438  1
  O  O26  1  0.30096299  0.61739931  0.42080971  1
  O  O27  1  0.69903701  0.38260069  0.57919029  1
  O  O28  1  0.12193153  0.36026490  0.14170828  1
  O  O29  1  0.87806847  0.63973510  0.85829172  1
  O  O30  1  0.78318630  0.37657395  0.09708014  1
  O  O31  1  0.21681370  0.62342605  0.90291986  1
  O  O32  1  0.94454786  0.98324667  0.34458619  1
  O  O33  1  0.05545214  0.01675333  0.65541381  1
  O  O34  1  0.45089385  0.66369946  0.16716855  1
  O  O35  1  0.54910615  0.33630054  0.83283145  1
  O  O36  1  0.28374570  0.00120769  0.38091419  1
  O  O37  1  0.71625430  0.99879231  0.61908581  1
