# generated using pymatgen
data_Pr3CrS6
_symmetry_space_group_name_H-M   'P 1'
_cell_length_a   3.93354270
_cell_length_b   13.75115381
_cell_length_c   16.36349465
_cell_angle_alpha   90.00000000
_cell_angle_beta   90.00000000
_cell_angle_gamma   90.00000000
_symmetry_Int_Tables_number   1
_chemical_formula_structural   Pr3CrS6
_chemical_formula_sum   'Pr12 Cr4 S24'
_cell_volume   885.11370946
_cell_formula_units_Z   4
loop_
 _symmetry_equiv_pos_site_id
 _symmetry_equiv_pos_as_xyz
  1  'x, y, z'
loop_
 _atom_site_type_symbol
 _atom_site_label
 _atom_site_symmetry_multiplicity
 _atom_site_fract_x
 _atom_site_fract_y
 _atom_site_fract_z
 _atom_site_occupancy
  Pr  Pr0  1  0.00000000  0.55050624  0.28207707  1
  Pr  Pr1  1  0.00000000  0.44949376  0.71792293  1
  Pr  Pr2  1  0.50000000  0.94949376  0.78207707  1
  Pr  Pr3  1  0.50000000  0.05050624  0.21792293  1
  Pr  Pr4  1  0.00000000  0.75778568  0.09616115  1
  Pr  Pr5  1  0.00000000  0.24221432  0.90383885  1
  Pr  Pr6  1  0.50000000  0.74221432  0.59616115  1
  Pr  Pr7  1  0.50000000  0.25778568  0.40383885  1
  Pr  Pr8  1  -0.00000000  0.31948135  0.14773099  1
  Pr  Pr9  1  0.00000000  0.68051865  0.85226901  1
  Pr  Pr10  1  0.50000000  0.18051865  0.64773099  1
  Pr  Pr11  1  0.50000000  0.81948135  0.35226901  1
  Cr  Cr12  1  -0.00000000  0.00000000  0.50000000  1
  Cr  Cr13  1  0.50000000  0.50000000  0.00000000  1
  Cr  Cr14  1  0.00000000  0.00000000  0.00000000  1
  Cr  Cr15  1  0.50000000  0.50000000  0.50000000  1
  S  S16  1  0.00000000  0.12172920  0.10196472  1
  S  S17  1  -0.00000000  0.87827080  0.89803528  1
  S  S18  1  0.50000000  0.37827080  0.60196472  1
  S  S19  1  0.50000000  0.62172920  0.39803528  1
  S  S20  1  -0.00000000  0.18648140  0.28928863  1
  S  S21  1  0.00000000  0.81351860  0.71071137  1
  S  S22  1  0.50000000  0.31351860  0.78928863  1
  S  S23  1  0.50000000  0.68648140  0.21071137  1
  S  S24  1  0.00000000  0.17509393  0.51946995  1
  S  S25  1  0.00000000  0.82490607  0.48053005  1
  S  S26  1  0.50000000  0.32490607  0.01946995  1
  S  S27  1  0.50000000  0.67509393  0.98053005  1
  S  S28  1  0.00000000  0.52390789  0.09429752  1
  S  S29  1  -0.00000000  0.47609211  0.90570248  1
  S  S30  1  0.50000000  0.97609211  0.59429752  1
  S  S31  1  0.50000000  0.02390789  0.40570248  1
  S  S32  1  0.00000000  0.10356078  0.75566179  1
  S  S33  1  -0.00000000  0.89643922  0.24433821  1
  S  S34  1  0.50000000  0.39643922  0.25566179  1
  S  S35  1  0.50000000  0.60356078  0.74433821  1
  S  S36  1  -0.00000000  0.42082711  0.43000155  1
  S  S37  1  0.00000000  0.57917289  0.56999845  1
  S  S38  1  0.50000000  0.07917289  0.93000155  1
  S  S39  1  0.50000000  0.92082711  0.06999845  1
