# generated using pymatgen
data_RbCoBr3
_symmetry_space_group_name_H-M   'P 1'
_cell_length_a   6.24363722
_cell_length_b   12.91575735
_cell_length_c   12.91575735
_cell_angle_alpha   120.00000014
_cell_angle_beta   90.00000000
_cell_angle_gamma   90.00000000
_symmetry_Int_Tables_number   1
_chemical_formula_structural   RbCoBr3
_chemical_formula_sum   'Rb6 Co6 Br18'
_cell_volume   902.00313372
_cell_formula_units_Z   6
loop_
 _symmetry_equiv_pos_site_id
 _symmetry_equiv_pos_as_xyz
  1  'x, y, z'
loop_
 _atom_site_type_symbol
 _atom_site_label
 _atom_site_symmetry_multiplicity
 _atom_site_fract_x
 _atom_site_fract_y
 _atom_site_fract_z
 _atom_site_occupancy
  Rb  Rb0  1  0.73029743  0.66562652  0.99880397  1
  Rb  Rb1  1  0.73029743  0.33317746  0.33437348  1
  Rb  Rb2  1  0.23029743  0.33317746  0.99880397  1
  Rb  Rb3  1  0.73029743  0.00119603  0.66682254  1
  Rb  Rb4  1  0.23029743  0.00119603  0.33437348  1
  Rb  Rb5  1  0.23029743  0.66562652  0.66682254  1
  Co  Co6  1  0.94903860  0.66666700  0.33333300  1
  Co  Co7  1  0.44903860  0.66666700  0.33333300  1
  Co  Co8  1  0.99301872  0.33333300  0.66666700  1
  Co  Co9  1  0.49301872  0.33333300  0.66666700  1
  Co  Co10  1  0.00825083  -0.00000000  -0.00000000  1
  Co  Co11  1  0.50825083  -0.00000000  -0.00000000  1
  Br  Br12  1  0.75887647  0.99969511  0.15819123  1
  Br  Br13  1  0.75887647  0.15849612  0.00030489  1
  Br  Br14  1  0.25887647  0.15849612  0.15819123  1
  Br  Br15  1  0.75887647  0.84180877  0.84150388  1
  Br  Br16  1  0.25887647  0.84180877  0.00030489  1
  Br  Br17  1  0.25887647  0.99969511  0.84150388  1
  Br  Br18  1  0.69724585  0.82584931  0.33332343  1
  Br  Br19  1  0.69724585  0.50747412  0.17415069  1
  Br  Br20  1  0.19724585  0.50747412  0.33332343  1
  Br  Br21  1  0.69724585  0.66667657  0.49252588  1
  Br  Br22  1  0.19724585  0.66667657  0.17415069  1
  Br  Br23  1  0.19724585  0.82584931  0.49252588  1
  Br  Br24  1  0.74281087  0.49233292  0.66620084  1
  Br  Br25  1  0.74281087  0.17386792  0.50766708  1
  Br  Br26  1  0.24281087  0.17386792  0.66620084  1
  Br  Br27  1  0.74281087  0.33379916  0.82613208  1
  Br  Br28  1  0.24281087  0.33379916  0.50766708  1
  Br  Br29  1  0.24281087  0.49233292  0.82613208  1
