# generated using pymatgen
data_Li5Mn(CoO4)2
_symmetry_space_group_name_H-M   'P 1'
_cell_length_a   2.91066916
_cell_length_b   9.74222824
_cell_length_c   5.07703802
_cell_angle_alpha   101.14747361
_cell_angle_beta   90.00000000
_cell_angle_gamma   90.00000000
_symmetry_Int_Tables_number   1
_chemical_formula_structural   Li5Mn(CoO4)2
_chemical_formula_sum   'Li5 Mn1 Co2 O8'
_cell_volume   141.25029340
_cell_formula_units_Z   1
loop_
 _symmetry_equiv_pos_site_id
 _symmetry_equiv_pos_as_xyz
  1  'x, y, z'
loop_
 _atom_site_type_symbol
 _atom_site_label
 _atom_site_symmetry_multiplicity
 _atom_site_fract_x
 _atom_site_fract_y
 _atom_site_fract_z
 _atom_site_occupancy
  Li  Li0  1  -0.00000000  0.73098415  0.23858439  1
  Li  Li1  1  0.50000000  0.26202821  0.25853894  1
  Li  Li2  1  -0.00000000  0.26901585  0.76141561  1
  Li  Li3  1  0.50000000  0.73797179  0.74146106  1
  Li  Li4  1  0.50000000  0.50000000  0.00000000  1
  Mn  Mn5  1  -0.00000000  -0.00000000  0.00000000  1
  Co  Co6  1  -0.00000000  0.50000000  0.50000000  1
  Co  Co7  1  0.50000000  -0.00000000  0.50000000  1
  O  O8  1  -0.00000000  0.10959207  0.35817379  1
  O  O9  1  0.50000000  0.61293701  0.38555794  1
  O  O10  1  0.00000000  0.61066239  0.82904034  1
  O  O11  1  0.50000000  0.11514255  0.89821418  1
  O  O12  1  -0.00000000  0.38933761  0.17095966  1
  O  O13  1  0.50000000  0.88485745  0.10178582  1
  O  O14  1  0.00000000  0.89040793  0.64182621  1
  O  O15  1  0.50000000  0.38706299  0.61444206  1
