# generated using pymatgen
data_LuAg(WO4)2
_symmetry_space_group_name_H-M   'P 1'
_cell_length_a   7.27179292
_cell_length_b   7.30273339
_cell_length_c   7.30273339
_cell_angle_alpha   94.31513606
_cell_angle_beta   113.95344323
_cell_angle_gamma   113.95344323
_symmetry_Int_Tables_number   1
_chemical_formula_structural   LuAg(WO4)2
_chemical_formula_sum   'Lu2 Ag2 W4 O16'
_cell_volume   310.21213900
_cell_formula_units_Z   2
loop_
 _symmetry_equiv_pos_site_id
 _symmetry_equiv_pos_as_xyz
  1  'x, y, z'
loop_
 _atom_site_type_symbol
 _atom_site_label
 _atom_site_symmetry_multiplicity
 _atom_site_fract_x
 _atom_site_fract_y
 _atom_site_fract_z
 _atom_site_occupancy
  Lu  Lu0  1  -0.00000000  0.69860429  0.30139571  1
  Lu  Lu1  1  -0.00000000  0.30139571  0.69860429  1
  Ag  Ag2  1  0.51993648  0.68251006  0.68251006  1
  Ag  Ag3  1  0.48006352  0.31748994  0.31748994  1
  W  W4  1  0.96713523  0.21149303  0.21149303  1
  W  W5  1  0.03286477  0.78850697  0.78850697  1
  W  W6  1  0.50000000  0.83398115  0.16601885  1
  W  W7  1  0.50000000  0.16601885  0.83398115  1
  O  O8  1  0.75610156  0.35794811  0.10353688  1
  O  O9  1  0.24389844  0.64205189  0.89646312  1
  O  O10  1  0.24389844  0.89646312  0.64205189  1
  O  O11  1  0.75610156  0.10353688  0.35794811  1
  O  O12  1  0.65555548  0.68636441  0.22238479  1
  O  O13  1  0.34444452  0.31363559  0.77761521  1
  O  O14  1  0.34444452  0.77761521  0.31363559  1
  O  O15  1  0.65555548  0.22238479  0.68636441  1
  O  O16  1  0.91815928  0.69974296  0.96438445  1
  O  O17  1  0.08184072  0.30025704  0.03561555  1
  O  O18  1  0.08184072  0.03561555  0.30025704  1
  O  O19  1  0.91815928  0.96438445  0.69974296  1
  O  O20  1  0.65764644  0.97752878  0.97752878  1
  O  O21  1  0.34235356  0.02247122  0.02247122  1
  O  O22  1  0.86530434  0.55340712  0.55340712  1
  O  O23  1  0.13469566  0.44659288  0.44659288  1
