# generated using pymatgen
data_KTi4O8
_symmetry_space_group_name_H-M   'P 1'
_cell_length_a   3.00355843
_cell_length_b   7.37159618
_cell_length_c   7.37159618
_cell_angle_alpha   87.62131738
_cell_angle_beta   78.24512188
_cell_angle_gamma   78.24512188
_symmetry_Int_Tables_number   1
_chemical_formula_structural   KTi4O8
_chemical_formula_sum   'K1 Ti4 O8'
_cell_volume   156.44060938
_cell_formula_units_Z   1
loop_
 _symmetry_equiv_pos_site_id
 _symmetry_equiv_pos_as_xyz
  1  'x, y, z'
loop_
 _atom_site_type_symbol
 _atom_site_label
 _atom_site_symmetry_multiplicity
 _atom_site_fract_x
 _atom_site_fract_y
 _atom_site_fract_z
 _atom_site_occupancy
  K  K0  1  -0.00000000  -0.00000000  0.00000000  1
  Ti  Ti1  1  0.33059189  0.81765906  0.52115716  1
  Ti  Ti2  1  0.66940811  0.18234094  0.47884284  1
  Ti  Ti3  1  0.85174905  0.47884284  0.81765906  1
  Ti  Ti4  1  0.14825095  0.52115716  0.18234094  1
  O  O5  1  0.29996760  0.04607232  0.35399247  1
  O  O6  1  0.70003240  0.95392768  0.64600753  1
  O  O7  1  0.65396007  0.64600753  0.04607232  1
  O  O8  1  0.34603993  0.35399247  0.95392768  1
  O  O9  1  0.04205225  0.29259419  0.62330131  1
  O  O10  1  0.95794775  0.70740581  0.37669869  1
  O  O11  1  0.66535356  0.37669869  0.29259419  1
  O  O12  1  0.33464644  0.62330131  0.70740581  1
