# generated using pymatgen
data_KEuTiO4
_symmetry_space_group_name_H-M   'P 1'
_cell_length_a   5.54203136
_cell_length_b   13.33030910
_cell_length_c   5.46096375
_cell_angle_alpha   90.00000000
_cell_angle_beta   90.00000000
_cell_angle_gamma   90.00000000
_symmetry_Int_Tables_number   1
_chemical_formula_structural   KEuTiO4
_chemical_formula_sum   'K4 Eu4 Ti4 O16'
_cell_volume   403.43957020
_cell_formula_units_Z   4
loop_
 _symmetry_equiv_pos_site_id
 _symmetry_equiv_pos_as_xyz
  1  'x, y, z'
loop_
 _atom_site_type_symbol
 _atom_site_label
 _atom_site_symmetry_multiplicity
 _atom_site_fract_x
 _atom_site_fract_y
 _atom_site_fract_z
 _atom_site_occupancy
  K  K0  1  0.01796350  0.40420291  0.75000000  1
  K  K1  1  0.98203650  0.59579709  0.25000000  1
  K  K2  1  0.51796350  0.59579709  0.75000000  1
  K  K3  1  0.48203650  0.40420291  0.25000000  1
  Eu  Eu4  1  0.52353911  0.89789366  0.75000000  1
  Eu  Eu5  1  0.47646089  0.10210634  0.25000000  1
  Eu  Eu6  1  0.02353911  0.10210634  0.75000000  1
  Eu  Eu7  1  0.97646089  0.89789366  0.25000000  1
  Ti  Ti8  1  0.00719014  0.75273669  0.75000000  1
  Ti  Ti9  1  0.99280986  0.24726331  0.25000000  1
  Ti  Ti10  1  0.50719014  0.24726331  0.75000000  1
  Ti  Ti11  1  0.49280986  0.75273669  0.25000000  1
  O  O12  1  0.93677271  0.93577354  0.75000000  1
  O  O13  1  0.06322729  0.06422646  0.25000000  1
  O  O14  1  0.43677271  0.06422646  0.75000000  1
  O  O15  1  0.56322729  0.93577354  0.25000000  1
  O  O16  1  0.52629454  0.37963863  0.75000000  1
  O  O17  1  0.47370546  0.62036137  0.25000000  1
  O  O18  1  0.02629454  0.62036137  0.75000000  1
  O  O19  1  0.97370546  0.37963863  0.25000000  1
  O  O20  1  0.75000000  0.77084730  0.00000000  1
  O  O21  1  0.25000000  0.22915270  0.00000000  1
  O  O22  1  0.25000000  0.22915270  0.50000000  1
  O  O23  1  0.75000000  0.77084730  0.50000000  1
  O  O24  1  0.75000000  0.20617612  0.00000000  1
  O  O25  1  0.25000000  0.79382388  0.00000000  1
  O  O26  1  0.25000000  0.79382388  0.50000000  1
  O  O27  1  0.75000000  0.20617612  0.50000000  1
