# generated using pymatgen
data_La10Al5I8
_symmetry_space_group_name_H-M   'P 1'
_cell_length_a   4.40465597
_cell_length_b   10.23426681
_cell_length_c   18.21242580
_cell_angle_alpha   95.92641389
_cell_angle_beta   90.00000000
_cell_angle_gamma   102.42676675
_symmetry_Int_Tables_number   1
_chemical_formula_structural   La10Al5I8
_chemical_formula_sum   'La10 Al5 I8'
_cell_volume   797.25947988
_cell_formula_units_Z   1
loop_
 _symmetry_equiv_pos_site_id
 _symmetry_equiv_pos_as_xyz
  1  'x, y, z'
loop_
 _atom_site_type_symbol
 _atom_site_label
 _atom_site_symmetry_multiplicity
 _atom_site_fract_x
 _atom_site_fract_y
 _atom_site_fract_z
 _atom_site_occupancy
  La  La0  1  0.87152451  0.74304902  0.67547715  1
  La  La1  1  0.12847549  0.25695098  0.32452285  1
  La  La2  1  0.53720317  0.07440633  0.61043582  1
  La  La3  1  0.46279683  0.92559367  0.38956418  1
  La  La4  1  0.51555615  0.03111229  0.88849476  1
  La  La5  1  0.48444385  0.96888771  0.11150524  1
  La  La6  1  0.78918687  0.57837375  0.43309475  1
  La  La7  1  0.21081313  0.42162625  0.56690525  1
  La  La8  1  0.85257580  0.70515159  0.95567631  1
  La  La9  1  0.14742420  0.29484841  0.04432369  1
  Al  Al10  1  0.93902198  0.87804396  0.51881969  1
  Al  Al11  1  0.06097802  0.12195604  0.48118031  1
  Al  Al12  1  0.62791789  0.25583579  0.45338370  1
  Al  Al13  1  0.37208211  0.74416421  0.54661630  1
  Al  Al14  1  -0.00000000  0.00000000  -0.00000000  1
  I  I15  1  0.35398396  0.70796792  0.81999541  1
  I  I16  1  0.64601604  0.29203208  0.18000459  1
  I  I17  1  0.96960276  0.93920552  0.25035807  1
  I  I18  1  0.03039724  0.06079448  0.74964193  1
  I  I19  1  0.70372019  0.40744039  0.69892553  1
  I  I20  1  0.29627981  0.59255961  0.30107447  1
  I  I21  1  0.68218884  0.36437769  0.91920323  1
  I  I22  1  0.31781116  0.63562231  0.08079677  1
