# generated using pymatgen
data_HoMg(BO2)5
_symmetry_space_group_name_H-M   'P 1'
_cell_length_a   7.65433241
_cell_length_b   8.62461110
_cell_length_c   9.35155206
_cell_angle_alpha   93.66817600
_cell_angle_beta   90.00000000
_cell_angle_gamma   90.00000000
_symmetry_Int_Tables_number   1
_chemical_formula_structural   HoMg(BO2)5
_chemical_formula_sum   'Ho4 Mg4 B20 O40'
_cell_volume   616.08393947
_cell_formula_units_Z   4
loop_
 _symmetry_equiv_pos_site_id
 _symmetry_equiv_pos_as_xyz
  1  'x, y, z'
loop_
 _atom_site_type_symbol
 _atom_site_label
 _atom_site_symmetry_multiplicity
 _atom_site_fract_x
 _atom_site_fract_y
 _atom_site_fract_z
 _atom_site_occupancy
  Ho  Ho0  1  0.80727112  0.81172435  0.75925745  1
  Ho  Ho1  1  0.19272888  0.18827565  0.24074255  1
  Ho  Ho2  1  0.30727112  0.68827565  0.74074255  1
  Ho  Ho3  1  0.69272888  0.31172435  0.25925745  1
  Mg  Mg4  1  0.09152921  0.09993489  0.62816432  1
  Mg  Mg5  1  0.90847079  0.90006511  0.37183568  1
  Mg  Mg6  1  0.59152921  0.40006511  0.87183568  1
  Mg  Mg7  1  0.40847079  0.59993489  0.12816432  1
  B  B8  1  0.17381828  0.98380600  0.89577696  1
  B  B9  1  0.82618172  0.01619400  0.10422304  1
  B  B10  1  0.67381828  0.51619400  0.60422304  1
  B  B11  1  0.32618172  0.48380600  0.39577696  1
  B  B12  1  0.42449896  0.08169464  0.74094853  1
  B  B13  1  0.57550104  0.91830536  0.25905147  1
  B  B14  1  0.92449896  0.41830536  0.75905147  1
  B  B15  1  0.07550104  0.58169464  0.24094853  1
  B  B16  1  0.18821035  0.43489627  0.91122166  1
  B  B17  1  0.81178965  0.56510373  0.08877834  1
  B  B18  1  0.68821035  0.06510373  0.58877834  1
  B  B19  1  0.31178965  0.93489627  0.41122166  1
  B  B20  1  0.53221170  0.72204897  0.44408105  1
  B  B21  1  0.46778830  0.27795103  0.55591895  1
  B  B22  1  0.03221170  0.77795103  0.05591895  1
  B  B23  1  0.96778830  0.22204897  0.94408105  1
  B  B24  1  0.40269706  0.16037256  0.00509890  1
  B  B25  1  0.59730294  0.83962744  0.99490110  1
  B  B26  1  0.90269706  0.33962744  0.49490110  1
  B  B27  1  0.09730294  0.66037256  0.50509890  1
  O  O28  1  0.08624958  0.49626779  0.80701499  1
  O  O29  1  0.91375042  0.50373221  0.19298501  1
  O  O30  1  0.58624958  0.00373221  0.69298501  1
  O  O31  1  0.41375042  0.99626779  0.30701499  1
  O  O32  1  0.12732176  0.31622112  0.98892715  1
  O  O33  1  0.87267824  0.68377888  0.01107285  1
  O  O34  1  0.62732176  0.18377888  0.51107285  1
  O  O35  1  0.37267824  0.81622112  0.48892715  1
  O  O36  1  0.61053530  0.67486443  0.58091347  1
  O  O37  1  0.38946470  0.32513557  0.41908653  1
  O  O38  1  0.11053530  0.82513557  0.91908653  1
  O  O39  1  0.88946470  0.17486443  0.08091347  1
  O  O40  1  0.29033330  0.96391462  0.76860327  1
  O  O41  1  0.70966670  0.03608538  0.23139673  1
  O  O42  1  0.79033330  0.53608538  0.73139673  1
  O  O43  1  0.20966670  0.46391462  0.26860327  1
  O  O44  1  0.34974932  0.50282249  0.92506220  1
  O  O45  1  0.65025068  0.49717751  0.07493780  1
  O  O46  1  0.84974932  0.99717751  0.57493780  1
  O  O47  1  0.15025068  0.00282249  0.42506220  1
  O  O48  1  0.22824661  0.54928037  0.52074290  1
  O  O49  1  0.77175339  0.45071963  0.47925710  1
  O  O50  1  0.72824661  0.95071963  0.97925710  1
  O  O51  1  0.27175339  0.04928037  0.02074290  1
  O  O52  1  0.34984153  0.18099392  0.63454745  1
  O  O53  1  0.65015847  0.81900608  0.36545255  1
  O  O54  1  0.84984153  0.31900608  0.86545255  1
  O  O55  1  0.15015847  0.68099392  0.13454745  1
  O  O56  1  0.47153567  0.18294123  0.87226148  1
  O  O57  1  0.52846433  0.81705877  0.12773852  1
  O  O58  1  0.97153567  0.31705877  0.62773852  1
  O  O59  1  0.02846433  0.68294123  0.37226148  1
  O  O60  1  0.04814395  0.74358998  0.62589247  1
  O  O61  1  0.95185605  0.25641002  0.37410753  1
  O  O62  1  0.54814395  0.75641002  0.87410753  1
  O  O63  1  0.45185605  0.24358998  0.12589247  1
  O  O64  1  0.02817165  0.08470034  0.85109613  1
  O  O65  1  0.97182835  0.91529966  0.14890387  1
  O  O66  1  0.52817165  0.41529966  0.64890387  1
  O  O67  1  0.47182835  0.58470034  0.35109613  1
