# generated using pymatgen
data_Mn3Ga2(GeO4)3
_symmetry_space_group_name_H-M   'P 1'
_cell_length_a   10.55969690
_cell_length_b   10.55969690
_cell_length_c   10.55969690
_cell_angle_alpha   109.47122063
_cell_angle_beta   109.47122063
_cell_angle_gamma   109.47122063
_symmetry_Int_Tables_number   1
_chemical_formula_structural   Mn3Ga2(GeO4)3
_chemical_formula_sum   'Mn12 Ga8 Ge12 O48'
_cell_volume   906.42623626
_cell_formula_units_Z   4
loop_
 _symmetry_equiv_pos_site_id
 _symmetry_equiv_pos_as_xyz
  1  'x, y, z'
loop_
 _atom_site_type_symbol
 _atom_site_label
 _atom_site_symmetry_multiplicity
 _atom_site_fract_x
 _atom_site_fract_y
 _atom_site_fract_z
 _atom_site_occupancy
  Mn  Mn0  1  0.87500000  0.62500000  0.75000000  1
  Mn  Mn1  1  0.12500000  0.37500000  0.25000000  1
  Mn  Mn2  1  0.62500000  0.87500000  0.25000000  1
  Mn  Mn3  1  0.62500000  0.75000000  0.87500000  1
  Mn  Mn4  1  0.87500000  0.25000000  0.62500000  1
  Mn  Mn5  1  0.37500000  0.12500000  0.75000000  1
  Mn  Mn6  1  0.37500000  0.25000000  0.12500000  1
  Mn  Mn7  1  0.12500000  0.75000000  0.37500000  1
  Mn  Mn8  1  0.75000000  0.87500000  0.62500000  1
  Mn  Mn9  1  0.25000000  0.12500000  0.37500000  1
  Mn  Mn10  1  0.25000000  0.62500000  0.87500000  1
  Mn  Mn11  1  0.75000000  0.37500000  0.12500000  1
  Ga  Ga12  1  0.00000000  0.00000000  0.00000000  1
  Ga  Ga13  1  0.50000000  0.00000000  0.50000000  1
  Ga  Ga14  1  0.50000000  0.50000000  0.00000000  1
  Ga  Ga15  1  0.00000000  0.00000000  0.50000000  1
  Ga  Ga16  1  0.00000000  0.50000000  0.50000000  1
  Ga  Ga17  1  0.50000000  0.50000000  0.50000000  1
  Ga  Ga18  1  0.50000000  0.00000000  0.00000000  1
  Ga  Ga19  1  0.00000000  0.50000000  0.00000000  1
  Ge  Ge20  1  0.62500000  0.37500000  0.75000000  1
  Ge  Ge21  1  0.37500000  0.62500000  0.25000000  1
  Ge  Ge22  1  0.87500000  0.12500000  0.25000000  1
  Ge  Ge23  1  0.37500000  0.75000000  0.62500000  1
  Ge  Ge24  1  0.62500000  0.25000000  0.37500000  1
  Ge  Ge25  1  0.12500000  0.87500000  0.75000000  1
  Ge  Ge26  1  0.12500000  0.25000000  0.87500000  1
  Ge  Ge27  1  0.87500000  0.75000000  0.12500000  1
  Ge  Ge28  1  0.75000000  0.62500000  0.37500000  1
  Ge  Ge29  1  0.25000000  0.37500000  0.62500000  1
  Ge  Ge30  1  0.25000000  0.87500000  0.12500000  1
  Ge  Ge31  1  0.75000000  0.12500000  0.87500000  1
  O  O32  1  0.70391894  0.62417765  0.52227621  1
  O  O33  1  0.29608106  0.37582235  0.47772379  1
  O  O34  1  0.79608106  0.81835727  0.42025871  1
  O  O35  1  0.39809855  0.87582235  0.07974129  1
  O  O36  1  0.62417765  0.52227621  0.70391894  1
  O  O37  1  0.70391894  0.07974129  0.68164273  1
  O  O38  1  0.20391894  0.18164273  0.57974129  1
  O  O39  1  0.60190145  0.12417765  0.92025871  1
  O  O40  1  0.37582235  0.47772379  0.29608106  1
  O  O41  1  0.29608106  0.92025871  0.31835727  1
  O  O42  1  0.10190145  0.68164273  0.97772379  1
  O  O43  1  0.81835727  0.42025871  0.79608106  1
  O  O44  1  0.79608106  0.97772379  0.87582235  1
  O  O45  1  0.89809855  0.31835727  0.02227621  1
  O  O46  1  0.18164273  0.57974129  0.20391894  1
  O  O47  1  0.20391894  0.02227621  0.12417765  1
  O  O48  1  0.87582235  0.07974129  0.39809855  1
  O  O49  1  0.39809855  0.52227621  0.81835727  1
  O  O50  1  0.12417765  0.92025871  0.60190145  1
  O  O51  1  0.60190145  0.47772379  0.18164273  1
  O  O52  1  0.68164273  0.97772379  0.10190145  1
  O  O53  1  0.10190145  0.42025871  0.62417765  1
  O  O54  1  0.31835727  0.02227621  0.89809855  1
  O  O55  1  0.89809855  0.57974129  0.37582235  1
  O  O56  1  0.52227621  0.70391894  0.62417765  1
  O  O57  1  0.62417765  0.10190145  0.42025871  1
  O  O58  1  0.47772379  0.29608106  0.37582235  1
  O  O59  1  0.37582235  0.89809855  0.57974129  1
  O  O60  1  0.07974129  0.39809855  0.87582235  1
  O  O61  1  0.87582235  0.79608106  0.97772379  1
  O  O62  1  0.92025871  0.60190145  0.12417765  1
  O  O63  1  0.12417765  0.20391894  0.02227621  1
  O  O64  1  0.97772379  0.10190145  0.68164273  1
  O  O65  1  0.68164273  0.70391894  0.07974129  1
  O  O66  1  0.02227621  0.89809855  0.31835727  1
  O  O67  1  0.31835727  0.29608106  0.92025871  1
  O  O68  1  0.42025871  0.79608106  0.81835727  1
  O  O69  1  0.81835727  0.39809855  0.52227621  1
  O  O70  1  0.57974129  0.20391894  0.18164273  1
  O  O71  1  0.18164273  0.60190145  0.47772379  1
  O  O72  1  0.07974129  0.68164273  0.70391894  1
  O  O73  1  0.92025871  0.31835727  0.29608106  1
  O  O74  1  0.97772379  0.87582235  0.79608106  1
  O  O75  1  0.02227621  0.12417765  0.20391894  1
  O  O76  1  0.42025871  0.62417765  0.10190145  1
  O  O77  1  0.57974129  0.37582235  0.89809855  1
  O  O78  1  0.52227621  0.81835727  0.39809855  1
  O  O79  1  0.47772379  0.18164273  0.60190145  1
