# generated using pymatgen
data_K3(SO4)2
_symmetry_space_group_name_H-M   'P 1'
_cell_length_a   5.77549397
_cell_length_b   7.96446322
_cell_length_c   9.85225793
_cell_angle_alpha   102.30405788
_cell_angle_beta   90.00000000
_cell_angle_gamma   111.25866793
_symmetry_Int_Tables_number   1
_chemical_formula_structural   K3(SO4)2
_chemical_formula_sum   'K6 S4 O16'
_cell_volume   411.16327636
_cell_formula_units_Z   2
loop_
 _symmetry_equiv_pos_site_id
 _symmetry_equiv_pos_as_xyz
  1  'x, y, z'
loop_
 _atom_site_type_symbol
 _atom_site_label
 _atom_site_symmetry_multiplicity
 _atom_site_fract_x
 _atom_site_fract_y
 _atom_site_fract_z
 _atom_site_occupancy
  K  K0  1  0.74365348  0.00000000  0.75000000  1
  K  K1  1  0.25634652  1.00000000  0.25000000  1
  K  K2  1  0.41675546  0.38171915  0.65069268  1
  K  K3  1  0.58324454  0.61828085  0.34930732  1
  K  K4  1  0.03503631  0.61828085  0.84930732  1
  K  K5  1  0.96496369  0.38171915  0.15069268  1
  S  S6  1  0.39786544  0.22772577  0.96327834  1
  S  S7  1  0.60213456  0.77227423  0.03672166  1
  S  S8  1  0.17013967  0.77227423  0.53672166  1
  S  S9  1  0.82986033  0.22772577  0.46327834  1
  O  O10  1  0.57460787  0.69311086  0.88455776  1
  O  O11  1  0.42539213  0.30688914  0.11544224  1
  O  O12  1  0.88149701  0.30688914  0.61544224  1
  O  O13  1  0.11850299  0.69311086  0.38455776  1
  O  O14  1  0.63533702  0.30382252  0.89965225  1
  O  O15  1  0.36466298  0.69617748  0.10034775  1
  O  O16  1  0.33151450  0.69617748  0.60034775  1
  O  O17  1  0.66848550  0.30382252  0.39965225  1
  O  O18  1  0.19257642  0.25949884  0.89406949  1
  O  O19  1  0.80742358  0.74050116  0.10593051  1
  O  O20  1  0.93307758  0.74050116  0.60593051  1
  O  O21  1  0.06692242  0.25949884  0.39406949  1
  O  O22  1  0.31776558  0.01937490  0.93748896  1
  O  O23  1  0.68223442  0.98062510  0.06251104  1
  O  O24  1  0.29839068  0.98062510  0.56251104  1
  O  O25  1  0.70160932  0.01937490  0.43748896  1
