# generated using pymatgen
data_Na3PrV2O8
_symmetry_space_group_name_H-M   'P 1'
_cell_length_a   5.67683287
_cell_length_b   14.43432965
_cell_length_c   15.10762632
_cell_angle_alpha   91.37217632
_cell_angle_beta   100.82907053
_cell_angle_gamma   90.00000000
_symmetry_Int_Tables_number   1
_chemical_formula_structural   Na3PrV2O8
_chemical_formula_sum   'Na18 Pr6 V12 O48'
_cell_volume   1215.53161970
_cell_formula_units_Z   6
loop_
 _symmetry_equiv_pos_site_id
 _symmetry_equiv_pos_as_xyz
  1  'x, y, z'
loop_
 _atom_site_type_symbol
 _atom_site_label
 _atom_site_symmetry_multiplicity
 _atom_site_fract_x
 _atom_site_fract_y
 _atom_site_fract_z
 _atom_site_occupancy
  Na  Na0  1  0.70737778  0.41714558  0.42061248  1
  Na  Na1  1  0.71323470  0.91714558  0.42061248  1
  Na  Na2  1  0.82047628  0.32743585  0.67570764  1
  Na  Na3  1  0.85523136  0.82743585  0.67570764  1
  Na  Na4  1  0.66577329  0.07509317  0.22074254  1
  Na  Na5  1  0.55496925  0.57509317  0.22074254  1
  Na  Na6  1  0.45654225  0.23530595  0.00670515  1
  Na  Na7  1  0.55016290  0.73530595  0.00670515  1
  Na  Na8  1  0.94534072  0.00839503  0.87835262  1
  Na  Na9  1  0.93301189  0.50839503  0.87835262  1
  Na  Na10  1  0.39206125  0.39072802  0.80390432  1
  Na  Na11  1  0.41184306  0.89072802  0.80390432  1
  Na  Na12  1  0.06681583  0.15412130  0.11709038  1
  Na  Na13  1  0.05027454  0.65412130  0.11709038  1
  Na  Na14  1  0.28362657  0.47477721  0.55601533  1
  Na  Na15  1  0.27238876  0.97477721  0.55601533  1
  Na  Na16  1  0.19403200  0.29553143  0.35830846  1
  Na  Na17  1  0.16427646  0.79553143  0.35830846  1
  Pr  Pr18  1  0.41967709  0.63606386  0.75949273  1
  Pr  Pr19  1  0.33981564  0.13606386  0.75949273  1
  Pr  Pr20  1  0.95679532  0.40092794  0.11516425  1
  Pr  Pr21  1  0.15836893  0.90092794  0.11516425  1
  Pr  Pr22  1  0.77175577  0.16859439  0.46696482  1
  Pr  Pr23  1  0.69520905  0.66859439  0.46696482  1
  V  V24  1  0.30050857  0.25418942  0.57116861  1
  V  V25  1  0.27066004  0.75418942  0.57116861  1
  V  V26  1  0.91472518  0.25807983  0.89088961  1
  V  V27  1  0.97616443  0.75807983  0.89088961  1
  V  V28  1  0.81907796  0.04718356  0.65356237  1
  V  V29  1  0.83448441  0.54718356  0.65356237  1
  V  V30  1  0.19942683  0.04812908  0.33561401  1
  V  V31  1  0.13618717  0.54812908  0.33561401  1
  V  V32  1  0.57027294  0.30746021  0.22958598  1
  V  V33  1  0.65931303  0.80746021  0.22958598  1
  V  V34  1  0.54840741  0.00249441  0.99909502  1
  V  V35  1  0.45068761  0.50249441  0.99909502  1
  O  O36  1  0.06514858  0.16105890  0.85758378  1
  O  O37  1  0.79243519  0.66105890  0.85758378  1
  O  O38  1  0.58051411  0.01525040  0.70387483  1
  O  O39  1  0.12336072  0.51525040  0.70387483  1
  O  O40  1  0.58333977  0.39374571  0.00617577  1
  O  O41  1  0.42283600  0.89374571  0.00617577  1
  O  O42  1  0.53973777  0.29153435  0.52352984  1
  O  O43  1  0.98379207  0.79153435  0.52352984  1
  O  O44  1  0.67877614  0.41832060  0.21992960  1
  O  O45  1  0.54115346  0.91832060  0.21992960  1
  O  O46  1  0.98471970  0.35304358  0.83355721  1
  O  O47  1  0.84883752  0.85304358  0.83355721  1
  O  O48  1  0.86512922  0.16551311  0.65717658  1
  O  O49  1  0.79204736  0.66551311  0.65717658  1
  O  O50  1  0.41391117  0.07415118  0.06818967  1
  O  O51  1  0.65427849  0.57415118  0.06818967  1
  O  O52  1  0.13009362  0.52762771  0.22031979  1
  O  O53  1  0.09022617  0.02762771  0.22031979  1
  O  O54  1  0.64599313  0.27695619  0.34237630  1
  O  O55  1  0.69638317  0.77695619  0.34237630  1
  O  O56  1  0.32669079  0.64340550  0.36636822  1
  O  O57  1  0.03967743  0.14340550  0.36636822  1
  O  O58  1  0.25515719  0.30110840  0.19882770  1
  O  O59  1  0.94367051  0.80110840  0.19882770  1
  O  O60  1  0.50727221  0.07513106  0.35724338  1
  O  O61  1  0.84997117  0.57513106  0.35724338  1
  O  O62  1  0.27127388  0.13541433  0.56626899  1
  O  O63  1  0.29499512  0.63541433  0.56626899  1
  O  O64  1  0.03989912  0.30312977  0.51148290  1
  O  O65  1  0.47158377  0.80312977  0.51148290  1
  O  O66  1  0.76728153  0.01630129  0.53937682  1
  O  O67  1  0.77209529  0.51630129  0.53937682  1
  O  O68  1  0.47921004  0.03387708  0.88606288  1
  O  O69  1  0.40685285  0.53387708  0.88606288  1
  O  O70  1  0.60371115  0.23775349  0.86407152  1
  O  O71  1  0.26036037  0.73775349  0.86407152  1
  O  O72  1  0.25214213  0.45432324  0.39720035  1
  O  O73  1  0.14505822  0.95432324  0.39720035  1
  O  O74  1  0.63054925  0.49490219  0.71059912  1
  O  O75  1  0.08004986  0.99490219  0.71059912  1
  O  O76  1  0.01850595  0.27425912  0.00703090  1
  O  O77  1  0.98852495  0.77425912  0.00703090  1
  O  O78  1  0.71520764  0.24076068  0.15942557  1
  O  O79  1  0.44421793  0.74076068  0.15942557  1
  O  O80  1  0.16719460  0.50155618  0.03093977  1
  O  O81  1  0.86374517  0.00155618  0.03093977  1
  O  O82  1  0.33809703  0.78601971  0.68527222  1
  O  O83  1  0.34717519  0.28601971  0.68527222  1
