# generated using pymatgen
data_GdH18C4N6Cl3O8
_symmetry_space_group_name_H-M   'P 1'
_cell_length_a   7.95574948
_cell_length_b   7.95574948
_cell_length_c   17.40223325
_cell_angle_alpha   95.36685879
_cell_angle_beta   95.36685879
_cell_angle_gamma   121.44433448
_symmetry_Int_Tables_number   1
_chemical_formula_structural   GdH18C4N6Cl3O8
_chemical_formula_sum   'Gd2 H36 C8 N12 Cl6 O16'
_cell_volume   922.35774971
_cell_formula_units_Z   2
loop_
 _symmetry_equiv_pos_site_id
 _symmetry_equiv_pos_as_xyz
  1  'x, y, z'
loop_
 _atom_site_type_symbol
 _atom_site_label
 _atom_site_symmetry_multiplicity
 _atom_site_fract_x
 _atom_site_fract_y
 _atom_site_fract_z
 _atom_site_occupancy
  Gd  Gd0  1  0.10793306  0.89206694  0.75000000  1
  Gd  Gd1  1  0.89206694  0.10793306  0.25000000  1
  H  H2  1  0.46571955  0.12553121  0.88986856  1
  H  H3  1  0.53428045  0.87446879  0.11013144  1
  H  H4  1  0.87446879  0.53428045  0.61013144  1
  H  H5  1  0.12553121  0.46571955  0.38986856  1
  H  H6  1  0.48989847  0.99337200  0.68523048  1
  H  H7  1  0.51010153  0.00662800  0.31476952  1
  H  H8  1  0.00662800  0.51010153  0.81476952  1
  H  H9  1  0.99337200  0.48989847  0.18523048  1
  H  H10  1  0.67830480  0.87737653  0.93214647  1
  H  H11  1  0.32169520  0.12262347  0.06785353  1
  H  H12  1  0.12262347  0.32169520  0.56785353  1
  H  H13  1  0.87737653  0.67830480  0.43214647  1
  H  H14  1  0.65673038  0.87543020  0.53765013  1
  H  H15  1  0.34326962  0.12456980  0.46234987  1
  H  H16  1  0.12456980  0.34326962  0.96234987  1
  H  H17  1  0.87543020  0.65673038  0.03765013  1
  H  H18  1  0.55504834  0.11742587  0.81247269  1
  H  H19  1  0.44495166  0.88257413  0.18752731  1
  H  H20  1  0.88257413  0.44495166  0.68752731  1
  H  H21  1  0.11742587  0.55504834  0.31247269  1
  H  H22  1  0.46175938  0.42597375  0.81083724  1
  H  H23  1  0.53824062  0.57402625  0.18916276  1
  H  H24  1  0.57402625  0.53824062  0.68916276  1
  H  H25  1  0.42597375  0.46175938  0.31083724  1
  H  H26  1  0.46712173  0.56303291  0.89818421  1
  H  H27  1  0.53287827  0.43696709  0.10181579  1
  H  H28  1  0.43696709  0.53287827  0.60181579  1
  H  H29  1  0.56303291  0.46712173  0.39818421  1
  H  H30  1  0.78934970  0.12084936  0.52131216  1
  H  H31  1  0.21065030  0.87915064  0.47868784  1
  H  H32  1  0.87915064  0.21065030  0.97868784  1
  H  H33  1  0.12084936  0.78934970  0.02131216  1
  H  H34  1  0.31829202  0.79964639  0.62477457  1
  H  H35  1  0.68170798  0.20035361  0.37522543  1
  H  H36  1  0.20035361  0.68170798  0.87522543  1
  H  H37  1  0.79964639  0.31829202  0.12477457  1
  C  C38  1  0.69563757  0.71650681  0.83738808  1
  C  C39  1  0.30436243  0.28349319  0.16261192  1
  C  C40  1  0.28349319  0.30436243  0.66261192  1
  C  C41  1  0.71650681  0.69563757  0.33738808  1
  C  C42  1  0.94088939  0.04199179  0.59861534  1
  C  C43  1  0.05911061  0.95800821  0.40138466  1
  C  C44  1  0.95800821  0.05911061  0.90138466  1
  C  C45  1  0.04199179  0.94088939  0.09861534  1
  N  N46  1  0.77043735  0.88651647  0.89300860  1
  N  N47  1  0.22956265  0.11348353  0.10699140  1
  N  N48  1  0.11348353  0.22956265  0.60699140  1
  N  N49  1  0.88651647  0.77043735  0.39300860  1
  N  N50  1  0.79128384  0.00725259  0.54358810  1
  N  N51  1  0.20871616  0.99274741  0.45641190  1
  N  N52  1  0.99274741  0.20871616  0.95641190  1
  N  N53  1  0.00725259  0.79128384  0.04358810  1
  N  N54  1  0.53325771  0.55437970  0.85155126  1
  N  N55  1  0.46674229  0.44562030  0.14844874  1
  N  N56  1  0.44562030  0.46674229  0.64844874  1
  N  N57  1  0.55437970  0.53325771  0.35155126  1
  Cl  Cl58  1  0.78644064  0.21355936  0.75000000  1
  Cl  Cl59  1  0.21355936  0.78644064  0.25000000  1
  Cl  Cl60  1  0.37055855  0.70754886  0.98504973  1
  Cl  Cl61  1  0.62944145  0.29245114  0.01495027  1
  Cl  Cl62  1  0.29245114  0.62944145  0.51495027  1
  Cl  Cl63  1  0.70754886  0.37055855  0.48504973  1
  O  O64  1  0.28407161  0.22621607  0.72247707  1
  O  O65  1  0.71592839  0.77378393  0.27752293  1
  O  O66  1  0.77378393  0.71592839  0.77752293  1
  O  O67  1  0.22621607  0.28407161  0.22247707  1
  O  O68  1  0.09032106  0.07288482  0.86338279  1
  O  O69  1  0.90967894  0.92711518  0.13661721  1
  O  O70  1  0.92711518  0.90967894  0.63661721  1
  O  O71  1  0.07288482  0.09032106  0.36338279  1
  O  O72  1  0.42941417  0.05691353  0.83529438  1
  O  O73  1  0.57058583  0.94308647  0.16470562  1
  O  O74  1  0.94308647  0.57058583  0.66470562  1
  O  O75  1  0.05691353  0.42941417  0.33529438  1
  O  O76  1  0.34353942  0.89750137  0.67093261  1
  O  O77  1  0.65646058  0.10249863  0.32906739  1
  O  O78  1  0.10249863  0.65646058  0.82906739  1
  O  O79  1  0.89750137  0.34353942  0.17093261  1
