# generated using pymatgen
data_CaAl2Si6H10O21
_symmetry_space_group_name_H-M   'P 1'
_cell_length_a   7.36344432
_cell_length_b   7.52103978
_cell_length_c   17.57874649
_cell_angle_alpha   90.00000000
_cell_angle_beta   90.00000000
_cell_angle_gamma   105.38572483
_symmetry_Int_Tables_number   1
_chemical_formula_structural   CaAl2Si6H10O21
_chemical_formula_sum   'Ca2 Al4 Si12 H20 O42'
_cell_volume   938.63468525
_cell_formula_units_Z   2
loop_
 _symmetry_equiv_pos_site_id
 _symmetry_equiv_pos_as_xyz
  1  'x, y, z'
loop_
 _atom_site_type_symbol
 _atom_site_label
 _atom_site_symmetry_multiplicity
 _atom_site_fract_x
 _atom_site_fract_y
 _atom_site_fract_z
 _atom_site_occupancy
  Ca  Ca0  1  0.69571243  0.65230709  0.28648146  1
  Ca  Ca1  1  0.30428757  0.34769291  0.78648146  1
  Al  Al2  1  0.23724130  0.93189401  0.66107306  1
  Al  Al3  1  0.76275870  0.06810599  0.16107306  1
  Al  Al4  1  0.91097202  0.25342963  0.92976372  1
  Al  Al5  1  0.08902798  0.74657037  0.42976372  1
  Si  Si6  1  0.77684503  0.24089267  0.55406749  1
  Si  Si7  1  0.22315497  0.75910733  0.05406749  1
  Si  Si8  1  0.90028317  0.68269481  0.92853965  1
  Si  Si9  1  0.09971683  0.31730519  0.42853965  1
  Si  Si10  1  0.97683108  0.97835556  0.79862759  1
  Si  Si11  1  0.02316892  0.02164444  0.29862759  1
  Si  Si12  1  0.87000400  0.66339755  0.58541416  1
  Si  Si13  1  0.12999600  0.33660245  0.08541416  1
  Si  Si14  1  0.66768983  0.91077590  0.67102908  1
  Si  Si15  1  0.33231017  0.08922410  0.17102908  1
  Si  Si16  1  0.63826729  0.89748061  0.00024808  1
  Si  Si17  1  0.36173271  0.10251939  0.50024808  1
  H  H18  1  0.49822957  0.80268854  0.42591327  1
  H  H19  1  0.50177043  0.19731146  0.92591327  1
  H  H20  1  0.69341264  0.76089647  0.44728162  1
  H  H21  1  0.30658736  0.23910353  0.94728162  1
  H  H22  1  0.72766611  0.38271267  0.79873496  1
  H  H23  1  0.27233389  0.61728733  0.29873496  1
  H  H24  1  0.68867970  0.67537333  0.12018281  1
  H  H25  1  0.31132030  0.32462667  0.62018281  1
  H  H26  1  0.51061673  0.67376024  0.87529477  1
  H  H27  1  0.48938327  0.32623976  0.37529477  1
  H  H28  1  0.93918390  0.44512980  0.20702162  1
  H  H29  1  0.06081610  0.55487020  0.70702162  1
  H  H30  1  0.43191845  0.53230337  0.63371482  1
  H  H31  1  0.56808155  0.46769663  0.13371482  1
  H  H32  1  0.69445033  0.36667119  0.71156193  1
  H  H33  1  0.30554967  0.63332881  0.21156193  1
  H  H34  1  0.43461975  0.75652839  0.80326201  1
  H  H35  1  0.56538025  0.24347161  0.30326201  1
  H  H36  1  0.97762145  0.42828842  0.29347033  1
  H  H37  1  0.02237855  0.57171158  0.79347033  1
  O  O38  1  0.40816054  0.82569984  0.00044288  1
  O  O39  1  0.59183946  0.17430016  0.50044288  1
  O  O40  1  0.76742604  0.10045863  0.62505473  1
  O  O41  1  0.23257396  0.89954137  0.12505473  1
  O  O42  1  0.90583681  0.71960042  0.49675725  1
  O  O43  1  0.09416319  0.28039958  0.99675725  1
  O  O44  1  0.96004877  0.25263195  0.50110341  1
  O  O45  1  0.03995123  0.74736805  0.00110341  1
  O  O46  1  0.30099509  0.90402133  0.45776619  1
  O  O47  1  0.69900491  0.09597867  0.95776619  1
  O  O48  1  0.99678096  0.16310227  0.84908760  1
  O  O49  1  0.00321904  0.83689773  0.34908760  1
  O  O50  1  0.44627781  0.87799336  0.68729313  1
  O  O51  1  0.55372219  0.12200664  0.18729313  1
  O  O52  1  0.71908525  0.90462491  0.08642157  1
  O  O53  1  0.28091475  0.09537509  0.58642157  1
  O  O54  1  0.33066309  0.43289238  0.65446798  1
  O  O55  1  0.66933691  0.56710762  0.15446798  1
  O  O56  1  0.78923992  0.43840185  0.59501646  1
  O  O57  1  0.21076008  0.56159815  0.09501646  1
  O  O58  1  0.41148460  0.64787297  0.83639135  1
  O  O59  1  0.58851540  0.35212703  0.33639135  1
  O  O60  1  0.95149791  0.51381135  0.25548240  1
  O  O61  1  0.04850209  0.48618865  0.75548240  1
  O  O62  1  0.05816815  0.73356219  0.63692323  1
  O  O63  1  0.94183185  0.26643781  0.13692323  1
  O  O64  1  0.98665602  0.79909465  0.85144426  1
  O  O65  1  0.01334398  0.20090535  0.35144426  1
  O  O66  1  0.69352678  0.73759452  0.61861316  1
  O  O67  1  0.30647322  0.26240548  0.11861316  1
  O  O68  1  0.70302440  0.73659294  0.95017463  1
  O  O69  1  0.29697560  0.26340706  0.45017463  1
  O  O70  1  0.77692169  0.91579016  0.75228585  1
  O  O71  1  0.22307831  0.08420984  0.25228585  1
  O  O72  1  0.60050326  0.75333756  0.40621884  1
  O  O73  1  0.39949674  0.24666244  0.90621884  1
  O  O74  1  0.62812448  0.35761347  0.76029542  1
  O  O75  1  0.37187552  0.64238653  0.26029542  1
  O  O76  1  0.86398801  0.46648181  0.90866032  1
  O  O77  1  0.13601199  0.53351819  0.40866032  1
  O  O78  1  0.84291155  0.96657473  0.24091691  1
  O  O79  1  0.15708845  0.03342527  0.74091691  1
