# generated using pymatgen
data_K2Sb9PbSe15
_symmetry_space_group_name_H-M   'P 1'
_cell_length_a   4.22534648
_cell_length_b   17.32085966
_cell_length_c   22.29872666
_cell_angle_alpha   99.11309533
_cell_angle_beta   90.00000000
_cell_angle_gamma   90.00000000
_symmetry_Int_Tables_number   1
_chemical_formula_structural   K2Sb9PbSe15
_chemical_formula_sum   'K4 Sb18 Pb2 Se30'
_cell_volume   1611.36942435
_cell_formula_units_Z   2
loop_
 _symmetry_equiv_pos_site_id
 _symmetry_equiv_pos_as_xyz
  1  'x, y, z'
loop_
 _atom_site_type_symbol
 _atom_site_label
 _atom_site_symmetry_multiplicity
 _atom_site_fract_x
 _atom_site_fract_y
 _atom_site_fract_z
 _atom_site_occupancy
  K  K0  1  0.75000000  0.49589672  0.37339716  1
  K  K1  1  0.25000000  0.50410328  0.62660284  1
  K  K2  1  0.75000000  0.21579998  0.30560622  1
  K  K3  1  0.25000000  0.78420002  0.69439378  1
  Sb  Sb4  1  0.75000000  0.94466390  0.29375056  1
  Sb  Sb5  1  0.25000000  0.05533610  0.70624944  1
  Sb  Sb6  1  0.75000000  0.67116614  0.53203375  1
  Sb  Sb7  1  0.25000000  0.32883386  0.46796625  1
  Sb  Sb8  1  0.75000000  0.38978491  0.96630813  1
  Sb  Sb9  1  0.25000000  0.61021509  0.03369187  1
  Sb  Sb10  1  0.75000000  0.81622053  0.05277435  1
  Sb  Sb11  1  0.25000000  0.18377947  0.94722565  1
  Sb  Sb12  1  0.75000000  0.92681294  0.56139795  1
  Sb  Sb13  1  0.25000000  0.07318706  0.43860205  1
  Sb  Sb14  1  0.75000000  0.19570483  0.61092887  1
  Sb  Sb15  1  0.25000000  0.80429517  0.38907113  1
  Sb  Sb16  1  0.75000000  0.96536371  0.90937421  1
  Sb  Sb17  1  0.25000000  0.03463629  0.09062579  1
  Sb  Sb18  1  0.75000000  0.54433874  0.83897523  1
  Sb  Sb19  1  0.25000000  0.45566126  0.16102477  1
  Sb  Sb20  1  0.75000000  0.24287692  0.10878612  1
  Sb  Sb21  1  0.25000000  0.75712308  0.89121388  1
  Pb  Pb22  1  0.75000000  0.67379775  0.23236000  1
  Pb  Pb23  1  0.25000000  0.32620225  0.76764000  1
  Se  Se24  1  0.75000000  0.82503016  0.83030489  1
  Se  Se25  1  0.25000000  0.17496984  0.16969511  1
  Se  Se26  1  0.75000000  0.17638731  0.45692009  1
  Se  Se27  1  0.25000000  0.82361269  0.54307991  1
  Se  Se28  1  0.75000000  0.25630180  0.88626349  1
  Se  Se29  1  0.25000000  0.74369820  0.11373651  1
  Se  Se30  1  0.75000000  0.42403072  0.50634005  1
  Se  Se31  1  0.25000000  0.57596928  0.49365995  1
  Se  Se32  1  0.75000000  0.43595409  0.74168508  1
  Se  Se33  1  0.25000000  0.56404591  0.25831492  1
  Se  Se34  1  0.75000000  0.97017104  0.14586024  1
  Se  Se35  1  0.25000000  0.02982896  0.85413976  1
  Se  Se36  1  0.75000000  0.65180420  0.64190898  1
  Se  Se37  1  0.25000000  0.34819580  0.35809102  1
  Se  Se38  1  0.75000000  0.11009851  0.01226337  1
  Se  Se39  1  0.25000000  0.88990149  0.98773663  1
  Se  Se40  1  0.75000000  0.93515245  0.41144154  1
  Se  Se41  1  0.25000000  0.06484755  0.58855846  1
  Se  Se42  1  0.75000000  0.17414211  0.72789030  1
  Se  Se43  1  0.25000000  0.82585789  0.27210970  1
  Se  Se44  1  0.75000000  0.54152012  0.08813404  1
  Se  Se45  1  0.25000000  0.45847988  0.91186596  1
  Se  Se46  1  0.75000000  0.93711457  0.68191993  1
  Se  Se47  1  0.25000000  0.06288543  0.31808007  1
  Se  Se48  1  0.75000000  0.37781464  0.20485297  1
  Se  Se49  1  0.25000000  0.62218536  0.79514703  1
  Se  Se50  1  0.75000000  0.68487097  0.95965012  1
  Se  Se51  1  0.25000000  0.31512903  0.04034988  1
  Se  Se52  1  0.75000000  0.69819578  0.36612670  1
  Se  Se53  1  0.25000000  0.30180422  0.63387330  1
