# generated using pymatgen
data_Li5Mn(CoO4)2
_symmetry_space_group_name_H-M   'P 1'
_cell_length_a   2.89032338
_cell_length_b   5.09465056
_cell_length_c   9.75348307
_cell_angle_alpha   86.21867855
_cell_angle_beta   81.47916732
_cell_angle_gamma   89.99999899
_symmetry_Int_Tables_number   1
_chemical_formula_structural   Li5Mn(CoO4)2
_chemical_formula_sum   'Li5 Mn1 Co2 O8'
_cell_volume   141.72041882
_cell_formula_units_Z   1
loop_
 _symmetry_equiv_pos_site_id
 _symmetry_equiv_pos_as_xyz
  1  'x, y, z'
loop_
 _atom_site_type_symbol
 _atom_site_label
 _atom_site_symmetry_multiplicity
 _atom_site_fract_x
 _atom_site_fract_y
 _atom_site_fract_z
 _atom_site_occupancy
  Li  Li0  1  0.62317463  0.87404229  0.75365073  1
  Li  Li1  1  0.37682537  0.12595771  0.24634927  1
  Li  Li2  1  0.12049940  0.38290910  0.75900120  1
  Li  Li3  1  0.87950060  0.61709090  0.24099880  1
  Li  Li4  1  0.50000000  0.50000000  0.00000000  1
  Mn  Mn5  1  -0.00000000  0.00000000  0.00000000  1
  Co  Co6  1  0.75017973  0.25046899  0.49964055  1
  Co  Co7  1  0.24982027  0.74953101  0.50035945  1
  O  O8  1  0.44469590  0.83332990  0.11060820  1
  O  O9  1  0.19343880  0.06829680  0.61312239  1
  O  O10  1  0.94167816  0.28725490  0.11664369  1
  O  O11  1  0.69238063  0.56431795  0.61523875  1
  O  O12  1  0.80656120  0.93170320  0.38687761  1
  O  O13  1  0.55530410  0.16667010  0.88939180  1
  O  O14  1  0.30761937  0.43568205  0.38476125  1
  O  O15  1  0.05832184  0.71274510  0.88335631  1
