# generated using pymatgen
data_In2Bi4Pb4Se13
_symmetry_space_group_name_H-M   'P 1'
_cell_length_a   4.19960148
_cell_length_b   22.75317138
_cell_length_c   28.03919039
_cell_angle_alpha   90.00000000
_cell_angle_beta   90.00000000
_cell_angle_gamma   90.00000000
_symmetry_Int_Tables_number   1
_chemical_formula_structural   In2Bi4Pb4Se13
_chemical_formula_sum   'In8 Bi16 Pb16 Se52'
_cell_volume   2679.26387007
_cell_formula_units_Z   4
loop_
 _symmetry_equiv_pos_site_id
 _symmetry_equiv_pos_as_xyz
  1  'x, y, z'
loop_
 _atom_site_type_symbol
 _atom_site_label
 _atom_site_symmetry_multiplicity
 _atom_site_fract_x
 _atom_site_fract_y
 _atom_site_fract_z
 _atom_site_occupancy
  In  In0  1  -0.00000000  0.22529425  0.33895379  1
  In  In1  1  -0.00000000  0.77470575  0.66104621  1
  In  In2  1  -0.00000000  0.27470575  0.83895379  1
  In  In3  1  0.00000000  0.72529425  0.16104621  1
  In  In4  1  -0.00000000  -0.00000000  0.50000000  1
  In  In5  1  -0.00000000  0.50000000  0.00000000  1
  In  In6  1  -0.00000000  -0.00000000  0.00000000  1
  In  In7  1  -0.00000000  0.50000000  0.50000000  1
  Bi  Bi8  1  0.50000000  0.15312131  0.47615077  1
  Bi  Bi9  1  0.50000000  0.84687869  0.52384923  1
  Bi  Bi10  1  0.50000000  0.34687869  0.97615077  1
  Bi  Bi11  1  0.50000000  0.65312131  0.02384923  1
  Bi  Bi12  1  -0.00000000  0.02196050  0.15496559  1
  Bi  Bi13  1  -0.00000000  0.97803950  0.84503441  1
  Bi  Bi14  1  -0.00000000  0.47803950  0.65496559  1
  Bi  Bi15  1  -0.00000000  0.52196050  0.34503441  1
  Bi  Bi16  1  0.00000000  0.35864990  0.10767233  1
  Bi  Bi17  1  -0.00000000  0.64135010  0.89232767  1
  Bi  Bi18  1  -0.00000000  0.14135010  0.60767233  1
  Bi  Bi19  1  -0.00000000  0.85864990  0.39232767  1
  Bi  Bi20  1  0.50000000  0.38472754  0.41570376  1
  Bi  Bi21  1  0.50000000  0.61527246  0.58429624  1
  Bi  Bi22  1  0.50000000  0.11527246  0.91570376  1
  Bi  Bi23  1  0.50000000  0.88472754  0.08429624  1
  Pb  Pb24  1  0.50000000  0.03243229  0.34429612  1
  Pb  Pb25  1  0.50000000  0.96756771  0.65570388  1
  Pb  Pb26  1  0.50000000  0.46756771  0.84429612  1
  Pb  Pb27  1  0.50000000  0.53243229  0.15570388  1
  Pb  Pb28  1  0.50000000  0.37249416  0.24929826  1
  Pb  Pb29  1  0.50000000  0.62750584  0.75070174  1
  Pb  Pb30  1  0.50000000  0.12750584  0.74929826  1
  Pb  Pb31  1  0.50000000  0.87249416  0.25070174  1
  Pb  Pb32  1  0.50000000  0.16727207  0.22537189  1
  Pb  Pb33  1  0.50000000  0.83272793  0.77462811  1
  Pb  Pb34  1  0.50000000  0.33272793  0.72537189  1
  Pb  Pb35  1  0.50000000  0.66727207  0.27462811  1
  Pb  Pb36  1  0.50000000  0.18669557  0.07303367  1
  Pb  Pb37  1  0.50000000  0.81330443  0.92696633  1
  Pb  Pb38  1  0.50000000  0.31330443  0.57303367  1
  Pb  Pb39  1  0.50000000  0.68669557  0.42696633  1
  Se  Se40  1  0.50000000  0.29132570  0.14734980  1
  Se  Se41  1  0.50000000  0.70867430  0.85265020  1
  Se  Se42  1  0.50000000  0.20867430  0.64734980  1
  Se  Se43  1  0.50000000  0.79132570  0.35265020  1
  Se  Se44  1  -0.00000000  0.15050450  0.14193532  1
  Se  Se45  1  -0.00000000  0.84949550  0.85806468  1
  Se  Se46  1  -0.00000000  0.34949550  0.64193532  1
  Se  Se47  1  -0.00000000  0.65050450  0.35806468  1
  Se  Se48  1  0.50000000  0.43677471  0.04939109  1
  Se  Se49  1  0.50000000  0.56322529  0.95060891  1
  Se  Se50  1  0.50000000  0.06322529  0.54939109  1
  Se  Se51  1  0.50000000  0.93677471  0.45060891  1
  Se  Se52  1  0.50000000  0.02710453  0.22209556  1
  Se  Se53  1  0.50000000  0.97289547  0.77790444  1
  Se  Se54  1  0.50000000  0.47289547  0.72209556  1
  Se  Se55  1  0.50000000  0.52710453  0.27790444  1
  Se  Se56  1  -0.00000000  0.39337707  0.34210949  1
  Se  Se57  1  -0.00000000  0.60662293  0.65789051  1
  Se  Se58  1  -0.00000000  0.10662293  0.84210949  1
  Se  Se59  1  -0.00000000  0.89337707  0.15789051  1
  Se  Se60  1  -0.00000000  0.38231720  0.49213070  1
  Se  Se61  1  -0.00000000  0.61768280  0.50786930  1
  Se  Se62  1  -0.00000000  0.11768280  0.99213070  1
  Se  Se63  1  -0.00000000  0.88231720  0.00786930  1
  Se  Se64  1  -0.00000000  0.11900837  0.30128703  1
  Se  Se65  1  0.00000000  0.88099163  0.69871297  1
  Se  Se66  1  0.00000000  0.38099163  0.80128703  1
  Se  Se67  1  0.00000000  0.61900837  0.19871297  1
  Se  Se68  1  -0.00000000  0.27206539  0.25408316  1
  Se  Se69  1  -0.00000000  0.72793461  0.74591684  1
  Se  Se70  1  -0.00000000  0.22793461  0.75408316  1
  Se  Se71  1  -0.00000000  0.77206539  0.24591684  1
  Se  Se72  1  -0.00000000  0.27733927  0.02177744  1
  Se  Se73  1  0.00000000  0.72266073  0.97822256  1
  Se  Se74  1  0.00000000  0.22266073  0.52177744  1
  Se  Se75  1  0.00000000  0.77733927  0.47822256  1
  Se  Se76  1  -0.00000000  0.43944262  0.18611902  1
  Se  Se77  1  -0.00000000  0.56055738  0.81388098  1
  Se  Se78  1  -0.00000000  0.06055738  0.68611902  1
  Se  Se79  1  0.00000000  0.93944262  0.31388098  1
  Se  Se80  1  0.50000000  0.00852466  0.07039226  1
  Se  Se81  1  0.50000000  0.99147534  0.92960774  1
  Se  Se82  1  0.50000000  0.49147534  0.57039226  1
  Se  Se83  1  0.50000000  0.50852466  0.42960774  1
  Se  Se84  1  0.50000000  0.24591659  0.39520448  1
  Se  Se85  1  0.50000000  0.75408341  0.60479552  1
  Se  Se86  1  0.50000000  0.25408341  0.89520448  1
  Se  Se87  1  0.50000000  0.74591659  0.10479552  1
  Se  Se88  1  -0.00000000  0.07844750  0.42872635  1
  Se  Se89  1  0.00000000  0.92155250  0.57127365  1
  Se  Se90  1  0.00000000  0.42155250  0.92872635  1
  Se  Se91  1  -0.00000000  0.57844750  0.07127365  1
