# generated using pymatgen
data_Fe6CuP4(H4O7)4
_symmetry_space_group_name_H-M   'P 1'
_cell_length_a   7.78390201
_cell_length_b   7.97546224
_cell_length_c   10.34723194
_cell_angle_alpha   67.20855268
_cell_angle_beta   69.18479641
_cell_angle_gamma   65.42834595
_symmetry_Int_Tables_number   1
_chemical_formula_structural   Fe6CuP4(H4O7)4
_chemical_formula_sum   'Fe6 Cu1 P4 H16 O28'
_cell_volume   523.91784294
_cell_formula_units_Z   1
loop_
 _symmetry_equiv_pos_site_id
 _symmetry_equiv_pos_as_xyz
  1  'x, y, z'
loop_
 _atom_site_type_symbol
 _atom_site_label
 _atom_site_symmetry_multiplicity
 _atom_site_fract_x
 _atom_site_fract_y
 _atom_site_fract_z
 _atom_site_occupancy
  Fe  Fe0  1  0.71677931  0.31723362  0.24601483  1
  Fe  Fe1  1  0.28322069  0.68276638  0.75398517  1
  Fe  Fe2  1  0.24077039  0.31626273  0.72435742  1
  Fe  Fe3  1  0.75922961  0.68373727  0.27564258  1
  Fe  Fe4  1  0.24622495  0.00095560  0.24164095  1
  Fe  Fe5  1  0.75377505  0.99904440  0.75835905  1
  Cu  Cu6  1  0.00000000  0.50000000  -0.00000000  1
  P  P7  1  0.65300357  0.11654813  0.05154195  1
  P  P8  1  0.34699643  0.88345187  0.94845805  1
  P  P9  1  0.16011076  0.11824965  0.53589206  1
  P  P10  1  0.83988924  0.88175035  0.46410794  1
  H  H11  1  0.15536257  0.63665622  0.18186041  1
  H  H12  1  0.84463743  0.36334378  0.81813959  1
  H  H13  1  0.65835860  0.67743110  0.04657596  1
  H  H14  1  0.34164140  0.32256890  0.95342404  1
  H  H15  1  0.13022816  0.42765684  0.26156361  1
  H  H16  1  0.86977184  0.57234316  0.73843639  1
  H  H17  1  0.40911196  0.57547510  0.33146105  1
  H  H18  1  0.59088804  0.42452490  0.66853895  1
  H  H19  1  0.16241484  0.67950582  0.54887090  1
  H  H20  1  0.83758516  0.32049418  0.45112910  1
  H  H21  1  0.35389652  0.37949374  0.40437657  1
  H  H22  1  0.64610348  0.62050626  0.59562343  1
  H  H23  1  0.57563150  0.20791232  0.56828537  1
  H  H24  1  0.42436850  0.79208768  0.43171463  1
  H  H25  1  0.01723471  0.16458179  0.07613808  1
  H  H26  1  0.98276529  0.83541821  0.92386192  1
  O  O27  1  0.19473322  0.16247783  0.37012050  1
  O  O28  1  0.80526678  0.83752217  0.62987950  1
  O  O29  1  0.21795138  0.08328859  0.87427525  1
  O  O30  1  0.78204862  0.91671141  0.12572475  1
  O  O31  1  0.53854327  0.21810729  0.66727056  1
  O  O32  1  0.46145673  0.78189271  0.33272944  1
  O  O33  1  0.27190394  0.84951959  0.11414350  1
  O  O34  1  0.72809606  0.15048041  0.88585650  1
  O  O35  1  0.42290079  0.45546018  0.31387639  1
  O  O36  1  0.57709921  0.54453982  0.68612361  1
  O  O37  1  0.67679055  0.27331655  0.08875932  1
  O  O38  1  0.32320945  0.72668345  0.91124068  1
  O  O39  1  0.07012620  0.56027471  0.20454581  1
  O  O40  1  0.92987380  0.43972529  0.79545419  1
  O  O41  1  0.23316224  0.58516705  0.62362286  1
  O  O42  1  0.76683776  0.41483295  0.37637714  1
  O  O43  1  0.21696967  0.27067406  0.55725031  1
  O  O44  1  0.78303033  0.72932594  0.44274969  1
  O  O45  1  0.01640782  0.22608948  0.14257294  1
  O  O46  1  0.98359218  0.77391052  0.85742706  1
  O  O47  1  0.43446950  0.13457265  0.09403578  1
  O  O48  1  0.56553050  0.86542735  0.90596422  1
  O  O49  1  0.05594592  0.86137947  0.39178766  1
  O  O50  1  0.94405408  0.13862053  0.60821234  1
  O  O51  1  0.70421630  0.08527078  0.40310201  1
  O  O52  1  0.29578370  0.91472922  0.59689799  1
  O  O53  1  0.74179250  0.58451293  0.11623821  1
  O  O54  1  0.25820750  0.41548707  0.88376179  1
