# generated using pymatgen
data_Dy11Ge10
_symmetry_space_group_name_H-M   'P 1'
_cell_length_a   10.96160798
_cell_length_b   10.96160798
_cell_length_c   11.32798359
_cell_angle_alpha   118.93576289
_cell_angle_beta   118.93576289
_cell_angle_gamma   90.00000000
_symmetry_Int_Tables_number   1
_chemical_formula_structural   Dy11Ge10
_chemical_formula_sum   'Dy22 Ge20'
_cell_volume   992.62058091
_cell_formula_units_Z   2
loop_
 _symmetry_equiv_pos_site_id
 _symmetry_equiv_pos_as_xyz
  1  'x, y, z'
loop_
 _atom_site_type_symbol
 _atom_site_label
 _atom_site_symmetry_multiplicity
 _atom_site_fract_x
 _atom_site_fract_y
 _atom_site_fract_z
 _atom_site_occupancy
  Dy  Dy0  1  0.15982950  0.15982950  0.31965900  1
  Dy  Dy1  1  0.84017050  0.84017050  0.68034100  1
  Dy  Dy2  1  0.32207574  0.32207574  -0.00000000  1
  Dy  Dy3  1  0.67792426  0.67792426  -0.00000000  1
  Dy  Dy4  1  0.67792426  0.32207574  -0.00000000  1
  Dy  Dy5  1  0.32207574  0.67792426  -0.00000000  1
  Dy  Dy6  1  0.10274145  0.42663132  0.20548291  1
  Dy  Dy7  1  0.89725855  0.57336868  0.79451709  1
  Dy  Dy8  1  0.10274145  0.77885159  0.20548291  1
  Dy  Dy9  1  0.77885159  0.10274145  0.20548291  1
  Dy  Dy10  1  0.89725855  0.22114841  0.79451709  1
  Dy  Dy11  1  0.22114841  0.89725855  0.79451709  1
  Dy  Dy12  1  0.42663132  0.10274145  0.20548291  1
  Dy  Dy13  1  0.57336868  0.89725855  0.79451709  1
  Dy  Dy14  1  0.30992071  0.56210176  0.61984142  1
  Dy  Dy15  1  0.69007929  0.43789824  0.38015858  1
  Dy  Dy16  1  0.30992071  0.05773966  0.61984142  1
  Dy  Dy17  1  0.05773966  0.30992071  0.61984142  1
  Dy  Dy18  1  0.69007929  0.94226034  0.38015858  1
  Dy  Dy19  1  0.94226034  0.69007929  0.38015858  1
  Dy  Dy20  1  0.56210176  0.30992071  0.61984142  1
  Dy  Dy21  1  0.43789824  0.69007929  0.38015858  1
  Ge  Ge22  1  0.39130121  0.39130121  0.36319764  1
  Ge  Ge23  1  0.60869879  0.60869879  0.63680236  1
  Ge  Ge24  1  0.97189643  0.97189643  0.36319764  1
  Ge  Ge25  1  0.97189643  0.39130121  0.36319764  1
  Ge  Ge26  1  0.60869879  0.02810357  0.63680236  1
  Ge  Ge27  1  0.02810357  0.02810357  0.63680236  1
  Ge  Ge28  1  0.02810357  0.60869879  0.63680236  1
  Ge  Ge29  1  0.39130121  0.97189643  0.36319764  1
  Ge  Ge30  1  0.38702208  0.38702208  0.77404417  1
  Ge  Ge31  1  0.61297792  0.61297792  0.22595583  1
  Ge  Ge32  1  0.11947568  0.11947568  -0.00000000  1
  Ge  Ge33  1  0.88052432  0.88052432  -0.00000000  1
  Ge  Ge34  1  0.88052432  0.11947568  -0.00000000  1
  Ge  Ge35  1  0.11947568  0.88052432  -0.00000000  1
  Ge  Ge36  1  0.25000000  0.75000000  0.50000000  1
  Ge  Ge37  1  0.75000000  0.25000000  0.50000000  1
  Ge  Ge38  1  0.13847964  0.50000000  -0.00000000  1
  Ge  Ge39  1  0.86152036  0.50000000  -0.00000000  1
  Ge  Ge40  1  0.50000000  0.13847964  -0.00000000  1
  Ge  Ge41  1  0.50000000  0.86152036  -0.00000000  1
