# generated using pymatgen
data_Ba5Y8Zn4O21
_symmetry_space_group_name_H-M   'P 1'
_cell_length_a   5.77003968
_cell_length_b   10.26671045
_cell_length_c   10.26671045
_cell_angle_alpha   85.47092005
_cell_angle_beta   73.67967162
_cell_angle_gamma   73.67967162
_symmetry_Int_Tables_number   1
_chemical_formula_structural   Ba5Y8Zn4O21
_chemical_formula_sum   'Ba5 Y8 Zn4 O21'
_cell_volume   560.16701550
_cell_formula_units_Z   1
loop_
 _symmetry_equiv_pos_site_id
 _symmetry_equiv_pos_as_xyz
  1  'x, y, z'
loop_
 _atom_site_type_symbol
 _atom_site_label
 _atom_site_symmetry_multiplicity
 _atom_site_fract_x
 _atom_site_fract_y
 _atom_site_fract_z
 _atom_site_occupancy
  Ba  Ba0  1  0.13886684  0.32489196  0.39737436  1
  Ba  Ba1  1  0.86113316  0.67510804  0.60262564  1
  Ba  Ba2  1  0.53624120  0.60262564  0.32489196  1
  Ba  Ba3  1  0.46375880  0.39737436  0.67510804  1
  Ba  Ba4  1  -0.00000000  -0.00000000  0.00000000  1
  Y  Y5  1  0.41166040  0.94592367  0.23075553  1
  Y  Y6  1  0.58833960  0.05407633  0.76924447  1
  Y  Y7  1  0.64241593  0.76924447  0.94592367  1
  Y  Y8  1  0.35758407  0.23075553  0.05407633  1
  Y  Y9  1  0.24730458  0.92062414  0.58476669  1
  Y  Y10  1  0.75269542  0.07937586  0.41523331  1
  Y  Y11  1  0.83207128  0.41523331  0.92062414  1
  Y  Y12  1  0.16792872  0.58476669  0.07937586  1
  Zn  Zn13  1  0.04023780  0.21080050  0.70872391  1
  Zn  Zn14  1  0.95976220  0.78919950  0.29127609  1
  Zn  Zn15  1  0.74896170  0.29127609  0.21080050  1
  Zn  Zn16  1  0.25103830  0.70872391  0.78919950  1
  O  O17  1  0.42698297  0.86992824  0.77446430  1
  O  O18  1  0.57301703  0.13007176  0.22553570  1
  O  O19  1  0.07137550  0.13007176  0.22553570  1
  O  O20  1  0.20144726  0.22553570  0.86992824  1
  O  O21  1  0.92862450  0.86992824  0.77446430  1
  O  O22  1  0.79855274  0.77446430  0.13007176  1
  O  O23  1  0.29691121  0.77446430  0.13007176  1
  O  O24  1  0.70308879  0.22553570  0.86992824  1
  O  O25  1  0.39509829  0.10948607  0.59451645  1
  O  O26  1  0.60490171  0.89051393  0.40548355  1
  O  O27  1  0.09910081  0.89051393  0.40548355  1
  O  O28  1  0.98961474  0.40548355  0.10948607  1
  O  O29  1  0.90089919  0.10948607  0.59451645  1
  O  O30  1  0.01038526  0.59451645  0.89051393  1
  O  O31  1  0.50458436  0.59451645  0.89051393  1
  O  O32  1  0.49541564  0.40548355  0.10948607  1
  O  O33  1  0.50000000  -0.00000000  0.00000000  1
  O  O34  1  0.37247407  0.66494992  0.59010195  1
  O  O35  1  0.62752593  0.33505008  0.40989805  1
  O  O36  1  0.96257602  0.40989805  0.66494992  1
  O  O37  1  0.03742398  0.59010195  0.33505008  1
