# generated using pymatgen
data_Co2BP3(H3O7)2
_symmetry_space_group_name_H-M   'P 1'
_cell_length_a   7.23210388
_cell_length_b   8.89743009
_cell_length_c   16.47626171
_cell_angle_alpha   90.00000000
_cell_angle_beta   90.00000000
_cell_angle_gamma   90.00000000
_symmetry_Int_Tables_number   1
_chemical_formula_structural   Co2BP3(H3O7)2
_chemical_formula_sum   'Co8 B4 P12 H24 O56'
_cell_volume   1060.20029711
_cell_formula_units_Z   4
loop_
 _symmetry_equiv_pos_site_id
 _symmetry_equiv_pos_as_xyz
  1  'x, y, z'
loop_
 _atom_site_type_symbol
 _atom_site_label
 _atom_site_symmetry_multiplicity
 _atom_site_fract_x
 _atom_site_fract_y
 _atom_site_fract_z
 _atom_site_occupancy
  Co  Co0  1  0.17507607  0.16714672  0.69494019  1
  Co  Co1  1  0.32492393  0.83285328  0.19494019  1
  Co  Co2  1  0.82492393  0.66714672  0.80505981  1
  Co  Co3  1  0.67507607  0.33285328  0.30505981  1
  Co  Co4  1  0.31726053  0.19578462  0.20767249  1
  Co  Co5  1  0.18273947  0.80421538  0.70767249  1
  Co  Co6  1  0.68273947  0.69578462  0.29232751  1
  Co  Co7  1  0.81726053  0.30421538  0.79232751  1
  B  B8  1  0.15320138  0.41615807  0.08341005  1
  B  B9  1  0.34679862  0.58384193  0.58341005  1
  B  B10  1  0.84679862  0.91615807  0.41658995  1
  B  B11  1  0.65320138  0.08384193  0.91658995  1
  P  P12  1  0.49305300  0.00663960  0.35945259  1
  P  P13  1  0.00694700  0.99336040  0.85945259  1
  P  P14  1  0.50694700  0.50663960  0.14054741  1
  P  P15  1  0.99305300  0.49336040  0.64054741  1
  P  P16  1  0.63111658  0.03054898  0.08297247  1
  P  P17  1  0.86888342  0.96945102  0.58297247  1
  P  P18  1  0.36888342  0.53054898  0.41702753  1
  P  P19  1  0.13111658  0.46945102  0.91702753  1
  P  P20  1  0.04671007  0.49500442  0.23608144  1
  P  P21  1  0.45328993  0.50499558  0.73608144  1
  P  P22  1  0.95328993  0.99500442  0.26391856  1
  P  P23  1  0.54671007  0.00499558  0.76391856  1
  H  H24  1  0.29612338  0.12533888  0.53946406  1
  H  H25  1  0.20387662  0.87466112  0.03946406  1
  H  H26  1  0.70387662  0.62533888  0.96053594  1
  H  H27  1  0.79612338  0.37466112  0.46053594  1
  H  H28  1  0.13720767  0.18834445  0.06497746  1
  H  H29  1  0.36279233  0.81165555  0.56497746  1
  H  H30  1  0.86279233  0.68834445  0.43502254  1
  H  H31  1  0.63720767  0.31165555  0.93502254  1
  H  H32  1  0.21357699  0.34550033  0.37089527  1
  H  H33  1  0.28642301  0.65449967  0.87089527  1
  H  H34  1  0.78642301  0.84550033  0.12910473  1
  H  H35  1  0.71357699  0.15449967  0.62910473  1
  H  H36  1  0.78659665  0.47922023  0.09348230  1
  H  H37  1  0.71340335  0.52077977  0.59348230  1
  H  H38  1  0.21340335  0.97922023  0.40651770  1
  H  H39  1  0.28659665  0.02077977  0.90651770  1
  H  H40  1  0.29261829  0.29630570  0.56182417  1
  H  H41  1  0.20738171  0.70369430  0.06182417  1
  H  H42  1  0.70738171  0.79630570  0.93817583  1
  H  H43  1  0.79261829  0.20369430  0.43817583  1
  H  H44  1  0.19268989  0.65303620  0.32475427  1
  H  H45  1  0.30731011  0.34696380  0.82475427  1
  H  H46  1  0.80731011  0.15303620  0.17524573  1
  H  H47  1  0.69268989  0.84696380  0.67524573  1
  O  O48  1  0.30738502  0.19559528  0.58468630  1
  O  O49  1  0.19261498  0.80440472  0.08468630  1
  O  O50  1  0.69261498  0.69559528  0.91531370  1
  O  O51  1  0.80738502  0.30440472  0.41531370  1
  O  O52  1  0.47489306  0.15603433  0.31354506  1
  O  O53  1  0.02510694  0.84396567  0.81354506  1
  O  O54  1  0.52510694  0.65603433  0.18645494  1
  O  O55  1  0.97489306  0.34396567  0.68645494  1
  O  O56  1  0.32457069  0.50956050  0.08989882  1
  O  O57  1  0.17542931  0.49043950  0.58989882  1
  O  O58  1  0.67542931  0.00956050  0.41010118  1
  O  O59  1  0.82457069  0.99043950  0.91010118  1
  O  O60  1  0.27413179  0.37058186  0.42415470  1
  O  O61  1  0.22586821  0.62941814  0.92415470  1
  O  O62  1  0.72586821  0.87058186  0.07584530  1
  O  O63  1  0.77413179  0.12941814  0.57584530  1
  O  O64  1  0.01304926  0.47518329  0.14141164  1
  O  O65  1  0.48695074  0.52481671  0.64141164  1
  O  O66  1  0.98695074  0.97518329  0.35858836  1
  O  O67  1  0.51304926  0.02481671  0.85858836  1
  O  O68  1  0.52155403  0.36871677  0.19579888  1
  O  O69  1  0.97844597  0.63128323  0.69579888  1
  O  O70  1  0.47844597  0.86871677  0.30420112  1
  O  O71  1  0.02155403  0.13128323  0.80420112  1
  O  O72  1  0.06273758  0.43638882  0.00475031  1
  O  O73  1  0.43726242  0.56361118  0.50475031  1
  O  O74  1  0.93726242  0.93638882  0.49524969  1
  O  O75  1  0.56273758  0.06361118  0.99524969  1
  O  O76  1  0.20208245  0.26010737  0.09905371  1
  O  O77  1  0.29791755  0.73989263  0.59905371  1
  O  O78  1  0.79791755  0.76010737  0.40094629  1
  O  O79  1  0.70208245  0.23989263  0.90094629  1
  O  O80  1  0.15184615  0.64583926  0.24904920  1
  O  O81  1  0.34815385  0.35416074  0.74904920  1
  O  O82  1  0.84815385  0.14583926  0.25095080  1
  O  O83  1  0.65184615  0.85416074  0.75095080  1
  O  O84  1  0.46468642  0.02269309  0.14028549  1
  O  O85  1  0.03531358  0.97730691  0.64028549  1
  O  O86  1  0.53531358  0.52269309  0.35971451  1
  O  O87  1  0.96468642  0.47730691  0.85971451  1
  O  O88  1  0.15501049  0.36102080  0.26930070  1
  O  O89  1  0.34498951  0.63897920  0.76930070  1
  O  O90  1  0.84498951  0.86102080  0.23069930  1
  O  O91  1  0.65501049  0.13897920  0.73069930  1
  O  O92  1  0.14936554  0.00707094  0.22657154  1
  O  O93  1  0.35063446  0.99292906  0.72657154  1
  O  O94  1  0.85063446  0.50707094  0.27342846  1
  O  O95  1  0.64936554  0.49292906  0.77342846  1
  O  O96  1  0.22594502  0.65050056  0.39251514  1
  O  O97  1  0.27405498  0.34949944  0.89251514  1
  O  O98  1  0.77405498  0.15050056  0.10748486  1
  O  O99  1  0.72594502  0.84949944  0.60748486  1
  O  O100  1  0.66048076  0.49786539  0.07100323  1
  O  O101  1  0.83951924  0.50213461  0.57100323  1
  O  O102  1  0.33951924  0.99786539  0.42899677  1
  O  O103  1  0.16048076  0.00213461  0.92899677  1
