# generated using pymatgen
data_K3NaP2H8O11
_symmetry_space_group_name_H-M   'P 1'
_cell_length_a   5.78619098
_cell_length_b   12.06221821
_cell_length_c   17.53574806
_cell_angle_alpha   90.00000000
_cell_angle_beta   92.87905296
_cell_angle_gamma   90.00000000
_symmetry_Int_Tables_number   1
_chemical_formula_structural   K3NaP2H8O11
_chemical_formula_sum   'K12 Na4 P8 H32 O44'
_cell_volume   1222.35041229
_cell_formula_units_Z   4
loop_
 _symmetry_equiv_pos_site_id
 _symmetry_equiv_pos_as_xyz
  1  'x, y, z'
loop_
 _atom_site_type_symbol
 _atom_site_label
 _atom_site_symmetry_multiplicity
 _atom_site_fract_x
 _atom_site_fract_y
 _atom_site_fract_z
 _atom_site_occupancy
  K  K0  1  0.71498335  0.42614817  0.07651720  1
  K  K1  1  0.28501665  0.57385183  0.92348280  1
  K  K2  1  0.28501665  0.92614817  0.42348280  1
  K  K3  1  0.71498335  0.07385183  0.57651720  1
  K  K4  1  0.22697377  0.65509731  0.52899663  1
  K  K5  1  0.77302623  0.34490269  0.47100337  1
  K  K6  1  0.77302623  0.15509731  0.97100337  1
  K  K7  1  0.22697377  0.84490269  0.02899663  1
  K  K8  1  0.23728293  0.45410567  0.32284434  1
  K  K9  1  0.76271707  0.54589433  0.67715566  1
  K  K10  1  0.76271707  0.95410567  0.17715566  1
  K  K11  1  0.23728293  0.04589433  0.82284434  1
  Na  Na12  1  0.19867622  0.58592649  0.14001645  1
  Na  Na13  1  0.80132378  0.41407351  0.85998355  1
  Na  Na14  1  0.80132378  0.08592649  0.35998355  1
  Na  Na15  1  0.19867622  0.91407351  0.64001645  1
  P  P16  1  0.27954680  0.20595544  0.42637990  1
  P  P17  1  0.72045320  0.79404456  0.57362010  1
  P  P18  1  0.72045320  0.70595544  0.07362010  1
  P  P19  1  0.27954680  0.29404456  0.92637990  1
  P  P20  1  0.27204628  0.13507019  0.26180513  1
  P  P21  1  0.72795372  0.86492981  0.73819487  1
  P  P22  1  0.72795372  0.63507019  0.23819487  1
  P  P23  1  0.27204628  0.36492981  0.76180513  1
  H  H24  1  0.74742970  0.41136622  0.27107509  1
  H  H25  1  0.25257030  0.58863378  0.72892491  1
  H  H26  1  0.25257030  0.91136622  0.22892491  1
  H  H27  1  0.74742970  0.08863378  0.77107509  1
  H  H28  1  0.18771976  0.37391416  0.05833807  1
  H  H29  1  0.81228024  0.62608584  0.94166193  1
  H  H30  1  0.81228024  0.87391416  0.44166193  1
  H  H31  1  0.18771976  0.12608584  0.55833807  1
  H  H32  1  0.10337890  0.70440728  0.34522236  1
  H  H33  1  0.89662110  0.29559272  0.65477764  1
  H  H34  1  0.89662110  0.20440728  0.15477764  1
  H  H35  1  0.10337890  0.79559272  0.84522236  1
  H  H36  1  0.63285642  0.18760949  0.16654412  1
  H  H37  1  0.36714358  0.81239051  0.83345588  1
  H  H38  1  0.36714358  0.68760949  0.33345588  1
  H  H39  1  0.63285642  0.31239051  0.66654412  1
  H  H40  1  0.65535463  0.28714266  0.28018229  1
  H  H41  1  0.34464537  0.71285734  0.71981771  1
  H  H42  1  0.34464537  0.78714266  0.21981771  1
  H  H43  1  0.65535463  0.21285734  0.78018229  1
  H  H44  1  0.22298900  0.32534637  0.14263972  1
  H  H45  1  0.77701100  0.67465363  0.85736028  1
  H  H46  1  0.77701100  0.82534637  0.35736028  1
  H  H47  1  0.22298900  0.17465363  0.64263972  1
  H  H48  1  0.22650244  0.10189273  0.02710910  1
  H  H49  1  0.77349756  0.89810727  0.97289090  1
  H  H50  1  0.77349756  0.60189273  0.47289090  1
  H  H51  1  0.22650244  0.39810727  0.52710910  1
  H  H52  1  0.18976155  0.10330103  0.11517334  1
  H  H53  1  0.81023845  0.89669897  0.88482666  1
  H  H54  1  0.81023845  0.60330103  0.38482666  1
  H  H55  1  0.18976155  0.39669897  0.61517334  1
  O  O56  1  0.53572772  0.12382258  0.25830914  1
  O  O57  1  0.46427228  0.87617742  0.74169086  1
  O  O58  1  0.46427228  0.62382258  0.24169086  1
  O  O59  1  0.53572772  0.37617742  0.75830914  1
  O  O60  1  0.16942098  0.19860638  0.19175944  1
  O  O61  1  0.83057902  0.80139362  0.80824056  1
  O  O62  1  0.83057902  0.69860638  0.30824056  1
  O  O63  1  0.16942098  0.30139362  0.69175944  1
  O  O64  1  0.74086049  0.20969948  0.12738457  1
  O  O65  1  0.25913951  0.79030052  0.87261543  1
  O  O66  1  0.25913951  0.70969948  0.37261543  1
  O  O67  1  0.74086049  0.29030052  0.62738457  1
  O  O68  1  0.17910399  0.05385309  0.07013596  1
  O  O69  1  0.82089601  0.94614691  0.92986404  1
  O  O70  1  0.82089601  0.55385309  0.42986404  1
  O  O71  1  0.17910399  0.44614691  0.57013596  1
  O  O72  1  0.28759489  0.32796221  0.45042935  1
  O  O73  1  0.71240511  0.67203779  0.54957065  1
  O  O74  1  0.71240511  0.82796221  0.04957065  1
  O  O75  1  0.28759489  0.17203779  0.95042935  1
  O  O76  1  0.23538485  0.39421138  0.11187647  1
  O  O77  1  0.76461515  0.60578862  0.88812353  1
  O  O78  1  0.76461515  0.89421138  0.38812353  1
  O  O79  1  0.23538485  0.10578862  0.61187647  1
  O  O80  1  0.14441749  0.02623933  0.27749457  1
  O  O81  1  0.85558251  0.97376067  0.72250543  1
  O  O82  1  0.85558251  0.52623933  0.22250543  1
  O  O83  1  0.14441749  0.47376067  0.77749457  1
  O  O84  1  0.21637057  0.21767737  0.33316651  1
  O  O85  1  0.78362943  0.78232263  0.66683349  1
  O  O86  1  0.78362943  0.71767737  0.16683349  1
  O  O87  1  0.21637057  0.28232263  0.83316651  1
  O  O88  1  0.68704883  0.35672383  0.30779344  1
  O  O89  1  0.31295117  0.64327617  0.69220656  1
  O  O90  1  0.31295117  0.85672383  0.19220656  1
  O  O91  1  0.68704883  0.14327617  0.80779344  1
  O  O92  1  0.50865601  0.14410379  0.43779259  1
  O  O93  1  0.49134399  0.85589621  0.56220741  1
  O  O94  1  0.49134399  0.64410379  0.06220741  1
  O  O95  1  0.50865601  0.35589621  0.93779259  1
  O  O96  1  0.07631139  0.14163611  0.45899574  1
  O  O97  1  0.92368861  0.85836389  0.54100426  1
  O  O98  1  0.92368861  0.64163611  0.04100426  1
  O  O99  1  0.07631139  0.35836389  0.95899574  1
