# generated using pymatgen
data_ZrAlMo
_symmetry_space_group_name_H-M   'P 1'
_cell_length_a   5.31872884
_cell_length_b   5.29834509
_cell_length_c   8.88974254
_cell_angle_alpha   90.00000000
_cell_angle_beta   90.00000000
_cell_angle_gamma   119.87057210
_symmetry_Int_Tables_number   1
_chemical_formula_structural   ZrAlMo
_chemical_formula_sum   'Zr4 Al4 Mo4'
_cell_volume   217.23651985
_cell_formula_units_Z   4
loop_
 _symmetry_equiv_pos_site_id
 _symmetry_equiv_pos_as_xyz
  1  'x, y, z'
loop_
 _atom_site_type_symbol
 _atom_site_label
 _atom_site_symmetry_multiplicity
 _atom_site_fract_x
 _atom_site_fract_y
 _atom_site_fract_z
 _atom_site_occupancy
  Zr  Zr0  1  0.66950548  0.33474082  0.56388273  1
  Zr  Zr1  1  0.33967312  0.66984802  0.43525261  1
  Zr  Zr2  1  0.33967312  0.66984802  0.06474739  1
  Zr  Zr3  1  0.66950548  0.33474082  0.93611727  1
  Al  Al4  1  0.99135483  0.99567422  0.50098383  1
  Al  Al5  1  0.99135483  0.99567422  0.99901617  1
  Al  Al6  1  0.17267594  0.34140983  0.75000000  1
  Al  Al7  1  0.17266319  0.83124973  0.75000000  1
  Mo  Mo8  1  0.66467376  0.83234268  0.75000000  1
  Mo  Mo9  1  0.82589129  0.65718683  0.25000000  1
  Mo  Mo10  1  0.82588210  0.16870532  0.25000000  1
  Mo  Mo11  1  0.33714687  0.16857949  0.25000000  1
