# generated using pymatgen
data_Li3MnCoO5
_symmetry_space_group_name_H-M   'P 1'
_cell_length_a   2.98138960
_cell_length_b   12.09852256
_cell_length_c   5.06665976
_cell_angle_alpha   83.68892854
_cell_angle_beta   91.03346097
_cell_angle_gamma   85.21806450
_symmetry_Int_Tables_number   1
_chemical_formula_structural   Li3MnCoO5
_chemical_formula_sum   'Li6 Mn2 Co2 O10'
_cell_volume   180.94838468
_cell_formula_units_Z   2
loop_
 _symmetry_equiv_pos_site_id
 _symmetry_equiv_pos_as_xyz
  1  'x, y, z'
loop_
 _atom_site_type_symbol
 _atom_site_label
 _atom_site_symmetry_multiplicity
 _atom_site_fract_x
 _atom_site_fract_y
 _atom_site_fract_z
 _atom_site_occupancy
  Li  Li0  1  0.89361536  0.20623470  0.30485448  1
  Li  Li1  1  0.29108761  0.40171488  0.11619874  1
  Li  Li2  1  0.70644960  0.59998138  0.89792648  1
  Li  Li3  1  0.10446500  0.79801852  0.69871826  1
  Li  Li4  1  0.50405460  0.99708177  0.49421868  1
  Li  Li5  1  0.80914394  0.39851067  0.58565199  1
  Mn  Mn6  1  0.99529427  0.99954355  0.00495422  1
  Mn  Mn7  1  0.39124986  0.20741273  0.79167133  1
  Co  Co8  1  0.20918877  0.59141092  0.40391139  1
  Co  Co9  1  0.60900103  0.79563043  0.20761570  1
  O  O10  1  0.41137936  0.09910925  0.12772462  1
  O  O11  1  0.87113720  0.28858424  0.92805109  1
  O  O12  1  0.24214947  0.51340736  0.71323428  1
  O  O13  1  0.62190523  0.69934137  0.52998693  1
  O  O14  1  0.05206947  0.90056309  0.33736023  1
  O  O15  1  0.36091650  0.29229219  0.46950281  1
  O  O16  1  0.77325332  0.50862530  0.25504037  1
  O  O17  1  0.14783428  0.69664442  0.08339594  1
  O  O18  1  0.58207618  0.89739039  0.87091273  1
  O  O19  1  0.92372896  0.10850284  0.67906973  1
