# generated using pymatgen
data_Ba2SrY2Cu2PtO10
_symmetry_space_group_name_H-M   'P 1'
_cell_length_a   5.78537820
_cell_length_b   6.90879975
_cell_length_c   7.47004097
_cell_angle_alpha   103.97814349
_cell_angle_beta   90.00000000
_cell_angle_gamma   114.75230870
_symmetry_Int_Tables_number   1
_chemical_formula_structural   Ba2SrY2Cu2PtO10
_chemical_formula_sum   'Ba2 Sr1 Y2 Cu2 Pt1 O10'
_cell_volume   261.37848126
_cell_formula_units_Z   1
loop_
 _symmetry_equiv_pos_site_id
 _symmetry_equiv_pos_as_xyz
  1  'x, y, z'
loop_
 _atom_site_type_symbol
 _atom_site_label
 _atom_site_symmetry_multiplicity
 _atom_site_fract_x
 _atom_site_fract_y
 _atom_site_fract_z
 _atom_site_occupancy
  Ba  Ba0  1  0.35020309  0.70040619  0.97223495  1
  Ba  Ba1  1  0.64979691  0.29959381  0.02776505  1
  Sr  Sr2  1  0.50000000  0.00000000  0.50000000  1
  Y  Y3  1  0.81070250  0.62140501  0.62539383  1
  Y  Y4  1  0.18929750  0.37859499  0.37460617  1
  Cu  Cu5  1  0.91455597  0.82911194  0.30543587  1
  Cu  Cu6  1  0.08544403  0.17088806  0.69456413  1
  Pt  Pt7  1  0.00000000  0.00000000  0.00000000  1
  O  O8  1  0.75548415  0.96252776  0.77992688  1
  O  O9  1  0.24451585  0.03747224  0.22007312  1
  O  O10  1  0.79295639  0.03747224  0.22007312  1
  O  O11  1  0.20704361  0.96252776  0.77992688  1
  O  O12  1  0.83237690  0.66475380  0.94935151  1
  O  O13  1  0.16762310  0.33524620  0.05064849  1
  O  O14  1  0.41227658  0.35046715  0.61783545  1
  O  O15  1  0.58772342  0.64953285  0.38216455  1
  O  O16  1  0.06180942  0.64953285  0.38216455  1
  O  O17  1  0.93819058  0.35046715  0.61783545  1
