# generated using pymatgen
data_ZrAlPd
_symmetry_space_group_name_H-M   'P 1'
_cell_length_a   5.33126752
_cell_length_b   5.39821680
_cell_length_c   8.46612297
_cell_angle_alpha   90.00000000
_cell_angle_beta   90.00000000
_cell_angle_gamma   120.41546585
_symmetry_Int_Tables_number   1
_chemical_formula_structural   ZrAlPd
_chemical_formula_sum   'Zr4 Al4 Pd4'
_cell_volume   210.11766103
_cell_formula_units_Z   4
loop_
 _symmetry_equiv_pos_site_id
 _symmetry_equiv_pos_as_xyz
  1  'x, y, z'
loop_
 _atom_site_type_symbol
 _atom_site_label
 _atom_site_symmetry_multiplicity
 _atom_site_fract_x
 _atom_site_fract_y
 _atom_site_fract_z
 _atom_site_occupancy
  Zr  Zr0  1  0.66555313  0.33273969  0.55176003  1
  Zr  Zr1  1  0.32922618  0.66462838  0.43116456  1
  Zr  Zr2  1  0.32922618  0.66462838  0.06883544  1
  Zr  Zr3  1  0.66555313  0.33273969  0.94823997  1
  Al  Al4  1  0.99307541  0.99652657  0.49522119  1
  Al  Al5  1  0.99307541  0.99652657  0.00477881  1
  Al  Al6  1  0.17759081  0.34865270  0.75000000  1
  Al  Al7  1  0.17755514  0.82890668  0.75000000  1
  Pd  Pd8  1  0.66849116  0.83424096  0.75000000  1
  Pd  Pd9  1  0.83196215  0.66249605  0.25000000  1
  Pd  Pd10  1  0.83194603  0.16949849  0.25000000  1
  Pd  Pd11  1  0.33674527  0.16841586  0.25000000  1
