# generated using pymatgen
data_Ba2Mn2ClF7
_symmetry_space_group_name_H-M   'P 1'
_cell_length_a   6.00767050
_cell_length_b   7.99298313
_cell_length_c   9.19842376
_cell_angle_alpha   106.86442443
_cell_angle_beta   90.00000000
_cell_angle_gamma   90.00000000
_symmetry_Int_Tables_number   1
_chemical_formula_structural   Ba2Mn2ClF7
_chemical_formula_sum   'Ba4 Mn4 Cl2 F14'
_cell_volume   422.70519368
_cell_formula_units_Z   2
loop_
 _symmetry_equiv_pos_site_id
 _symmetry_equiv_pos_as_xyz
  1  'x, y, z'
loop_
 _atom_site_type_symbol
 _atom_site_label
 _atom_site_symmetry_multiplicity
 _atom_site_fract_x
 _atom_site_fract_y
 _atom_site_fract_z
 _atom_site_occupancy
  Ba  Ba0  1  0.75000000  0.34063418  0.08948255  1
  Ba  Ba1  1  0.25000000  0.65936582  0.91051745  1
  Ba  Ba2  1  0.75000000  0.30997443  0.57533045  1
  Ba  Ba3  1  0.25000000  0.69002557  0.42466955  1
  Mn  Mn4  1  0.75000000  0.81656567  0.67523265  1
  Mn  Mn5  1  0.25000000  0.18343433  0.32476735  1
  Mn  Mn6  1  0.75000000  0.82626709  0.23362734  1
  Mn  Mn7  1  0.25000000  0.17373291  0.76637266  1
  Cl  Cl8  1  0.75000000  0.88512808  0.97037888  1
  Cl  Cl9  1  0.25000000  0.11487192  0.02962112  1
  F  F10  1  0.49774470  0.99422210  0.66734036  1
  F  F11  1  0.50225530  0.00577790  0.33265964  1
  F  F12  1  0.99774470  0.00577790  0.33265964  1
  F  F13  1  0.00225530  0.99422210  0.66734036  1
  F  F14  1  0.50357254  0.36704152  0.84782415  1
  F  F15  1  0.49642746  0.63295848  0.15217585  1
  F  F16  1  0.00357254  0.63295848  0.15217585  1
  F  F17  1  0.99642746  0.36704152  0.84782415  1
  F  F18  1  0.75000000  0.73958051  0.43230984  1
  F  F19  1  0.25000000  0.26041949  0.56769016  1
  F  F20  1  0.99969191  0.62462132  0.66061184  1
  F  F21  1  0.00030809  0.37537868  0.33938816  1
  F  F22  1  0.49969191  0.37537868  0.33938816  1
  F  F23  1  0.50030809  0.62462132  0.66061184  1
