# generated using pymatgen
data_Ba3Pr(BO2)9
_symmetry_space_group_name_H-M   'P 1'
_cell_length_a   7.33385537
_cell_length_b   7.33385536
_cell_length_c   17.85175987
_cell_angle_alpha   90.00000000
_cell_angle_beta   90.00000000
_cell_angle_gamma   119.99999878
_symmetry_Int_Tables_number   1
_chemical_formula_structural   Ba3Pr(BO2)9
_chemical_formula_sum   'Ba6 Pr2 B18 O36'
_cell_volume   831.52699887
_cell_formula_units_Z   2
loop_
 _symmetry_equiv_pos_site_id
 _symmetry_equiv_pos_as_xyz
  1  'x, y, z'
loop_
 _atom_site_type_symbol
 _atom_site_label
 _atom_site_symmetry_multiplicity
 _atom_site_fract_x
 _atom_site_fract_y
 _atom_site_fract_z
 _atom_site_occupancy
  Ba  Ba0  1  0.66666700  0.33333300  0.86385983  1
  Ba  Ba1  1  0.33333300  0.66666700  0.13614017  1
  Ba  Ba2  1  0.33333300  0.66666700  0.36385983  1
  Ba  Ba3  1  0.66666700  0.33333300  0.63614017  1
  Ba  Ba4  1  0.00000000  0.00000000  0.75000000  1
  Ba  Ba5  1  0.00000000  0.00000000  0.25000000  1
  Pr  Pr6  1  0.00000000  0.00000000  0.00000000  1
  Pr  Pr7  1  0.00000000  0.00000000  0.50000000  1
  B  B8  1  0.54627550  0.83704820  0.91665489  1
  B  B9  1  0.45372450  0.16295180  0.08334511  1
  B  B10  1  0.29077270  0.45372450  0.91665489  1
  B  B11  1  0.45372450  0.16295180  0.41665489  1
  B  B12  1  0.70922730  0.54627550  0.08334511  1
  B  B13  1  0.54627550  0.83704820  0.58334511  1
  B  B14  1  0.16295180  0.70922730  0.91665489  1
  B  B15  1  0.70922730  0.54627550  0.41665489  1
  B  B16  1  0.83704820  0.29077270  0.08334511  1
  B  B17  1  0.29077270  0.45372450  0.58334511  1
  B  B18  1  0.83704820  0.29077270  0.41665489  1
  B  B19  1  0.16295180  0.70922730  0.58334511  1
  B  B20  1  0.50325799  0.62231891  0.75000000  1
  B  B21  1  0.49674201  0.37768109  0.25000000  1
  B  B22  1  0.11906092  0.49674201  0.75000000  1
  B  B23  1  0.88093908  0.50325799  0.25000000  1
  B  B24  1  0.37768109  0.88093908  0.75000000  1
  B  B25  1  0.62231891  0.11906092  0.25000000  1
  O  O26  1  0.54029195  0.83143647  0.75000000  1
  O  O27  1  0.45970805  0.16856353  0.25000000  1
  O  O28  1  0.29114451  0.45970805  0.75000000  1
  O  O29  1  0.70885549  0.54029195  0.25000000  1
  O  O30  1  0.16856353  0.70885549  0.75000000  1
  O  O31  1  0.83143647  0.29114451  0.25000000  1
  O  O32  1  0.92253050  0.33516065  0.75000000  1
  O  O33  1  0.07746950  0.66483935  0.25000000  1
  O  O34  1  0.41263015  0.07746950  0.75000000  1
  O  O35  1  0.58736985  0.92253050  0.25000000  1
  O  O36  1  0.66483935  0.58736985  0.75000000  1
  O  O37  1  0.33516065  0.41263015  0.25000000  1
  O  O38  1  0.74328536  0.99919677  0.91519224  1
  O  O39  1  0.25671464  0.00080323  0.08480776  1
  O  O40  1  0.25591140  0.25671464  0.91519224  1
  O  O41  1  0.25671464  0.00080323  0.41519224  1
  O  O42  1  0.74408860  0.74328536  0.08480776  1
  O  O43  1  0.74328536  0.99919677  0.58480776  1
  O  O44  1  0.00080323  0.74408860  0.91519224  1
  O  O45  1  0.74408860  0.74328536  0.41519224  1
  O  O46  1  0.99919677  0.25591140  0.08480776  1
  O  O47  1  0.25591140  0.25671464  0.58480776  1
  O  O48  1  0.99919677  0.25591140  0.41519224  1
  O  O49  1  0.00080323  0.74408860  0.58480776  1
  O  O50  1  0.49890807  0.62551904  0.91774682  1
  O  O51  1  0.50109193  0.37448096  0.08225318  1
  O  O52  1  0.12661097  0.50109193  0.91774682  1
  O  O53  1  0.50109193  0.37448096  0.41774682  1
  O  O54  1  0.87338903  0.49890807  0.08225318  1
  O  O55  1  0.49890807  0.62551904  0.58225318  1
  O  O56  1  0.37448096  0.87338903  0.91774682  1
  O  O57  1  0.87338903  0.49890807  0.41774682  1
  O  O58  1  0.62551904  0.12661097  0.08225318  1
  O  O59  1  0.12661097  0.50109193  0.58225318  1
  O  O60  1  0.62551904  0.12661097  0.41774682  1
  O  O61  1  0.37448096  0.87338903  0.58225318  1
