# generated using pymatgen
data_ZrNb(SiRu)2
_symmetry_space_group_name_H-M   'P 1'
_cell_length_a   3.75457442
_cell_length_b   6.61386735
_cell_length_c   11.30133101
_cell_angle_alpha   89.61784029
_cell_angle_beta   90.00000000
_cell_angle_gamma   90.00000000
_symmetry_Int_Tables_number   1
_chemical_formula_structural   ZrNb(SiRu)2
_chemical_formula_sum   'Zr3 Nb3 Si6 Ru6'
_cell_volume   280.63131548
_cell_formula_units_Z   3
loop_
 _symmetry_equiv_pos_site_id
 _symmetry_equiv_pos_as_xyz
  1  'x, y, z'
loop_
 _atom_site_type_symbol
 _atom_site_label
 _atom_site_symmetry_multiplicity
 _atom_site_fract_x
 _atom_site_fract_y
 _atom_site_fract_z
 _atom_site_occupancy
  Zr  Zr0  1  0.50000000  0.71030854  0.70873195  1
  Zr  Zr1  1  0.50000000  0.70913237  0.29083333  1
  Zr  Zr2  1  0.50000000  0.21008470  0.79140042  1
  Nb  Nb3  1  0.50000000  0.57907387  0.00053442  1
  Nb  Nb4  1  0.50000000  0.08264127  0.49907175  1
  Nb  Nb5  1  0.50000000  0.20915509  0.20841447  1
  Si  Si6  1  0.00000000  0.00739059  0.33352617  1
  Si  Si7  1  0.00000000  0.50158279  0.83741432  1
  Si  Si8  1  0.00000000  0.49658052  0.16433124  1
  Si  Si9  1  0.00000000  0.00243472  0.66264549  1
  Si  Si10  1  0.50000000  0.99583816  0.00325755  1
  Si  Si11  1  0.50000000  0.49345774  0.49990954  1
  Ru  Ru12  1  -0.00000000  0.24551520  0.00181295  1
  Ru  Ru13  1  -0.00000000  0.74590877  0.49869157  1
  Ru  Ru14  1  0.00000000  0.37698980  0.37694475  1
  Ru  Ru15  1  -0.00000000  0.87746374  0.87821598  1
  Ru  Ru16  1  0.00000000  0.87844822  0.12276873  1
  Ru  Ru17  1  0.00000000  0.37779392  0.62149539  1
