# generated using pymatgen
data_Zr3TiMn8
_symmetry_space_group_name_H-M   'P 1'
_cell_length_a   4.86839307
_cell_length_b   4.86828922
_cell_length_c   8.16050404
_cell_angle_alpha   90.00223391
_cell_angle_beta   89.99862727
_cell_angle_gamma   119.92922988
_symmetry_Int_Tables_number   1
_chemical_formula_structural   Zr3TiMn8
_chemical_formula_sum   'Zr3 Ti1 Mn8'
_cell_volume   167.61731806
_cell_formula_units_Z   1
loop_
 _symmetry_equiv_pos_site_id
 _symmetry_equiv_pos_as_xyz
  1  'x, y, z'
loop_
 _atom_site_type_symbol
 _atom_site_label
 _atom_site_symmetry_multiplicity
 _atom_site_fract_x
 _atom_site_fract_y
 _atom_site_fract_z
 _atom_site_occupancy
  Zr  Zr0  1  0.33335628  0.66664469  0.44179741  1
  Zr  Zr1  1  0.33333481  0.66666598  0.06367538  1
  Zr  Zr2  1  0.66665853  0.33335323  0.93120809  1
  Ti  Ti3  1  0.66668194  0.33332821  0.56355373  1
  Mn  Mn4  1  0.00000465  0.99997791  0.50138551  1
  Mn  Mn5  1  0.00000696  0.99997627  0.99990733  1
  Mn  Mn6  1  0.16908477  0.33834412  0.74581689  1
  Mn  Mn7  1  0.16918811  0.83081282  0.74574350  1
  Mn  Mn8  1  0.66165696  0.83091589  0.74581606  1
  Mn  Mn9  1  0.82963356  0.65919715  0.25366865  1
  Mn  Mn10  1  0.82959063  0.17041495  0.25375722  1
  Mn  Mn11  1  0.34080281  0.17036876  0.25367023  1
