# generated using pymatgen
data_ZrBeB
_symmetry_space_group_name_H-M   'P 1'
_cell_length_a   3.41818890
_cell_length_b   3.41884047
_cell_length_c   3.48665033
_cell_angle_alpha   90.00000000
_cell_angle_beta   90.00000000
_cell_angle_gamma   59.99076861
_symmetry_Int_Tables_number   1
_chemical_formula_structural   ZrBeB
_chemical_formula_sum   'Zr1 Be1 B1'
_cell_volume   35.28365087
_cell_formula_units_Z   1
loop_
 _symmetry_equiv_pos_site_id
 _symmetry_equiv_pos_as_xyz
  1  'x, y, z'
loop_
 _atom_site_type_symbol
 _atom_site_label
 _atom_site_symmetry_multiplicity
 _atom_site_fract_x
 _atom_site_fract_y
 _atom_site_fract_z
 _atom_site_occupancy
  Zr  Zr0  1  0.00008709  0.99994154  0.00000000  1
  Be  Be1  1  0.66653817  0.66670279  0.50000000  1
  B  B2  1  0.33327474  0.33335568  0.50000000  1
