# generated using pymatgen
data_Zr3V9Ge10
_symmetry_space_group_name_H-M   'P 1'
_cell_length_a   5.12982063
_cell_length_b   7.85333375
_cell_length_c   9.56386081
_cell_angle_alpha   65.83376668
_cell_angle_beta   74.44354418
_cell_angle_gamma   90.00000000
_symmetry_Int_Tables_number   1
_chemical_formula_structural   Zr3V9Ge10
_chemical_formula_sum   'Zr3 V9 Ge10'
_cell_volume   335.99519702
_cell_formula_units_Z   1
loop_
 _symmetry_equiv_pos_site_id
 _symmetry_equiv_pos_as_xyz
  1  'x, y, z'
loop_
 _atom_site_type_symbol
 _atom_site_label
 _atom_site_symmetry_multiplicity
 _atom_site_fract_x
 _atom_site_fract_y
 _atom_site_fract_z
 _atom_site_occupancy
  Zr  Zr0  1  0.85760969  0.73979821  0.28478063  1
  Zr  Zr1  1  0.64210369  0.03012700  0.71579262  1
  Zr  Zr2  1  0.35748331  0.97436744  0.28503339  1
  V  V3  1  0.43946577  0.69031656  0.62046509  1
  V  V4  1  0.05799767  0.30977671  0.38168906  1
  V  V5  1  0.56031327  0.30977671  0.38168906  1
  V  V6  1  0.94006914  0.69031656  0.62046509  1
  V  V7  1  0.43604919  0.67998512  0.12790161  1
  V  V8  1  0.56474661  0.31933316  0.87050678  1
  V  V9  1  0.93633561  0.19309501  0.12732877  1
  V  V10  1  0.06324425  0.80660179  0.87351150  1
  V  V11  1  0.14350915  0.25983575  0.71298170  1
  Ge  Ge12  1  0.06768538  0.47140880  0.86462925  1
  Ge  Ge13  1  0.93530052  0.51944913  0.12939896  1
  Ge  Ge14  1  0.56514844  0.65041063  0.86970311  1
  Ge  Ge15  1  0.43477817  0.35031337  0.13044367  1
  Ge  Ge16  1  0.75492931  0.00383112  0.99617801  1
  Ge  Ge17  1  0.24889268  0.00383112  0.99617801  1
  Ge  Ge18  1  0.28490062  0.57639315  0.43019877  1
  Ge  Ge19  1  0.71117658  0.41595689  0.57764684  1
  Ge  Ge20  1  0.78799795  0.99267863  0.42400411  1
  Ge  Ge21  1  0.21026301  0.01239713  0.57947398  1
