# generated using pymatgen
data_Ba2EuV3O11
_symmetry_space_group_name_H-M   'P 1'
_cell_length_a   7.82569646
_cell_length_b   12.51535268
_cell_length_c   11.45396507
_cell_angle_alpha   103.14795661
_cell_angle_beta   90.00000000
_cell_angle_gamma   90.00000000
_symmetry_Int_Tables_number   1
_chemical_formula_structural   Ba2EuV3O11
_chemical_formula_sum   'Ba8 Eu4 V12 O44'
_cell_volume   1092.40941830
_cell_formula_units_Z   4
loop_
 _symmetry_equiv_pos_site_id
 _symmetry_equiv_pos_as_xyz
  1  'x, y, z'
loop_
 _atom_site_type_symbol
 _atom_site_label
 _atom_site_symmetry_multiplicity
 _atom_site_fract_x
 _atom_site_fract_y
 _atom_site_fract_z
 _atom_site_occupancy
  Ba  Ba0  1  0.27353258  0.76598989  0.94149816  1
  Ba  Ba1  1  0.72646742  0.23401011  0.05850184  1
  Ba  Ba2  1  0.77353258  0.23401011  0.55850184  1
  Ba  Ba3  1  0.22646742  0.76598989  0.44149816  1
  Ba  Ba4  1  0.74737798  0.55431624  0.88932763  1
  Ba  Ba5  1  0.25262202  0.44568376  0.11067237  1
  Ba  Ba6  1  0.24737798  0.44568376  0.61067237  1
  Ba  Ba7  1  0.75262202  0.55431624  0.38932763  1
  Eu  Eu8  1  0.49890348  0.99768468  0.71843586  1
  Eu  Eu9  1  0.50109652  0.00231532  0.28156414  1
  Eu  Eu10  1  0.99890348  0.00231532  0.78156414  1
  Eu  Eu11  1  0.00109652  0.99768468  0.21843586  1
  V  V12  1  0.75378135  0.90399135  0.97530441  1
  V  V13  1  0.24621865  0.09600865  0.02469559  1
  V  V14  1  0.25378135  0.09600865  0.52469559  1
  V  V15  1  0.74621865  0.90399135  0.47530441  1
  V  V16  1  0.52000202  0.68310396  0.67332943  1
  V  V17  1  0.47999798  0.31689604  0.32667057  1
  V  V18  1  0.02000202  0.31689604  0.82667057  1
  V  V19  1  0.97999798  0.68310396  0.17332943  1
  V  V20  1  0.98058800  0.68650844  0.67038515  1
  V  V21  1  0.01941200  0.31349156  0.32961485  1
  V  V22  1  0.48058800  0.31349156  0.82961485  1
  V  V23  1  0.51941200  0.68650844  0.17038515  1
  O  O24  1  0.44242444  0.81536799  0.71944147  1
  O  O25  1  0.55757556  0.18463201  0.28055853  1
  O  O26  1  0.94242444  0.18463201  0.78055853  1
  O  O27  1  0.05757556  0.81536799  0.21944147  1
  O  O28  1  0.55234353  0.18010819  0.80956947  1
  O  O29  1  0.44765647  0.81989181  0.19043053  1
  O  O30  1  0.05234353  0.81989181  0.69043053  1
  O  O31  1  0.94765647  0.18010819  0.30956947  1
  O  O32  1  0.75034285  0.66751821  0.66760458  1
  O  O33  1  0.24965715  0.33248179  0.33239542  1
  O  O34  1  0.25034285  0.33248179  0.83239542  1
  O  O35  1  0.74965715  0.66751821  0.16760458  1
  O  O36  1  0.94490813  0.37565032  0.96592569  1
  O  O37  1  0.05509187  0.62434968  0.03407431  1
  O  O38  1  0.44490813  0.62434968  0.53407431  1
  O  O39  1  0.55509187  0.37565032  0.46592569  1
  O  O40  1  0.94167569  0.39306209  0.73219387  1
  O  O41  1  0.05832431  0.60693791  0.26780613  1
  O  O42  1  0.44167569  0.60693791  0.76780613  1
  O  O43  1  0.55832431  0.39306209  0.23219387  1
  O  O44  1  0.78355871  0.98645260  0.62089908  1
  O  O45  1  0.21644129  0.01354740  0.37910092  1
  O  O46  1  0.28355871  0.01354740  0.87910092  1
  O  O47  1  0.71644129  0.98645260  0.12089908  1
  O  O48  1  0.97034887  0.87906978  0.97234054  1
  O  O49  1  0.02965113  0.12093022  0.02765946  1
  O  O50  1  0.47034887  0.12093022  0.52765946  1
  O  O51  1  0.52965113  0.87906978  0.47234054  1
  O  O52  1  0.63771563  0.78571020  0.94641300  1
  O  O53  1  0.36228437  0.21428980  0.05358700  1
  O  O54  1  0.13771563  0.21428980  0.55358700  1
  O  O55  1  0.86228437  0.78571020  0.44641300  1
  O  O56  1  0.72090126  0.98297024  0.86592005  1
  O  O57  1  0.27909874  0.01702976  0.13407995  1
  O  O58  1  0.22090126  0.01702976  0.63407995  1
  O  O59  1  0.77909874  0.98297024  0.36592005  1
  O  O60  1  0.55890441  0.37055308  0.71938851  1
  O  O61  1  0.44109559  0.62944692  0.28061149  1
  O  O62  1  0.05890441  0.62944692  0.78061149  1
  O  O63  1  0.94109559  0.37055308  0.21938851  1
  O  O64  1  0.56266873  0.38826442  0.96139503  1
  O  O65  1  0.43733127  0.61173558  0.03860497  1
  O  O66  1  0.06266873  0.61173558  0.53860497  1
  O  O67  1  0.93733127  0.38826442  0.46139503  1
