# generated using pymatgen
data_Zr2Al3Ni
_symmetry_space_group_name_H-M   'P 1'
_cell_length_a   5.28325812
_cell_length_b   5.28325812
_cell_length_c   5.14112933
_cell_angle_alpha   90.00000000
_cell_angle_beta   59.08120361
_cell_angle_gamma   120.00000000
_symmetry_Int_Tables_number   1
_chemical_formula_structural   Zr2Al3Ni
_chemical_formula_sum   'Zr2 Al3 Ni1'
_cell_volume   100.04011006
_cell_formula_units_Z   1
loop_
 _symmetry_equiv_pos_site_id
 _symmetry_equiv_pos_as_xyz
  1  'x, y, z'
loop_
 _atom_site_type_symbol
 _atom_site_label
 _atom_site_symmetry_multiplicity
 _atom_site_fract_x
 _atom_site_fract_y
 _atom_site_fract_z
 _atom_site_occupancy
  Zr  Zr0  1  0.49812776  0.74906388  0.75280837  1
  Zr  Zr1  1  0.00187224  0.00093612  0.99719163  1
  Al  Al2  1  0.25000000  0.37500000  0.37500000  1
  Al  Al3  1  0.25000000  0.87500000  0.37500000  1
  Al  Al4  1  0.75000000  0.37500000  0.37500000  1
  Ni  Ni5  1  0.75000000  0.37500000  0.87500000  1
