# generated using pymatgen
data_YbPrCo17
_symmetry_space_group_name_H-M   'P 1'
_cell_length_a   8.16996173
_cell_length_b   8.33374032
_cell_length_c   8.33374032
_cell_angle_alpha   120.00011369
_cell_angle_beta   90.00000000
_cell_angle_gamma   90.00000000
_symmetry_Int_Tables_number   1
_chemical_formula_structural   YbPrCo17
_chemical_formula_sum   'Yb2 Pr2 Co34'
_cell_volume   491.39426524
_cell_formula_units_Z   2
loop_
 _symmetry_equiv_pos_site_id
 _symmetry_equiv_pos_as_xyz
  1  'x, y, z'
loop_
 _atom_site_type_symbol
 _atom_site_label
 _atom_site_symmetry_multiplicity
 _atom_site_fract_x
 _atom_site_fract_y
 _atom_site_fract_z
 _atom_site_occupancy
  Yb  Yb0  1  0.75000000  0.00004611  -0.00004611  1
  Yb  Yb1  1  0.25000000  -0.00004611  0.00004611  1
  Pr  Pr2  1  0.25000000  0.66669788  0.33330212  1
  Pr  Pr3  1  0.75000000  0.33330212  0.66669788  1
  Co  Co4  1  0.60805666  0.66666907  0.33333093  1
  Co  Co5  1  0.39194334  0.33333093  0.66666907  1
  Co  Co6  1  0.10805666  0.33333093  0.66666907  1
  Co  Co7  1  0.89194334  0.66666907  0.33333093  1
  Co  Co8  1  0.48237024  0.83479804  0.66961411  1
  Co  Co9  1  0.48235730  0.83481375  0.16518625  1
  Co  Co10  1  0.48237024  0.33038589  0.16520196  1
  Co  Co11  1  0.51762976  0.16520196  0.33038589  1
  Co  Co12  1  0.51764270  0.16518625  0.83481375  1
  Co  Co13  1  0.51762976  0.66961411  0.83479804  1
  Co  Co14  1  0.98237024  0.16520196  0.33038589  1
  Co  Co15  1  0.98235730  0.16518625  0.83481375  1
  Co  Co16  1  0.98237024  0.66961411  0.83479804  1
  Co  Co17  1  0.01762976  0.83479804  0.66961411  1
  Co  Co18  1  0.01764270  0.83481375  0.16518625  1
  Co  Co19  1  0.01762976  0.33038589  0.16520196  1
  Co  Co20  1  0.50000000  0.50000000  0.00000000  1
  Co  Co21  1  0.50000000  0.50000000  0.50000000  1
  Co  Co22  1  0.50000000  -0.00000000  0.50000000  1
  Co  Co23  1  0.00000000  0.50000000  0.00000000  1
  Co  Co24  1  -0.00000000  0.50000000  0.50000000  1
  Co  Co25  1  -0.00000000  -0.00000000  0.50000000  1
  Co  Co26  1  0.75000000  0.67163022  0.04964994  1
  Co  Co27  1  0.75000000  0.37803791  0.32829777  1
  Co  Co28  1  0.75000000  0.95032276  0.62195907  1
  Co  Co29  1  0.75000000  0.37804093  0.04967724  1
  Co  Co30  1  0.75000000  0.95035006  0.32836978  1
  Co  Co31  1  0.75000000  0.67170223  0.62196209  1
  Co  Co32  1  0.25000000  0.32836978  0.95035006  1
  Co  Co33  1  0.25000000  0.62196209  0.67170223  1
  Co  Co34  1  0.25000000  0.04967724  0.37804093  1
  Co  Co35  1  0.25000000  0.62195907  0.95032276  1
  Co  Co36  1  0.25000000  0.04964994  0.67163022  1
  Co  Co37  1  0.25000000  0.32829777  0.37803791  1
