# generated using pymatgen
data_Yb5ErCl13
_symmetry_space_group_name_H-M   'P 1'
_cell_length_a   6.47934432
_cell_length_b   6.92238976
_cell_length_c   20.79679496
_cell_angle_alpha   98.27105529
_cell_angle_beta   80.96882412
_cell_angle_gamma   89.94437830
_symmetry_Int_Tables_number   1
_chemical_formula_structural   Yb5ErCl13
_chemical_formula_sum   'Yb10 Er2 Cl26'
_cell_volume   911.37870471
_cell_formula_units_Z   2
loop_
 _symmetry_equiv_pos_site_id
 _symmetry_equiv_pos_as_xyz
  1  'x, y, z'
loop_
 _atom_site_type_symbol
 _atom_site_label
 _atom_site_symmetry_multiplicity
 _atom_site_fract_x
 _atom_site_fract_y
 _atom_site_fract_z
 _atom_site_occupancy
  Yb  Yb0  1  0.10579031  0.65204970  0.24005045  1
  Yb  Yb1  1  0.35184043  0.84716049  0.75533549  1
  Yb  Yb2  1  0.89456584  0.34306962  0.75522318  1
  Yb  Yb3  1  0.65341202  0.15226627  0.23940156  1
  Yb  Yb4  1  0.42674862  0.37865068  0.59316423  1
  Yb  Yb5  1  0.97977169  0.87457141  0.59364938  1
  Yb  Yb6  1  0.56812148  0.62310127  0.40967524  1
  Yb  Yb7  1  0.19212462  0.99055614  0.08197211  1
  Yb  Yb8  1  0.80846669  0.01204062  0.92047392  1
  Yb  Yb9  1  0.72712820  0.48905568  0.08225573  1
  Er  Er10  1  0.02013909  0.12125678  0.40947015  1
  Er  Er11  1  0.27005202  0.51593347  0.92090777  1
  Cl  Cl12  1  0.89299229  0.39387761  0.32518519  1
  Cl  Cl13  1  0.21735568  0.10101484  0.67569191  1
  Cl  Cl14  1  0.10694116  0.60140797  0.67726195  1
  Cl  Cl15  1  0.78741762  0.90847529  0.32575978  1
  Cl  Cl16  1  0.78092675  0.88966119  0.48394745  1
  Cl  Cl17  1  0.26498369  0.61364128  0.51442900  1
  Cl  Cl18  1  0.21956383  0.11409684  0.51120944  1
  Cl  Cl19  1  0.74859137  0.38009557  0.48364526  1
  Cl  Cl20  1  0.98063751  0.32050833  0.16032508  1
  Cl  Cl21  1  0.14383846  0.18912566  0.84131609  1
  Cl  Cl22  1  0.02381959  0.67684265  0.84137485  1
  Cl  Cl23  1  0.85845204  0.82028173  0.16076829  1
  Cl  Cl24  1  0.06539864  0.25774290  0.99800849  1
  Cl  Cl25  1  0.94331856  0.74424325  0.99878702  1
  Cl  Cl26  1  0.29686382  0.98399935  0.20978184  1
  Cl  Cl27  1  0.50152917  0.51500033  0.79406399  1
  Cl  Cl28  1  0.70626657  0.01339111  0.79156645  1
  Cl  Cl29  1  0.49269581  0.48651911  0.21115302  1
  Cl  Cl30  1  0.24650754  0.79096159  0.36043614  1
  Cl  Cl31  1  0.61197457  0.71400942  0.64016738  1
  Cl  Cl32  1  0.74769619  0.21559821  0.64017748  1
  Cl  Cl33  1  0.37700239  0.28021335  0.36094204  1
  Cl  Cl34  1  0.34843691  0.62112845  0.06447487  1
  Cl  Cl35  1  0.41435549  0.86936568  0.93135248  1
  Cl  Cl36  1  0.63689446  0.37764417  0.93112850  1
  Cl  Cl37  1  0.58737886  0.12144201  0.06546678  1
