# generated using pymatgen
data_Li7Mn2(CoO4)3
_symmetry_space_group_name_H-M   'P 1'
_cell_length_a   2.90056401
_cell_length_b   14.74506753
_cell_length_c   5.14788323
_cell_angle_alpha   100.52972739
_cell_angle_beta   90.00000000
_cell_angle_gamma   84.35542749
_symmetry_Int_Tables_number   1
_chemical_formula_structural   Li7Mn2(CoO4)3
_chemical_formula_sum   'Li7 Mn2 Co3 O12'
_cell_volume   215.37632958
_cell_formula_units_Z   1
loop_
 _symmetry_equiv_pos_site_id
 _symmetry_equiv_pos_as_xyz
  1  'x, y, z'
loop_
 _atom_site_type_symbol
 _atom_site_label
 _atom_site_symmetry_multiplicity
 _atom_site_fract_x
 _atom_site_fract_y
 _atom_site_fract_z
 _atom_site_occupancy
  Li  Li0  1  0.41237062  0.17525976  0.26416690  1
  Li  Li1  1  0.25429638  0.49140724  0.73583310  1
  Li  Li2  1  0.08402564  0.83194772  0.25805489  1
  Li  Li3  1  0.91035722  0.17928655  0.76369566  1
  Li  Li4  1  0.75630978  0.48738045  0.23630434  1
  Li  Li5  1  0.58264036  0.83471828  0.74194511  1
  Li  Li6  1  0.33333300  0.33333300  0.00000000  1
  Mn  Mn7  1  0.99895166  0.00209668  0.00407492  1
  Mn  Mn8  1  0.66771534  0.66457032  0.99592508  1
  Co  Co9  1  0.83333300  0.33333300  0.50000000  1
  Co  Co10  1  0.49893084  0.00213831  0.50468784  1
  Co  Co11  1  0.16773616  0.66452869  0.49531216  1
  O  O12  1  0.46131447  0.07737205  0.90054806  1
  O  O13  1  0.29674087  0.40651825  0.38754614  1
  O  O14  1  0.12957305  0.74085291  0.89530970  1
  O  O15  1  0.96292759  0.07414582  0.35821160  1
  O  O16  1  0.79648924  0.40702151  0.82676598  1
  O  O17  1  0.62911236  0.74177428  0.35204262  1
  O  O18  1  0.36992613  0.26014875  0.61245386  1
  O  O19  1  0.20535253  0.58929495  0.09945194  1
  O  O20  1  0.03755364  0.92489172  0.64795738  1
  O  O21  1  0.87017776  0.25964549  0.17323402  1
  O  O22  1  0.70373941  0.59252118  0.64178840  1
  O  O23  1  0.53709295  0.92581309  0.10469030  1
