# generated using pymatgen
data_YbGdTe2
_symmetry_space_group_name_H-M   'P 1'
_cell_length_a   4.44135039
_cell_length_b   4.44135039
_cell_length_c   7.71868714
_cell_angle_alpha   106.72037741
_cell_angle_beta   73.27962259
_cell_angle_gamma   120.00000000
_symmetry_Int_Tables_number   1
_chemical_formula_structural   YbGdTe2
_chemical_formula_sum   'Yb1 Gd1 Te2'
_cell_volume   124.36857525
_cell_formula_units_Z   1
loop_
 _symmetry_equiv_pos_site_id
 _symmetry_equiv_pos_as_xyz
  1  'x, y, z'
loop_
 _atom_site_type_symbol
 _atom_site_label
 _atom_site_symmetry_multiplicity
 _atom_site_fract_x
 _atom_site_fract_y
 _atom_site_fract_z
 _atom_site_occupancy
  Yb  Yb0  1  0.50000000  0.50000000  0.50000000  1
  Gd  Gd1  1  -0.00000000  -0.00000000  -0.00000000  1
  Te  Te2  1  0.24973677  0.75026323  0.25078970  1
  Te  Te3  1  0.75026323  0.24973677  0.74921030  1
