# generated using pymatgen
data_ZnSiAsP
_symmetry_space_group_name_H-M   'P 1'
_cell_length_a   5.55522137
_cell_length_b   5.52548740
_cell_length_c   6.66322758
_cell_angle_alpha   65.50427297
_cell_angle_beta   65.36371150
_cell_angle_gamma   90.00000000
_symmetry_Int_Tables_number   1
_chemical_formula_structural   ZnSiAsP
_chemical_formula_sum   'Zn2 Si2 As2 P2'
_cell_volume   165.44380455
_cell_formula_units_Z   2
loop_
 _symmetry_equiv_pos_site_id
 _symmetry_equiv_pos_as_xyz
  1  'x, y, z'
loop_
 _atom_site_type_symbol
 _atom_site_label
 _atom_site_symmetry_multiplicity
 _atom_site_fract_x
 _atom_site_fract_y
 _atom_site_fract_z
 _atom_site_occupancy
  Zn  Zn0  1  0.75550611  0.25550611  0.48898778  1
  Zn  Zn1  1  0.99449389  0.99449389  0.01101222  1
  Si  Si2  1  0.25549202  0.75549202  0.48901596  1
  Si  Si3  1  0.49450798  0.49450798  0.01098404  1
  As  As4  1  0.37500000  0.86229185  0.75000000  1
  As  As5  1  0.87500000  0.38770815  0.75000000  1
  P  P6  1  0.14417720  0.12500000  0.25000000  1
  P  P7  1  0.60582280  0.62500000  0.25000000  1
