# generated using pymatgen
data_TiNbFe4
_symmetry_space_group_name_H-M   'P 1'
_cell_length_a   4.73657176
_cell_length_b   4.73657176
_cell_length_c   7.84504186
_cell_angle_alpha   89.99686901
_cell_angle_beta   90.00313099
_cell_angle_gamma   120.02268153
_symmetry_Int_Tables_number   1
_chemical_formula_structural   TiNbFe4
_chemical_formula_sum   'Ti2 Nb2 Fe8'
_cell_volume   152.38942604
_cell_formula_units_Z   2
loop_
 _symmetry_equiv_pos_site_id
 _symmetry_equiv_pos_as_xyz
  1  'x, y, z'
loop_
 _atom_site_type_symbol
 _atom_site_label
 _atom_site_symmetry_multiplicity
 _atom_site_fract_x
 _atom_site_fract_y
 _atom_site_fract_z
 _atom_site_occupancy
  Ti  Ti0  1  0.33330742  0.66669258  0.06126047  1
  Ti  Ti1  1  0.66669258  0.33330742  0.93873953  1
  Nb  Nb2  1  0.66661691  0.33338309  0.57095604  1
  Nb  Nb3  1  0.33338309  0.66661691  0.42904396  1
  Fe  Fe4  1  0.00000000  -0.00000000  0.50000000  1
  Fe  Fe5  1  0.00000000  -0.00000000  0.00000000  1
  Fe  Fe6  1  0.17026830  0.34060290  0.75280365  1
  Fe  Fe7  1  0.17033090  0.82966910  0.75288282  1
  Fe  Fe8  1  0.65939710  0.82973170  0.75280365  1
  Fe  Fe9  1  0.82973170  0.65939710  0.24719635  1
  Fe  Fe10  1  0.82966910  0.17033090  0.24711718  1
  Fe  Fe11  1  0.34060290  0.17026830  0.24719635  1
