# generated using pymatgen
data_V3Zn2FeO11
_symmetry_space_group_name_H-M   'P 1'
_cell_length_a   6.57876203
_cell_length_b   6.92374442
_cell_length_c   10.08545304
_cell_angle_alpha   97.75906201
_cell_angle_beta   102.33692015
_cell_angle_gamma   101.34561914
_symmetry_Int_Tables_number   1
_chemical_formula_structural   V3Zn2FeO11
_chemical_formula_sum   'V6 Zn4 Fe2 O22'
_cell_volume   432.42917913
_cell_formula_units_Z   2
loop_
 _symmetry_equiv_pos_site_id
 _symmetry_equiv_pos_as_xyz
  1  'x, y, z'
loop_
 _atom_site_type_symbol
 _atom_site_label
 _atom_site_symmetry_multiplicity
 _atom_site_fract_x
 _atom_site_fract_y
 _atom_site_fract_z
 _atom_site_occupancy
  V  V0  1  0.32659064  0.01431984  0.21077168  1
  V  V1  1  0.67340936  0.98568016  0.78922832  1
  V  V2  1  0.30498213  0.42667456  0.88234876  1
  V  V3  1  0.69501787  0.57332544  0.11765124  1
  V  V4  1  0.74821442  0.67430219  0.47164612  1
  V  V5  1  0.25178558  0.32569781  0.52835388  1
  Zn  Zn6  1  0.17533890  0.87800911  0.83683886  1
  Zn  Zn7  1  0.82466110  0.12199089  0.16316114  1
  Zn  Zn8  1  0.78202145  0.50597446  0.77930652  1
  Zn  Zn9  1  0.21797855  0.49402554  0.22069348  1
  Fe  Fe10  1  0.69199002  0.17582116  0.50409835  1
  Fe  Fe11  1  0.30800998  0.82417884  0.49590165  1
  O  O12  1  0.84466163  0.81727190  0.77682120  1
  O  O13  1  0.15533837  0.18272810  0.22317880  1
  O  O14  1  0.71627178  0.47153073  0.56037332  1
  O  O15  1  0.28372822  0.52846927  0.43962668  1
  O  O16  1  0.63626452  0.57202621  0.30162572  1
  O  O17  1  0.36373548  0.42797379  0.69837428  1
  O  O18  1  0.62523185  0.87652556  0.51216074  1
  O  O19  1  0.37476815  0.12347444  0.48783926  1
  O  O20  1  0.11038729  0.56504462  0.84477957  1
  O  O21  1  0.88961271  0.43495538  0.15522043  1
  O  O22  1  0.98917011  0.21803443  0.50416890  1
  O  O23  1  0.01082989  0.78196557  0.49583110  1
  O  O24  1  0.19028218  0.18346514  0.85349919  1
  O  O25  1  0.80971782  0.81653486  0.14650081  1
  O  O26  1  0.30355746  0.93067423  0.04331504  1
  O  O27  1  0.69644254  0.06932577  0.95668496  1
  O  O28  1  0.61727599  0.50707545  0.92489860  1
  O  O29  1  0.38272401  0.49292455  0.07510140  1
  O  O30  1  0.25885546  0.79963442  0.28474961  1
  O  O31  1  0.74114454  0.20036558  0.71525039  1
  O  O32  1  0.60868374  0.12621206  0.28777178  1
  O  O33  1  0.39131626  0.87378794  0.71222822  1
