# generated using pymatgen
data_Te16Rh9
_symmetry_space_group_name_H-M   'P 1'
_cell_length_a   8.00580512
_cell_length_b   8.90572232
_cell_length_c   8.81882294
_cell_angle_alpha   102.54252977
_cell_angle_beta   89.47552703
_cell_angle_gamma   90.02676836
_symmetry_Int_Tables_number   1
_chemical_formula_structural   Te16Rh9
_chemical_formula_sum   'Te16 Rh9'
_cell_volume   613.72806643
_cell_formula_units_Z   1
loop_
 _symmetry_equiv_pos_site_id
 _symmetry_equiv_pos_as_xyz
  1  'x, y, z'
loop_
 _atom_site_type_symbol
 _atom_site_label
 _atom_site_symmetry_multiplicity
 _atom_site_fract_x
 _atom_site_fract_y
 _atom_site_fract_z
 _atom_site_occupancy
  Te  Te0  1  0.25149388  0.78359369  0.95522883  1
  Te  Te1  1  0.99737678  0.03795245  0.70173403  1
  Te  Te2  1  0.49689261  0.53681445  0.20512077  1
  Te  Te3  1  0.74542096  0.28930147  0.45733872  1
  Te  Te4  1  0.74850612  0.21640631  0.04477117  1
  Te  Te5  1  0.50310739  0.46318555  0.79487923  1
  Te  Te6  1  0.00262322  0.96204755  0.29826597  1
  Te  Te7  1  0.25457904  0.71069853  0.54266128  1
  Te  Te8  1  0.99801017  0.54112506  0.20783601  1
  Te  Te9  1  0.24953755  0.29118976  0.45835191  1
  Te  Te10  1  0.49817281  0.04143432  0.70855089  1
  Te  Te11  1  0.74399136  0.78681291  0.95789803  1
  Te  Te12  1  0.50182719  0.95856568  0.29144911  1
  Te  Te13  1  0.75046245  0.70881024  0.54164809  1
  Te  Te14  1  0.00198983  0.45887494  0.79216399  1
  Te  Te15  1  0.25600864  0.21318709  0.04210197  1
  Rh  Rh16  1  0.50049939  0.75497959  0.74886024  1
  Rh  Rh17  1  0.25473590  0.00097383  0.50092996  1
  Rh  Rh18  1  0.75578195  0.50160264  0.00059778  1
  Rh  Rh19  1  0.99972078  0.25556345  0.25586397  1
  Rh  Rh20  1  0.49950061  0.24502041  0.25113976  1
  Rh  Rh21  1  0.24421805  0.49839736  0.99940222  1
  Rh  Rh22  1  0.74526410  0.99902617  0.49907004  1
  Rh  Rh23  1  0.00027922  0.74443655  0.74413603  1
  Rh  Rh24  1  0.00000000  0.00000000  0.00000000  1
