# generated using pymatgen
data_VGa(CuO2)2
_symmetry_space_group_name_H-M   'P 1'
_cell_length_a   3.02908729
_cell_length_b   6.02241086
_cell_length_c   5.34080647
_cell_angle_alpha   73.13183507
_cell_angle_beta   89.99999070
_cell_angle_gamma   89.99999407
_symmetry_Int_Tables_number   1
_chemical_formula_structural   VGa(CuO2)2
_chemical_formula_sum   'V1 Ga1 Cu2 O4'
_cell_volume   93.23727750
_cell_formula_units_Z   1
loop_
 _symmetry_equiv_pos_site_id
 _symmetry_equiv_pos_as_xyz
  1  'x, y, z'
loop_
 _atom_site_type_symbol
 _atom_site_label
 _atom_site_symmetry_multiplicity
 _atom_site_fract_x
 _atom_site_fract_y
 _atom_site_fract_z
 _atom_site_occupancy
  V  V0  1  0.50000000  0.50000000  0.00000000  1
  Ga  Ga1  1  -0.00000000  0.50000000  0.50000000  1
  Cu  Cu2  1  -0.00000000  -0.00000000  0.00000000  1
  Cu  Cu3  1  0.50000000  -0.00000000  0.50000000  1
  O  O4  1  0.50000000  0.67659697  0.60122061  1
  O  O5  1  0.00000000  0.67781505  0.11221569  1
  O  O6  1  0.50000000  0.32340303  0.39877939  1
  O  O7  1  1.00000000  0.32218495  0.88778431  1
