# generated using pymatgen
data_Li7Mn2(CoO4)3
_symmetry_space_group_name_H-M   'P 1'
_cell_length_a   2.91533691
_cell_length_b   5.15061872
_cell_length_c   14.63633785
_cell_angle_alpha   80.89888537
_cell_angle_beta   84.28429209
_cell_angle_gamma   90.00000392
_symmetry_Int_Tables_number   1
_chemical_formula_structural   Li7Mn2(CoO4)3
_chemical_formula_sum   'Li7 Mn2 Co3 O12'
_cell_volume   215.90267496
_cell_formula_units_Z   1
loop_
 _symmetry_equiv_pos_site_id
 _symmetry_equiv_pos_as_xyz
  1  'x, y, z'
loop_
 _atom_site_type_symbol
 _atom_site_label
 _atom_site_symmetry_multiplicity
 _atom_site_fract_x
 _atom_site_fract_y
 _atom_site_fract_z
 _atom_site_occupancy
  Li  Li0  1  0.75472464  0.75702207  0.49055072  1
  Li  Li1  1  0.58299724  0.90707619  0.83400452  1
  Li  Li2  1  0.41294044  0.08878476  0.17412012  1
  Li  Li3  1  0.08366876  0.42625781  0.83266148  1
  Li  Li4  1  0.91194236  0.57631093  0.17611628  1
  Li  Li5  1  0.25372656  0.24454824  0.49254688  1
  Li  Li6  1  0.83333300  0.16666700  0.33333300  1
  Mn  Mn7  1  0.99946698  0.00053715  0.00106603  1
  Mn  Mn8  1  0.66720002  0.33279585  0.66560097  1
  Co  Co9  1  0.49900829  0.49953621  0.00198343  1
  Co  Co10  1  0.33333300  0.66666700  0.33333300  1
  Co  Co11  1  0.16765871  0.83379679  0.66468357  1
  O  O12  1  0.62865225  0.61167293  0.74269550  1
  O  O13  1  0.46238537  0.82355101  0.07522825  1
  O  O14  1  0.29607471  0.92063869  0.40785158  1
  O  O15  1  0.96138536  0.27743277  0.07722828  1
  O  O16  1  0.79716701  0.48452802  0.40566699  1
  O  O17  1  0.12912304  0.15373098  0.74175393  1
  O  O18  1  0.86949999  0.84880498  0.26100001  1
  O  O19  1  0.70528064  0.05590123  0.58943772  1
  O  O20  1  0.53754396  0.17960202  0.92491307  1
  O  O21  1  0.20428063  0.50978299  0.59143775  1
  O  O22  1  0.03801475  0.72166007  0.92397150  1
  O  O23  1  0.37059229  0.41269431  0.25881542  1
