# generated using pymatgen
data_V4HC3
_symmetry_space_group_name_H-M   'P 1'
_cell_length_a   2.92569506
_cell_length_b   2.92569506
_cell_length_c   9.63052136
_cell_angle_alpha   90.00000000
_cell_angle_beta   81.26312210
_cell_angle_gamma   120.00000000
_symmetry_Int_Tables_number   1
_chemical_formula_structural   V4HC3
_chemical_formula_sum   'V4 H1 C3'
_cell_volume   70.28350393
_cell_formula_units_Z   1
loop_
 _symmetry_equiv_pos_site_id
 _symmetry_equiv_pos_as_xyz
  1  'x, y, z'
loop_
 _atom_site_type_symbol
 _atom_site_label
 _atom_site_symmetry_multiplicity
 _atom_site_fract_x
 _atom_site_fract_y
 _atom_site_fract_z
 _atom_site_occupancy
  V  V0  1  0.00381954  0.50190977  0.49427069  1
  V  V1  1  0.49618046  0.74809023  0.75572931  1
  V  V2  1  0.00291954  0.00145977  0.99562070  1
  V  V3  1  0.49708046  0.24854023  0.25437930  1
  H  H4  1  0.25000000  0.62500000  0.12500000  1
  C  C5  1  0.75527089  0.87763544  0.36709367  1
  C  C6  1  0.25000000  0.12500000  0.62500000  1
  C  C7  1  0.74472911  0.37236456  0.88290633  1
