# generated using pymatgen
data_TePb2Se
_symmetry_space_group_name_H-M   'P 1'
_cell_length_a   4.52309894
_cell_length_b   4.52309894
_cell_length_c   7.83073991
_cell_angle_alpha   73.21363569
_cell_angle_beta   90.00000000
_cell_angle_gamma   120.00000000
_symmetry_Int_Tables_number   1
_chemical_formula_structural   TePb2Se
_chemical_formula_sum   'Te1 Pb2 Se1'
_cell_volume   130.79920729
_cell_formula_units_Z   1
loop_
 _symmetry_equiv_pos_site_id
 _symmetry_equiv_pos_as_xyz
  1  'x, y, z'
loop_
 _atom_site_type_symbol
 _atom_site_label
 _atom_site_symmetry_multiplicity
 _atom_site_fract_x
 _atom_site_fract_y
 _atom_site_fract_z
 _atom_site_occupancy
  Te  Te0  1  0.50000000  0.00000000  0.50000000  1
  Pb  Pb1  1  0.25503976  0.51007953  0.23488071  1
  Pb  Pb2  1  0.74496024  0.48992047  0.76511929  1
  Se  Se3  1  0.00000000  0.00000000  0.00000000  1
