# generated using pymatgen
data_Te7As5I
_symmetry_space_group_name_H-M   'P 1'
_cell_length_a   4.07870129
_cell_length_b   7.79643313
_cell_length_c   13.57508082
_cell_angle_alpha   81.69460467
_cell_angle_beta   81.35988624
_cell_angle_gamma   105.16353150
_symmetry_Int_Tables_number   1
_chemical_formula_structural   Te7As5I
_chemical_formula_sum   'Te7 As5 I1'
_cell_volume   404.21144463
_cell_formula_units_Z   1
loop_
 _symmetry_equiv_pos_site_id
 _symmetry_equiv_pos_as_xyz
  1  'x, y, z'
loop_
 _atom_site_type_symbol
 _atom_site_label
 _atom_site_symmetry_multiplicity
 _atom_site_fract_x
 _atom_site_fract_y
 _atom_site_fract_z
 _atom_site_occupancy
  Te  Te0  1  0.19771483  0.02386532  0.62843566  1
  Te  Te1  1  0.79547293  0.97069501  0.37974914  1
  Te  Te2  1  0.44075947  0.53738255  0.65586361  1
  Te  Te3  1  0.56192582  0.46351827  0.33966662  1
  Te  Te4  1  0.65885990  0.17287594  0.85515615  1
  Te  Te5  1  0.34337226  0.83186094  0.14511642  1
  Te  Te6  1  0.10731003  0.30921660  0.09459654  1
  As  As7  1  0.00352781  0.01264218  0.00558655  1
  As  As8  1  0.55505675  0.87702472  0.76691121  1
  As  As9  1  0.45394754  0.13397107  0.22607599  1
  As  As10  1  0.08975202  0.72350134  0.54399729  1
  As  As11  1  0.91343314  0.27773619  0.45086992  1
  I  I12  1  0.87886749  0.66570988  0.90797489  1
