# generated using pymatgen
data_Tb(InCu)6
_symmetry_space_group_name_H-M   'P 1'
_cell_length_a   5.55445137
_cell_length_b   7.05837498
_cell_length_c   7.05837498
_cell_angle_alpha   98.59084831
_cell_angle_beta   113.17028951
_cell_angle_gamma   66.82971049
_symmetry_Int_Tables_number   1
_chemical_formula_structural   Tb(InCu)6
_chemical_formula_sum   'Tb1 In6 Cu6'
_cell_volume   233.88020627
_cell_formula_units_Z   1
loop_
 _symmetry_equiv_pos_site_id
 _symmetry_equiv_pos_as_xyz
  1  'x, y, z'
loop_
 _atom_site_type_symbol
 _atom_site_label
 _atom_site_symmetry_multiplicity
 _atom_site_fract_x
 _atom_site_fract_y
 _atom_site_fract_z
 _atom_site_occupancy
  Tb  Tb0  1  0.00000000  -0.00000000  0.00000000  1
  In  In1  1  0.66293415  0.33706585  0.66293415  1
  In  In2  1  0.33706585  0.66293415  0.33706585  1
  In  In3  1  0.00000000  0.34255820  0.34255820  1
  In  In4  1  0.00000000  0.65744180  0.65744180  1
  In  In5  1  0.50000000  0.81425277  0.81425277  1
  In  In6  1  0.50000000  0.18574723  0.18574723  1
  Cu  Cu7  1  0.50000000  -0.00000000  0.50000000  1
  Cu  Cu8  1  0.00000000  -0.00000000  0.50000000  1
  Cu  Cu9  1  0.50000000  0.50000000  0.00000000  1
  Cu  Cu10  1  0.00000000  0.50000000  0.00000000  1
  Cu  Cu11  1  0.73289187  0.76710813  0.23289187  1
  Cu  Cu12  1  0.26710813  0.23289187  0.76710813  1
