# generated using pymatgen
data_Li7Mn2(CoO4)3
_symmetry_space_group_name_H-M   'P 1'
_cell_length_a   2.95833061
_cell_length_b   7.71291207
_cell_length_c   9.89357818
_cell_angle_alpha   78.49489995
_cell_angle_beta   90.00000000
_cell_angle_gamma   78.94344720
_symmetry_Int_Tables_number   1
_chemical_formula_structural   Li7Mn2(CoO4)3
_chemical_formula_sum   'Li7 Mn2 Co3 O12'
_cell_volume   216.93147214
_cell_formula_units_Z   1
loop_
 _symmetry_equiv_pos_site_id
 _symmetry_equiv_pos_as_xyz
  1  'x, y, z'
loop_
 _atom_site_type_symbol
 _atom_site_label
 _atom_site_symmetry_multiplicity
 _atom_site_fract_x
 _atom_site_fract_y
 _atom_site_fract_z
 _atom_site_occupancy
  Li  Li0  1  0.59067146  0.81865608  0.26952893  1
  Li  Li1  1  0.74266154  0.51467692  0.73047107  1
  Li  Li2  1  0.91787841  0.16424419  0.26790052  1
  Li  Li3  1  0.25193859  0.49612282  0.26257346  1
  Li  Li4  1  0.41545559  0.16908981  0.73209948  1
  Li  Li5  1  0.08139441  0.83721018  0.73742654  1
  Li  Li6  1  0.16666700  0.66666700  0.50000000  1
  Mn  Mn7  1  0.00230072  0.99539856  0.00124341  1
  Mn  Mn8  1  0.33103228  0.33793444  0.99875659  1
  Co  Co9  1  0.50620178  0.98759643  0.49921336  1
  Co  Co10  1  0.66666700  0.66666700  0.00000000  1
  Co  Co11  1  0.82713122  0.34573657  0.50078664  1
  O  O12  1  0.45902694  0.08194512  0.10431438  1
  O  O13  1  0.61176676  0.77646648  0.62002617  1
  O  O14  1  0.80212864  0.39574372  0.11297878  1
  O  O15  1  0.11854685  0.76290630  0.11558544  1
  O  O16  1  0.29457136  0.41085828  0.61858370  1
  O  O17  1  0.95114169  0.09771562  0.61072745  1
  O  O18  1  0.72156624  0.55686652  0.37997383  1
  O  O19  1  0.87430606  0.25138788  0.89568562  1
  O  O20  1  0.03876264  0.92247572  0.38141630  1
  O  O21  1  0.38219131  0.23561738  0.38927255  1
  O  O22  1  0.53120536  0.93759028  0.88702122  1
  O  O23  1  0.21478615  0.57042670  0.88441456  1
