# generated using pymatgen
data_TbFe11Re
_symmetry_space_group_name_H-M   'P 1'
_cell_length_a   4.67784630
_cell_length_b   6.46718105
_cell_length_c   6.46718105
_cell_angle_alpha   97.98557185
_cell_angle_beta   111.20220485
_cell_angle_gamma   68.79779515
_symmetry_Int_Tables_number   1
_chemical_formula_structural   TbFe11Re
_chemical_formula_sum   'Tb1 Fe11 Re1'
_cell_volume   170.05037228
_cell_formula_units_Z   1
loop_
 _symmetry_equiv_pos_site_id
 _symmetry_equiv_pos_as_xyz
  1  'x, y, z'
loop_
 _atom_site_type_symbol
 _atom_site_label
 _atom_site_symmetry_multiplicity
 _atom_site_fract_x
 _atom_site_fract_y
 _atom_site_fract_z
 _atom_site_occupancy
  Tb  Tb0  1  0.00562435  0.99437565  0.00562435  1
  Fe  Fe1  1  0.72852477  0.77147523  0.22852477  1
  Fe  Fe2  1  0.27097605  0.22902395  0.77097605  1
  Fe  Fe3  1  0.49837791  0.77718971  0.77394553  1
  Fe  Fe4  1  0.49837791  0.22605447  0.22281029  1
  Fe  Fe5  1  0.50041493  0.99897421  0.49996745  1
  Fe  Fe6  1  0.00057830  0.99897421  0.49996745  1
  Fe  Fe7  1  0.50041493  0.50003255  0.00102579  1
  Fe  Fe8  1  0.00057830  0.50003255  0.00102579  1
  Fe  Fe9  1  0.36015669  0.63984331  0.36015669  1
  Fe  Fe10  1  0.99910310  0.36011472  0.35832092  1
  Fe  Fe11  1  0.99910310  0.64167908  0.63988528  1
  Re  Re12  1  0.63776965  0.36223035  0.63776965  1
