# generated using pymatgen
data_Tb4Fe34C3
_symmetry_space_group_name_H-M   'P 1'
_cell_length_a   6.48296139
_cell_length_b   6.45006158
_cell_length_c   12.92834640
_cell_angle_alpha   83.28270048
_cell_angle_beta   83.75081752
_cell_angle_gamma   83.91156474
_symmetry_Int_Tables_number   1
_chemical_formula_structural   Tb4Fe34C3
_chemical_formula_sum   'Tb4 Fe34 C3'
_cell_volume   531.31362949
_cell_formula_units_Z   1
loop_
 _symmetry_equiv_pos_site_id
 _symmetry_equiv_pos_as_xyz
  1  'x, y, z'
loop_
 _atom_site_type_symbol
 _atom_site_label
 _atom_site_symmetry_multiplicity
 _atom_site_fract_x
 _atom_site_fract_y
 _atom_site_fract_z
 _atom_site_occupancy
  Tb  Tb0  1  0.66449488  0.65174276  0.32650694  1
  Tb  Tb1  1  0.66109971  0.66068160  0.82456543  1
  Tb  Tb2  1  0.33550512  0.34825724  0.17349306  1
  Tb  Tb3  1  0.33890029  0.33931840  0.67543457  1
  Fe  Fe4  1  0.28589442  0.71526355  0.49996374  1
  Fe  Fe5  1  0.28541134  0.71473206  0.99940165  1
  Fe  Fe6  1  0.71404183  0.00121097  0.14241082  1
  Fe  Fe7  1  0.71239757  0.00140218  0.64467754  1
  Fe  Fe8  1  0.00173316  0.28677464  0.35664859  1
  Fe  Fe9  1  0.99781359  0.28882827  0.85552688  1
  Fe  Fe10  1  0.28595817  0.99878903  0.35758918  1
  Fe  Fe11  1  0.28760243  0.99859782  0.85532246  1
  Fe  Fe12  1  0.99826684  0.71322536  0.14335141  1
  Fe  Fe13  1  0.00218641  0.71117173  0.64447312  1
  Fe  Fe14  1  0.71410558  0.28473645  0.00003626  1
  Fe  Fe15  1  0.71458866  0.28526794  0.50059835  1
  Fe  Fe16  1  0.90277814  0.90354770  0.45183949  1
  Fe  Fe17  1  0.90425935  0.90420184  0.95059952  1
  Fe  Fe18  1  0.09722186  0.09645230  0.04816051  1
  Fe  Fe19  1  0.09574065  0.09579816  0.54940048  1
  Fe  Fe20  1  -0.00000000  -0.00000000  0.25000000  1
  Fe  Fe21  1  -0.00000000  -0.00000000  0.75000000  1
  Fe  Fe22  1  0.99911946  0.49985010  0.50045678  1
  Fe  Fe23  1  0.00088054  0.50014990  0.99954322  1
  Fe  Fe24  1  0.50078880  0.99783065  0.99885803  1
  Fe  Fe25  1  0.49921120  0.00216935  0.50114197  1
  Fe  Fe26  1  0.85351217  0.34538272  0.17284460  1
  Fe  Fe27  1  0.84979486  0.34487622  0.67328208  1
  Fe  Fe28  1  0.34109665  0.34488951  0.42697576  1
  Fe  Fe29  1  0.34299225  0.34230886  0.92438119  1
  Fe  Fe30  1  0.34175229  0.85186537  0.17168827  1
  Fe  Fe31  1  0.34441286  0.85058896  0.67325812  1
  Fe  Fe32  1  0.14648783  0.65461728  0.32715540  1
  Fe  Fe33  1  0.15020514  0.65512378  0.82671792  1
  Fe  Fe34  1  0.65890335  0.65511049  0.07302424  1
  Fe  Fe35  1  0.65700775  0.65769114  0.57561881  1
  Fe  Fe36  1  0.65824771  0.14813463  0.32831173  1
  Fe  Fe37  1  0.65558714  0.14941104  0.82674188  1
  C  C38  1  0.49934328  0.49950128  0.99921141  1
  C  C39  1  0.50065672  0.50049872  0.50078859  1
  C  C40  1  0.50000000  -0.00000000  0.25000000  1
