# generated using pymatgen
data_TaTiCrO6
_symmetry_space_group_name_H-M   'P 1'
_cell_length_a   4.68588846
_cell_length_b   4.68588846
_cell_length_c   9.07660389
_cell_angle_alpha   90.00000000
_cell_angle_beta   90.00000000
_cell_angle_gamma   90.00000000
_symmetry_Int_Tables_number   1
_chemical_formula_structural   TaTiCrO6
_chemical_formula_sum   'Ta2 Ti2 Cr2 O12'
_cell_volume   199.29998973
_cell_formula_units_Z   2
loop_
 _symmetry_equiv_pos_site_id
 _symmetry_equiv_pos_as_xyz
  1  'x, y, z'
loop_
 _atom_site_type_symbol
 _atom_site_label
 _atom_site_symmetry_multiplicity
 _atom_site_fract_x
 _atom_site_fract_y
 _atom_site_fract_z
 _atom_site_occupancy
  Ta  Ta0  1  0.50000000  0.50000000  0.83405985  1
  Ta  Ta1  1  -0.00000000  -0.00000000  0.33405985  1
  Ti  Ti2  1  0.50000000  0.50000000  0.49831810  1
  Ti  Ti3  1  0.00000000  0.00000000  0.99831810  1
  Cr  Cr4  1  0.50000000  0.50000000  0.16719012  1
  Cr  Cr5  1  -0.00000000  -0.00000000  0.66719012  1
  O  O6  1  0.19367773  0.80632227  0.16581095  1
  O  O7  1  0.19904454  0.80095546  0.49745267  1
  O  O8  1  0.19544852  0.80455148  0.83695234  1
  O  O9  1  0.80632227  0.19367773  0.16581095  1
  O  O10  1  0.80095546  0.19904454  0.49745267  1
  O  O11  1  0.80455148  0.19544852  0.83695234  1
  O  O12  1  0.30455148  0.30455148  0.33695234  1
  O  O13  1  0.30632227  0.30632227  0.66581095  1
  O  O14  1  0.30095546  0.30095546  0.99745267  1
  O  O15  1  0.69904454  0.69904454  0.99745267  1
  O  O16  1  0.69544852  0.69544852  0.33695234  1
  O  O17  1  0.69367773  0.69367773  0.66581095  1
