# generated using pymatgen
data_Zn4FeCu10(GeS4)5
_symmetry_space_group_name_H-M   'P 1'
_cell_length_a   6.20735837
_cell_length_b   6.51645099
_cell_length_c   37.39758933
_cell_angle_alpha   90.00000000
_cell_angle_beta   90.00000000
_cell_angle_gamma   89.99814603
_symmetry_Int_Tables_number   1
_chemical_formula_structural   Zn4FeCu10(GeS4)5
_chemical_formula_sum   'Zn8 Fe2 Cu20 Ge10 S40'
_cell_volume   1512.73049080
_cell_formula_units_Z   2
loop_
 _symmetry_equiv_pos_site_id
 _symmetry_equiv_pos_as_xyz
  1  'x, y, z'
loop_
 _atom_site_type_symbol
 _atom_site_label
 _atom_site_symmetry_multiplicity
 _atom_site_fract_x
 _atom_site_fract_y
 _atom_site_fract_z
 _atom_site_occupancy
  Zn  Zn0  1  0.00108501  0.15497430  0.10003691  1
  Zn  Zn1  1  0.00108501  0.15497430  0.29996309  1
  Zn  Zn2  1  0.00117109  0.15536428  0.49993606  1
  Zn  Zn3  1  0.00119365  0.15569228  0.70000000  1
  Zn  Zn4  1  0.00117109  0.15536428  0.90006394  1
  Zn  Zn5  1  0.50107053  0.84508374  0.00011623  1
  Zn  Zn6  1  0.50107910  0.84503136  0.20000000  1
  Zn  Zn7  1  0.50107053  0.84508374  0.39988377  1
  Fe  Fe8  1  0.50274917  0.84372764  0.59998729  1
  Fe  Fe9  1  0.50274917  0.84372764  0.80001271  1
  Cu  Cu10  1  0.49237177  0.32703697  0.05038785  1
  Cu  Cu11  1  0.49235954  0.32700056  0.25035627  1
  Cu  Cu12  1  0.49236705  0.32709500  0.45030564  1
  Cu  Cu13  1  0.49378012  0.32760104  0.65019270  1
  Cu  Cu14  1  0.49390645  0.32745836  0.85022786  1
  Cu  Cu15  1  0.49235954  0.32700056  0.14964373  1
  Cu  Cu16  1  0.49237177  0.32703697  0.34961215  1
  Cu  Cu17  1  0.49390645  0.32745836  0.54977214  1
  Cu  Cu18  1  0.49378012  0.32760104  0.74980730  1
  Cu  Cu19  1  0.49236705  0.32709500  0.94969436  1
  Cu  Cu20  1  0.99235651  0.67304236  0.04966938  1
  Cu  Cu21  1  0.99235508  0.67298509  0.24962883  1
  Cu  Cu22  1  0.99237678  0.67299630  0.44960183  1
  Cu  Cu23  1  0.99107194  0.67313135  0.64933822  1
  Cu  Cu24  1  0.99114855  0.67323368  0.84936270  1
  Cu  Cu25  1  0.99235508  0.67298509  0.15037117  1
  Cu  Cu26  1  0.99235651  0.67304236  0.35033062  1
  Cu  Cu27  1  0.99114855  0.67323368  0.55063730  1
  Cu  Cu28  1  0.99107194  0.67313135  0.75066178  1
  Cu  Cu29  1  0.99237678  0.67299630  0.95039817  1
  Ge  Ge30  1  0.50119156  0.83040688  0.10001087  1
  Ge  Ge31  1  0.50119156  0.83040688  0.29998913  1
  Ge  Ge32  1  0.50177856  0.82933550  0.50007330  1
  Ge  Ge33  1  0.50236592  0.82828040  0.70000000  1
  Ge  Ge34  1  0.50177856  0.82933550  0.89992670  1
  Ge  Ge35  1  0.00118252  0.16964384  0.00000894  1
  Ge  Ge36  1  0.00116555  0.16952037  0.20000000  1
  Ge  Ge37  1  0.00118252  0.16964384  0.39999106  1
  Ge  Ge38  1  0.99980275  0.16913661  0.59999105  1
  Ge  Ge39  1  0.99980275  0.16913661  0.80000895  1
  S  S40  1  0.12395682  0.34012684  0.04895056  1
  S  S41  1  0.12400558  0.34016380  0.24894724  1
  S  S42  1  0.12399007  0.34020406  0.44892451  1
  S  S43  1  0.12375601  0.34078593  0.64900736  1
  S  S44  1  0.12373911  0.34071191  0.84905136  1
  S  S45  1  0.12400558  0.34016380  0.15105276  1
  S  S46  1  0.12395682  0.34012684  0.35104944  1
  S  S47  1  0.12373911  0.34071191  0.55094864  1
  S  S48  1  0.12375601  0.34078593  0.75099264  1
  S  S49  1  0.12399007  0.34020406  0.95107549  1
  S  S50  1  0.62403286  0.65981939  0.05107252  1
  S  S51  1  0.62399901  0.65981000  0.25104407  1
  S  S52  1  0.62409889  0.65978752  0.45085139  1
  S  S53  1  0.62164888  0.66330188  0.64952744  1
  S  S54  1  0.62150946  0.66341103  0.84980598  1
  S  S55  1  0.62399901  0.65981000  0.14895593  1
  S  S56  1  0.62403286  0.65981939  0.34892748  1
  S  S57  1  0.62150946  0.66341103  0.55019402  1
  S  S58  1  0.62164888  0.66330188  0.75047256  1
  S  S59  1  0.62409889  0.65978752  0.94914861  1
  S  S60  1  0.62031742  0.15756198  0.09999988  1
  S  S61  1  0.62031742  0.15756198  0.30000012  1
  S  S62  1  0.62030872  0.15824400  0.49999506  1
  S  S63  1  0.62023836  0.15887072  0.70000000  1
  S  S64  1  0.62030872  0.15824400  0.90000494  1
  S  S65  1  0.12032993  0.84243827  0.20000000  1
  S  S66  1  0.12033609  0.84239652  0.39999711  1
  S  S67  1  0.12977066  0.84258467  0.59998889  1
  S  S68  1  0.12977066  0.84258467  0.80001111  1
  S  S69  1  0.12033609  0.84239652  0.00000289  1
  S  S70  1  0.13468531  0.82027429  0.10000580  1
  S  S71  1  0.13468531  0.82027429  0.29999420  1
  S  S72  1  0.13394923  0.82054971  0.49999898  1
  S  S73  1  0.13317284  0.82092029  0.70000000  1
  S  S74  1  0.13394923  0.82054971  0.90000102  1
  S  S75  1  0.63464354  0.17969589  0.00001105  1
  S  S76  1  0.63468327  0.17969884  0.20000000  1
  S  S77  1  0.63464354  0.17969589  0.39998895  1
  S  S78  1  0.63001305  0.17109082  0.59998716  1
  S  S79  1  0.63001305  0.17109082  0.80001284  1
