# generated using pymatgen
data_Te3H9Br13O4
_symmetry_space_group_name_H-M   'P 1'
_cell_length_a   9.61090266
_cell_length_b   9.58853479
_cell_length_c   10.33351799
_cell_angle_alpha   65.50623917
_cell_angle_beta   65.39722118
_cell_angle_gamma   95.49408286
_symmetry_Int_Tables_number   1
_chemical_formula_structural   Te3H9Br13O4
_chemical_formula_sum   'Te3 H9 Br13 O4'
_cell_volume   745.31766662
_cell_formula_units_Z   1
loop_
 _symmetry_equiv_pos_site_id
 _symmetry_equiv_pos_as_xyz
  1  'x, y, z'
loop_
 _atom_site_type_symbol
 _atom_site_label
 _atom_site_symmetry_multiplicity
 _atom_site_fract_x
 _atom_site_fract_y
 _atom_site_fract_z
 _atom_site_occupancy
  Te  Te0  1  0.36063808  0.36272756  0.27721915  1
  Te  Te1  1  0.63735694  0.64031510  0.72333720  1
  Te  Te2  1  0.22613785  0.77227172  0.00063851  1
  H  H3  1  0.88808525  0.18458329  0.00335412  1
  H  H4  1  0.69370108  0.05718854  0.10513883  1
  H  H5  1  0.79989718  0.16369669  0.89546586  1
  H  H6  1  0.14546706  0.21807339  0.92065977  1
  H  H7  1  0.06998283  0.24612147  0.07142207  1
  H  H8  1  0.48247703  0.83171097  0.26165267  1
  H  H9  1  0.74512790  0.09277392  0.73799809  1
  H  H10  1  0.57643510  0.84160276  0.35194388  1
  H  H11  1  0.92770824  0.19368229  0.64709798  1
  Br  Br12  1  0.16079564  0.83870411  0.23321666  1
  Br  Br13  1  0.38746581  0.07314918  0.77271491  1
  Br  Br14  1  0.26461913  0.44350519  0.50589559  1
  Br  Br15  1  0.77032352  0.94748808  0.49779911  1
  Br  Br16  1  0.96201074  0.78794788  0.00037783  1
  Br  Br17  1  0.07457510  0.41751036  0.24796309  1
  Br  Br18  1  0.32794589  0.67384478  0.74758463  1
  Br  Br19  1  0.19527668  0.06386569  0.47885545  1
  Br  Br20  1  0.67427387  0.54245741  0.51985394  1
  Br  Br21  1  0.45176391  0.30761433  0.00066557  1
  Br  Br22  1  0.53546150  0.72662378  0.00064804  1
  Br  Br23  1  0.62527329  0.33616583  0.27772245  1
  Br  Br24  1  0.90224410  0.61292193  0.72354690  1
  O  O25  1  0.04823603  0.22874409  0.99436368  1
  O  O26  1  0.78154834  0.16214559  0.00156436  1
  O  O27  1  0.55682759  0.90668830  0.26337359  1
  O  O28  1  0.82068433  0.17085577  0.73560607  1
