# generated using pymatgen
data_TbAlCu4
_symmetry_space_group_name_H-M   'P 1'
_cell_length_a   4.03477317
_cell_length_b   5.18298675
_cell_length_c   5.18406191
_cell_angle_alpha   59.99689394
_cell_angle_beta   90.00000000
_cell_angle_gamma   90.00000000
_symmetry_Int_Tables_number   1
_chemical_formula_structural   TbAlCu4
_chemical_formula_sum   'Tb1 Al1 Cu4'
_cell_volume   93.88288794
_cell_formula_units_Z   1
loop_
 _symmetry_equiv_pos_site_id
 _symmetry_equiv_pos_as_xyz
  1  'x, y, z'
loop_
 _atom_site_type_symbol
 _atom_site_label
 _atom_site_symmetry_multiplicity
 _atom_site_fract_x
 _atom_site_fract_y
 _atom_site_fract_z
 _atom_site_occupancy
  Tb  Tb0  1  0.00000000  0.99997394  0.00000150  1
  Al  Al1  1  0.00000000  0.33332906  0.33343461  1
  Cu  Cu2  1  0.00000000  0.66661816  0.66668449  1
  Cu  Cu3  1  0.50000000  0.50104390  0.50103122  1
  Cu  Cu4  1  0.50000000  0.50103935  0.99790893  1
  Cu  Cu5  1  0.50000000  0.99789559  0.50103926  1
