# generated using pymatgen
data_Tb20In40Rh19
_symmetry_space_group_name_H-M   'P 1'
_cell_length_a   9.43492323
_cell_length_b   13.61223373
_cell_length_c   13.61223373
_cell_angle_alpha   90.00000000
_cell_angle_beta   90.00000000
_cell_angle_gamma   90.00000000
_symmetry_Int_Tables_number   1
_chemical_formula_structural   Tb20In40Rh19
_chemical_formula_sum   'Tb20 In40 Rh19'
_cell_volume   1748.22435374
_cell_formula_units_Z   1
loop_
 _symmetry_equiv_pos_site_id
 _symmetry_equiv_pos_as_xyz
  1  'x, y, z'
loop_
 _atom_site_type_symbol
 _atom_site_label
 _atom_site_symmetry_multiplicity
 _atom_site_fract_x
 _atom_site_fract_y
 _atom_site_fract_z
 _atom_site_occupancy
  Tb  Tb0  1  0.26464455  0.95412399  0.95135380  1
  Tb  Tb1  1  0.26464455  0.54587601  0.95135380  1
  Tb  Tb2  1  0.26464455  0.95412399  0.54864620  1
  Tb  Tb3  1  0.26464455  0.54587601  0.54864620  1
  Tb  Tb4  1  0.73535545  0.04864620  0.04587601  1
  Tb  Tb5  1  0.73535545  0.45135380  0.04587601  1
  Tb  Tb6  1  0.73535545  0.04864620  0.45412399  1
  Tb  Tb7  1  0.73535545  0.45135380  0.45412399  1
  Tb  Tb8  1  0.35725417  0.75000000  0.75000000  1
  Tb  Tb9  1  0.64274583  0.25000000  0.25000000  1
  Tb  Tb10  1  0.76967153  0.02517602  0.75000000  1
  Tb  Tb11  1  0.76967153  0.47482398  0.75000000  1
  Tb  Tb12  1  0.76617834  0.75000000  0.02798461  1
  Tb  Tb13  1  0.76617834  0.75000000  0.47201539  1
  Tb  Tb14  1  0.23382166  0.97201539  0.25000000  1
  Tb  Tb15  1  0.23382166  0.52798461  0.25000000  1
  Tb  Tb16  1  0.23032847  0.25000000  0.97482398  1
  Tb  Tb17  1  0.23032847  0.25000000  0.52517602  1
  Tb  Tb18  1  0.85141594  0.75000000  0.75000000  1
  Tb  Tb19  1  0.14858406  0.25000000  0.25000000  1
  In  In20  1  0.23715778  0.36372799  0.75000000  1
  In  In21  1  0.23715778  0.13627201  0.75000000  1
  In  In22  1  0.23905418  0.75000000  0.36455899  1
  In  In23  1  0.23905418  0.75000000  0.13544101  1
  In  In24  1  0.76094582  0.63544101  0.25000000  1
  In  In25  1  0.76094582  0.86455899  0.25000000  1
  In  In26  1  0.76284222  0.25000000  0.63627201  1
  In  In27  1  0.76284222  0.25000000  0.86372799  1
  In  In28  1  0.50000000  0.88985103  0.11014897  1
  In  In29  1  0.50000000  0.61014897  0.11014897  1
  In  In30  1  0.50000000  0.88985103  0.38985103  1
  In  In31  1  0.50000000  0.61014897  0.38985103  1
  In  In32  1  0.50000000  0.11906584  0.88093416  1
  In  In33  1  0.50000000  0.38093416  0.88093416  1
  In  In34  1  0.50000000  0.11906584  0.61906584  1
  In  In35  1  0.50000000  0.38093416  0.61906584  1
  In  In36  1  0.59480131  0.87936882  0.87937502  1
  In  In37  1  0.59480131  0.62063118  0.87937502  1
  In  In38  1  0.59480131  0.87936882  0.62062498  1
  In  In39  1  0.59480131  0.62063118  0.62062498  1
  In  In40  1  0.40519869  0.12062498  0.12063118  1
  In  In41  1  0.40519869  0.37937502  0.12063118  1
  In  In42  1  0.40519869  0.12062498  0.37936882  1
  In  In43  1  0.40519869  0.37937502  0.37936882  1
  In  In44  1  0.00000000  0.40113844  0.59886156  1
  In  In45  1  0.00000000  0.09886156  0.59886156  1
  In  In46  1  0.00000000  0.40113844  0.90113844  1
  In  In47  1  0.00000000  0.09886156  0.90113844  1
  In  In48  1  0.00000000  0.59920358  0.40079642  1
  In  In49  1  0.00000000  0.90079642  0.40079642  1
  In  In50  1  0.00000000  0.59920358  0.09920358  1
  In  In51  1  0.00000000  0.90079642  0.09920358  1
  In  In52  1  0.09918798  0.58057694  0.75000000  1
  In  In53  1  0.09918798  0.91942306  0.75000000  1
  In  In54  1  0.09922523  0.75000000  0.58018372  1
  In  In55  1  0.09922523  0.75000000  0.91981628  1
  In  In56  1  0.90077477  0.41981628  0.25000000  1
  In  In57  1  0.90077477  0.08018372  0.25000000  1
  In  In58  1  0.90081202  0.25000000  0.41942306  1
  In  In59  1  0.90081202  0.25000000  0.08057694  1
  Rh  Rh60  1  0.40813951  0.52591893  0.75000000  1
  Rh  Rh61  1  0.40813951  0.97408107  0.75000000  1
  Rh  Rh62  1  0.40742348  0.75000000  0.52831497  1
  Rh  Rh63  1  0.40742348  0.75000000  0.97168503  1
  Rh  Rh64  1  0.59257652  0.47168503  0.25000000  1
  Rh  Rh65  1  0.59257652  0.02831497  0.25000000  1
  Rh  Rh66  1  0.59186049  0.25000000  0.47408107  1
  Rh  Rh67  1  0.59186049  0.25000000  0.02591893  1
  Rh  Rh68  1  0.10423343  0.09518365  0.09598661  1
  Rh  Rh69  1  0.10423343  0.40481635  0.09598661  1
  Rh  Rh70  1  0.10423343  0.09518365  0.40401339  1
  Rh  Rh71  1  0.10423343  0.40481635  0.40401339  1
  Rh  Rh72  1  0.89576657  0.90401339  0.90481635  1
  Rh  Rh73  1  0.89576657  0.59598661  0.90481635  1
  Rh  Rh74  1  0.89576657  0.90401339  0.59518365  1
  Rh  Rh75  1  0.89576657  0.59598661  0.59518365  1
  Rh  Rh76  1  0.00000000  0.25000000  0.75000000  1
  Rh  Rh77  1  0.00000000  0.75000000  0.25000000  1
  Rh  Rh78  1  0.50000000  0.75000000  0.25000000  1
