# generated using pymatgen
data_TaMo2(WSe5)2
_symmetry_space_group_name_H-M   'P 1'
_cell_length_a   3.35702625
_cell_length_b   3.35702634
_cell_length_c   67.36990201
_cell_angle_alpha   89.99970770
_cell_angle_beta   90.00031621
_cell_angle_gamma   120.00011955
_symmetry_Int_Tables_number   1
_chemical_formula_structural   TaMo2(WSe5)2
_chemical_formula_sum   'Ta2 Mo4 W4 Se20'
_cell_volume   657.51476629
_cell_formula_units_Z   2
loop_
 _symmetry_equiv_pos_site_id
 _symmetry_equiv_pos_as_xyz
  1  'x, y, z'
loop_
 _atom_site_type_symbol
 _atom_site_label
 _atom_site_symmetry_multiplicity
 _atom_site_fract_x
 _atom_site_fract_y
 _atom_site_fract_z
 _atom_site_occupancy
  Ta  Ta0  1  0.66664950  0.33335153  0.14998555  1
  Ta  Ta1  1  0.66664089  0.33335880  0.34999579  1
  Mo  Mo2  1  0.66665739  0.33334331  0.55000313  1
  Mo  Mo3  1  0.66665417  0.33334515  0.74999819  1
  Mo  Mo4  1  0.66666169  0.33334148  0.95001185  1
  Mo  Mo5  1  0.33335844  0.66664131  0.04999069  1
  W  W6  1  0.33334313  0.66665570  0.25000304  1
  W  W7  1  0.33334327  0.66665646  0.45001242  1
  W  W8  1  0.33334296  0.66665495  0.64999998  1
  W  W9  1  0.33335066  0.66664866  0.84999438  1
  Se  Se10  1  0.66668562  0.33331429  0.02531327  1
  Se  Se11  1  0.66667375  0.33332527  0.22521607  1
  Se  Se12  1  0.66667668  0.33332321  0.42523200  1
  Se  Se13  1  0.66667458  0.33332344  0.62520917  1
  Se  Se14  1  0.66668480  0.33331338  0.82520529  1
  Se  Se15  1  0.33332321  0.66667955  0.17553181  1
  Se  Se16  1  0.33330589  0.66669361  0.37553032  1
  Se  Se17  1  0.33332391  0.66667667  0.57467281  1
  Se  Se18  1  0.33332392  0.66667550  0.77467053  1
  Se  Se19  1  0.33333047  0.66667088  0.97468981  1
  Se  Se20  1  0.33331029  0.66669122  0.12443791  1
  Se  Se21  1  0.33330197  0.66669845  0.32447001  1
  Se  Se22  1  0.33332596  0.66667490  0.52532928  1
  Se  Se23  1  0.33332170  0.66667773  0.72532661  1
  Se  Se24  1  0.33332659  0.66667414  0.92534260  1
  Se  Se25  1  0.66669569  0.33330514  0.07465705  1
  Se  Se26  1  0.66667697  0.33332258  0.27478613  1
  Se  Se27  1  0.66667606  0.33332493  0.47480825  1
  Se  Se28  1  0.66667632  0.33332223  0.67478984  1
  Se  Se29  1  0.66668353  0.33331553  0.87478623  1
