# generated using pymatgen
data_Sr3Ca(NCl)2
_symmetry_space_group_name_H-M   'P 1'
_cell_length_a   3.85091028
_cell_length_b   6.67312587
_cell_length_c   7.36772425
_cell_angle_alpha   81.34313128
_cell_angle_beta   74.85061730
_cell_angle_gamma   90.00000000
_symmetry_Int_Tables_number   1
_chemical_formula_structural   Sr3Ca(NCl)2
_chemical_formula_sum   'Sr3 Ca1 N2 Cl2'
_cell_volume   180.51756863
_cell_formula_units_Z   1
loop_
 _symmetry_equiv_pos_site_id
 _symmetry_equiv_pos_as_xyz
  1  'x, y, z'
loop_
 _atom_site_type_symbol
 _atom_site_label
 _atom_site_symmetry_multiplicity
 _atom_site_fract_x
 _atom_site_fract_y
 _atom_site_fract_z
 _atom_site_occupancy
  Sr  Sr0  1  0.15043874  0.38146702  0.69912251  1
  Sr  Sr1  1  0.84323434  0.61516570  0.31353133  1
  Sr  Sr2  1  0.34580818  0.11464201  0.30838364  1
  Ca  Ca3  1  0.66172139  0.89006170  0.67655722  1
  N  N4  1  0.24604598  0.75489000  0.50790804  1
  N  N5  1  0.74785485  0.24256813  0.50429030  1
  Cl  Cl6  1  0.50044340  0.50789342  0.99911320  1
  Cl  Cl7  1  0.00445312  0.99331202  0.99109376  1
