# generated using pymatgen
data_Li7Mn2(CoO4)3
_symmetry_space_group_name_H-M   'P 1'
_cell_length_a   2.98165855
_cell_length_b   7.59262880
_cell_length_c   10.11718031
_cell_angle_alpha   73.43032933
_cell_angle_beta   90.00000012
_cell_angle_gamma   101.32372086
_symmetry_Int_Tables_number   1
_chemical_formula_structural   Li7Mn2(CoO4)3
_chemical_formula_sum   'Li7 Mn2 Co3 O12'
_cell_volume   214.87204866
_cell_formula_units_Z   1
loop_
 _symmetry_equiv_pos_site_id
 _symmetry_equiv_pos_as_xyz
  1  'x, y, z'
loop_
 _atom_site_type_symbol
 _atom_site_label
 _atom_site_symmetry_multiplicity
 _atom_site_fract_x
 _atom_site_fract_y
 _atom_site_fract_z
 _atom_site_occupancy
  Li  Li0  1  0.83689832  0.67379765  0.73439113  1
  Li  Li1  1  0.16157807  0.32315514  0.26337262  1
  Li  Li2  1  0.50508893  0.01017786  0.73662738  1
  Li  Li3  1  0.82976768  0.65953635  0.26560887  1
  Li  Li4  1  0.16941634  0.33883169  0.73712370  1
  Li  Li5  1  0.49725066  0.99450131  0.26287630  1
  Li  Li6  1  0.33333300  0.66666700  0.50000000  1
  Mn  Mn7  1  0.99645638  0.99291277  0.00522585  1
  Mn  Mn8  1  0.67021062  0.34042023  0.99477415  1
  Co  Co9  1  0.99330563  0.98661126  0.50219670  1
  Co  Co10  1  0.33333300  0.66666700  -0.00000000  1
  Co  Co11  1  0.67336137  0.34672174  0.49780330  1
  O  O12  1  0.75745579  0.51491058  0.10254873  1
  O  O13  1  0.08085542  0.16171083  0.60973239  1
  O  O14  1  0.41632504  0.83265108  0.11610766  1
  O  O15  1  0.73933589  0.47867078  0.61768426  1
  O  O16  1  0.08614548  0.17229095  0.11175811  1
  O  O17  1  0.42179265  0.84358630  0.61884458  1
  O  O18  1  0.92733111  0.85466222  0.38231574  1
  O  O19  1  0.25034096  0.50068292  0.88389234  1
  O  O20  1  0.58581158  0.17162217  0.39026761  1
  O  O21  1  0.90921121  0.81842242  0.89745127  1
  O  O22  1  0.24487335  0.48974770  0.38115542  1
  O  O23  1  0.58052152  0.16104205  0.88824189  1
