# generated using pymatgen
data_Sr3Ca(CuO3)2
_symmetry_space_group_name_H-M   'P 1'
_cell_length_a   3.93726913
_cell_length_b   6.96655444
_cell_length_c   6.80543378
_cell_angle_alpha   104.81747698
_cell_angle_beta   73.18550778
_cell_angle_gamma   90.00000000
_symmetry_Int_Tables_number   1
_chemical_formula_structural   Sr3Ca(CuO3)2
_chemical_formula_sum   'Sr3 Ca1 Cu2 O6'
_cell_volume   172.19186471
_cell_formula_units_Z   1
loop_
 _symmetry_equiv_pos_site_id
 _symmetry_equiv_pos_as_xyz
  1  'x, y, z'
loop_
 _atom_site_type_symbol
 _atom_site_label
 _atom_site_symmetry_multiplicity
 _atom_site_fract_x
 _atom_site_fract_y
 _atom_site_fract_z
 _atom_site_occupancy
  Sr  Sr0  1  0.85257908  0.32365890  0.29484184  1
  Sr  Sr1  1  0.14761649  0.17341968  0.70476702  1
  Sr  Sr2  1  0.14826554  0.67834155  0.70346893  1
  Ca  Ca3  1  0.85413358  0.82298327  0.29173283  1
  Cu  Cu4  1  0.50060516  0.99384940  0.99878968  1
  Cu  Cu5  1  0.49901190  0.50636193  0.00197619  1
  O  O6  1  0.65461578  0.42206810  0.69076844  1
  O  O7  1  0.66003549  0.92048055  0.67992902  1
  O  O8  1  0.34502274  0.58836986  0.30995452  1
  O  O9  1  0.34503154  0.06673155  0.30993692  1
  O  O10  1  0.99626417  0.50947278  0.00747167  1
  O  O11  1  0.99681852  0.99426241  0.00636296  1
