# generated using pymatgen
data_Ta6Cr3Fe3C2
_symmetry_space_group_name_H-M   'P 1'
_cell_length_a   8.08634418
_cell_length_b   8.09428585
_cell_length_c   8.06661932
_cell_angle_alpha   90.00000000
_cell_angle_beta   60.08065796
_cell_angle_gamma   120.03249319
_symmetry_Int_Tables_number   1
_chemical_formula_structural   Ta6Cr3Fe3C2
_chemical_formula_sum   'Ta12 Cr6 Fe6 C4'
_cell_volume   373.61367566
_cell_formula_units_Z   2
loop_
 _symmetry_equiv_pos_site_id
 _symmetry_equiv_pos_as_xyz
  1  'x, y, z'
loop_
 _atom_site_type_symbol
 _atom_site_label
 _atom_site_symmetry_multiplicity
 _atom_site_fract_x
 _atom_site_fract_y
 _atom_site_fract_z
 _atom_site_occupancy
  Ta  Ta0  1  0.64035547  0.82017774  0.42982226  1
  Ta  Ta1  1  0.86030349  0.43015175  0.81984825  1
  Ta  Ta2  1  0.24918978  0.81899310  0.82034573  1
  Ta  Ta3  1  0.24918978  0.43019668  0.43046449  1
  Ta  Ta4  1  0.24918978  0.43019668  0.82034573  1
  Ta  Ta5  1  0.24918978  0.81899310  0.43046449  1
  Ta  Ta6  1  0.35959243  0.17979621  0.57020379  1
  Ta  Ta7  1  0.13993164  0.56996582  0.18003418  1
  Ta  Ta8  1  0.74947193  0.18002416  0.18037246  1
  Ta  Ta9  1  0.74947193  0.56944777  0.57015560  1
  Ta  Ta10  1  0.74947193  0.56944777  0.18037246  1
  Ta  Ta11  1  0.74947193  0.18002416  0.57015560  1
  Cr  Cr12  1  0.50147261  0.50185224  0.99926369  1
  Cr  Cr13  1  0.50147261  0.99962038  0.99926369  1
  Cr  Cr14  1  0.99917116  0.99958558  0.50146218  1
  Cr  Cr15  1  0.99917116  0.99958558  0.99936667  1
  Cr  Cr16  1  0.09586949  0.89250067  0.20206525  1
  Cr  Cr17  1  0.09586949  0.20336883  0.20206525  1
  Fe  Fe18  1  0.40896631  0.20448316  0.88907324  1
  Fe  Fe19  1  0.40896631  0.20448316  0.20196044  1
  Fe  Fe20  1  0.90166313  0.10270312  0.79916844  1
  Fe  Fe21  1  0.90166313  0.79896001  0.79916844  1
  Fe  Fe22  1  0.59644853  0.79822427  0.10504575  1
  Fe  Fe23  1  0.59644853  0.79822427  0.79850571  1
  C  C24  1  0.49979631  0.00092038  0.50010185  1
  C  C25  1  0.49979631  0.49887593  0.50010185  1
  C  C26  1  0.99919752  0.49959876  -0.00008225  1
  C  C27  1  0.99919752  0.49959876  0.50088473  1
