# generated using pymatgen
data_Sr2YTlCu2O7
_symmetry_space_group_name_H-M   'P 1'
_cell_length_a   3.83375463
_cell_length_b   3.84736495
_cell_length_c   12.19178564
_cell_angle_alpha   90.00000000
_cell_angle_beta   90.00000000
_cell_angle_gamma   90.00000000
_symmetry_Int_Tables_number   1
_chemical_formula_structural   Sr2YTlCu2O7
_chemical_formula_sum   'Sr2 Y1 Tl1 Cu2 O7'
_cell_volume   179.82704832
_cell_formula_units_Z   1
loop_
 _symmetry_equiv_pos_site_id
 _symmetry_equiv_pos_as_xyz
  1  'x, y, z'
loop_
 _atom_site_type_symbol
 _atom_site_label
 _atom_site_symmetry_multiplicity
 _atom_site_fract_x
 _atom_site_fract_y
 _atom_site_fract_z
 _atom_site_occupancy
  Sr  Sr0  1  0.50000000  0.51540399  0.79294092  1
  Sr  Sr1  1  0.50000000  0.51540399  0.20705908  1
  Y  Y2  1  0.50000000  0.50117310  0.50000000  1
  Tl  Tl3  1  -0.00000000  0.06807873  -0.00000000  1
  Cu  Cu4  1  0.00000000  0.00354770  0.63867943  1
  Cu  Cu5  1  0.00000000  0.00354770  0.36132057  1
  O  O6  1  0.50000000  0.00209633  0.61950291  1
  O  O7  1  -0.00000000  0.50237781  0.62013286  1
  O  O8  1  0.50000000  0.00209633  0.38049709  1
  O  O9  1  -0.00000000  0.50237781  0.37986714  1
  O  O10  1  0.50000000  0.44117115  -0.00000000  1
  O  O11  1  -0.00000000  0.00136269  0.82591394  1
  O  O12  1  0.00000000  0.00136269  0.17408606  1
