# generated using pymatgen
data_Sr4Ca(FeO3)5
_symmetry_space_group_name_H-M   'P 1'
_cell_length_a   3.90549857
_cell_length_b   8.73393191
_cell_length_c   8.73393191
_cell_angle_alpha   90.00000000
_cell_angle_beta   90.00000000
_cell_angle_gamma   90.00000000
_symmetry_Int_Tables_number   1
_chemical_formula_structural   Sr4Ca(FeO3)5
_chemical_formula_sum   'Sr4 Ca1 Fe5 O15'
_cell_volume   297.91754956
_cell_formula_units_Z   1
loop_
 _symmetry_equiv_pos_site_id
 _symmetry_equiv_pos_as_xyz
  1  'x, y, z'
loop_
 _atom_site_type_symbol
 _atom_site_label
 _atom_site_symmetry_multiplicity
 _atom_site_fract_x
 _atom_site_fract_y
 _atom_site_fract_z
 _atom_site_occupancy
  Sr  Sr0  1  -0.00000000  0.39974120  0.19988158  1
  Sr  Sr1  1  -0.00000000  0.80011842  0.39974120  1
  Sr  Sr2  1  0.00000000  0.19988158  0.60025880  1
  Sr  Sr3  1  0.00000000  0.60025880  0.80011842  1
  Ca  Ca4  1  0.00000000  -0.00000000  -0.00000000  1
  Fe  Fe5  1  0.50000000  0.50000000  0.50000000  1
  Fe  Fe6  1  0.50000000  0.90026246  0.70081155  1
  Fe  Fe7  1  0.50000000  0.29918845  0.90026246  1
  Fe  Fe8  1  0.50000000  0.70081155  0.09973754  1
  Fe  Fe9  1  0.50000000  0.09973754  0.29918845  1
  O  O10  1  0.00000000  0.50000000  0.50000000  1
  O  O11  1  0.00000000  0.90059801  0.70182806  1
  O  O12  1  -0.00000000  0.29817194  0.90059801  1
  O  O13  1  0.00000000  0.70182806  0.09940199  1
  O  O14  1  -0.00000000  0.09940199  0.29817194  1
  O  O15  1  0.50000000  0.29980372  0.39982629  1
  O  O16  1  0.50000000  0.70019628  0.60017371  1
  O  O17  1  0.50000000  0.09885552  0.80226549  1
  O  O18  1  0.50000000  0.50000000  -0.00000000  1
  O  O19  1  0.50000000  0.90114448  0.19773451  1
  O  O20  1  0.50000000  0.39982629  0.70019628  1
  O  O21  1  0.50000000  0.80226549  0.90114448  1
  O  O22  1  0.50000000  0.19773451  0.09885552  1
  O  O23  1  0.50000000  0.60017371  0.29980372  1
  O  O24  1  0.50000000  -0.00000000  0.50000000  1
