# generated using pymatgen
data_Ta6Cr3Co3C2
_symmetry_space_group_name_H-M   'P 1'
_cell_length_a   8.07017864
_cell_length_b   8.08241740
_cell_length_c   8.05081380
_cell_angle_alpha   90.00000000
_cell_angle_beta   60.07934498
_cell_angle_gamma   120.05017946
_symmetry_Int_Tables_number   1
_chemical_formula_structural   Ta6Cr3Co3C2
_chemical_formula_sum   'Ta12 Cr6 Co6 C4'
_cell_volume   371.48389730
_cell_formula_units_Z   2
loop_
 _symmetry_equiv_pos_site_id
 _symmetry_equiv_pos_as_xyz
  1  'x, y, z'
loop_
 _atom_site_type_symbol
 _atom_site_label
 _atom_site_symmetry_multiplicity
 _atom_site_fract_x
 _atom_site_fract_y
 _atom_site_fract_z
 _atom_site_occupancy
  Ta  Ta0  1  0.64338435  0.82169218  0.42830782  1
  Ta  Ta1  1  0.85862752  0.42931376  0.82068624  1
  Ta  Ta2  1  0.24892110  0.81984862  0.82141623  1
  Ta  Ta3  1  0.24892110  0.42907249  0.42966267  1
  Ta  Ta4  1  0.24892110  0.42907249  0.82141623  1
  Ta  Ta5  1  0.24892110  0.81984862  0.42966267  1
  Ta  Ta6  1  0.35910554  0.17955277  0.57044723  1
  Ta  Ta7  1  0.13934946  0.56967473  0.18032527  1
  Ta  Ta8  1  0.74882290  0.17994462  0.18096947  1
  Ta  Ta9  1  0.74882290  0.56887828  0.57020763  1
  Ta  Ta10  1  0.74882290  0.56887828  0.18096947  1
  Ta  Ta11  1  0.74882290  0.17994462  0.57020763  1
  Cr  Cr12  1  0.50500647  0.50369749  0.99749677  1
  Cr  Cr13  1  0.50500647  0.00130898  0.99749677  1
  Cr  Cr14  1  0.99821035  0.99910517  0.50390572  1
  Cr  Cr15  1  0.99821035  0.99910517  0.99788393  1
  Cr  Cr16  1  0.09778948  0.89487635  0.20110526  1
  Cr  Cr17  1  0.09778948  0.20291312  0.20110526  1
  Co  Co18  1  0.40850836  0.20425418  0.89086261  1
  Co  Co19  1  0.40850836  0.20425418  0.20062903  1
  Co  Co20  1  0.90153552  0.10274253  0.79923224  1
  Co  Co21  1  0.90153552  0.79879300  0.79923224  1
  Co  Co22  1  0.59515795  0.79757897  0.10687270  1
  Co  Co23  1  0.59515795  0.79757897  0.79796936  1
  C  C24  1  0.49904138  -0.00023782  0.50047931  1
  C  C25  1  0.49904138  0.49927921  0.50047931  1
  C  C26  1  0.99902904  0.49951452  0.99976309  1
  C  C27  1  0.99902904  0.49951452  0.50120787  1
