# generated using pymatgen
data_SrNdAlO4
_symmetry_space_group_name_H-M   'P 1'
_cell_length_a   3.77066187
_cell_length_b   3.77066187
_cell_length_c   6.77319818
_cell_angle_alpha   73.83814891
_cell_angle_beta   73.83814891
_cell_angle_gamma   90.00000000
_symmetry_Int_Tables_number   1
_chemical_formula_structural   SrNdAlO4
_chemical_formula_sum   'Sr1 Nd1 Al1 O4'
_cell_volume   88.52537543
_cell_formula_units_Z   1
loop_
 _symmetry_equiv_pos_site_id
 _symmetry_equiv_pos_as_xyz
  1  'x, y, z'
loop_
 _atom_site_type_symbol
 _atom_site_label
 _atom_site_symmetry_multiplicity
 _atom_site_fract_x
 _atom_site_fract_y
 _atom_site_fract_z
 _atom_site_occupancy
  Sr  Sr0  1  0.35594215  0.35594215  0.28811570  1
  Nd  Nd1  1  0.64015225  0.64015225  0.71969550  1
  Al  Al2  1  0.99625477  0.99625477  0.00749045  1
  O  O3  1  0.16081081  0.16081081  0.67837838  1
  O  O4  1  0.83442885  0.83442885  0.33114229  1
  O  O5  1  0.50620558  0.00620558  0.98758884  1
  O  O6  1  0.00620558  0.50620558  0.98758884  1
