# generated using pymatgen
data_Sr2LaMn2O7
_symmetry_space_group_name_H-M   'P 1'
_cell_length_a   3.92586091
_cell_length_b   3.92586091
_cell_length_c   10.49962234
_cell_angle_alpha   79.22501235
_cell_angle_beta   79.22501235
_cell_angle_gamma   90.00000000
_symmetry_Int_Tables_number   1
_chemical_formula_structural   Sr2LaMn2O7
_chemical_formula_sum   'Sr2 La1 Mn2 O7'
_cell_volume   156.06580029
_cell_formula_units_Z   1
loop_
 _symmetry_equiv_pos_site_id
 _symmetry_equiv_pos_as_xyz
  1  'x, y, z'
loop_
 _atom_site_type_symbol
 _atom_site_label
 _atom_site_symmetry_multiplicity
 _atom_site_fract_x
 _atom_site_fract_y
 _atom_site_fract_z
 _atom_site_occupancy
  Sr  Sr0  1  0.68115565  0.68115565  0.63768870  1
  Sr  Sr1  1  0.50456796  0.50456796  0.99086408  1
  La  La2  1  0.31698446  0.31698446  0.36603108  1
  Mn  Mn3  1  0.09816302  0.09816302  0.80367396  1
  Mn  Mn4  1  0.90431108  0.90431108  0.19137785  1
  O  O5  1  0.20123360  0.20123360  0.59753281  1
  O  O6  1  0.80393478  0.80393478  0.39213044  1
  O  O7  1  0.59749474  0.09749474  0.80501053  1
  O  O8  1  0.09749474  0.59749474  0.80501053  1
  O  O9  1  0.39779482  0.89779482  0.20441036  1
  O  O10  1  0.89779482  0.39779482  0.20441036  1
  O  O11  1  0.99907035  0.99907035  0.00185931  1
