# generated using pymatgen
data_Li7Mn2(CoO4)3
_symmetry_space_group_name_H-M   'P 1'
_cell_length_a   2.96229039
_cell_length_b   7.70289979
_cell_length_c   9.82415223
_cell_angle_alpha   89.23217316
_cell_angle_beta   81.32869650
_cell_angle_gamma   101.08611518
_symmetry_Int_Tables_number   1
_chemical_formula_structural   Li7Mn2(CoO4)3
_chemical_formula_sum   'Li7 Mn2 Co3 O12'
_cell_volume   217.26429392
_cell_formula_units_Z   1
loop_
 _symmetry_equiv_pos_site_id
 _symmetry_equiv_pos_as_xyz
  1  'x, y, z'
loop_
 _atom_site_type_symbol
 _atom_site_label
 _atom_site_symmetry_multiplicity
 _atom_site_fract_x
 _atom_site_fract_y
 _atom_site_fract_z
 _atom_site_occupancy
  Li  Li0  1  0.58743317  0.91166503  0.73679769  1
  Li  Li1  1  0.40123288  0.08042102  0.27795625  1
  Li  Li2  1  0.26543412  0.25291198  0.72204375  1
  Li  Li3  1  0.07923283  0.42166897  0.26320231  1
  Li  Li4  1  0.73632929  0.74143485  0.26877627  1
  Li  Li5  1  0.93033771  0.59189815  0.73122373  1
  Li  Li6  1  0.83333300  0.16666700  0.50000000  1
  Mn  Mn7  1  0.99853099  0.99754482  0.00048284  1
  Mn  Mn8  1  0.66813601  0.33578818  0.99951716  1
  Co  Co9  1  0.49310906  0.48721882  0.50100070  1
  Co  Co10  1  0.33333300  0.66666700  0.00000000  1
  Co  Co11  1  0.17355794  0.84611418  0.49899930  1
  O  O12  1  0.39595848  0.90366392  0.11174795  1
  O  O13  1  0.19974806  0.01790033  0.61840420  1
  O  O14  1  0.05700079  0.21864082  0.10463824  1
  O  O15  1  0.88164370  0.38235892  0.61907251  1
  O  O16  1  0.54358378  0.69781349  0.61064492  1
  O  O17  1  0.70941493  0.53127785  0.11244800  1
  O  O18  1  0.78502330  0.95097408  0.38092749  1
  O  O19  1  0.60966521  0.11469318  0.89536176  1
  O  O20  1  0.46691894  0.31543267  0.38159580  1
  O  O21  1  0.27070852  0.42966908  0.88825205  1
  O  O22  1  0.95725207  0.80205515  0.88755200  1
  O  O23  1  0.12308222  0.63552051  0.38935508  1
