# generated using pymatgen
data_Sr2Gd(FeO3)3
_symmetry_space_group_name_H-M   'P 1'
_cell_length_a   5.52533373
_cell_length_b   13.44443500
_cell_length_c   5.52533373
_cell_angle_alpha   90.05286586
_cell_angle_beta   119.54787567
_cell_angle_gamma   89.94713414
_symmetry_Int_Tables_number   1
_chemical_formula_structural   Sr2Gd(FeO3)3
_chemical_formula_sum   'Sr4 Gd2 Fe6 O18'
_cell_volume   357.06772633
_cell_formula_units_Z   2
loop_
 _symmetry_equiv_pos_site_id
 _symmetry_equiv_pos_as_xyz
  1  'x, y, z'
loop_
 _atom_site_type_symbol
 _atom_site_label
 _atom_site_symmetry_multiplicity
 _atom_site_fract_x
 _atom_site_fract_y
 _atom_site_fract_z
 _atom_site_occupancy
  Sr  Sr0  1  0.16372028  0.41768908  0.83025637  1
  Sr  Sr1  1  0.49692337  0.74897792  0.49705328  1
  Sr  Sr2  1  0.16974363  0.91768908  0.83627972  1
  Sr  Sr3  1  0.50294672  0.24897792  0.50307663  1
  Gd  Gd4  1  0.82269090  0.08333300  0.15602490  1
  Gd  Gd5  1  0.84397510  0.58333300  0.17730910  1
  Fe  Fe6  1  0.16545157  0.16728825  0.83160622  1
  Fe  Fe7  1  0.50121543  0.49937875  0.50172678  1
  Fe  Fe8  1  0.83333300  0.83333300  0.16666700  1
  Fe  Fe9  1  0.83333300  0.33333300  0.16666700  1
  Fe  Fe10  1  0.16839378  0.66728825  0.83454843  1
  Fe  Fe11  1  0.49827322  0.99937875  0.49878457  1
  O  O12  1  0.94502695  0.74562719  0.95313042  1
  O  O13  1  0.24648307  0.08333300  0.57981707  1
  O  O14  1  0.61979742  0.42103981  0.27835995  1
  O  O15  1  0.04686958  0.24562719  0.05497305  1
  O  O16  1  0.42018293  0.58333300  0.75351693  1
  O  O17  1  0.72164005  0.92103981  0.38020258  1
  O  O18  1  0.68391966  0.40925314  0.81775841  1
  O  O19  1  0.01126233  0.73414203  0.46878201  1
  O  O20  1  0.38509569  0.07553060  0.14980662  1
  O  O21  1  0.13544801  0.43252397  0.34459633  1
  O  O22  1  0.48442541  0.75741386  0.01725266  1
  O  O23  1  0.81647362  0.09113640  0.71842869  1
  O  O24  1  0.28157131  0.59113640  0.18352638  1
  O  O25  1  0.65540367  0.93252397  0.86455199  1
  O  O26  1  0.98274734  0.25741386  0.51557459  1
  O  O27  1  0.85019338  0.57553060  0.61490431  1
  O  O28  1  0.18224159  0.90925314  0.31608034  1
  O  O29  1  0.53121799  0.23414203  0.98873767  1
