# generated using pymatgen
data_PrAlCu4
_symmetry_space_group_name_H-M   'P 1'
_cell_length_a   4.02878351
_cell_length_b   5.34299247
_cell_length_c   5.34304105
_cell_angle_alpha   59.99566852
_cell_angle_beta   90.00000000
_cell_angle_gamma   90.00000000
_symmetry_Int_Tables_number   1
_chemical_formula_structural   PrAlCu4
_chemical_formula_sum   'Pr1 Al1 Cu4'
_cell_volume   99.59984873
_cell_formula_units_Z   1
loop_
 _symmetry_equiv_pos_site_id
 _symmetry_equiv_pos_as_xyz
  1  'x, y, z'
loop_
 _atom_site_type_symbol
 _atom_site_label
 _atom_site_symmetry_multiplicity
 _atom_site_fract_x
 _atom_site_fract_y
 _atom_site_fract_z
 _atom_site_occupancy
  Pr  Pr0  1  0.00000000  0.99997915  0.00004111  1
  Al  Al1  1  0.00000000  0.33334393  0.33336607  1
  Cu  Cu2  1  0.00000000  0.66660775  0.66668477  1
  Cu  Cu3  1  0.50000000  0.50093012  0.50092599  1
  Cu  Cu4  1  0.50000000  0.50090683  0.99816228  1
  Cu  Cu5  1  0.50000000  0.99813223  0.50091978  1
