# generated using pymatgen
data_Sc(Fe5Si)2
_symmetry_space_group_name_H-M   'P 1'
_cell_length_a   4.72617633
_cell_length_b   6.27842321
_cell_length_c   6.27842321
_cell_angle_alpha   98.57361772
_cell_angle_beta   112.10978110
_cell_angle_gamma   67.89021890
_symmetry_Int_Tables_number   1
_chemical_formula_structural   Sc(Fe5Si)2
_chemical_formula_sum   'Sc1 Fe10 Si2'
_cell_volume   159.90142958
_cell_formula_units_Z   1
loop_
 _symmetry_equiv_pos_site_id
 _symmetry_equiv_pos_as_xyz
  1  'x, y, z'
loop_
 _atom_site_type_symbol
 _atom_site_label
 _atom_site_symmetry_multiplicity
 _atom_site_fract_x
 _atom_site_fract_y
 _atom_site_fract_z
 _atom_site_occupancy
  Sc  Sc0  1  0.00000000  -0.00000000  0.00000000  1
  Fe  Fe1  1  0.63982870  0.36017130  0.63982870  1
  Fe  Fe2  1  0.36017130  0.63982870  0.36017130  1
  Fe  Fe3  1  0.00000000  0.35016183  0.35016183  1
  Fe  Fe4  1  0.00000000  0.64983817  0.64983817  1
  Fe  Fe5  1  0.50000000  0.80123137  0.80123137  1
  Fe  Fe6  1  0.50000000  0.19876863  0.19876863  1
  Fe  Fe7  1  0.50000000  -0.00000000  0.50000000  1
  Fe  Fe8  1  0.00000000  -0.00000000  0.50000000  1
  Fe  Fe9  1  0.50000000  0.50000000  0.00000000  1
  Fe  Fe10  1  0.00000000  0.50000000  0.00000000  1
  Si  Si11  1  0.73281802  0.76718198  0.23281802  1
  Si  Si12  1  0.26718198  0.23281802  0.76718198  1
