# generated using pymatgen
data_Sc2(NbSi)3
_symmetry_space_group_name_H-M   'P 1'
_cell_length_a   5.37687634
_cell_length_b   7.77010563
_cell_length_c   7.77010586
_cell_angle_alpha   59.56071772
_cell_angle_beta   90.00007504
_cell_angle_gamma   89.99992498
_symmetry_Int_Tables_number   1
_chemical_formula_structural   Sc2(NbSi)3
_chemical_formula_sum   'Sc4 Nb6 Si6'
_cell_volume   279.88206194
_cell_formula_units_Z   2
loop_
 _symmetry_equiv_pos_site_id
 _symmetry_equiv_pos_as_xyz
  1  'x, y, z'
loop_
 _atom_site_type_symbol
 _atom_site_label
 _atom_site_symmetry_multiplicity
 _atom_site_fract_x
 _atom_site_fract_y
 _atom_site_fract_z
 _atom_site_occupancy
  Sc  Sc0  1  0.74998568  0.24592276  0.75407724  1
  Sc  Sc1  1  0.74999092  0.74883157  0.99992328  1
  Sc  Sc2  1  0.74999092  0.00007672  0.25116843  1
  Sc  Sc3  1  0.25001360  0.74861835  0.25138165  1
  Nb  Nb4  1  0.25000977  0.26360501  0.00003136  1
  Nb  Nb5  1  0.25000977  -0.00003136  0.73639499  1
  Nb  Nb6  1  0.50098713  0.33257093  0.33403168  1
  Nb  Nb7  1  0.50098713  0.66596832  0.66742907  1
  Nb  Nb8  1  0.99901327  0.66596573  0.66743065  1
  Nb  Nb9  1  0.99901327  0.33256935  0.33403427  1
  Si  Si10  1  0.74999440  0.60421166  0.39578834  1
  Si  Si11  1  0.75000581  0.39414403  0.99984839  1
  Si  Si12  1  0.75000581  0.00015161  0.60585597  1
  Si  Si13  1  0.25000159  0.38768552  0.61231448  1
  Si  Si14  1  0.24999546  0.60915152  0.99944173  1
  Si  Si15  1  0.24999546  0.00055827  0.39084848  1
