# generated using pymatgen
data_Sm9Ni24Sn49
_symmetry_space_group_name_H-M   'P 1'
_cell_length_a   10.31632816
_cell_length_b   10.31632816
_cell_length_c   17.00574080
_cell_angle_alpha   90.12594012
_cell_angle_beta   89.87405988
_cell_angle_gamma   109.35637366
_symmetry_Int_Tables_number   1
_chemical_formula_structural   Sm9Ni24Sn49
_chemical_formula_sum   'Sm9 Ni24 Sn49'
_cell_volume   1707.55543365
_cell_formula_units_Z   1
loop_
 _symmetry_equiv_pos_site_id
 _symmetry_equiv_pos_as_xyz
  1  'x, y, z'
loop_
 _atom_site_type_symbol
 _atom_site_label
 _atom_site_symmetry_multiplicity
 _atom_site_fract_x
 _atom_site_fract_y
 _atom_site_fract_z
 _atom_site_occupancy
  Sm  Sm0  1  0.75027546  0.75048244  0.24959193  1
  Sm  Sm1  1  0.24972454  0.24951756  0.75040807  1
  Sm  Sm2  1  0.50000000  -0.00000000  0.00000000  1
  Sm  Sm3  1  -0.00000000  0.50000000  0.50000000  1
  Sm  Sm4  1  -0.00000000  0.50000000  0.00000000  1
  Sm  Sm5  1  0.50000000  -0.00000000  0.50000000  1
  Sm  Sm6  1  0.24951756  0.24972454  0.24959193  1
  Sm  Sm7  1  0.75048244  0.75027546  0.75040807  1
  Sm  Sm8  1  -0.00000000  -0.00000000  0.00000000  1
  Ni  Ni9  1  0.90277798  0.74260282  0.42027383  1
  Ni  Ni10  1  0.40154250  0.24283294  0.92089365  1
  Ni  Ni11  1  0.59845750  0.75716706  0.07910635  1
  Ni  Ni12  1  0.09722202  0.25739718  0.57972617  1
  Ni  Ni13  1  0.25739718  0.09722202  0.42027383  1
  Ni  Ni14  1  0.75716706  0.59845750  0.92089365  1
  Ni  Ni15  1  0.24283294  0.40154250  0.07910635  1
  Ni  Ni16  1  0.74260282  0.90277798  0.57972617  1
  Ni  Ni17  1  0.00181189  0.68012414  0.16070423  1
  Ni  Ni18  1  0.50052180  0.17921922  0.66124909  1
  Ni  Ni19  1  0.49947820  0.82078078  0.33875091  1
  Ni  Ni20  1  0.99818811  0.31987586  0.83929577  1
  Ni  Ni21  1  0.17921922  0.50052180  0.33875091  1
  Ni  Ni22  1  0.68012414  0.00181189  0.83929577  1
  Ni  Ni23  1  0.31987586  0.99818811  0.16070423  1
  Ni  Ni24  1  0.82078078  0.49947820  0.66124909  1
  Ni  Ni25  1  0.76007777  0.23992223  0.08079111  1
  Ni  Ni26  1  0.25925721  0.74074279  0.58064518  1
  Ni  Ni27  1  0.74074279  0.25925721  0.41935482  1
  Ni  Ni28  1  0.23992223  0.76007777  0.91920889  1
  Ni  Ni29  1  0.58135112  0.41864888  0.25915202  1
  Ni  Ni30  1  0.08159831  0.91840169  0.76036789  1
  Ni  Ni31  1  0.91840169  0.08159831  0.23963211  1
  Ni  Ni32  1  0.41864888  0.58135112  0.74084798  1
  Sn  Sn33  1  0.74947896  0.50418624  0.37698483  1
  Sn  Sn34  1  0.25908369  0.00385523  0.87218064  1
  Sn  Sn35  1  0.74091631  0.99614477  0.12781936  1
  Sn  Sn36  1  0.25052104  0.49581376  0.62301517  1
  Sn  Sn37  1  0.49581376  0.25052104  0.37698483  1
  Sn  Sn38  1  0.99614477  0.74091631  0.87218064  1
  Sn  Sn39  1  0.00385523  0.25908369  0.12781936  1
  Sn  Sn40  1  0.50418624  0.74947896  0.62301517  1
  Sn  Sn41  1  0.81201094  0.68119015  0.06490770  1
  Sn  Sn42  1  0.31698111  0.19022552  0.56357968  1
  Sn  Sn43  1  0.68301889  0.80977448  0.43642032  1
  Sn  Sn44  1  0.18798906  0.31880985  0.93509230  1
  Sn  Sn45  1  0.19022552  0.31698111  0.43642032  1
  Sn  Sn46  1  0.68119015  0.81201094  0.93509230  1
  Sn  Sn47  1  0.31880985  0.18798906  0.06490770  1
  Sn  Sn48  1  0.80977448  0.68301889  0.56357968  1
  Sn  Sn49  1  0.31462805  0.68537195  0.44113894  1
  Sn  Sn50  1  0.80714261  0.19285739  0.93863409  1
  Sn  Sn51  1  0.19285739  0.80714261  0.06136591  1
  Sn  Sn52  1  0.68537195  0.31462805  0.55886106  1
  Sn  Sn53  1  0.44045108  0.55954892  0.31315966  1
  Sn  Sn54  1  0.93849241  0.06150759  0.80749210  1
  Sn  Sn55  1  0.06150759  0.93849241  0.19250790  1
  Sn  Sn56  1  0.55954892  0.44045108  0.68684034  1
  Sn  Sn57  1  0.44465271  0.81224690  0.18449774  1
  Sn  Sn58  1  0.94350517  0.31257928  0.68392760  1
  Sn  Sn59  1  0.05649483  0.68742072  0.31607240  1
  Sn  Sn60  1  0.55534729  0.18775310  0.81550226  1
  Sn  Sn61  1  0.18775310  0.55534729  0.18449774  1
  Sn  Sn62  1  0.68742072  0.05649483  0.68392760  1
  Sn  Sn63  1  0.31257928  0.94350517  0.31607240  1
  Sn  Sn64  1  0.81224690  0.44465271  0.81550226  1
  Sn  Sn65  1  0.68257301  0.05462048  0.31430779  1
  Sn  Sn66  1  0.18178592  0.55420062  0.81312417  1
  Sn  Sn67  1  0.81821408  0.44579938  0.18687583  1
  Sn  Sn68  1  0.31742699  0.94537952  0.68569221  1
  Sn  Sn69  1  0.55420062  0.18178592  0.18687583  1
  Sn  Sn70  1  0.05462048  0.68257301  0.68569221  1
  Sn  Sn71  1  0.94537952  0.31742699  0.31430779  1
  Sn  Sn72  1  0.44579938  0.81821408  0.81312417  1
  Sn  Sn73  1  0.86996866  0.13003134  0.49790488  1
  Sn  Sn74  1  0.37099774  0.62900226  0.99744380  1
  Sn  Sn75  1  0.62900226  0.37099774  0.00255620  1
  Sn  Sn76  1  0.13003134  0.86996866  0.50209512  1
  Sn  Sn77  1  0.99821313  0.00178687  0.36934890  1
  Sn  Sn78  1  0.49848568  0.50151432  0.86922412  1
  Sn  Sn79  1  0.50151432  0.49848568  0.13077588  1
  Sn  Sn80  1  0.00178687  0.99821313  0.63065110  1
  Sn  Sn81  1  0.50000000  0.50000000  0.50000000  1
