# generated using pymatgen
data_Sb4(SeS)3
_symmetry_space_group_name_H-M   'P 1'
_cell_length_a   3.95276004
_cell_length_b   11.50579326
_cell_length_c   11.99799582
_cell_angle_alpha   90.00000000
_cell_angle_beta   90.00000000
_cell_angle_gamma   90.00000000
_symmetry_Int_Tables_number   1
_chemical_formula_structural   Sb4(SeS)3
_chemical_formula_sum   'Sb8 Se6 S6'
_cell_volume   545.66452854
_cell_formula_units_Z   2
loop_
 _symmetry_equiv_pos_site_id
 _symmetry_equiv_pos_as_xyz
  1  'x, y, z'
loop_
 _atom_site_type_symbol
 _atom_site_label
 _atom_site_symmetry_multiplicity
 _atom_site_fract_x
 _atom_site_fract_y
 _atom_site_fract_z
 _atom_site_occupancy
  Sb  Sb0  1  0.75000000  0.45853459  0.64678700  1
  Sb  Sb1  1  0.75000000  0.04146541  0.14678700  1
  Sb  Sb2  1  0.25000000  0.53565096  0.35365699  1
  Sb  Sb3  1  0.25000000  0.96434904  0.85365699  1
  Sb  Sb4  1  0.25000000  0.17204157  0.53703584  1
  Sb  Sb5  1  0.25000000  0.32795843  0.03703584  1
  Sb  Sb6  1  0.75000000  0.83450809  0.46684579  1
  Sb  Sb7  1  0.75000000  0.66549191  0.96684579  1
  Se  Se8  1  0.75000000  0.69532459  0.28672636  1
  Se  Se9  1  0.75000000  0.80467541  0.78672636  1
  Se  Se10  1  0.25000000  0.62664437  0.55466575  1
  Se  Se11  1  0.25000000  0.87335563  0.05466575  1
  Se  Se12  1  0.75000000  0.36637744  0.44711253  1
  Se  Se13  1  0.75000000  0.13362256  0.94711253  1
  S  S14  1  0.75000000  0.05917138  0.62472262  1
  S  S15  1  0.75000000  0.44082862  0.12472262  1
  S  S16  1  0.25000000  0.94469544  0.37851186  1
  S  S17  1  0.25000000  0.55530456  0.87851186  1
  S  S18  1  0.25000000  0.30838028  0.70393524  1
  S  S19  1  0.25000000  0.19161972  0.20393524  1
