# generated using pymatgen
data_ScAlCu
_symmetry_space_group_name_H-M   'P 1'
_cell_length_a   5.18914221
_cell_length_b   5.18906343
_cell_length_c   8.38812848
_cell_angle_alpha   90.00000000
_cell_angle_beta   90.00000000
_cell_angle_gamma   61.04826151
_symmetry_Int_Tables_number   1
_chemical_formula_structural   ScAlCu
_chemical_formula_sum   'Sc4 Al4 Cu4'
_cell_volume   197.63845883
_cell_formula_units_Z   4
loop_
 _symmetry_equiv_pos_site_id
 _symmetry_equiv_pos_as_xyz
  1  'x, y, z'
loop_
 _atom_site_type_symbol
 _atom_site_label
 _atom_site_symmetry_multiplicity
 _atom_site_fract_x
 _atom_site_fract_y
 _atom_site_fract_z
 _atom_site_occupancy
  Sc  Sc0  1  0.33309214  0.33307689  0.55348165  1
  Sc  Sc1  1  0.66690983  0.66691937  0.43386957  1
  Sc  Sc2  1  0.66690983  0.66691937  0.06613043  1
  Sc  Sc3  1  0.33309214  0.33307689  0.94651835  1
  Al  Al4  1  0.99624787  0.99623382  0.48939716  1
  Al  Al5  1  0.99624787  0.99623382  0.01060284  1
  Al  Al6  1  0.83122196  0.34521291  0.75000000  1
  Al  Al7  1  0.34521653  0.83120759  0.75000000  1
  Cu  Cu8  1  0.83181875  0.83180362  0.75000000  1
  Cu  Cu9  1  0.17145785  0.65699076  0.25000000  1
  Cu  Cu10  1  0.65697497  0.17147993  0.25000000  1
  Cu  Cu11  1  0.17081025  0.17084502  0.25000000  1
