# generated using pymatgen
data_NdY3(Co4B)4
_symmetry_space_group_name_H-M   'P 1'
_cell_length_a   5.04855501
_cell_length_b   5.04862993
_cell_length_c   13.66876445
_cell_angle_alpha   90.00000000
_cell_angle_beta   90.00000000
_cell_angle_gamma   60.00048466
_symmetry_Int_Tables_number   1
_chemical_formula_structural   NdY3(Co4B)4
_chemical_formula_sum   'Nd1 Y3 Co16 B4'
_cell_volume   301.71898785
_cell_formula_units_Z   1
loop_
 _symmetry_equiv_pos_site_id
 _symmetry_equiv_pos_as_xyz
  1  'x, y, z'
loop_
 _atom_site_type_symbol
 _atom_site_label
 _atom_site_symmetry_multiplicity
 _atom_site_fract_x
 _atom_site_fract_y
 _atom_site_fract_z
 _atom_site_occupancy
  Nd  Nd0  1  0.99997407  -0.00000000  0.00000000  1
  Y  Y1  1  0.99997770  -0.00000000  0.50000000  1
  Y  Y2  1  0.00000317  0.00000000  0.25053920  1
  Y  Y3  1  0.00000317  0.00000000  0.74946080  1
  Co  Co4  1  0.50000003  0.00000000  0.14535206  1
  Co  Co5  1  0.50000133  0.00000000  0.64427079  1
  Co  Co6  1  0.99999412  0.50000339  0.14535267  1
  Co  Co7  1  0.99999447  0.50000272  0.64425373  1
  Co  Co8  1  0.49999751  0.49999661  0.14535267  1
  Co  Co9  1  0.49999719  0.49999728  0.64425373  1
  Co  Co10  1  0.50000133  0.00000000  0.35572921  1
  Co  Co11  1  0.50000003  0.00000000  0.85464794  1
  Co  Co12  1  0.99999447  0.50000272  0.35574627  1
  Co  Co13  1  0.99999412  0.50000339  0.85464733  1
  Co  Co14  1  0.49999719  0.49999728  0.35574627  1
  Co  Co15  1  0.49999751  0.49999661  0.85464733  1
  Co  Co16  1  0.66663308  0.66667760  0.00000000  1
  Co  Co17  1  0.66661876  0.66670714  0.50000000  1
  Co  Co18  1  0.33331068  0.33332240  0.00000000  1
  Co  Co19  1  0.33332590  0.33329286  0.50000000  1
  B  B20  1  0.66668641  0.66661925  0.25005830  1
  B  B21  1  0.66668641  0.66661925  0.74994170  1
  B  B22  1  0.33330566  0.33338075  0.25005830  1
  B  B23  1  0.33330566  0.33338075  0.74994170  1
