# generated using pymatgen
data_Nb5Cr3Se20
_symmetry_space_group_name_H-M   'P 1'
_cell_length_a   3.54350580
_cell_length_b   17.35538805
_cell_length_c   10.51947657
_cell_angle_alpha   82.13936996
_cell_angle_beta   90.00000000
_cell_angle_gamma   90.00000000
_symmetry_Int_Tables_number   1
_chemical_formula_structural   Nb5Cr3Se20
_chemical_formula_sum   'Nb5 Cr3 Se20'
_cell_volume   640.85760265
_cell_formula_units_Z   1
loop_
 _symmetry_equiv_pos_site_id
 _symmetry_equiv_pos_as_xyz
  1  'x, y, z'
loop_
 _atom_site_type_symbol
 _atom_site_label
 _atom_site_symmetry_multiplicity
 _atom_site_fract_x
 _atom_site_fract_y
 _atom_site_fract_z
 _atom_site_occupancy
  Nb  Nb0  1  0.75000000  0.36212418  0.27182699  1
  Nb  Nb1  1  0.75000000  0.86209313  0.77512709  1
  Nb  Nb2  1  0.25000000  0.13848901  0.22097287  1
  Nb  Nb3  1  0.25000000  0.63783262  0.72497971  1
  Nb  Nb4  1  0.25000000  0.27561792  0.63677182  1
  Cr  Cr5  1  0.25000000  0.78112907  0.11088624  1
  Cr  Cr6  1  0.75000000  0.22359309  0.87853427  1
  Cr  Cr7  1  0.75000000  0.71885283  0.38927980  1
  Se  Se8  1  0.25000000  0.47885228  0.27910742  1
  Se  Se9  1  0.25000000  0.97783221  0.78120337  1
  Se  Se10  1  0.75000000  0.02173247  0.21531147  1
  Se  Se11  1  0.75000000  0.52192649  0.71952408  1
  Se  Se12  1  0.25000000  0.25649575  0.37531692  1
  Se  Se13  1  0.25000000  0.75638528  0.87715396  1
  Se  Se14  1  0.75000000  0.24331459  0.11676439  1
  Se  Se15  1  0.75000000  0.74352733  0.62305508  1
  Se  Se16  1  0.25000000  0.41812915  0.08960318  1
  Se  Se17  1  0.25000000  0.91674353  0.59111447  1
  Se  Se18  1  0.75000000  0.08362220  0.40403826  1
  Se  Se19  1  0.75000000  0.58336577  0.90915857  1
  Se  Se20  1  0.75000000  0.37910869  0.53052488  1
  Se  Se21  1  0.75000000  0.88080937  0.03029152  1
  Se  Se22  1  0.25000000  0.12565152  0.96196468  1
  Se  Se23  1  0.25000000  0.61912034  0.46991835  1
  Se  Se24  1  0.75000000  0.16527267  0.67202810  1
  Se  Se25  1  0.75000000  0.67927902  0.17114984  1
  Se  Se26  1  0.25000000  0.32850131  0.84528210  1
  Se  Se27  1  0.25000000  0.82059821  0.32911055  1
