# generated using pymatgen
data_NbW3S8
_symmetry_space_group_name_H-M   'P 1'
_cell_length_a   3.23692012
_cell_length_b   5.60931104
_cell_length_c   13.07117193
_cell_angle_alpha   90.00000000
_cell_angle_beta   90.00000000
_cell_angle_gamma   90.00052221
_symmetry_Int_Tables_number   1
_chemical_formula_structural   NbW3S8
_chemical_formula_sum   'Nb1 W3 S8'
_cell_volume   237.33185375
_cell_formula_units_Z   1
loop_
 _symmetry_equiv_pos_site_id
 _symmetry_equiv_pos_as_xyz
  1  'x, y, z'
loop_
 _atom_site_type_symbol
 _atom_site_label
 _atom_site_symmetry_multiplicity
 _atom_site_fract_x
 _atom_site_fract_y
 _atom_site_fract_z
 _atom_site_occupancy
  Nb  Nb0  1  0.50001413  0.17198443  0.75000000  1
  W  W1  1  0.00007311  0.66146150  0.75000000  1
  W  W2  1  -0.00000196  0.33346990  0.25000000  1
  W  W3  1  0.49999891  0.83340635  0.25000000  1
  S  S4  1  0.50000528  0.16676331  0.13090100  1
  S  S5  1  0.00000905  0.66668040  0.13090721  1
  S  S6  1  0.99995653  0.33868913  0.87235667  1
  S  S7  1  0.49998704  0.82770607  0.86879410  1
  S  S8  1  0.99995653  0.33868913  0.62764333  1
  S  S9  1  0.49998704  0.82770607  0.63120590  1
  S  S10  1  0.50000528  0.16676331  0.36909900  1
  S  S11  1  0.00000905  0.66668040  0.36909279  1
