# generated using pymatgen
data_Nd2MnFeO6
_symmetry_space_group_name_H-M   'P 1'
_cell_length_a   5.48893196
_cell_length_b   5.81385420
_cell_length_c   7.74085018
_cell_angle_alpha   90.00000000
_cell_angle_beta   90.27499523
_cell_angle_gamma   90.00000000
_symmetry_Int_Tables_number   1
_chemical_formula_structural   Nd2MnFeO6
_chemical_formula_sum   'Nd4 Mn2 Fe2 O12'
_cell_volume   247.02200578
_cell_formula_units_Z   2
loop_
 _symmetry_equiv_pos_site_id
 _symmetry_equiv_pos_as_xyz
  1  'x, y, z'
loop_
 _atom_site_type_symbol
 _atom_site_label
 _atom_site_symmetry_multiplicity
 _atom_site_fract_x
 _atom_site_fract_y
 _atom_site_fract_z
 _atom_site_occupancy
  Nd  Nd0  1  0.51541449  0.56497048  0.25020964  1
  Nd  Nd1  1  0.98458551  0.06497048  0.24979036  1
  Nd  Nd2  1  0.48458551  0.43502952  0.74979036  1
  Nd  Nd3  1  0.01541449  0.93502952  0.75020964  1
  Mn  Mn4  1  0.00000000  0.50000000  0.00000000  1
  Mn  Mn5  1  0.50000000  -0.00000000  0.50000000  1
  Fe  Fe6  1  0.00000000  0.50000000  0.50000000  1
  Fe  Fe7  1  0.50000000  -0.00000000  0.00000000  1
  O  O8  1  0.21124892  0.18569909  0.94869749  1
  O  O9  1  0.28875108  0.68569909  0.55130251  1
  O  O10  1  0.79555961  0.80361535  0.45274194  1
  O  O11  1  0.70444039  0.30361535  0.04725806  1
  O  O12  1  0.78875108  0.81430091  0.05130251  1
  O  O13  1  0.71124892  0.31430091  0.44869749  1
  O  O14  1  0.20444039  0.19638465  0.54725806  1
  O  O15  1  0.29555961  0.69638465  0.95274194  1
  O  O16  1  0.40627321  0.97388750  0.25411141  1
  O  O17  1  0.09372679  0.47388750  0.24588859  1
  O  O18  1  0.59372679  0.02611250  0.74588859  1
  O  O19  1  0.90627321  0.52611250  0.75411141  1
