# generated using pymatgen
data_Nd2Al3Ge
_symmetry_space_group_name_H-M   'P 1'
_cell_length_a   4.25163396
_cell_length_b   4.34609190
_cell_length_c   7.55211791
_cell_angle_alpha   89.99961420
_cell_angle_beta   90.00000000
_cell_angle_gamma   90.00000000
_symmetry_Int_Tables_number   1
_chemical_formula_structural   Nd2Al3Ge
_chemical_formula_sum   'Nd2 Al3 Ge1'
_cell_volume   139.54797387
_cell_formula_units_Z   1
loop_
 _symmetry_equiv_pos_site_id
 _symmetry_equiv_pos_as_xyz
  1  'x, y, z'
loop_
 _atom_site_type_symbol
 _atom_site_label
 _atom_site_symmetry_multiplicity
 _atom_site_fract_x
 _atom_site_fract_y
 _atom_site_fract_z
 _atom_site_occupancy
  Nd  Nd0  1  -0.00000000  0.99996078  0.00384199  1
  Nd  Nd1  1  -0.00000000  0.50000322  0.49610371  1
  Al  Al2  1  0.50000000  0.49993258  0.83207638  1
  Al  Al3  1  0.50000000  0.49998773  0.16621406  1
  Al  Al4  1  0.50000000  0.00002972  0.66596724  1
  Ge  Ge5  1  0.50000000  0.99988597  0.33579662  1
