# generated using pymatgen
data_Ni2As3Pd4
_symmetry_space_group_name_H-M   'P 1'
_cell_length_a   3.72149357
_cell_length_b   6.33057730
_cell_length_c   6.66315971
_cell_angle_alpha   121.75911987
_cell_angle_beta   90.00000000
_cell_angle_gamma   90.00000000
_symmetry_Int_Tables_number   1
_chemical_formula_structural   Ni2As3Pd4
_chemical_formula_sum   'Ni2 As3 Pd4'
_cell_volume   133.47406264
_cell_formula_units_Z   1
loop_
 _symmetry_equiv_pos_site_id
 _symmetry_equiv_pos_as_xyz
  1  'x, y, z'
loop_
 _atom_site_type_symbol
 _atom_site_label
 _atom_site_symmetry_multiplicity
 _atom_site_fract_x
 _atom_site_fract_y
 _atom_site_fract_z
 _atom_site_occupancy
  Ni  Ni0  1  0.00000000  0.25471639  0.99511971  1
  Ni  Ni1  1  -0.00000000  0.74542654  0.74025335  1
  As  As2  1  0.50000000  0.99997951  0.98159332  1
  As  As3  1  -0.00000000  0.34275746  0.68442940  1
  As  As4  1  -0.00000000  0.65718601  0.34163725  1
  Pd  Pd5  1  -0.00000000  0.99996256  0.25596578  1
  Pd  Pd6  1  0.50000000  0.59303919  0.99544509  1
  Pd  Pd7  1  0.50000000  0.40691479  0.40245972  1
  Pd  Pd8  1  0.50000000  0.99991755  0.60309639  1
