# generated using pymatgen
data_NaDyTi2O6
_symmetry_space_group_name_H-M   'P 1'
_cell_length_a   5.33060275
_cell_length_b   5.54139644
_cell_length_c   7.63665810
_cell_angle_alpha   90.00000000
_cell_angle_beta   90.00000000
_cell_angle_gamma   90.00000000
_symmetry_Int_Tables_number   1
_chemical_formula_structural   NaDyTi2O6
_chemical_formula_sum   'Na2 Dy2 Ti4 O12'
_cell_volume   225.57911457
_cell_formula_units_Z   2
loop_
 _symmetry_equiv_pos_site_id
 _symmetry_equiv_pos_as_xyz
  1  'x, y, z'
loop_
 _atom_site_type_symbol
 _atom_site_label
 _atom_site_symmetry_multiplicity
 _atom_site_fract_x
 _atom_site_fract_y
 _atom_site_fract_z
 _atom_site_occupancy
  Na  Na0  1  0.49474802  0.96681258  0.25000000  1
  Na  Na1  1  0.99474802  0.53318742  0.75000000  1
  Dy  Dy2  1  0.01768233  0.43014171  0.25000000  1
  Dy  Dy3  1  0.51768233  0.06985829  0.75000000  1
  Ti  Ti4  1  0.51184359  0.51457199  0.99753094  1
  Ti  Ti5  1  0.01184359  0.98542801  0.49753094  1
  Ti  Ti6  1  0.51184359  0.51457199  0.50246906  1
  Ti  Ti7  1  0.01184359  0.98542801  0.00246906  1
  O  O8  1  0.92259236  0.02371078  0.25000000  1
  O  O9  1  0.60150409  0.52540224  0.25000000  1
  O  O10  1  0.10150409  0.97459776  0.75000000  1
  O  O11  1  0.42259236  0.47628922  0.75000000  1
  O  O12  1  0.19176295  0.69600156  0.05212184  1
  O  O13  1  0.27813006  0.21463528  0.45898217  1
  O  O14  1  0.77813006  0.28536472  0.54101783  1
  O  O15  1  0.69176295  0.80399844  0.94787816  1
  O  O16  1  0.77813006  0.28536472  0.95898217  1
  O  O17  1  0.69176295  0.80399844  0.55212184  1
  O  O18  1  0.19176295  0.69600156  0.44787816  1
  O  O19  1  0.27813006  0.21463528  0.04101783  1
