# generated using pymatgen
data_Na8Ti3Fe(Si4O11)4
_symmetry_space_group_name_H-M   'P 1'
_cell_length_a   8.05491546
_cell_length_b   10.85330204
_cell_length_c   10.85330204
_cell_angle_alpha   90.00000000
_cell_angle_beta   90.00000000
_cell_angle_gamma   90.00000000
_symmetry_Int_Tables_number   1
_chemical_formula_structural   Na8Ti3Fe(Si4O11)4
_chemical_formula_sum   'Na8 Ti3 Fe1 Si16 O44'
_cell_volume   948.82204214
_cell_formula_units_Z   1
loop_
 _symmetry_equiv_pos_site_id
 _symmetry_equiv_pos_as_xyz
  1  'x, y, z'
loop_
 _atom_site_type_symbol
 _atom_site_label
 _atom_site_symmetry_multiplicity
 _atom_site_fract_x
 _atom_site_fract_y
 _atom_site_fract_z
 _atom_site_occupancy
  Na  Na0  1  0.50216629  0.63079102  0.31528963  1
  Na  Na1  1  0.00054990  0.12795659  0.81763875  1
  Na  Na2  1  0.50216629  0.36920898  0.68471037  1
  Na  Na3  1  0.00054990  0.87204341  0.18236125  1
  Na  Na4  1  0.00054990  0.18236125  0.12795659  1
  Na  Na5  1  0.50216629  0.68471037  0.63079102  1
  Na  Na6  1  0.00054990  0.81763875  0.87204341  1
  Na  Na7  1  0.50216629  0.31528963  0.36920898  1
  Ti  Ti8  1  0.78200876  0.50000000  0.50000000  1
  Ti  Ti9  1  0.70737674  0.00000000  0.00000000  1
  Ti  Ti10  1  0.26785160  0.50000000  0.50000000  1
  Fe  Fe11  1  0.24550501  0.00000000  0.00000000  1
  Si  Si12  1  0.30849115  0.30740497  0.98601574  1
  Si  Si13  1  0.80845205  0.80809413  0.48776058  1
  Si  Si14  1  0.30849115  0.69259503  0.01398426  1
  Si  Si15  1  0.80845205  0.19190587  0.51223942  1
  Si  Si16  1  0.80845205  0.51223942  0.80809413  1
  Si  Si17  1  0.30849115  0.01398426  0.30740497  1
  Si  Si18  1  0.80845205  0.48776058  0.19190587  1
  Si  Si19  1  0.30849115  0.98601574  0.69259503  1
  Si  Si20  1  0.69097565  0.69302473  0.01205957  1
  Si  Si21  1  0.19120295  0.19122284  0.51386938  1
  Si  Si22  1  0.69097565  0.30697527  0.98794043  1
  Si  Si23  1  0.19120295  0.80877716  0.48613062  1
  Si  Si24  1  0.19120295  0.48613062  0.19122284  1
  Si  Si25  1  0.69097565  0.98794043  0.69302473  1
  Si  Si26  1  0.19120295  0.51386938  0.80877716  1
  Si  Si27  1  0.69097565  0.01205957  0.30697527  1
  O  O28  1  0.23329273  0.17797504  0.94266388  1
  O  O29  1  0.73051950  0.67661863  0.45249293  1
  O  O30  1  0.23329273  0.82202496  0.05733612  1
  O  O31  1  0.73051950  0.32338137  0.54750707  1
  O  O32  1  0.73051950  0.54750707  0.67661863  1
  O  O33  1  0.23329273  0.05733612  0.17797504  1
  O  O34  1  0.73051950  0.45249293  0.32338137  1
  O  O35  1  0.23329273  0.94266388  0.82202496  1
  O  O36  1  0.76628653  0.82624273  0.04664630  1
  O  O37  1  0.26709408  0.32223333  0.55109742  1
  O  O38  1  0.76628653  0.17375727  0.95335370  1
  O  O39  1  0.26709408  0.67776667  0.44890258  1
  O  O40  1  0.26709408  0.44890258  0.32223333  1
  O  O41  1  0.76628653  0.95335370  0.82624273  1
  O  O42  1  0.26709408  0.55109742  0.67776667  1
  O  O43  1  0.76628653  0.04664630  0.17375727  1
  O  O44  1  -0.00006682  0.53725136  0.19562807  1
  O  O45  1  0.49971734  0.03788383  0.69819082  1
  O  O46  1  -0.00006682  0.46274864  0.80437193  1
  O  O47  1  0.49971734  0.96211617  0.30180918  1
  O  O48  1  0.49971734  0.30180918  0.03788383  1
  O  O49  1  -0.00006682  0.80437193  0.53725136  1
  O  O50  1  0.49971734  0.69819082  0.96211617  1
  O  O51  1  -0.00006682  0.19562807  0.46274864  1
  O  O52  1  0.30731385  0.40284495  0.86701787  1
  O  O53  1  0.80530781  0.90089645  0.36672761  1
  O  O54  1  0.30731385  0.59715505  0.13298213  1
  O  O55  1  0.80530781  0.09910355  0.63327239  1
  O  O56  1  0.80530781  0.63327239  0.90089645  1
  O  O57  1  0.30731385  0.13298213  0.40284495  1
  O  O58  1  0.80530781  0.36672761  0.09910355  1
  O  O59  1  0.30731385  0.86701787  0.59715505  1
  O  O60  1  0.69496071  0.60046683  0.13297613  1
  O  O61  1  0.19335213  0.09770633  0.63409288  1
  O  O62  1  0.69496071  0.39953317  0.86702387  1
  O  O63  1  0.19335213  0.90229367  0.36590712  1
  O  O64  1  0.19335213  0.36590712  0.09770633  1
  O  O65  1  0.69496071  0.86702387  0.60046683  1
  O  O66  1  0.19335213  0.63409288  0.90229367  1
  O  O67  1  0.69496071  0.13297613  0.39953317  1
  O  O68  1  0.02443675  0.00000000  0.00000000  1
  O  O69  1  0.48594850  0.50000000  0.50000000  1
  O  O70  1  0.49412988  0.00000000  0.00000000  1
  O  O71  1  0.99427938  0.50000000  0.50000000  1
