# generated using pymatgen
data_Li4MnCo2O7
_symmetry_space_group_name_H-M   'P 1'
_cell_length_a   2.93181026
_cell_length_b   7.86677823
_cell_length_c   11.53456343
_cell_angle_alpha   83.30139024
_cell_angle_beta   97.30135293
_cell_angle_gamma   79.26066349
_symmetry_Int_Tables_number   1
_chemical_formula_structural   Li4MnCo2O7
_chemical_formula_sum   'Li8 Mn2 Co4 O14'
_cell_volume   256.55122246
_cell_formula_units_Z   2
loop_
 _symmetry_equiv_pos_site_id
 _symmetry_equiv_pos_as_xyz
  1  'x, y, z'
loop_
 _atom_site_type_symbol
 _atom_site_label
 _atom_site_symmetry_multiplicity
 _atom_site_fract_x
 _atom_site_fract_y
 _atom_site_fract_z
 _atom_site_occupancy
  Li  Li0  1  0.58079934  0.07255282  0.23415049  1
  Li  Li1  1  0.70491566  0.21316218  0.62299251  1
  Li  Li2  1  0.85675069  0.37076118  0.08426255  1
  Li  Li3  1  0.29037332  0.78442619  0.36517384  1
  Li  Li4  1  0.42896331  0.91495282  0.77288045  1
  Li  Li5  1  0.99534068  0.50128781  0.49196916  1
  Li  Li6  1  0.14285700  0.64285700  0.92857100  1
  Li  Li7  1  0.14285700  0.14285700  0.42857100  1
  Mn  Mn8  1  0.00201944  0.99795053  0.00198940  1
  Mn  Mn9  1  0.28369456  0.28776347  0.85515360  1
  Co  Co10  1  0.44719728  0.40461356  0.29900913  1
  Co  Co11  1  0.55849808  0.58631428  0.70330943  1
  Co  Co12  1  0.72721692  0.69940072  0.15383357  1
  Co  Co13  1  0.83851672  0.88110044  0.55813387  1
  O  O14  1  0.42976526  0.16279546  0.02232499  1
  O  O15  1  0.56035148  0.33469981  0.45540278  1
  O  O16  1  0.72572139  0.43843213  0.88987491  1
  O  O17  1  0.13324399  0.89335971  0.15984869  1
  O  O18  1  0.29120975  0.02628701  0.60870551  1
  O  O19  1  0.85012011  0.60955423  0.30979445  1
  O  O20  1  0.00935594  0.73490573  0.75361861  1
  O  O21  1  0.72536252  0.95101419  0.40174022  1
  O  O22  1  0.85594974  0.12291954  0.83481801  1
  O  O23  1  0.99450525  0.25942799  0.24843749  1
  O  O24  1  0.43559389  0.67615977  0.54734755  1
  O  O25  1  0.55999261  0.84728187  0.96726809  1
  O  O26  1  0.15247001  0.39235429  0.69729431  1
  O  O27  1  0.27635806  0.55080827  0.10352439  1
