# generated using pymatgen
data_NaHoTi2O6
_symmetry_space_group_name_H-M   'P 1'
_cell_length_a   5.31843102
_cell_length_b   5.54303396
_cell_length_c   7.62179392
_cell_angle_alpha   90.00000000
_cell_angle_beta   90.00000000
_cell_angle_gamma   90.00000000
_symmetry_Int_Tables_number   1
_chemical_formula_structural   NaHoTi2O6
_chemical_formula_sum   'Na2 Ho2 Ti4 O12'
_cell_volume   224.69234263
_cell_formula_units_Z   2
loop_
 _symmetry_equiv_pos_site_id
 _symmetry_equiv_pos_as_xyz
  1  'x, y, z'
loop_
 _atom_site_type_symbol
 _atom_site_label
 _atom_site_symmetry_multiplicity
 _atom_site_fract_x
 _atom_site_fract_y
 _atom_site_fract_z
 _atom_site_occupancy
  Na  Na0  1  0.49511415  0.96557699  0.25000000  1
  Na  Na1  1  0.99511415  0.53442301  0.75000000  1
  Ho  Ho2  1  0.01790571  0.42713569  0.25000000  1
  Ho  Ho3  1  0.51790571  0.07286431  0.75000000  1
  Ti  Ti4  1  0.51342295  0.51624920  0.99711703  1
  Ti  Ti5  1  0.01342295  0.98375080  0.49711703  1
  Ti  Ti6  1  0.51342295  0.51624920  0.50288297  1
  Ti  Ti7  1  0.01342295  0.98375080  0.00288297  1
  O  O8  1  0.18925441  0.69288976  0.05363394  1
  O  O9  1  0.27757982  0.21356369  0.45904510  1
  O  O10  1  0.77757982  0.28643631  0.54095490  1
  O  O11  1  0.68925441  0.80711024  0.94636606  1
  O  O12  1  0.77757982  0.28643631  0.95904510  1
  O  O13  1  0.68925441  0.80711024  0.55363394  1
  O  O14  1  0.18925441  0.69288976  0.44636606  1
  O  O15  1  0.27757982  0.21356369  0.04095490  1
  O  O16  1  0.92149253  0.02395742  0.25000000  1
  O  O17  1  0.60497325  0.52701817  0.25000000  1
  O  O18  1  0.10497325  0.97298183  0.75000000  1
  O  O19  1  0.42149253  0.47604258  0.75000000  1
