# generated using pymatgen
data_NaErTi2O6
_symmetry_space_group_name_H-M   'P 1'
_cell_length_a   5.31039527
_cell_length_b   5.52733141
_cell_length_c   7.61137431
_cell_angle_alpha   90.00000000
_cell_angle_beta   90.00000000
_cell_angle_gamma   90.00000000
_symmetry_Int_Tables_number   1
_chemical_formula_structural   NaErTi2O6
_chemical_formula_sum   'Na2 Er2 Ti4 O12'
_cell_volume   223.41145310
_cell_formula_units_Z   2
loop_
 _symmetry_equiv_pos_site_id
 _symmetry_equiv_pos_as_xyz
  1  'x, y, z'
loop_
 _atom_site_type_symbol
 _atom_site_label
 _atom_site_symmetry_multiplicity
 _atom_site_fract_x
 _atom_site_fract_y
 _atom_site_fract_z
 _atom_site_occupancy
  Na  Na0  1  0.49383240  0.96387329  0.25000000  1
  Na  Na1  1  0.99383240  0.53612671  0.75000000  1
  Er  Er2  1  0.01874061  0.42850871  0.25000000  1
  Er  Er3  1  0.51874061  0.07149129  0.75000000  1
  Ti  Ti4  1  0.51215835  0.51388297  0.99719035  1
  Ti  Ti5  1  0.01215835  0.98611703  0.49719035  1
  Ti  Ti6  1  0.51215835  0.51388297  0.50280965  1
  Ti  Ti7  1  0.01215835  0.98611703  0.00280965  1
  O  O8  1  0.18912564  0.69415017  0.05453384  1
  O  O9  1  0.27843582  0.21426733  0.45761241  1
  O  O10  1  0.77843582  0.28573267  0.54238759  1
  O  O11  1  0.68912564  0.80584983  0.94546616  1
  O  O12  1  0.77843582  0.28573267  0.95761241  1
  O  O13  1  0.68912564  0.80584983  0.55453384  1
  O  O14  1  0.18912564  0.69415017  0.44546616  1
  O  O15  1  0.27843582  0.21426733  0.04238759  1
  O  O16  1  0.92113892  0.02757966  0.25000000  1
  O  O17  1  0.60684845  0.52523713  0.25000000  1
  O  O18  1  0.10684845  0.97476287  0.75000000  1
  O  O19  1  0.42113892  0.47242034  0.75000000  1
