# generated using pymatgen
data_Na5Li3V8O24
_symmetry_space_group_name_H-M   'P 1'
_cell_length_a   5.92102094
_cell_length_b   7.02484310
_cell_length_c   13.83663034
_cell_angle_alpha   89.32078809
_cell_angle_beta   100.28860214
_cell_angle_gamma   75.77602112
_symmetry_Int_Tables_number   1
_chemical_formula_structural   Na5Li3V8O24
_chemical_formula_sum   'Na5 Li3 V8 O24'
_cell_volume   547.97149000
_cell_formula_units_Z   1
loop_
 _symmetry_equiv_pos_site_id
 _symmetry_equiv_pos_as_xyz
  1  'x, y, z'
loop_
 _atom_site_type_symbol
 _atom_site_label
 _atom_site_symmetry_multiplicity
 _atom_site_fract_x
 _atom_site_fract_y
 _atom_site_fract_z
 _atom_site_occupancy
  Na  Na0  1  0.89421286  0.71205279  0.14392297  1
  Na  Na1  1  0.39437452  0.71057966  0.64472396  1
  Na  Na2  1  0.60534360  0.28942934  0.35515420  1
  Na  Na3  1  0.10589835  0.28817199  0.85607501  1
  Na  Na4  1  0.20761603  0.08491090  0.45756984  1
  Li  Li5  1  0.70604728  0.08780772  0.95608674  1
  Li  Li6  1  0.29388919  0.91206849  0.04395833  1
  Li  Li7  1  0.79465939  0.91086586  0.54454448  1
  V  V8  1  0.14853433  0.62211571  0.40102837  1
  V  V9  1  0.64961090  0.62005948  0.90176283  1
  V  V10  1  0.93950615  0.19756328  0.18697294  1
  V  V11  1  0.44409034  0.19667460  0.69195748  1
  V  V12  1  0.34965194  0.38048132  0.09796335  1
  V  V13  1  0.84800511  0.38212659  0.59918407  1
  V  V14  1  0.56027004  0.80222235  0.30872142  1
  V  V15  1  0.05794629  0.80346479  0.81007465  1
  O  O16  1  0.26114485  0.39452683  0.45178303  1
  O  O17  1  0.75411059  0.38959023  0.95121490  1
  O  O18  1  0.99362208  0.09485659  0.30075949  1
  O  O19  1  0.50250561  0.09901695  0.80729315  1
  O  O20  1  0.24545042  0.61102855  0.04860056  1
  O  O21  1  0.74454857  0.61222319  0.54918337  1
  O  O22  1  0.49755056  0.90230413  0.19352236  1
  O  O23  1  0.99858672  0.90220847  0.69483848  1
  O  O24  1  0.85863882  0.64129860  0.32299170  1
  O  O25  1  0.35825070  0.64438858  0.82411080  1
  O  O26  1  0.14405362  0.35203126  0.17793180  1
  O  O27  1  0.64324892  0.35366910  0.67923907  1
  O  O28  1  0.64051001  0.35735824  0.17512688  1
  O  O29  1  0.14223716  0.35444086  0.67544940  1
  O  O30  1  0.35568106  0.65077308  0.32186813  1
  O  O31  1  0.85628243  0.64819563  0.82217980  1
  O  O32  1  0.13301269  0.78187130  0.49057774  1
  O  O33  1  0.63812325  0.78693240  0.98825120  1
  O  O34  1  0.95566679  0.02338166  0.10409871  1
  O  O35  1  0.46712822  0.01905479  0.61132115  1
  O  O36  1  0.36167646  0.21293628  0.01159689  1
  O  O37  1  0.84900151  0.21600472  0.51280041  1
  O  O38  1  0.55588625  0.97468215  0.39215127  1
  O  O39  1  0.04342639  0.97663151  0.89340907  1
