# generated using pymatgen
data_Na3PrTi2Nb2O12
_symmetry_space_group_name_H-M   'P 1'
_cell_length_a   5.53177000
_cell_length_b   5.58874662
_cell_length_c   7.87165213
_cell_angle_alpha   90.08560227
_cell_angle_beta   89.97146999
_cell_angle_gamma   90.03483420
_symmetry_Int_Tables_number   1
_chemical_formula_structural   Na3PrTi2Nb2O12
_chemical_formula_sum   'Na3 Pr1 Ti2 Nb2 O12'
_cell_volume   243.35698138
_cell_formula_units_Z   1
loop_
 _symmetry_equiv_pos_site_id
 _symmetry_equiv_pos_as_xyz
  1  'x, y, z'
loop_
 _atom_site_type_symbol
 _atom_site_label
 _atom_site_symmetry_multiplicity
 _atom_site_fract_x
 _atom_site_fract_y
 _atom_site_fract_z
 _atom_site_occupancy
  Na  Na0  1  0.50431912  0.51330463  0.25058856  1
  Na  Na1  1  0.99651952  0.01331048  0.25017663  1
  Na  Na2  1  0.49496524  0.47843920  0.74974919  1
  Pr  Pr3  1  0.00366692  0.96056817  0.74998787  1
  Ti  Ti4  1  0.50090960  0.98526962  0.99479879  1
  Ti  Ti5  1  0.99463448  0.48431938  0.50440766  1
  Nb  Nb6  1  0.50089424  0.99264530  0.48703372  1
  Nb  Nb7  1  0.99506586  0.48524850  0.01392924  1
  O  O8  1  0.43811552  0.98768290  0.24662119  1
  O  O9  1  0.07027487  0.49514938  0.25313751  1
  O  O10  1  0.56994509  0.01679049  0.75340691  1
  O  O11  1  0.93668601  0.51632521  0.74659354  1
  O  O12  1  0.78681738  0.79557280  0.02239081  1
  O  O13  1  0.72214228  0.28876902  0.47002511  1
  O  O14  1  0.21212950  0.22213846  0.53951262  1
  O  O15  1  0.27638055  0.73606489  0.95610031  1
  O  O16  1  0.21694649  0.21894703  0.96000713  1
  O  O17  1  0.27255026  0.73314824  0.54355235  1
  O  O18  1  0.78958690  0.79114516  0.47663842  1
  O  O19  1  0.71745016  0.28516114  0.03134244  1
