# generated using pymatgen
data_NaTi3O6
_symmetry_space_group_name_H-M   'P 1'
_cell_length_a   8.90322651
_cell_length_b   10.83719725
_cell_length_c   9.76263904
_cell_angle_alpha   90.00000000
_cell_angle_beta   107.82905152
_cell_angle_gamma   90.00000000
_symmetry_Int_Tables_number   1
_chemical_formula_structural   NaTi3O6
_chemical_formula_sum   'Na8 Ti24 O48'
_cell_volume   896.71997297
_cell_formula_units_Z   8
loop_
 _symmetry_equiv_pos_site_id
 _symmetry_equiv_pos_as_xyz
  1  'x, y, z'
loop_
 _atom_site_type_symbol
 _atom_site_label
 _atom_site_symmetry_multiplicity
 _atom_site_fract_x
 _atom_site_fract_y
 _atom_site_fract_z
 _atom_site_occupancy
  Na  Na0  1  0.48156142  0.15250272  0.74166469  1
  Na  Na1  1  0.84685488  0.15513139  0.74325904  1
  Na  Na2  1  0.98156142  0.34749728  0.24166469  1
  Na  Na3  1  0.34685488  0.34486861  0.24325904  1
  Na  Na4  1  0.85177158  0.84749728  0.25833531  1
  Na  Na5  1  0.48647812  0.84486861  0.25674096  1
  Na  Na6  1  0.98647812  0.65513139  0.75674096  1
  Na  Na7  1  0.35177158  0.65250272  0.75833531  1
  Ti  Ti8  1  0.77413653  0.89571473  0.58225779  1
  Ti  Ti9  1  0.44216340  0.89475408  0.57773093  1
  Ti  Ti10  1  0.11631602  0.90207282  0.58971390  1
  Ti  Ti11  1  0.61631602  0.59792718  0.08971390  1
  Ti  Ti12  1  0.27413653  0.60428527  0.08225779  1
  Ti  Ti13  1  0.94216340  0.60524592  0.07773093  1
  Ti  Ti14  1  0.55919747  0.10428527  0.41774221  1
  Ti  Ti15  1  0.21701698  0.09792718  0.41028610  1
  Ti  Ti16  1  0.89116960  0.10524592  0.42226907  1
  Ti  Ti17  1  0.71701698  0.40207282  0.91028610  1
  Ti  Ti18  1  0.39116960  0.39475408  0.92226907  1
  Ti  Ti19  1  0.05919747  0.39571473  0.91774221  1
  Ti  Ti20  1  0.76753155  0.38838382  0.55153251  1
  Ti  Ti21  1  0.43302125  0.38845735  0.56150772  1
  Ti  Ti22  1  0.10965943  0.38472446  0.56911276  1
  Ti  Ti23  1  0.60965943  0.11527554  0.06911276  1
  Ti  Ti24  1  0.26753155  0.11161618  0.05153251  1
  Ti  Ti25  1  0.93302125  0.11154265  0.06150772  1
  Ti  Ti26  1  0.56580145  0.61161618  0.44846749  1
  Ti  Ti27  1  0.22367357  0.61527554  0.43088724  1
  Ti  Ti28  1  0.90031275  0.61154265  0.43849228  1
  Ti  Ti29  1  0.72367357  0.88472446  0.93088724  1
  Ti  Ti30  1  0.40031275  0.88845735  0.93849228  1
  Ti  Ti31  1  0.06580145  0.88838382  0.94846749  1
  O  O32  1  0.88093492  0.51761649  0.88832323  1
  O  O33  1  0.54615084  0.51851603  0.88930169  1
  O  O34  1  0.21262593  0.52107376  0.88713826  1
  O  O35  1  0.71262593  0.97892624  0.38713826  1
  O  O36  1  0.38093492  0.98238351  0.38832323  1
  O  O37  1  0.04615084  0.98148397  0.38930169  1
  O  O38  1  0.45239808  0.48238351  0.11167677  1
  O  O39  1  0.12070807  0.47892624  0.11286174  1
  O  O40  1  0.78718216  0.48148397  0.11069831  1
  O  O41  1  0.62070807  0.02107376  0.61286174  1
  O  O42  1  0.28718216  0.01851603  0.61069831  1
  O  O43  1  0.95239808  0.01761649  0.61167677  1
  O  O44  1  0.77510915  0.57164397  0.57482488  1
  O  O45  1  0.44066675  0.57222229  0.57502419  1
  O  O46  1  0.10984258  0.56869562  0.57876656  1
  O  O47  1  0.60984258  0.93130438  0.07876656  1
  O  O48  1  0.27510915  0.92835603  0.07482488  1
  O  O49  1  0.94066675  0.92777771  0.07502419  1
  O  O50  1  0.55822485  0.42835603  0.42517512  1
  O  O51  1  0.22349042  0.43130438  0.42123344  1
  O  O52  1  0.89266625  0.42777771  0.42497581  1
  O  O53  1  0.72349042  0.06869562  0.92123344  1
  O  O54  1  0.39266625  0.07222229  0.92497581  1
  O  O55  1  0.05822485  0.07164397  0.92517512  1
  O  O56  1  0.85197462  0.85728461  0.79464694  1
  O  O57  1  0.51071036  0.85884447  0.79104511  1
  O  O58  1  0.18139965  0.85382459  0.79610570  1
  O  O59  1  0.68139965  0.64617541  0.29610570  1
  O  O60  1  0.35197462  0.64271539  0.29464694  1
  O  O61  1  0.01071036  0.64115553  0.29104511  1
  O  O62  1  0.48135838  0.14271539  0.20535306  1
  O  O63  1  0.15193435  0.14617541  0.20389430  1
  O  O64  1  0.82262264  0.14115553  0.20895489  1
  O  O65  1  0.65193435  0.35382459  0.70389430  1
  O  O66  1  0.32262264  0.35884447  0.70895489  1
  O  O67  1  0.98135838  0.35728461  0.70535306  1
  O  O68  1  0.90714929  0.28163370  0.97564684  1
  O  O69  1  0.57581466  0.28024212  0.96831052  1
  O  O70  1  0.24534411  0.28456587  0.98742590  1
  O  O71  1  0.74534411  0.21543413  0.48742590  1
  O  O72  1  0.40714929  0.21836630  0.47564684  1
  O  O73  1  0.07581466  0.21975788  0.46831052  1
  O  O74  1  0.42618371  0.71836630  0.02435316  1
  O  O75  1  0.08798889  0.71543413  0.01257410  1
  O  O76  1  0.75751934  0.71975788  0.03168948  1
  O  O77  1  0.58798889  0.78456587  0.51257410  1
  O  O78  1  0.25751934  0.78024212  0.53168948  1
  O  O79  1  0.92618371  0.78163370  0.52435316  1
