# generated using pymatgen
data_NaNdTi2O6
_symmetry_space_group_name_H-M   'P 1'
_cell_length_a   5.47245783
_cell_length_b   5.50854461
_cell_length_c   7.73527087
_cell_angle_alpha   90.00000000
_cell_angle_beta   90.00000000
_cell_angle_gamma   90.00000000
_symmetry_Int_Tables_number   1
_chemical_formula_structural   NaNdTi2O6
_chemical_formula_sum   'Na2 Nd2 Ti4 O12'
_cell_volume   233.18189142
_cell_formula_units_Z   2
loop_
 _symmetry_equiv_pos_site_id
 _symmetry_equiv_pos_as_xyz
  1  'x, y, z'
loop_
 _atom_site_type_symbol
 _atom_site_label
 _atom_site_symmetry_multiplicity
 _atom_site_fract_x
 _atom_site_fract_y
 _atom_site_fract_z
 _atom_site_occupancy
  Na  Na0  1  0.49708496  0.01545317  0.25000000  1
  Na  Na1  1  0.99708496  0.48454683  0.75000000  1
  Nd  Nd2  1  0.00953455  0.53415434  0.25000000  1
  Nd  Nd3  1  0.50953455  0.96584566  0.75000000  1
  Ti  Ti4  1  0.50196392  0.49500041  0.99918228  1
  Ti  Ti5  1  0.00196392  0.00499959  0.49918228  1
  Ti  Ti6  1  0.50196392  0.49500041  0.50081772  1
  Ti  Ti7  1  0.00196392  0.00499959  0.00081772  1
  O  O8  1  0.27222517  0.77378307  0.03632381  1
  O  O9  1  0.21596531  0.28331481  0.46093599  1
  O  O10  1  0.71596531  0.21668519  0.53906401  1
  O  O11  1  0.77222517  0.72621693  0.96367619  1
  O  O12  1  0.71596531  0.21668519  0.96093599  1
  O  O13  1  0.77222517  0.72621693  0.53632381  1
  O  O14  1  0.27222517  0.77378307  0.46367619  1
  O  O15  1  0.21596531  0.28331481  0.03906401  1
  O  O16  1  0.57745710  0.48936921  0.25000000  1
  O  O17  1  0.93561458  0.98641035  0.25000000  1
  O  O18  1  0.43561458  0.51358965  0.75000000  1
  O  O19  1  0.07745710  0.01063079  0.75000000  1
