# generated using pymatgen
data_Na2Ti12O25
_symmetry_space_group_name_H-M   'P 1'
_cell_length_a   3.75608508
_cell_length_b   9.38460307
_cell_length_c   14.63912479
_cell_angle_alpha   105.78386724
_cell_angle_beta   90.00000000
_cell_angle_gamma   90.00000000
_symmetry_Int_Tables_number   1
_chemical_formula_structural   Na2Ti12O25
_chemical_formula_sum   'Na2 Ti12 O25'
_cell_volume   496.56316504
_cell_formula_units_Z   1
loop_
 _symmetry_equiv_pos_site_id
 _symmetry_equiv_pos_as_xyz
  1  'x, y, z'
loop_
 _atom_site_type_symbol
 _atom_site_label
 _atom_site_symmetry_multiplicity
 _atom_site_fract_x
 _atom_site_fract_y
 _atom_site_fract_z
 _atom_site_occupancy
  Na  Na0  1  0.50000000  0.70553255  0.95819839  1
  Na  Na1  1  0.50000000  0.29446745  0.04180161  1
  Ti  Ti2  1  0.50000000  0.63898223  0.59269775  1
  Ti  Ti3  1  0.50000000  0.36101777  0.40730225  1
  Ti  Ti4  1  0.00000000  0.00969274  0.87586228  1
  Ti  Ti5  1  -0.00000000  0.99030726  0.12413772  1
  Ti  Ti6  1  0.50000000  0.68064733  0.35378713  1
  Ti  Ti7  1  0.50000000  0.31935267  0.64621287  1
  Ti  Ti8  1  0.50000000  0.96813890  0.29592196  1
  Ti  Ti9  1  0.50000000  0.03186110  0.70407804  1
  Ti  Ti10  1  0.00000000  0.60561613  0.75748458  1
  Ti  Ti11  1  -0.00000000  0.39438387  0.24251542  1
  Ti  Ti12  1  0.00000000  0.31516397  0.82355936  1
  Ti  Ti13  1  0.00000000  0.68483603  0.17644064  1
  O  O14  1  -0.00000000  0.52041911  0.86449181  1
  O  O15  1  0.00000000  0.47958089  0.13550819  1
  O  O16  1  0.00000000  0.62670902  0.62141174  1
  O  O17  1  0.00000000  0.37329098  0.37858826  1
  O  O18  1  0.50000000  0.71672541  0.21632096  1
  O  O19  1  0.50000000  0.28327459  0.78367904  1
  O  O20  1  0.50000000  0.84172364  0.63615378  1
  O  O21  1  0.50000000  0.15827636  0.36384622  1
  O  O22  1  0.00000000  0.23885294  0.92434526  1
  O  O23  1  -0.00000000  0.76114706  0.07565474  1
  O  O24  1  0.50000000  0.98932920  0.15613703  1
  O  O25  1  0.50000000  0.01067080  0.84386297  1
  O  O26  1  0.50000000  0.56815923  0.72136028  1
  O  O27  1  0.50000000  0.43184077  0.27863972  1
  O  O28  1  0.50000000  0.60689180  0.46103600  1
  O  O29  1  0.50000000  0.39310820  0.53896400  1
  O  O30  1  -0.00000000  0.07127499  0.74240715  1
  O  O31  1  -0.00000000  0.92872501  0.25759285  1
  O  O32  1  0.50000000  0.87768536  0.39530038  1
  O  O33  1  0.50000000  0.12231464  0.60469962  1
  O  O34  1  -0.00000000  0.79331317  0.82611699  1
  O  O35  1  -0.00000000  0.20668683  0.17388301  1
  O  O36  1  0.00000000  0.35756518  0.68289268  1
  O  O37  1  -0.00000000  0.64243482  0.31710732  1
  O  O38  1  -0.00000000  -0.00000000  0.00000000  1
