# generated using pymatgen
data_Mn23(BC)3
_symmetry_space_group_name_H-M   'P 1'
_cell_length_a   7.40806087
_cell_length_b   7.40806087
_cell_length_c   7.38797573
_cell_angle_alpha   90.00000000
_cell_angle_beta   59.91002773
_cell_angle_gamma   120.00000000
_symmetry_Int_Tables_number   1
_chemical_formula_structural   Mn23(BC)3
_chemical_formula_sum   'Mn23 B3 C3'
_cell_volume   286.30411897
_cell_formula_units_Z   1
loop_
 _symmetry_equiv_pos_site_id
 _symmetry_equiv_pos_as_xyz
  1  'x, y, z'
loop_
 _atom_site_type_symbol
 _atom_site_label
 _atom_site_symmetry_multiplicity
 _atom_site_fract_x
 _atom_site_fract_y
 _atom_site_fract_z
 _atom_site_occupancy
  Mn  Mn0  1  0.75787688  0.37893844  0.86318467  1
  Mn  Mn1  1  0.23771122  0.38299509  0.37929368  1
  Mn  Mn2  1  0.23771122  0.85471613  0.37929368  1
  Mn  Mn3  1  0.76599019  0.38299509  0.37929368  1
  Mn  Mn4  1  0.23437797  0.61718899  0.14843304  1
  Mn  Mn5  1  0.76235167  0.62009292  0.61755541  1
  Mn  Mn6  1  0.76235167  0.14225875  0.61755541  1
  Mn  Mn7  1  0.24018584  0.62009292  0.61755541  1
  Mn  Mn8  1  0.00258616  0.00129308  0.65131898  1
  Mn  Mn9  1  0.34738794  0.34609486  0.65131898  1
  Mn  Mn10  1  0.34738794  0.00129308  0.65131898  1
  Mn  Mn11  1  0.00269908  0.34246432  0.00369506  1
  Mn  Mn12  1  0.65384063  0.99360587  0.00369506  1
  Mn  Mn13  1  0.66521761  0.00114398  0.33363841  1
  Mn  Mn14  1  0.00269908  0.66023476  0.00369506  1
  Mn  Mn15  1  0.66521761  0.66407362  0.33363841  1
  Mn  Mn16  1  0.65384063  0.66023476  0.00369506  1
  Mn  Mn17  1  0.00228796  0.00114398  0.33363841  1
  Mn  Mn18  1  0.33607018  0.99360587  0.00369506  1
  Mn  Mn19  1  0.33607018  0.34246432  0.00369506  1
  Mn  Mn20  1  0.01398011  0.00699006  0.97902983  1
  Mn  Mn21  1  0.49667064  0.24833532  0.25499404  1
  Mn  Mn22  1  0.49681755  0.74840878  0.75477367  1
  B  B23  1  0.54371872  0.27185936  0.73077341  1
  B  B24  1  0.99736723  0.72550787  0.73077341  1
  B  B25  1  0.99736723  0.27185936  0.73077341  1
  C  C26  1  0.44451769  0.72225885  0.27989158  1
  C  C27  1  0.99784958  0.27559073  0.27989158  1
  C  C28  1  0.99784958  0.72225885  0.27989158  1
