# generated using pymatgen
data_Mn9Al8Fe3(SiO4)12
_symmetry_space_group_name_H-M   'P 1'
_cell_length_a   10.15352238
_cell_length_b   10.15352238
_cell_length_c   10.15492727
_cell_angle_alpha   70.47676375
_cell_angle_beta   70.58361475
_cell_angle_gamma   109.46845271
_symmetry_Int_Tables_number   1
_chemical_formula_structural   Mn9Al8Fe3(SiO4)12
_chemical_formula_sum   'Mn9 Al8 Fe3 Si12 O48'
_cell_volume   805.96846548
_cell_formula_units_Z   1
loop_
 _symmetry_equiv_pos_site_id
 _symmetry_equiv_pos_as_xyz
  1  'x, y, z'
loop_
 _atom_site_type_symbol
 _atom_site_label
 _atom_site_symmetry_multiplicity
 _atom_site_fract_x
 _atom_site_fract_y
 _atom_site_fract_z
 _atom_site_occupancy
  Mn  Mn0  1  0.37535861  0.62535861  0.25000000  1
  Mn  Mn1  1  0.12422858  0.24874600  0.62589596  1
  Mn  Mn2  1  0.37464196  0.75012453  0.87410404  1
  Mn  Mn3  1  0.24984205  0.12484087  0.12519587  1
  Mn  Mn4  1  0.75003673  0.37503791  0.37480413  1
  Mn  Mn5  1  0.87486315  0.12486315  0.25000000  1
  Mn  Mn6  1  0.62513191  0.37513191  0.75000000  1
  Mn  Mn7  1  0.87505143  0.75015766  0.37494757  1
  Mn  Mn8  1  0.62510522  0.24999900  0.12505243  1
  Al  Al9  1  0.50043240  0.99941029  0.00007862  1
  Al  Al10  1  0.49948891  0.50051102  0.49992138  1
  Al  Al11  1  0.00076057  0.50120373  0.99866444  1
  Al  Al12  1  0.99986817  0.99942501  0.50133556  1
  Al  Al13  1  0.50054931  0.50105646  0.99956440  1
  Al  Al14  1  0.49877337  0.99871983  0.50072464  1
  Al  Al15  1  0.00062086  0.50011372  0.50043560  1
  Al  Al16  1  0.99944447  0.99949801  0.99927536  1
  Fe  Fe17  1  0.75027808  0.87498674  0.87494325  1
  Fe  Fe18  1  0.24992998  0.62522133  0.62505675  1
  Fe  Fe19  1  0.12472268  0.87472268  0.75000000  1
  Si  Si20  1  0.75043836  0.62555470  0.12418401  1
  Si  Si21  1  0.24973871  0.87462237  0.37581599  1
  Si  Si22  1  0.37440543  0.12440543  0.75000000  1
  Si  Si23  1  0.12498064  0.37498064  0.25000000  1
  Si  Si24  1  0.87486588  0.24998273  0.87517865  1
  Si  Si25  1  0.62516138  0.75004453  0.62482135  1
  Si  Si26  1  0.24993649  0.37556970  0.87450774  1
  Si  Si27  1  0.75007744  0.12444423  0.62549226  1
  Si  Si28  1  0.62517793  0.87517793  0.25000000  1
  Si  Si29  1  0.87541537  0.62541537  0.75000000  1
  Si  Si30  1  0.12487450  0.75029162  0.12475993  1
  Si  Si31  1  0.37505155  0.24963443  0.37524007  1
  O  O32  1  0.51188062  0.31281215  0.60480535  1
  O  O33  1  0.41761750  0.11668597  0.89519465  1
  O  O34  1  0.08233707  0.18690003  0.30111755  1
  O  O35  1  0.98801758  0.38345462  0.19888245  1
  O  O36  1  0.68693672  0.19977348  0.91732298  1
  O  O37  1  0.88314502  0.30074825  0.01237315  1
  O  O38  1  0.81312140  0.89551817  0.48762685  1
  O  O39  1  0.61709645  0.60425970  0.58267702  1
  O  O40  1  0.80051884  0.48770783  0.11673189  1
  O  O41  1  0.69958752  0.58289860  0.31238987  1
  O  O42  1  0.10443971  0.91725073  0.38326811  1
  O  O43  1  0.39528847  0.01197739  0.18761013  1
  O  O44  1  0.48671792  0.68750636  0.39620426  1
  O  O45  1  0.58371062  0.88292218  0.10379574  1
  O  O46  1  0.91833608  0.81333109  0.70102352  1
  O  O47  1  0.01435461  0.61935960  0.79897648  1
  O  O48  1  0.31271129  0.80005420  0.08285495  1
  O  O49  1  0.11669797  0.70096815  0.98664867  1
  O  O50  1  0.18761682  0.10334664  0.51335133  1
  O  O51  1  0.38290915  0.39556624  0.41714505  1
  O  O52  1  0.19994721  0.51379545  0.88070402  1
  O  O53  1  0.30016345  0.41929263  0.68618316  1
  O  O54  1  0.89449947  0.08065123  0.61929598  1
  O  O55  1  0.60547579  0.98634662  0.81381684  1
  O  O56  1  0.48673667  0.79903191  0.61706058  1
  O  O57  1  0.58403972  0.70093503  0.81233511  1
  O  O58  1  0.91609250  0.10379726  0.88293942  1
  O  O59  1  0.01327013  0.39637482  0.68766489  1
  O  O60  1  0.31290380  0.51274196  0.10415315  1
  O  O61  1  0.11689511  0.41705695  0.39584685  1
  O  O62  1  0.18632888  0.08091553  0.79998948  1
  O  O63  1  0.38090501  0.98631836  0.70001052  1
  O  O64  1  0.19986673  0.68624650  0.41969910  1
  O  O65  1  0.29909688  0.88087035  0.51448566  1
  O  O66  1  0.89535601  0.81358254  0.98551434  1
  O  O67  1  0.60594560  0.61956584  0.08030090  1
  O  O68  1  0.51246925  0.19914066  0.38314443  1
  O  O69  1  0.41762688  0.30082201  0.18703702  1
  O  O70  1  0.08228509  0.89561368  0.11685557  1
  O  O71  1  0.98785903  0.60466390  0.31296298  1
  O  O72  1  0.68738106  0.48756936  0.89543349  1
  O  O73  1  0.88300286  0.58281456  0.60456651  1
  O  O74  1  0.81298008  0.91725350  0.19960371  1
  O  O75  1  0.61685721  0.01258379  0.30039629  1
  O  O76  1  0.80057501  0.31267453  0.58274308  1
  O  O77  1  0.69891302  0.11642946  0.48838697  1
  O  O78  1  0.10481644  0.18730000  0.01161303  1
  O  O79  1  0.39541761  0.38331809  0.91725692  1
