# generated using pymatgen
data_Mn2CoAs2Rh
_symmetry_space_group_name_H-M   'P 1'
_cell_length_a   3.62980132
_cell_length_b   6.26953910
_cell_length_c   11.03239505
_cell_angle_alpha   90.60852060
_cell_angle_beta   90.00000000
_cell_angle_gamma   90.00000000
_symmetry_Int_Tables_number   1
_chemical_formula_structural   Mn2CoAs2Rh
_chemical_formula_sum   'Mn6 Co3 As6 Rh3'
_cell_volume   251.05205461
_cell_formula_units_Z   3
loop_
 _symmetry_equiv_pos_site_id
 _symmetry_equiv_pos_as_xyz
  1  'x, y, z'
loop_
 _atom_site_type_symbol
 _atom_site_label
 _atom_site_symmetry_multiplicity
 _atom_site_fract_x
 _atom_site_fract_y
 _atom_site_fract_z
 _atom_site_occupancy
  Mn  Mn0  1  0.50000000  0.58735972  0.00170144  1
  Mn  Mn1  1  0.50000000  0.09159551  0.49746636  1
  Mn  Mn2  1  0.50000000  0.20771396  0.20630953  1
  Mn  Mn3  1  0.50000000  0.70216094  0.69881622  1
  Mn  Mn4  1  0.50000000  0.70124107  0.29839000  1
  Mn  Mn5  1  0.50000000  0.20485891  0.79826388  1
  Co  Co6  1  -0.00000000  0.26212447  0.00234217  1
  Co  Co7  1  -0.00000000  0.75716036  0.49649257  1
  Co  Co8  1  -0.00000000  0.37259515  0.37057784  1
  As  As9  1  -0.00000000  0.00390113  0.34055185  1
  As  As10  1  -0.00000000  0.48897638  0.83811530  1
  As  As11  1  -0.00000000  0.48778559  0.17078315  1
  As  As12  1  -0.00000000  0.99079970  0.65958890  1
  As  As13  1  0.50000000  0.02047334  0.00199827  1
  As  As14  1  0.50000000  0.50731109  0.49014859  1
  Rh  Rh15  1  -0.00000000  0.87127140  0.86883128  1
  Rh  Rh16  1  -0.00000000  0.86984977  0.13264216  1
  Rh  Rh17  1  -0.00000000  0.37262150  0.62698049  1
