# generated using pymatgen
data_Li4MnCo2O7
_symmetry_space_group_name_H-M   'P 1'
_cell_length_a   4.98741125
_cell_length_b   8.70501955
_cell_length_c   5.96916083
_cell_angle_alpha   91.00339544
_cell_angle_beta   77.55630316
_cell_angle_gamma   93.51305940
_symmetry_Int_Tables_number   1
_chemical_formula_structural   Li4MnCo2O7
_chemical_formula_sum   'Li8 Mn2 Co4 O14'
_cell_volume   252.58817049
_cell_formula_units_Z   2
loop_
 _symmetry_equiv_pos_site_id
 _symmetry_equiv_pos_as_xyz
  1  'x, y, z'
loop_
 _atom_site_type_symbol
 _atom_site_label
 _atom_site_symmetry_multiplicity
 _atom_site_fract_x
 _atom_site_fract_y
 _atom_site_fract_z
 _atom_site_occupancy
  Li  Li0  1  0.56904812  0.15229694  0.36164994  1
  Li  Li1  1  0.14627704  0.29487383  0.20586348  1
  Li  Li2  1  0.99623920  0.99683890  0.50861698  1
  Li  Li3  1  0.43074478  0.85519158  0.64019058  1
  Li  Li4  1  0.71104597  0.42863697  0.07240817  1
  Li  Li5  1  0.29002476  0.56935284  0.92574901  1
  Li  Li6  1  0.85484973  0.70475980  0.78098772  1
  Li  Li7  1  0.70849709  0.42914854  0.57365946  1
  Mn  Mn8  1  0.00064450  0.99902766  0.00023738  1
  Mn  Mn9  1  0.57793485  0.14702303  0.85008065  1
  Co  Co10  1  0.14208633  0.29128889  0.70870572  1
  Co  Co11  1  0.28345098  0.56626079  0.44117312  1
  Co  Co12  1  0.85575510  0.71087140  0.29002790  1
  Co  Co13  1  0.43361499  0.85474526  0.14151451  1
  O  O14  1  0.84115931  0.20063518  0.03986942  1
  O  O15  1  0.42160427  0.34143851  0.88567370  1
  O  O16  1  0.31004811  0.06514828  0.14345718  1
  O  O17  1  0.70523915  0.91214348  0.31366166  1
  O  O18  1  0.01482022  0.48613929  0.74378284  1
  O  O19  1  0.53710503  0.63663214  0.59396477  1
  O  O20  1  0.12661401  0.77357839  0.45615501  1
  O  O21  1  0.30067760  0.08952070  0.67792909  1
  O  O22  1  0.84381376  0.20932955  0.57686629  1
  O  O23  1  0.72446147  0.94127352  0.82293916  1
  O  O24  1  0.16144634  0.79931371  0.97323461  1
  O  O25  1  0.41046546  0.37122803  0.39286706  1
  O  O26  1  0.01916336  0.51841662  0.26220316  1
  O  O27  1  0.58316846  0.65488615  0.11653144  1
