# generated using pymatgen
data_Na3GdTi2Nb2O12
_symmetry_space_group_name_H-M   'P 1'
_cell_length_a   5.46546943
_cell_length_b   5.58773905
_cell_length_c   7.79773366
_cell_angle_alpha   90.10692939
_cell_angle_beta   89.97264535
_cell_angle_gamma   90.49195775
_symmetry_Int_Tables_number   1
_chemical_formula_structural   Na3GdTi2Nb2O12
_chemical_formula_sum   'Na3 Gd1 Ti2 Nb2 O12'
_cell_volume   238.13058095
_cell_formula_units_Z   1
loop_
 _symmetry_equiv_pos_site_id
 _symmetry_equiv_pos_as_xyz
  1  'x, y, z'
loop_
 _atom_site_type_symbol
 _atom_site_label
 _atom_site_symmetry_multiplicity
 _atom_site_fract_x
 _atom_site_fract_y
 _atom_site_fract_z
 _atom_site_occupancy
  Na  Na0  1  0.50731680  0.52543343  0.25147526  1
  Na  Na1  1  0.99637977  0.01823075  0.25018289  1
  Na  Na2  1  0.49270029  0.46664401  0.74983104  1
  Gd  Gd3  1  0.00782671  0.94230317  0.74981211  1
  Ti  Ti4  1  0.50790485  0.98342661  0.99328462  1
  Ti  Ti5  1  0.99499943  0.47868422  0.50564710  1
  Nb  Nb6  1  0.50473277  0.99240929  0.48714204  1
  Nb  Nb7  1  0.99561173  0.47964035  0.01287734  1
  O  O8  1  0.43258323  0.98508007  0.24672331  1
  O  O9  1  0.07799317  0.49015626  0.25298105  1
  O  O10  1  0.58936474  0.02575896  0.75330843  1
  O  O11  1  0.92646417  0.52660281  0.74700208  1
  O  O12  1  0.79337925  0.80200412  0.02419991  1
  O  O13  1  0.71150649  0.29898050  0.46407184  1
  O  O14  1  0.20003851  0.21373764  0.54882055  1
  O  O15  1  0.28045289  0.73384894  0.95034553  1
  O  O16  1  0.20291191  0.21105389  0.95064066  1
  O  O17  1  0.27666306  0.73146853  0.54909905  1
  O  O18  1  0.79576809  0.79939133  0.47449605  1
  O  O19  1  0.70540215  0.29514510  0.03805914  1
