# generated using pymatgen
data_MgHg4Te5
_symmetry_space_group_name_H-M   'P 1'
_cell_length_a   4.70088043
_cell_length_b   16.82767689
_cell_length_c   4.70088043
_cell_angle_alpha   81.97084122
_cell_angle_beta   90.00000000
_cell_angle_gamma   81.97084122
_symmetry_Int_Tables_number   1
_chemical_formula_structural   MgHg4Te5
_chemical_formula_sum   'Mg1 Hg4 Te5'
_cell_volume   364.53555577
_cell_formula_units_Z   1
loop_
 _symmetry_equiv_pos_site_id
 _symmetry_equiv_pos_as_xyz
  1  'x, y, z'
loop_
 _atom_site_type_symbol
 _atom_site_label
 _atom_site_symmetry_multiplicity
 _atom_site_fract_x
 _atom_site_fract_y
 _atom_site_fract_z
 _atom_site_occupancy
  Mg  Mg0  1  0.60000000  0.80000000  0.60000000  1
  Hg  Hg1  1  0.00116219  0.99767562  0.00116219  1
  Hg  Hg2  1  0.40023773  0.19952454  0.40023773  1
  Hg  Hg3  1  0.79976227  0.40047546  0.79976227  1
  Hg  Hg4  1  0.19883781  0.60232438  0.19883781  1
  Te  Te5  1  0.35000000  0.30000000  0.85000000  1
  Te  Te6  1  0.74931464  0.50137072  0.24931464  1
  Te  Te7  1  0.14774195  0.70451611  0.64774195  1
  Te  Te8  1  0.55225805  0.89548389  0.05225805  1
  Te  Te9  1  0.95068536  0.09862928  0.45068536  1
