# generated using pymatgen
data_MgCu2(PO4)2
_symmetry_space_group_name_H-M   'P 1'
_cell_length_a   4.90055865
_cell_length_b   5.33143460
_cell_length_c   6.37823366
_cell_angle_alpha   71.82311555
_cell_angle_beta   86.97815619
_cell_angle_gamma   68.71181445
_symmetry_Int_Tables_number   1
_chemical_formula_structural   MgCu2(PO4)2
_chemical_formula_sum   'Mg1 Cu2 P2 O8'
_cell_volume   147.17955976
_cell_formula_units_Z   1
loop_
 _symmetry_equiv_pos_site_id
 _symmetry_equiv_pos_as_xyz
  1  'x, y, z'
loop_
 _atom_site_type_symbol
 _atom_site_label
 _atom_site_symmetry_multiplicity
 _atom_site_fract_x
 _atom_site_fract_y
 _atom_site_fract_z
 _atom_site_occupancy
  Mg  Mg0  1  0.28005823  0.24361312  0.31106705  1
  Cu  Cu1  1  0.99869751  0.00123870  0.99651398  1
  Cu  Cu2  1  0.72038403  0.77442150  0.68698986  1
  P  P3  1  0.64069883  0.64399864  0.22496147  1
  P  P4  1  0.36021003  0.34989617  0.77831089  1
  O  O5  1  0.61289382  0.84494552  0.36575297  1
  O  O6  1  0.38552694  0.15492896  0.63371892  1
  O  O7  1  0.33344358  0.64111508  0.17494343  1
  O  O8  1  0.66684973  0.35170329  0.82956091  1
  O  O9  1  0.76515420  0.77457486  0.99960715  1
  O  O10  1  0.23545255  0.22340973  0.00039829  1
  O  O11  1  0.84733810  0.34236161  0.33840687  1
  O  O12  1  0.15329247  0.65379281  0.65976821  1
