# generated using pymatgen
data_LiMgSO4F
_symmetry_space_group_name_H-M   'P 1'
_cell_length_a   5.22065725
_cell_length_b   5.47003564
_cell_length_c   7.20803393
_cell_angle_alpha   106.76300051
_cell_angle_beta   107.48068164
_cell_angle_gamma   97.29292817
_symmetry_Int_Tables_number   1
_chemical_formula_structural   LiMgSO4F
_chemical_formula_sum   'Li2 Mg2 S2 O8 F2'
_cell_volume   182.77920487
_cell_formula_units_Z   2
loop_
 _symmetry_equiv_pos_site_id
 _symmetry_equiv_pos_as_xyz
  1  'x, y, z'
loop_
 _atom_site_type_symbol
 _atom_site_label
 _atom_site_symmetry_multiplicity
 _atom_site_fract_x
 _atom_site_fract_y
 _atom_site_fract_z
 _atom_site_occupancy
  Li  Li0  1  0.72524262  0.35925851  0.21130816  1
  Li  Li1  1  0.25351834  0.61977672  0.71464434  1
  Mg  Mg2  1  0.99698690  0.00022881  0.49843341  1
  Mg  Mg3  1  0.00299710  0.99689571  0.99946728  1
  S  S4  1  0.66928464  0.36580914  0.74902546  1
  S  S5  1  0.33142597  0.63620384  0.25127777  1
  O  O6  1  0.87278241  0.34061927  0.64031409  1
  O  O7  1  0.12811013  0.65713367  0.36170016  1
  O  O8  1  0.68280677  0.64724463  0.85398730  1
  O  O9  1  0.31588232  0.35339649  0.14475712  1
  O  O10  1  0.72951110  0.22981942  0.90369271  1
  O  O11  1  0.26966325  0.77190547  0.09854453  1
  O  O12  1  0.38340083  0.25453798  0.59730775  1
  O  O13  1  0.61664257  0.74653243  0.40302606  1
  F  F14  1  0.89183859  0.08245098  0.24334637  1
  F  F15  1  0.10790645  0.91818693  0.75416748  1
