# generated using pymatgen
data_LaNdC4
_symmetry_space_group_name_H-M   'P 1'
_cell_length_a   3.89148020
_cell_length_b   4.27967965
_cell_length_c   6.98268299
_cell_angle_alpha   84.28644472
_cell_angle_beta   73.82022272
_cell_angle_gamma   62.95783452
_symmetry_Int_Tables_number   1
_chemical_formula_structural   LaNdC4
_chemical_formula_sum   'La1 Nd1 C4'
_cell_volume   99.42515693
_cell_formula_units_Z   1
loop_
 _symmetry_equiv_pos_site_id
 _symmetry_equiv_pos_as_xyz
  1  'x, y, z'
loop_
 _atom_site_type_symbol
 _atom_site_label
 _atom_site_symmetry_multiplicity
 _atom_site_fract_x
 _atom_site_fract_y
 _atom_site_fract_z
 _atom_site_occupancy
  La  La0  1  -0.00000000  0.50000000  0.50000000  1
  Nd  Nd1  1  -0.00000000  -0.00000000  0.00000000  1
  C  C2  1  0.60154547  0.60010238  0.19680669  1
  C  C3  1  0.59665897  0.10222787  0.70445419  1
  C  C4  1  0.39845453  0.39989762  0.80319331  1
  C  C5  1  0.40334103  0.89777213  0.29554581  1
