# generated using pymatgen
data_Li2IBr
_symmetry_space_group_name_H-M   'P 1'
_cell_length_a   4.39692261
_cell_length_b   4.39702464
_cell_length_c   7.09190114
_cell_angle_alpha   90.00000000
_cell_angle_beta   89.99948293
_cell_angle_gamma   59.99923236
_symmetry_Int_Tables_number   1
_chemical_formula_structural   Li2IBr
_chemical_formula_sum   'Li2 I1 Br1'
_cell_volume   118.74016985
_cell_formula_units_Z   1
loop_
 _symmetry_equiv_pos_site_id
 _symmetry_equiv_pos_as_xyz
  1  'x, y, z'
loop_
 _atom_site_type_symbol
 _atom_site_label
 _atom_site_symmetry_multiplicity
 _atom_site_fract_x
 _atom_site_fract_y
 _atom_site_fract_z
 _atom_site_occupancy
  Li  Li0  1  0.66664358  0.66667821  0.48131648  1
  Li  Li1  1  0.33335462  0.33332269  0.02098024  1
  I  I2  1  0.33332943  0.33333528  0.62518658  1
  Br  Br3  1  0.66667236  0.66666382  0.12251670  1
