# generated using pymatgen
data_Li3FeIrO5
_symmetry_space_group_name_H-M   'P 1'
_cell_length_a   5.18168213
_cell_length_b   6.68295131
_cell_length_c   5.98694574
_cell_angle_alpha   76.14560669
_cell_angle_beta   73.05739466
_cell_angle_gamma   97.44274295
_symmetry_Int_Tables_number   1
_chemical_formula_structural   Li3FeIrO5
_chemical_formula_sum   'Li6 Fe2 Ir2 O10'
_cell_volume   188.06722177
_cell_formula_units_Z   2
loop_
 _symmetry_equiv_pos_site_id
 _symmetry_equiv_pos_as_xyz
  1  'x, y, z'
loop_
 _atom_site_type_symbol
 _atom_site_label
 _atom_site_symmetry_multiplicity
 _atom_site_fract_x
 _atom_site_fract_y
 _atom_site_fract_z
 _atom_site_occupancy
  Li  Li0  1  0.78549520  0.60889604  0.40132385  1
  Li  Li1  1  0.59201677  0.19906085  0.79969704  1
  Li  Li2  1  0.40000000  0.80000000  0.20000000  1
  Li  Li3  1  0.20798323  0.40093915  0.60030296  1
  Li  Li4  1  0.01450480  0.99110396  0.99867615  1
  Li  Li5  1  0.40000000  0.80000000  0.70000000  1
  Fe  Fe6  1  0.59501149  0.18680778  0.31206658  1
  Fe  Fe7  1  0.20498851  0.41319222  0.08793342  1
  Ir  Ir8  1  0.99571133  0.99070350  0.50909485  1
  Ir  Ir9  1  0.80428867  0.60929650  0.89090515  1
  O  O10  1  0.50126450  0.49899178  0.76180199  1
  O  O11  1  0.29058761  0.10505152  0.16842922  1
  O  O12  1  0.09523169  0.70127128  0.55185797  1
  O  O13  1  0.89339873  0.31573463  0.95990567  1
  O  O14  1  0.70545084  0.91069014  0.35250300  1
  O  O15  1  0.90660127  0.28426537  0.44009433  1
  O  O16  1  0.70476831  0.89872872  0.84814203  1
  O  O17  1  0.50941239  0.49494848  0.23157078  1
  O  O18  1  0.29873550  0.10100822  0.63819801  1
  O  O19  1  0.09454916  0.68930986  0.04749700  1
