# generated using pymatgen
data_Li3(WO3)8
_symmetry_space_group_name_H-M   'P 1'
_cell_length_a   6.54020691
_cell_length_b   6.54020691
_cell_length_c   10.79592370
_cell_angle_alpha   90.09247875
_cell_angle_beta   89.90752125
_cell_angle_gamma   109.56538422
_symmetry_Int_Tables_number   1
_chemical_formula_structural   Li3(WO3)8
_chemical_formula_sum   'Li3 W8 O24'
_cell_volume   435.12362746
_cell_formula_units_Z   1
loop_
 _symmetry_equiv_pos_site_id
 _symmetry_equiv_pos_as_xyz
  1  'x, y, z'
loop_
 _atom_site_type_symbol
 _atom_site_label
 _atom_site_symmetry_multiplicity
 _atom_site_fract_x
 _atom_site_fract_y
 _atom_site_fract_z
 _atom_site_occupancy
  Li  Li0  1  0.00073703  0.99926297  0.50035757  1
  Li  Li1  1  0.49926297  0.50073703  0.99964243  1
  Li  Li2  1  0.25000000  0.75000000  0.25000000  1
  W  W3  1  0.75000000  0.75000000  0.25000000  1
  W  W4  1  0.25000000  0.25000000  0.75000000  1
  W  W5  1  0.99811906  0.49560451  0.50325352  1
  W  W6  1  0.50188094  0.00439549  0.99674648  1
  W  W7  1  0.50439549  0.00188094  0.50325352  1
  W  W8  1  0.99560451  0.49811906  0.99674648  1
  W  W9  1  0.25000000  0.25000000  0.25000000  1
  W  W10  1  0.75000000  0.75000000  0.75000000  1
  O  O11  1  0.54343952  0.45656048  0.25078290  1
  O  O12  1  0.04098822  0.95901178  0.75213945  1
  O  O13  1  0.75093360  0.24906640  0.04779058  1
  O  O14  1  0.25238055  0.74761945  0.53888536  1
  O  O15  1  0.74906640  0.25093360  0.45220942  1
  O  O16  1  0.24761945  0.75238055  0.96111464  1
  O  O17  1  0.95656048  0.04343952  0.24921710  1
  O  O18  1  0.45901178  0.54098822  0.74786055  1
  O  O19  1  0.30258374  0.10250051  0.39759142  1
  O  O20  1  0.79929632  0.60575122  0.90915109  1
  O  O21  1  0.89749949  0.69741626  0.39759142  1
  O  O22  1  0.39424878  0.20070368  0.90915109  1
  O  O23  1  0.60250051  0.80258374  0.10240858  1
  O  O24  1  0.10575122  0.29929632  0.59084891  1
  O  O25  1  0.19741626  0.39749949  0.10240858  1
  O  O26  1  0.70070368  0.89424878  0.59084891  1
  O  O27  1  0.15465309  0.45023076  0.34973211  1
  O  O28  1  0.64824188  0.94393245  0.86092609  1
  O  O29  1  0.95023076  0.65465309  0.15026789  1
  O  O30  1  0.44393245  0.14824188  0.63907391  1
  O  O31  1  0.54976924  0.84534691  0.34973211  1
  O  O32  1  0.05606755  0.35175812  0.86092609  1
  O  O33  1  0.34534691  0.04976924  0.15026789  1
  O  O34  1  0.85175812  0.55606755  0.63907391  1
