# generated using pymatgen
data_LaYb(Mo3S4)4
_symmetry_space_group_name_H-M   'P 1'
_cell_length_a   6.53687067
_cell_length_b   6.52869559
_cell_length_c   13.16261859
_cell_angle_alpha   88.88833559
_cell_angle_beta   89.21961927
_cell_angle_gamma   88.94628304
_symmetry_Int_Tables_number   1
_chemical_formula_structural   LaYb(Mo3S4)4
_chemical_formula_sum   'La1 Yb1 Mo12 S16'
_cell_volume   561.49408199
_cell_formula_units_Z   1
loop_
 _symmetry_equiv_pos_site_id
 _symmetry_equiv_pos_as_xyz
  1  'x, y, z'
loop_
 _atom_site_type_symbol
 _atom_site_label
 _atom_site_symmetry_multiplicity
 _atom_site_fract_x
 _atom_site_fract_y
 _atom_site_fract_z
 _atom_site_occupancy
  La  La0  1  0.00000000  -0.00000000  0.00000000  1
  Yb  Yb1  1  0.00000000  -0.00000000  0.50000000  1
  Mo  Mo2  1  0.58070342  0.77379890  0.22010636  1
  Mo  Mo3  1  0.58025229  0.77305406  0.71879085  1
  Mo  Mo4  1  0.77245128  0.43976456  0.29046837  1
  Mo  Mo5  1  0.77134632  0.43748072  0.78927505  1
  Mo  Mo6  1  0.43861283  0.58198713  0.38892022  1
  Mo  Mo7  1  0.43713040  0.58185573  0.88774802  1
  Mo  Mo8  1  0.41974771  0.22694594  0.28120915  1
  Mo  Mo9  1  0.41929658  0.22620110  0.77989364  1
  Mo  Mo10  1  0.22865368  0.56251928  0.21072495  1
  Mo  Mo11  1  0.22754872  0.56023544  0.70953163  1
  Mo  Mo12  1  0.56286960  0.41814427  0.11225198  1
  Mo  Mo13  1  0.56138717  0.41801287  0.61107978  1
  S  S14  1  0.62450403  0.25476459  0.43680510  1
  S  S15  1  0.62314851  0.25316099  0.93660527  1
  S  S16  1  0.25326691  0.87340069  0.31270620  1
  S  S17  1  0.25123113  0.87302326  0.81174535  1
  S  S18  1  0.87247803  0.62383166  0.12536034  1
  S  S19  1  0.87232362  0.62394193  0.62589701  1
  S  S20  1  0.37685149  0.74683901  0.06339473  1
  S  S21  1  0.37549597  0.74523541  0.56319490  1
  S  S22  1  0.74876887  0.12697674  0.18825465  1
  S  S23  1  0.74673309  0.12659931  0.68729380  1
  S  S24  1  0.12767638  0.37605807  0.37410299  1
  S  S25  1  0.12752197  0.37616834  0.87463966  1
  S  S26  1  0.75700719  0.75956425  0.37979098  1
  S  S27  1  0.75442033  0.75749116  0.87832185  1
  S  S28  1  0.24557967  0.24250884  0.12167815  1
  S  S29  1  0.24299281  0.24043575  0.62020902  1
