# generated using pymatgen
data_Li4MnCo2O7
_symmetry_space_group_name_H-M   'P 1'
_cell_length_a   2.95014336
_cell_length_b   9.83508645
_cell_length_c   9.77305367
_cell_angle_alpha   65.15921958
_cell_angle_beta   83.25276953
_cell_angle_gamma   92.78692934
_symmetry_Int_Tables_number   1
_chemical_formula_structural   Li4MnCo2O7
_chemical_formula_sum   'Li8 Mn2 Co4 O14'
_cell_volume   254.03154891
_cell_formula_units_Z   2
loop_
 _symmetry_equiv_pos_site_id
 _symmetry_equiv_pos_as_xyz
  1  'x, y, z'
loop_
 _atom_site_type_symbol
 _atom_site_label
 _atom_site_symmetry_multiplicity
 _atom_site_fract_x
 _atom_site_fract_y
 _atom_site_fract_z
 _atom_site_occupancy
  Li  Li0  1  0.92778553  0.21929067  0.13477560  1
  Li  Li1  1  0.20381921  0.35133533  0.58366628  1
  Li  Li2  1  0.50864260  0.50332511  0.99381951  1
  Li  Li3  1  0.78238688  0.63963362  0.43473988  1
  Li  Li4  1  0.08222566  0.78462101  0.85230130  1
  Li  Li5  1  0.36017412  0.92784589  0.28573563  1
  Li  Li6  1  0.62852048  0.07974974  0.71690553  1
  Li  Li7  1  0.58669484  0.28458780  0.84839098  1
  Mn  Mn8  1  0.00154855  0.01128688  0.99181367  1
  Mn  Mn9  1  0.28657084  0.14063905  0.43030180  1
  Co  Co10  1  0.85578890  0.42890041  0.28768767  1
  Co  Co11  1  0.13816503  0.55863737  0.72225490  1
  Co  Co12  1  0.42137483  0.71588807  0.14334668  1
  Co  Co13  1  0.71898949  0.85220580  0.57495360  1
  O  O14  1  0.48322819  0.09526178  0.06328365  1
  O  O15  1  0.71514145  0.24872423  0.49354196  1
  O  O16  1  0.04327109  0.41574621  0.90764527  1
  O  O17  1  0.31756384  0.53034904  0.34766658  1
  O  O18  1  0.58081379  0.67963799  0.77515275  1
  O  O19  1  0.87963401  0.82188211  0.20148844  1
  O  O20  1  0.19503509  0.96131642  0.63216738  1
  O  O21  1  0.40107217  0.32210511  0.22277382  1
  O  O22  1  0.70247906  0.47401341  0.64759492  1
  O  O23  1  0.96878086  0.61543336  0.07914748  1
  O  O24  1  0.23834932  0.73832788  0.52171093  1
  O  O25  1  0.51055784  0.90510904  0.93921426  1
  O  O26  1  0.86120161  0.02832803  0.36707459  1
  O  O27  1  0.10018474  0.16581866  0.80084494  1
