# generated using pymatgen
data_La12Sn5S28
_symmetry_space_group_name_H-M   'P 1'
_cell_length_a   10.38468403
_cell_length_b   12.02112715
_cell_length_c   12.01812836
_cell_angle_alpha   60.63722551
_cell_angle_beta   115.58709450
_cell_angle_gamma   115.58337826
_symmetry_Int_Tables_number   1
_chemical_formula_structural   La12Sn5S28
_chemical_formula_sum   'La12 Sn5 S28'
_cell_volume   1132.16534429
_cell_formula_units_Z   1
loop_
 _symmetry_equiv_pos_site_id
 _symmetry_equiv_pos_as_xyz
  1  'x, y, z'
loop_
 _atom_site_type_symbol
 _atom_site_label
 _atom_site_symmetry_multiplicity
 _atom_site_fract_x
 _atom_site_fract_y
 _atom_site_fract_z
 _atom_site_occupancy
  La  La0  1  0.86537969  0.98572010  0.24548891  1
  La  La1  1  0.86849844  0.46079777  0.75380044  1
  La  La2  1  0.78440223  0.18094643  0.47337095  1
  La  La3  1  0.77047439  0.68688254  0.94667530  1
  La  La4  1  0.36581947  0.93846027  0.19899633  1
  La  La5  1  0.34626721  0.41877686  0.71119347  1
  La  La6  1  0.12922296  0.01166969  0.77184948  1
  La  La7  1  0.13945027  0.49095288  0.28241133  1
  La  La8  1  0.22669229  0.78793712  0.57996103  1
  La  La9  1  0.21602080  0.29234690  0.05188509  1
  La  La10  1  0.65500516  0.05528818  0.81526809  1
  La  La11  1  0.63322093  0.53479022  0.32666972  1
  Sn  Sn12  1  0.33460359  0.15680140  0.51238228  1
  Sn  Sn13  1  0.33170628  0.65546854  0.00772223  1
  Sn  Sn14  1  0.66911799  0.74156127  0.59272653  1
  Sn  Sn15  1  0.66411486  0.24191175  0.09025482  1
  Sn  Sn16  1  0.00004241  0.75070014  0.24919923  1
  S  S17  1  0.15268808  0.98817250  0.25567072  1
  S  S18  1  0.16142047  0.50634511  0.75670796  1
  S  S19  1  0.73738647  0.32474199  0.57402105  1
  S  S20  1  0.75652643  0.82054832  0.08855611  1
  S  S21  1  0.10150265  0.29456157  0.54429293  1
  S  S22  1  0.09103798  0.78979291  0.05742896  1
  S  S23  1  0.83759419  0.99078340  0.74628701  1
  S  S24  1  0.85268442  0.51679092  0.24147407  1
  S  S25  1  0.24202176  0.68505636  0.41010160  1
  S  S26  1  0.26244973  0.17243517  0.92745998  1
  S  S27  1  0.90526014  0.71115306  0.43651811  1
  S  S28  1  0.90071334  0.20410387  0.95845220  1
  S  S29  1  0.57825540  0.03578685  0.05364337  1
  S  S30  1  0.57457977  0.53631785  0.55573882  1
  S  S31  1  0.90529655  0.23691844  0.25446341  1
  S  S32  1  0.91189265  0.72965836  0.75018255  1
  S  S33  1  0.52042052  0.20545196  0.22555351  1
  S  S34  1  0.50877817  0.69848025  0.71674655  1
  S  S35  1  0.42583687  0.19364180  0.71660612  1
  S  S36  1  0.42360957  0.69349278  0.21396185  1
  S  S37  1  0.09117976  0.99709604  0.51806012  1
  S  S38  1  0.09025652  0.49698584  0.01941281  1
  S  S39  1  0.48283929  0.02622444  0.54755907  1
  S  S40  1  0.48575898  0.52712739  0.04927895  1
  S  S41  1  0.33769980  0.85767655  0.81929481  1
  S  S42  1  0.32891103  0.34581042  0.31007659  1
  S  S43  1  0.66751700  0.93787967  0.39791432  1
  S  S44  1  0.66584352  0.43595412  0.89468121  1
