# generated using pymatgen
data_La(CoP3)20
_symmetry_space_group_name_H-M   'P 1'
_cell_length_a   6.71103214
_cell_length_b   6.71103214
_cell_length_c   27.67851200
_cell_angle_alpha   85.33718625
_cell_angle_beta   85.38290735
_cell_angle_gamma   109.43475076
_symmetry_Int_Tables_number   1
_chemical_formula_structural   La(CoP3)20
_chemical_formula_sum   'La1 Co20 P60'
_cell_volume   1163.96864970
_cell_formula_units_Z   1
loop_
 _symmetry_equiv_pos_site_id
 _symmetry_equiv_pos_as_xyz
  1  'x, y, z'
loop_
 _atom_site_type_symbol
 _atom_site_label
 _atom_site_symmetry_multiplicity
 _atom_site_fract_x
 _atom_site_fract_y
 _atom_site_fract_z
 _atom_site_occupancy
  La  La0  1  -0.00000000  0.00000000  -0.00000000  1
  Co  Co1  1  0.70124571  0.70196058  0.10014895  1
  Co  Co2  1  0.09999750  0.10009893  0.30003073  1
  Co  Co3  1  0.50000000  0.50000000  0.50000000  1
  Co  Co4  1  0.90000250  0.89990107  0.69996927  1
  Co  Co5  1  0.29875429  0.29803942  0.89985105  1
  Co  Co6  1  0.50000000  0.00000000  -0.00000000  1
  Co  Co7  1  0.89978277  0.39897197  0.20040457  1
  Co  Co8  1  0.29993670  0.79999500  0.40005909  1
  Co  Co9  1  0.70006330  0.20000500  0.59994091  1
  Co  Co10  1  0.10021723  0.60102803  0.79959543  1
  Co  Co11  1  -0.00000000  0.50000000  -0.00000000  1
  Co  Co12  1  0.40062347  0.89981266  0.20040457  1
  Co  Co13  1  0.79994591  0.30000421  0.40005909  1
  Co  Co14  1  0.20005409  0.69999579  0.59994091  1
  Co  Co15  1  0.59937653  0.10018734  0.79959543  1
  Co  Co16  1  0.19789047  0.19860534  0.10014895  1
  Co  Co17  1  0.59987033  0.59997176  0.30003073  1
  Co  Co18  1  -0.00000000  0.00000000  0.50000000  1
  Co  Co19  1  0.40012967  0.40002824  0.69996927  1
  Co  Co20  1  0.80210953  0.80139466  0.89985105  1
  P  P21  1  0.75203293  0.40873351  0.13176068  1
  P  P22  1  0.15482981  0.80649049  0.33026867  1
  P  P23  1  0.55515016  0.20637077  0.53024360  1
  P  P24  1  0.95537272  0.60667289  0.72985525  1
  P  P25  1  0.36458381  0.00434620  0.92782333  1
  P  P26  1  0.63541619  0.99565380  0.07217667  1
  P  P27  1  0.04462728  0.39332711  0.27014475  1
  P  P28  1  0.44484984  0.79362923  0.46975640  1
  P  P29  1  0.84517019  0.19350951  0.66973133  1
  P  P30  1  0.24796707  0.59126649  0.86823932  1
  P  P31  1  0.45950581  0.11620639  0.13176068  1
  P  P32  1  0.86324084  0.51490152  0.33026867  1
  P  P33  1  0.26338563  0.91460624  0.53024360  1
  P  P34  1  0.66347186  0.31477203  0.72985525  1
  P  P35  1  0.06783047  0.70759286  0.92782333  1
  P  P36  1  0.93216953  0.29240714  0.07217667  1
  P  P37  1  0.33652814  0.68522797  0.27014475  1
  P  P38  1  0.73661437  0.08539376  0.46975640  1
  P  P39  1  0.13675916  0.48509848  0.66973133  1
  P  P40  1  0.54049419  0.88379361  0.86823932  1
  P  P41  1  0.70630073  0.55573125  0.03031845  1
  P  P42  1  0.10916999  0.96334627  0.22927858  1
  P  P43  1  0.50946176  0.36360916  0.42913056  1
  P  P44  1  0.90941144  0.76344822  0.62920547  1
  P  P45  1  0.30815786  0.16184894  0.82879999  1
  P  P46  1  0.69184214  0.83815106  0.17120001  1
  P  P47  1  0.09058856  0.23655178  0.37079453  1
  P  P48  1  0.49053824  0.63639084  0.57086944  1
  P  P49  1  0.89083001  0.03665373  0.77072142  1
  P  P50  1  0.29369927  0.44426875  0.96968155  1
  P  P51  1  0.99064893  0.13695785  0.17120001  1
  P  P52  1  0.39265368  0.53861690  0.37079453  1
  P  P53  1  0.79273972  0.93859232  0.57086944  1
  P  P54  1  0.19262486  0.33844857  0.77072142  1
  P  P55  1  0.58604971  0.73661918  0.96968155  1
  P  P56  1  0.41395029  0.26338082  0.03031845  1
  P  P57  1  0.80737514  0.66155143  0.22927858  1
  P  P58  1  0.20726028  0.06140768  0.42913056  1
  P  P59  1  0.60734632  0.46138310  0.62920547  1
  P  P60  1  0.00935107  0.86304215  0.82879999  1
  P  P61  1  0.17579174  0.66309830  0.16110997  1
  P  P62  1  0.57290749  0.06764482  0.35944769  1
  P  P63  1  0.97281798  0.46776128  0.55942074  1
  P  P64  1  0.37260187  0.86850043  0.75889770  1
  P  P65  1  0.76670486  0.27571940  0.95757574  1
  P  P66  1  0.23329514  0.72428060  0.04242426  1
  P  P67  1  0.62739813  0.13149957  0.24110230  1
  P  P68  1  0.02718202  0.53223872  0.44057926  1
  P  P69  1  0.42709251  0.93235518  0.64055231  1
  P  P70  1  0.82420826  0.33690170  0.83889003  1
  P  P71  1  0.35019883  0.54749937  0.10230179  1
  P  P72  1  0.74803502  0.95088775  0.30107723  1
  P  P73  1  0.14793719  0.35101116  0.50105165  1
  P  P74  1  0.54786088  0.75115137  0.70098775  1
  P  P75  1  0.94541032  0.15643807  0.89815162  1
  P  P76  1  0.05458968  0.84356193  0.10184838  1
  P  P77  1  0.45213912  0.24884863  0.29901225  1
  P  P78  1  0.85206281  0.64898884  0.49894835  1
  P  P79  1  0.25196498  0.04911225  0.69892277  1
  P  P80  1  0.64980117  0.45250063  0.89769821  1
