# generated using pymatgen
data_La6Si2NiS14
_symmetry_space_group_name_H-M   'P 1'
_cell_length_a   5.78470918
_cell_length_b   10.31342196
_cell_length_c   10.31407643
_cell_angle_alpha   60.01857038
_cell_angle_beta   89.98264320
_cell_angle_gamma   89.97908071
_symmetry_Int_Tables_number   1
_chemical_formula_structural   La6Si2NiS14
_chemical_formula_sum   'La6 Si2 Ni1 S14'
_cell_volume   532.99912818
_cell_formula_units_Z   1
loop_
 _symmetry_equiv_pos_site_id
 _symmetry_equiv_pos_as_xyz
  1  'x, y, z'
loop_
 _atom_site_type_symbol
 _atom_site_label
 _atom_site_symmetry_multiplicity
 _atom_site_fract_x
 _atom_site_fract_y
 _atom_site_fract_z
 _atom_site_occupancy
  La  La0  1  0.25269504  0.23344918  0.12114848  1
  La  La1  1  0.25272885  0.64540611  0.23344594  1
  La  La2  1  0.25270415  0.12116878  0.64544680  1
  La  La3  1  0.75015523  0.76858654  0.87760930  1
  La  La4  1  0.75003396  0.35376109  0.76853594  1
  La  La5  1  0.75000229  0.87766799  0.35373132  1
  Si  Si6  1  0.83437401  0.33321909  0.33366753  1
  Si  Si7  1  0.33798991  0.66675955  0.66633202  1
  Ni  Ni8  1  0.48757372  0.99995945  0.00015126  1
  S  S9  1  0.47163422  0.33337611  0.33330460  1
  S  S10  1  0.97287883  0.66663188  0.66665526  1
  S  S11  1  0.72244138  0.15467241  0.08199207  1
  S  S12  1  0.72203485  0.76394325  0.15423698  1
  S  S13  1  0.72191115  0.08173120  0.76407011  1
  S  S14  1  0.25932773  0.84289566  0.92113253  1
  S  S15  1  0.25987193  0.23539923  0.84326108  1
  S  S16  1  0.25995655  0.92143766  0.23519892  1
  S  S17  1  0.97511352  0.11477100  0.40826140  1
  S  S18  1  0.97527050  0.47725732  0.11448802  1
  S  S19  1  0.97516392  0.40808938  0.47691526  1
  S  S20  1  0.47726318  0.88508617  0.58958885  1
  S  S21  1  0.47751445  0.52501652  0.88549711  1
  S  S22  1  0.47736063  0.58971447  0.52532925  1
