# generated using pymatgen
data_Li4MnCo2O7
_symmetry_space_group_name_H-M   'P 1'
_cell_length_a   4.99350771
_cell_length_b   5.06063558
_cell_length_c   10.62187841
_cell_angle_alpha   84.14798999
_cell_angle_beta   99.79380267
_cell_angle_gamma   107.26404618
_symmetry_Int_Tables_number   1
_chemical_formula_structural   Li4MnCo2O7
_chemical_formula_sum   'Li8 Mn2 Co4 O14'
_cell_volume   252.21149057
_cell_formula_units_Z   2
loop_
 _symmetry_equiv_pos_site_id
 _symmetry_equiv_pos_as_xyz
  1  'x, y, z'
loop_
 _atom_site_type_symbol
 _atom_site_label
 _atom_site_symmetry_multiplicity
 _atom_site_fract_x
 _atom_site_fract_y
 _atom_site_fract_z
 _atom_site_occupancy
  Li  Li0  1  0.07587042  0.50130187  0.14901270  1
  Li  Li1  1  0.64717366  0.49818906  0.29385905  1
  Li  Li2  1  0.22690862  0.51213855  0.43276618  1
  Li  Li3  1  0.77757965  0.50379394  0.56238810  1
  Li  Li4  1  0.35320890  0.49737463  0.71411825  1
  Li  Li5  1  0.91805234  0.49125618  0.84956872  1
  Li  Li6  1  0.50389090  0.49898620  0.00013673  1
  Li  Li7  1  0.70807066  0.99738179  0.42800974  1
  Mn  Mn8  1  0.00336384  0.00426942  0.99969664  1
  Mn  Mn9  1  0.58030597  0.00388979  0.14807667  1
  Co  Co10  1  0.14143019  0.99795749  0.29105398  1
  Co  Co11  1  0.27983148  0.99303367  0.56420100  1
  Co  Co12  1  0.85325897  0.99544347  0.71028207  1
  Co  Co13  1  0.43450455  0.00396154  0.85614812  1
  O  O14  1  0.76347561  0.24122068  0.00803093  1
  O  O15  1  0.33496115  0.23033440  0.15614751  1
  O  O16  1  0.87415193  0.20910102  0.27218063  1
  O  O17  1  0.44557594  0.23894694  0.43967083  1
  O  O18  1  0.04730589  0.21650697  0.58182866  1
  O  O19  1  0.61278603  0.22598272  0.72084010  1
  O  O20  1  0.19818047  0.23570269  0.86539012  1
  O  O21  1  0.38646254  0.76998045  0.27525029  1
  O  O22  1  0.97870034  0.76404083  0.42010806  1
  O  O23  1  0.50091954  0.77008719  0.57113571  1
  O  O24  1  0.09019824  0.76734078  0.70778752  1
  O  O25  1  0.67300406  0.77226842  0.84737267  1
  O  O26  1  0.28265587  0.79414270  0.00401778  1
  O  O27  1  0.80817221  0.76536660  0.13092125  1
