# generated using pymatgen
data_In2AgSe3Cl
_symmetry_space_group_name_H-M   'P 1'
_cell_length_a   8.20708608
_cell_length_b   8.20708608
_cell_length_c   8.06875941
_cell_angle_alpha   90.00000000
_cell_angle_beta   59.43125893
_cell_angle_gamma   120.00000000
_symmetry_Int_Tables_number   1
_chemical_formula_structural   In2AgSe3Cl
_chemical_formula_sum   'In4 Ag2 Se6 Cl2'
_cell_volume   380.96259505
_cell_formula_units_Z   2
loop_
 _symmetry_equiv_pos_site_id
 _symmetry_equiv_pos_as_xyz
  1  'x, y, z'
loop_
 _atom_site_type_symbol
 _atom_site_label
 _atom_site_symmetry_multiplicity
 _atom_site_fract_x
 _atom_site_fract_y
 _atom_site_fract_z
 _atom_site_occupancy
  In  In0  1  0.75000000  0.37500000  0.87500000  1
  In  In1  1  0.25000000  0.37500000  0.37500000  1
  In  In2  1  0.25000000  0.87500000  0.37500000  1
  In  In3  1  0.75000000  0.37500000  0.37500000  1
  Ag  Ag4  1  0.54624223  0.77312112  0.68063665  1
  Ag  Ag5  1  0.95375777  0.97687888  0.06936335  1
  Se  Se6  1  0.72465256  0.13356780  0.14177964  1
  Se  Se7  1  0.72465256  0.59108476  0.14177964  1
  Se  Se8  1  0.26713560  0.13356780  0.14177964  1
  Se  Se9  1  0.77534744  0.61643220  0.60822036  1
  Se  Se10  1  0.77534744  0.15891524  0.60822036  1
  Se  Se11  1  0.23286440  0.61643220  0.60822036  1
  Cl  Cl12  1  0.25167960  0.12583980  0.62248061  1
  Cl  Cl13  1  0.24832040  0.62416020  0.12751939  1
