# generated using pymatgen
data_La3Si3Ni
_symmetry_space_group_name_H-M   'P 1'
_cell_length_a   4.08436605
_cell_length_b   4.38759187
_cell_length_c   9.60910663
_cell_angle_alpha   76.80276776
_cell_angle_beta   77.72958849
_cell_angle_gamma   90.00000000
_symmetry_Int_Tables_number   1
_chemical_formula_structural   La3Si3Ni
_chemical_formula_sum   'La3 Si3 Ni1'
_cell_volume   163.60932563
_cell_formula_units_Z   1
loop_
 _symmetry_equiv_pos_site_id
 _symmetry_equiv_pos_as_xyz
  1  'x, y, z'
loop_
 _atom_site_type_symbol
 _atom_site_label
 _atom_site_symmetry_multiplicity
 _atom_site_fract_x
 _atom_site_fract_y
 _atom_site_fract_z
 _atom_site_occupancy
  La  La0  1  0.68380730  0.18380730  0.63238541  1
  La  La1  1  0.31877981  0.81877981  0.36244038  1
  La  La2  1  0.99918864  0.99918864  0.00162272  1
  Si  Si3  1  0.86712092  0.36712092  0.26575815  1
  Si  Si4  1  0.13698211  0.63698211  0.72603577  1
  Si  Si5  1  0.55963155  0.55963155  0.88073691  1
  Ni  Ni6  1  0.43448967  0.43448967  0.13102067  1
