# generated using pymatgen
data_Mg3CoB8P8(H8O13)4
_symmetry_space_group_name_H-M   'P 1'
_cell_length_a   7.85873292
_cell_length_b   8.45492230
_cell_length_c   14.76303077
_cell_angle_alpha   90.03061822
_cell_angle_beta   90.03111816
_cell_angle_gamma   90.23639288
_symmetry_Int_Tables_number   1
_chemical_formula_structural   Mg3CoB8P8(H8O13)4
_chemical_formula_sum   'Mg3 Co1 B8 P8 H32 O52'
_cell_volume   980.92059446
_cell_formula_units_Z   1
loop_
 _symmetry_equiv_pos_site_id
 _symmetry_equiv_pos_as_xyz
  1  'x, y, z'
loop_
 _atom_site_type_symbol
 _atom_site_label
 _atom_site_symmetry_multiplicity
 _atom_site_fract_x
 _atom_site_fract_y
 _atom_site_fract_z
 _atom_site_occupancy
  Mg  Mg0  1  0.24923511  0.80267308  0.53477281  1
  Mg  Mg1  1  0.24926627  0.30284354  0.96529371  1
  Mg  Mg2  1  0.75070205  0.19730760  0.46514675  1
  Co  Co3  1  0.75006359  0.69757760  0.03487850  1
  B  B4  1  0.58238493  0.72667391  0.83336815  1
  B  B5  1  0.41756636  0.77342458  0.33351666  1
  B  B6  1  0.41755377  0.27329382  0.16664324  1
  B  B7  1  0.58243739  0.22664599  0.66657354  1
  B  B8  1  0.08295329  0.44009957  0.78182568  1
  B  B9  1  0.91704403  0.05988905  0.28188131  1
  B  B10  1  0.91705713  0.56011487  0.21802953  1
  B  B11  1  0.08303452  0.94029875  0.71783687  1
  P  P12  1  0.43093258  0.43580458  0.78667204  1
  P  P13  1  0.56907026  0.06405303  0.28672045  1
  P  P14  1  0.56868676  0.56426963  0.21348044  1
  P  P15  1  0.43095871  0.93596922  0.71304675  1
  P  P16  1  0.93121876  0.22402554  0.66287132  1
  P  P17  1  0.06849627  0.27606748  0.16296849  1
  P  P18  1  0.06874037  0.77611133  0.33705040  1
  P  P19  1  0.93198588  0.72401167  0.83701463  1
  H  H20  1  0.64204108  0.68993005  0.61632819  1
  H  H21  1  0.35766642  0.80985811  0.11623037  1
  H  H22  1  0.35791023  0.31005318  0.38366035  1
  H  H23  1  0.64251615  0.18975357  0.88402226  1
  H  H24  1  0.77494339  0.49906677  0.39736253  1
  H  H25  1  0.22500638  0.00090713  0.89739288  1
  H  H26  1  0.22501766  0.50095124  0.60267230  1
  H  H27  1  0.77542090  0.99669700  0.10302605  1
  H  H28  1  0.03503374  0.72371023  0.13125391  1
  H  H29  1  0.96527481  0.77750082  0.63164662  1
  H  H30  1  0.96538108  0.27741107  0.86823248  1
  H  H31  1  0.03483458  0.22256942  0.36828565  1
  H  H32  1  0.85535944  0.88557993  0.47359394  1
  H  H33  1  0.14530859  0.61473580  0.97353970  1
  H  H34  1  0.14467029  0.11444805  0.52639307  1
  H  H35  1  0.85465479  0.38645226  0.02708780  1
  H  H36  1  0.72353756  0.92189706  0.55177110  1
  H  H37  1  0.27707479  0.57820578  0.05196506  1
  H  H38  1  0.27651289  0.07808956  0.44823608  1
  H  H39  1  0.72460641  0.42336345  0.94789285  1
  H  H40  1  0.75422723  0.51582385  0.50419887  1
  H  H41  1  0.24585991  0.98421143  0.00422993  1
  H  H42  1  0.24578630  0.48418467  0.49581989  1
  H  H43  1  0.75504629  0.01500989  0.99531270  1
  H  H44  1  0.45675593  0.66848968  0.95063718  1
  H  H45  1  0.54324683  0.82977170  0.45018850  1
  H  H46  1  0.54315950  0.32962439  0.04989822  1
  H  H47  1  0.45676272  0.17028435  0.54986063  1
  H  H48  1  0.77522440  0.57433936  0.65588641  1
  H  H49  1  0.22496776  0.92578309  0.15594178  1
  H  H50  1  0.22471804  0.42556108  0.34413326  1
  H  H51  1  0.77516847  0.07416110  0.84401611  1
  O  O52  1  0.75293881  0.28908946  0.68981398  1
  O  O53  1  0.24698968  0.21103556  0.18970649  1
  O  O54  1  0.24714649  0.71096611  0.31022220  1
  O  O55  1  0.75323018  0.78888612  0.81096661  1
  O  O56  1  0.95396900  0.06922884  0.71924199  1
  O  O57  1  0.04563023  0.43065518  0.21948548  1
  O  O58  1  0.04603602  0.93085101  0.28066381  1
  O  O59  1  0.95384808  0.56917977  0.78049235  1
  O  O60  1  0.75680906  0.43951767  0.45310904  1
  O  O61  1  0.24307224  0.06052295  0.95313727  1
  O  O62  1  0.24324117  0.56048385  0.54690801  1
  O  O63  1  0.75491337  0.93913786  0.04685628  1
  O  O64  1  0.93059096  0.65999021  0.13766928  1
  O  O65  1  0.07063230  0.84010869  0.63738244  1
  O  O66  1  0.07059775  0.34009653  0.86237675  1
  O  O67  1  0.92936210  0.16016117  0.36232110  1
  O  O68  1  0.94915946  0.19832389  0.56156967  1
  O  O69  1  0.05018408  0.30206823  0.06163260  1
  O  O70  1  0.05075147  0.80172896  0.43832196  1
  O  O71  1  0.95343986  0.69872065  0.93836365  1
  O  O72  1  0.75524365  0.64399128  0.60387969  1
  O  O73  1  0.24471801  0.85653106  0.10372751  1
  O  O74  1  0.24481220  0.35610168  0.39620242  1
  O  O75  1  0.75547790  0.14318489  0.89637624  1
  O  O76  1  0.74825849  0.98531496  0.27924029  1
  O  O77  1  0.25172093  0.51468830  0.77929653  1
  O  O78  1  0.25178227  0.01496721  0.72047378  1
  O  O79  1  0.74808782  0.48608014  0.22006345  1
  O  O80  1  0.44770116  0.33526482  0.87182528  1
  O  O81  1  0.55229387  0.16460878  0.37179174  1
  O  O82  1  0.54903041  0.66493948  0.12851087  1
  O  O83  1  0.44769528  0.83555744  0.62792689  1
  O  O84  1  0.06055823  0.35227239  0.69472984  1
  O  O85  1  0.93952277  0.14751335  0.19465451  1
  O  O86  1  0.93944817  0.64780218  0.30514337  1
  O  O87  1  0.06062531  0.85245450  0.80480731  1
  O  O88  1  0.74521282  0.93923034  0.48731732  1
  O  O89  1  0.25521431  0.56047154  0.98749827  1
  O  O90  1  0.25482655  0.06083778  0.51269628  1
  O  O91  1  0.74319377  0.43764983  0.01292088  1
  O  O92  1  0.56910019  0.70745940  0.93107502  1
  O  O93  1  0.42940323  0.79360855  0.43119247  1
  O  O94  1  0.42937864  0.29350390  0.06898109  1
  O  O95  1  0.57056983  0.20652093  0.56884776  1
  O  O96  1  0.56133944  0.07427584  0.71683015  1
  O  O97  1  0.43888459  0.42541241  0.21722920  1
  O  O98  1  0.43885418  0.92562051  0.28315562  1
  O  O99  1  0.56137547  0.57411077  0.78321392  1
  O  O100  1  0.45470878  0.34168798  0.69729141  1
  O  O101  1  0.54510631  0.15815191  0.19729819  1
  O  O102  1  0.54533503  0.65826193  0.30296308  1
  O  O103  1  0.45489543  0.84159132  0.80229070  1
