# generated using pymatgen
data_KZnH5(SO5)2
_symmetry_space_group_name_H-M   'P 1'
_cell_length_a   4.67131031
_cell_length_b   5.90199939
_cell_length_c   8.38111949
_cell_angle_alpha   103.92698307
_cell_angle_beta   99.16084349
_cell_angle_gamma   95.71685579
_symmetry_Int_Tables_number   1
_chemical_formula_structural   KZnH5(SO5)2
_chemical_formula_sum   'K1 Zn1 H5 S2 O10'
_cell_volume   219.10896678
_cell_formula_units_Z   1
loop_
 _symmetry_equiv_pos_site_id
 _symmetry_equiv_pos_as_xyz
  1  'x, y, z'
loop_
 _atom_site_type_symbol
 _atom_site_label
 _atom_site_symmetry_multiplicity
 _atom_site_fract_x
 _atom_site_fract_y
 _atom_site_fract_z
 _atom_site_occupancy
  K  K0  1  0.99808967  0.00254768  0.49484063  1
  Zn  Zn1  1  0.00275288  0.00899945  0.00756939  1
  H  H2  1  0.93895484  0.33887386  0.84001488  1
  H  H3  1  0.05760754  0.65809637  0.16079637  1
  H  H4  1  0.62522334  0.26285670  0.87655733  1
  H  H5  1  0.37671748  0.73565048  0.12979598  1
  H  H6  1  0.49703251  0.53343554  0.51652150  1
  S  S7  1  0.38866945  0.68448668  0.76419760  1
  S  S8  1  0.60828921  0.31869577  0.24300233  1
  O  O9  1  0.48226418  0.70158520  0.59558945  1
  O  O10  1  0.51232566  0.30981165  0.40432952  1
  O  O11  1  0.21307257  0.87881089  0.79833901  1
  O  O12  1  0.78592947  0.12151170  0.20529504  1
  O  O13  1  0.80547372  0.20473595  0.85050032  1
  O  O14  1  0.19126723  0.79089675  0.14754513  1
  O  O15  1  0.22484479  0.44829554  0.73566789  1
  O  O16  1  0.77807898  0.55199002  0.26183796  1
  O  O17  1  0.65333722  0.72143548  0.89565744  1
  O  O18  1  0.35106925  0.28228428  0.10294223  1
