# generated using pymatgen
data_In9Ag17
_symmetry_space_group_name_H-M   'P 1'
_cell_length_a   10.09042079
_cell_length_b   10.16064114
_cell_length_c   10.09042079
_cell_angle_alpha   89.75132293
_cell_angle_beta   90.06499176
_cell_angle_gamma   89.75132293
_symmetry_Int_Tables_number   1
_chemical_formula_structural   In9Ag17
_chemical_formula_sum   'In18 Ag34'
_cell_volume   1034.50167457
_cell_formula_units_Z   2
loop_
 _symmetry_equiv_pos_site_id
 _symmetry_equiv_pos_as_xyz
  1  'x, y, z'
loop_
 _atom_site_type_symbol
 _atom_site_label
 _atom_site_symmetry_multiplicity
 _atom_site_fract_x
 _atom_site_fract_y
 _atom_site_fract_z
 _atom_site_occupancy
  In  In0  1  0.19030587  0.81063663  0.46427613  1
  In  In1  1  0.18998476  0.53550231  0.18998476  1
  In  In2  1  0.46427613  0.81063663  0.19030587  1
  In  In3  1  0.80885742  0.18616789  0.46392122  1
  In  In4  1  0.80942300  0.46365478  0.18684853  1
  In  In5  1  0.53530153  0.18970431  0.19087573  1
  In  In6  1  0.19087573  0.18970431  0.53530153  1
  In  In7  1  0.18684853  0.46365478  0.80942300  1
  In  In8  1  0.46392122  0.18616789  0.80885742  1
  In  In9  1  0.80863678  0.81355605  0.53612136  1
  In  In10  1  0.81246591  0.53648486  0.81246591  1
  In  In11  1  0.53612136  0.81355605  0.80863678  1
  In  In12  1  0.85793940  0.49989351  0.50029485  1
  In  In13  1  0.50029485  0.49989351  0.85793940  1
  In  In14  1  0.88284733  0.11792709  0.88284733  1
  In  In15  1  0.11753170  0.88318512  0.88354344  1
  In  In16  1  0.88354344  0.88318512  0.11753170  1
  In  In17  1  0.11687535  0.11639975  0.11687535  1
  Ag  Ag18  1  0.17097414  0.82933720  0.17097414  1
  Ag  Ag19  1  0.82945698  0.17081939  0.17084396  1
  Ag  Ag20  1  0.17084396  0.17081939  0.82945698  1
  Ag  Ag21  1  0.82935888  0.82929398  0.82935888  1
  Ag  Ag22  1  0.39577404  0.60431810  0.39577404  1
  Ag  Ag23  1  0.60343749  0.39534566  0.39554550  1
  Ag  Ag24  1  0.39554550  0.39534566  0.60343749  1
  Ag  Ag25  1  0.60392356  0.60470548  0.60392356  1
  Ag  Ag26  1  0.68583439  0.31363614  0.96754376  1
  Ag  Ag27  1  0.68502203  0.03349464  0.68502203  1
  Ag  Ag28  1  0.96754376  0.31363614  0.68583439  1
  Ag  Ag29  1  0.31398303  0.68601577  0.96800254  1
  Ag  Ag30  1  0.31458647  0.96712658  0.68465002  1
  Ag  Ag31  1  0.03378906  0.68600408  0.68560138  1
  Ag  Ag32  1  0.68560138  0.68600408  0.03378906  1
  Ag  Ag33  1  0.68465002  0.96712658  0.31458647  1
  Ag  Ag34  1  0.96800254  0.68601577  0.31398303  1
  Ag  Ag35  1  0.31424148  0.31417970  0.03319012  1
  Ag  Ag36  1  0.31512528  0.03265681  0.31512528  1
  Ag  Ag37  1  0.03319012  0.31417970  0.31424148  1
  Ag  Ag38  1  0.67418545  0.32443310  0.67418545  1
  Ag  Ag39  1  0.32506636  0.67477486  0.67336831  1
  Ag  Ag40  1  0.67336831  0.67477486  0.32506636  1
  Ag  Ag41  1  0.32576368  0.32609856  0.32576368  1
  Ag  Ag42  1  0.00029787  0.35691467  0.00029787  1
  Ag  Ag43  1  0.64266949  0.99999453  0.00026860  1
  Ag  Ag44  1  0.00026860  0.99999453  0.64266949  1
  Ag  Ag45  1  0.00020908  0.64299336  0.00020908  1
  Ag  Ag46  1  0.35715312  0.00009535  0.00034040  1
  Ag  Ag47  1  0.00034040  0.00009535  0.35715312  1
  Ag  Ag48  1  0.49999098  0.85665758  0.49999098  1
  Ag  Ag49  1  0.14369903  0.49992473  0.49999365  1
  Ag  Ag50  1  0.49999365  0.49992473  0.14369903  1
  Ag  Ag51  1  0.50005956  0.14335232  0.50005956  1
