# generated using pymatgen
data_Ho8Sb3O8
_symmetry_space_group_name_H-M   'P 1'
_cell_length_a   3.76259724
_cell_length_b   6.89146895
_cell_length_c   14.64305506
_cell_angle_alpha   83.64311290
_cell_angle_beta   82.61839598
_cell_angle_gamma   105.84223688
_symmetry_Int_Tables_number   1
_chemical_formula_structural   Ho8Sb3O8
_chemical_formula_sum   'Ho8 Sb3 O8'
_cell_volume   357.98808141
_cell_formula_units_Z   1
loop_
 _symmetry_equiv_pos_site_id
 _symmetry_equiv_pos_as_xyz
  1  'x, y, z'
loop_
 _atom_site_type_symbol
 _atom_site_label
 _atom_site_symmetry_multiplicity
 _atom_site_fract_x
 _atom_site_fract_y
 _atom_site_fract_z
 _atom_site_occupancy
  Ho  Ho0  1  0.71470763  0.25988847  0.83094913  1
  Ho  Ho1  1  0.28576829  0.74011153  0.16905087  1
  Ho  Ho2  1  0.78747207  0.14406872  0.56911247  1
  Ho  Ho3  1  0.21251582  0.85593128  0.43088753  1
  Ho  Ho4  1  0.46963472  0.59190381  0.65250377  1
  Ho  Ho5  1  0.53023467  0.40809619  0.34749623  1
  Ho  Ho6  1  0.36789230  0.64813572  0.91154993  1
  Ho  Ho7  1  0.63130651  0.35186428  0.08845007  1
  Sb  Sb8  1  0.09619096  0.92391466  0.73331708  1
  Sb  Sb9  1  0.90559338  0.07608534  0.26668292  1
  Sb  Sb10  1  0.95300622  -0.00000000  0.00000000  1
  O  O11  1  0.76823747  0.47364873  0.93373281  1
  O  O12  1  0.22832155  0.52635127  0.06626719  1
  O  O13  1  0.31805044  0.43603982  0.79812982  1
  O  O14  1  0.68014044  0.56396018  0.20187018  1
  O  O15  1  0.34941242  0.18438662  0.48595205  1
  O  O16  1  0.65097785  0.81561338  0.51404795  1
  O  O17  1  0.89948877  0.42967529  0.63083501  1
  O  O18  1  0.10064850  0.57032471  0.36916499  1
