# generated using pymatgen
data_K4Ni7(AsO4)6
_symmetry_space_group_name_H-M   'P 1'
_cell_length_a   6.85747530
_cell_length_b   9.22913922
_cell_length_c   9.22913922
_cell_angle_alpha   105.87004325
_cell_angle_beta   98.61845668
_cell_angle_gamma   98.61845668
_symmetry_Int_Tables_number   1
_chemical_formula_structural   K4Ni7(AsO4)6
_chemical_formula_sum   'K4 Ni7 As6 O24'
_cell_volume   544.19361566
_cell_formula_units_Z   1
loop_
 _symmetry_equiv_pos_site_id
 _symmetry_equiv_pos_as_xyz
  1  'x, y, z'
loop_
 _atom_site_type_symbol
 _atom_site_label
 _atom_site_symmetry_multiplicity
 _atom_site_fract_x
 _atom_site_fract_y
 _atom_site_fract_z
 _atom_site_occupancy
  K  K0  1  0.52001695  0.49961906  0.72838186  1
  K  K1  1  0.52001695  0.72838186  0.49961906  1
  K  K2  1  0.53348911  0.30262975  0.30262975  1
  K  K3  1  0.48010598  0.93734735  0.93734735  1
  Ni  Ni4  1  -0.00165220  -0.00058208  -0.00058208  1
  Ni  Ni5  1  0.17630461  0.63613012  0.02369283  1
  Ni  Ni6  1  0.17630461  0.02369283  0.63613012  1
  Ni  Ni7  1  0.82527528  0.36161859  0.98072976  1
  Ni  Ni8  1  0.82527528  0.98072976  0.36161859  1
  Ni  Ni9  1  0.99966611  0.62334927  0.37528507  1
  Ni  Ni10  1  0.99966611  0.37528507  0.62334927  1
  As  As11  1  0.02990811  0.30631776  0.30631776  1
  As  As12  1  0.97836556  0.69490516  0.69490516  1
  As  As13  1  0.27229418  0.90157207  0.28167544  1
  As  As14  1  0.27229418  0.28167544  0.90157207  1
  As  As15  1  0.72578986  0.10377137  0.71611099  1
  As  As16  1  0.72578986  0.71611099  0.10377137  1
  O  O17  1  0.77450126  0.72819137  0.29928977  1
  O  O18  1  0.77450126  0.29928977  0.72819137  1
  O  O19  1  0.22340860  0.27096362  0.70492182  1
  O  O20  1  0.22340860  0.70492182  0.27096362  1
  O  O21  1  0.48167863  0.66470228  0.00860527  1
  O  O22  1  0.48167863  0.00860527  0.66470228  1
  O  O23  1  0.51876905  0.33634000  0.98969925  1
  O  O24  1  0.51876905  0.98969925  0.33634000  1
  O  O25  1  0.88022344  0.40644369  0.21690054  1
  O  O26  1  0.88022344  0.21690054  0.40644369  1
  O  O27  1  0.12433804  0.59314167  0.78472205  1
  O  O28  1  0.12433804  0.78472205  0.59314167  1
  O  O29  1  0.85099052  0.80801464  0.80801464  1
  O  O30  1  0.14454798  0.18810121  0.18810121  1
  O  O31  1  0.19401645  0.87727482  0.08629140  1
  O  O32  1  0.19401645  0.08629140  0.87727482  1
  O  O33  1  0.80376911  0.12333750  0.91153395  1
  O  O34  1  0.80376911  0.91153395  0.12333750  1
  O  O35  1  0.81445452  0.54673267  0.54673267  1
  O  O36  1  0.18842794  0.45549773  0.45549773  1
  O  O37  1  0.86115384  0.59344745  0.00375259  1
  O  O38  1  0.86115384  0.00375259  0.59344745  1
  O  O39  1  0.13472584  0.40516230  0.99597805  1
  O  O40  1  0.13472584  0.99597805  0.40516230  1
