# generated using pymatgen
data_Ho8(AlGe3)3
_symmetry_space_group_name_H-M   'P 1'
_cell_length_a   4.07383687
_cell_length_b   5.64143233
_cell_length_c   19.99399036
_cell_angle_alpha   87.57642052
_cell_angle_beta   84.15276168
_cell_angle_gamma   111.16555168
_symmetry_Int_Tables_number   1
_chemical_formula_structural   Ho8(AlGe3)3
_chemical_formula_sum   'Ho8 Al3 Ge9'
_cell_volume   424.72873562
_cell_formula_units_Z   1
loop_
 _symmetry_equiv_pos_site_id
 _symmetry_equiv_pos_as_xyz
  1  'x, y, z'
loop_
 _atom_site_type_symbol
 _atom_site_label
 _atom_site_symmetry_multiplicity
 _atom_site_fract_x
 _atom_site_fract_y
 _atom_site_fract_z
 _atom_site_occupancy
  Ho  Ho0  1  0.85694762  0.39232281  0.67842757  1
  Ho  Ho1  1  0.36162777  0.65244849  0.92919396  1
  Ho  Ho2  1  0.85558929  0.88989823  0.17871965  1
  Ho  Ho3  1  0.35703131  0.14213545  0.42807282  1
  Ho  Ho4  1  0.64296869  0.85786455  0.57192718  1
  Ho  Ho5  1  0.14441071  0.11010177  0.82128135  1
  Ho  Ho6  1  0.63837223  0.34755051  0.07080604  1
  Ho  Ho7  1  0.14305238  0.60767719  0.32157343  1
  Al  Al8  1  0.49931129  0.24913350  0.25051091  1
  Al  Al9  1  -0.00000000  0.50000000  0.50000000  1
  Al  Al10  1  0.50068871  0.75086650  0.74948909  1
  Ge  Ge11  1  0.14303716  0.96434778  0.67827346  1
  Ge  Ge12  1  0.65071347  0.22671478  0.92528784  1
  Ge  Ge13  1  0.13820960  0.45631886  0.17989966  1
  Ge  Ge14  1  0.64236314  0.71318190  0.42845563  1
  Ge  Ge15  1  0.35763686  0.28681810  0.57154437  1
  Ge  Ge16  1  0.86179040  0.54368114  0.82010034  1
  Ge  Ge17  1  0.34928653  0.77328522  0.07471216  1
  Ge  Ge18  1  0.85696284  0.03565222  0.32172654  1
  Ge  Ge19  1  -0.00000000  -0.00000000  -0.00000000  1
