# generated using pymatgen
data_Li4MnCo2O7
_symmetry_space_group_name_H-M   'P 1'
_cell_length_a   2.93642039
_cell_length_b   13.53851876
_cell_length_c   6.58421232
_cell_angle_alpha   84.79422351
_cell_angle_beta   77.25998182
_cell_angle_gamma   86.84243532
_symmetry_Int_Tables_number   1
_chemical_formula_structural   Li4MnCo2O7
_chemical_formula_sum   'Li8 Mn2 Co4 O14'
_cell_volume   254.09086365
_cell_formula_units_Z   2
loop_
 _symmetry_equiv_pos_site_id
 _symmetry_equiv_pos_as_xyz
  1  'x, y, z'
loop_
 _atom_site_type_symbol
 _atom_site_label
 _atom_site_symmetry_multiplicity
 _atom_site_fract_x
 _atom_site_fract_y
 _atom_site_fract_z
 _atom_site_occupancy
  Li  Li0  1  0.84883303  0.21635362  0.08497463  1
  Li  Li1  1  0.01668166  0.50013250  0.48981406  1
  Li  Li2  1  0.14240803  0.78529482  0.93049575  1
  Li  Li3  1  0.42376174  0.35873723  0.78374059  1
  Li  Li4  1  0.57764831  0.64069102  0.21454207  1
  Li  Li5  1  0.73128287  0.92345322  0.63941988  1
  Li  Li6  1  0.25875451  0.08018224  0.35963176  1
  Li  Li7  1  0.16870778  0.28171009  0.41850557  1
  Mn  Mn8  1  0.99383485  0.00094372  0.00059360  1
  Mn  Mn9  1  0.56597933  0.14908131  0.70259494  1
  Co  Co10  1  0.28342675  0.56990690  0.86434016  1
  Co  Co11  1  0.42712930  0.85481772  0.28434179  1
  Co  Co12  1  0.71535865  0.42320210  0.15906703  1
  Co  Co13  1  0.85238400  0.71288184  0.57427424  1
  O  O14  1  0.39911735  0.10542030  0.01936265  1
  O  O15  1  0.58759963  0.39995382  0.43066668  1
  O  O16  1  0.71352954  0.67092454  0.88858709  1
  O  O17  1  0.02116588  0.23943641  0.74425582  1
  O  O18  1  0.12695427  0.52871734  0.16966280  1
  O  O19  1  0.28080840  0.81425533  0.60141763  1
  O  O20  1  0.85198479  0.95543618  0.31347708  1
  O  O21  1  0.32218658  0.33105977  0.10400917  1
  O  O22  1  0.42905663  0.61345540  0.54653183  1
  O  O23  1  0.59511099  0.89770803  0.96754317  1
  O  O24  1  0.85585524  0.46736243  0.84340935  1
  O  O25  1  0.00384456  0.75464385  0.25753010  1
  O  O26  1  0.10248860  0.04892212  0.69002940  1
  O  O27  1  0.70410673  0.17531614  0.41718114  1
