# generated using pymatgen
data_K5Na3(MoO4)4
_symmetry_space_group_name_H-M   'P 1'
_cell_length_a   6.12048092
_cell_length_b   6.12522176
_cell_length_c   15.35068451
_cell_angle_alpha   90.35568503
_cell_angle_beta   89.93977103
_cell_angle_gamma   120.02321007
_symmetry_Int_Tables_number   1
_chemical_formula_structural   K5Na3(MoO4)4
_chemical_formula_sum   'K5 Na3 Mo4 O16'
_cell_volume   498.25828812
_cell_formula_units_Z   1
loop_
 _symmetry_equiv_pos_site_id
 _symmetry_equiv_pos_as_xyz
  1  'x, y, z'
loop_
 _atom_site_type_symbol
 _atom_site_label
 _atom_site_symmetry_multiplicity
 _atom_site_fract_x
 _atom_site_fract_y
 _atom_site_fract_z
 _atom_site_occupancy
  K  K0  1  0.99996535  0.05486509  0.75090950  1
  K  K1  1  0.99997571  0.94521323  0.24990514  1
  K  K2  1  0.66306720  0.35546931  0.58426382  1
  K  K3  1  0.66283583  0.30680702  0.08370445  1
  K  K4  1  0.33700868  0.64455949  0.41583434  1
  Na  Na5  1  0.99993457  0.99999609  0.49999097  1
  Na  Na6  1  0.00012330  0.99993297  0.99940729  1
  Na  Na7  1  0.33455554  0.68413809  0.90887256  1
  Mo  Mo8  1  0.33245664  0.69165650  0.64214029  1
  Mo  Mo9  1  0.66797002  0.35993363  0.86150945  1
  Mo  Mo10  1  0.66781714  0.30847650  0.36096352  1
  Mo  Mo11  1  0.33223575  0.64074558  0.13752767  1
  O  O12  1  0.17995870  0.39487824  0.58400383  1
  O  O13  1  0.81959111  0.21329424  0.91783771  1
  O  O14  1  0.82149293  0.60698454  0.41803209  1
  O  O15  1  0.18027473  0.78390465  0.07928083  1
  O  O16  1  0.15544581  0.84681115  0.61975620  1
  O  O17  1  0.84860585  0.69453764  0.88097589  1
  O  O18  1  0.84581648  0.15220308  0.38071224  1
  O  O19  1  0.15430248  0.30562506  0.11931671  1
  O  O20  1  0.63985363  0.87175723  0.59295835  1
  O  O21  1  0.35807148  0.23725889  0.90869689  1
  O  O22  1  0.35803111  0.12657299  0.40851047  1
  O  O23  1  0.64284922  0.76769506  0.09098521  1
  O  O24  1  0.35025825  0.63795085  0.75648398  1
  O  O25  1  0.64805147  0.28080507  0.74834707  1
  O  O26  1  0.64821331  0.36758359  0.24828421  1
  O  O27  1  0.35123771  0.72034421  0.25078929  1
