# generated using pymatgen
data_K2NaNb3O9
_symmetry_space_group_name_H-M   'P 1'
_cell_length_a   4.00883482
_cell_length_b   8.11358341
_cell_length_c   13.04323565
_cell_angle_alpha   107.66918670
_cell_angle_beta   90.00000000
_cell_angle_gamma   90.00000000
_symmetry_Int_Tables_number   1
_chemical_formula_structural   K2NaNb3O9
_chemical_formula_sum   'K4 Na2 Nb6 O18'
_cell_volume   404.23069019
_cell_formula_units_Z   2
loop_
 _symmetry_equiv_pos_site_id
 _symmetry_equiv_pos_as_xyz
  1  'x, y, z'
loop_
 _atom_site_type_symbol
 _atom_site_label
 _atom_site_symmetry_multiplicity
 _atom_site_fract_x
 _atom_site_fract_y
 _atom_site_fract_z
 _atom_site_occupancy
  K  K0  1  0.00000000  0.51253789  0.50889859  1
  K  K1  1  0.00000000  0.34731241  0.16864775  1
  K  K2  1  0.00000000  0.01358701  0.50249086  1
  K  K3  1  -0.00000000  0.68099158  0.83569014  1
  Na  Na4  1  0.00000000  0.19292256  0.85428016  1
  Na  Na5  1  0.00000000  0.85964175  0.18708152  1
  Nb  Nb6  1  0.50000000  0.35159081  0.68042784  1
  Nb  Nb7  1  0.50000000  0.01914038  0.01164962  1
  Nb  Nb8  1  0.50000000  0.68743551  0.34382658  1
  Nb  Nb9  1  0.50000000  0.86000457  0.67801934  1
  Nb  Nb10  1  0.50000000  0.52443442  0.00967460  1
  Nb  Nb11  1  0.50000000  0.18746744  0.34171752  1
  O  O12  1  0.50000000  0.73871869  0.49464461  1
  O  O13  1  0.50000000  0.39302931  0.83016877  1
  O  O14  1  0.50000000  0.06019999  0.16184396  1
  O  O15  1  0.50000000  0.07842301  0.65320934  1
  O  O16  1  0.50000000  0.74329268  0.98471373  1
  O  O17  1  0.50000000  0.41140804  0.32086394  1
  O  O18  1  0.00000000  0.83369823  0.66385666  1
  O  O19  1  0.00000000  0.49352564  0.99355679  1
  O  O20  1  0.00000000  0.15956333  0.32559932  1
  O  O21  1  0.50000000  0.93876295  0.82942950  1
  O  O22  1  0.50000000  0.60374925  0.16112782  1
  O  O23  1  0.50000000  0.26103558  0.49361773  1
  O  O24  1  0.50000000  0.58576705  0.67517867  1
  O  O25  1  0.50000000  0.25268587  0.00739347  1
  O  O26  1  0.50000000  0.91903498  0.33689233  1
  O  O27  1  0.00000000  0.99899986  0.99600827  1
  O  O28  1  0.00000000  0.66643174  0.32744703  1
  O  O29  1  0.00000000  0.32990747  0.66544354  1
