# generated using pymatgen
data_Hf4UC5
_symmetry_space_group_name_H-M   'P 1'
_cell_length_a   3.31187395
_cell_length_b   3.31187395
_cell_length_c   13.80327867
_cell_angle_alpha   96.89019028
_cell_angle_beta   83.10980972
_cell_angle_gamma   120.00000000
_symmetry_Int_Tables_number   1
_chemical_formula_structural   Hf4UC5
_chemical_formula_sum   'Hf4 U1 C5'
_cell_volume   129.85332131
_cell_formula_units_Z   1
loop_
 _symmetry_equiv_pos_site_id
 _symmetry_equiv_pos_as_xyz
  1  'x, y, z'
loop_
 _atom_site_type_symbol
 _atom_site_label
 _atom_site_symmetry_multiplicity
 _atom_site_fract_x
 _atom_site_fract_y
 _atom_site_fract_z
 _atom_site_occupancy
  Hf  Hf0  1  0.59615330  0.40384670  0.21154010  1
  Hf  Hf1  1  0.19870855  0.80129145  0.40387435  1
  Hf  Hf2  1  0.80129145  0.19870855  0.59612565  1
  Hf  Hf3  1  0.40384670  0.59615330  0.78845990  1
  U  U4  1  -0.00000000  -0.00000000  0.00000000  1
  C  C5  1  0.70269683  0.29730317  0.89190951  1
  C  C6  1  0.50000000  0.50000000  0.50000000  1
  C  C7  1  0.10151699  0.89848301  0.69544903  1
  C  C8  1  0.29730317  0.70269683  0.10809049  1
  C  C9  1  0.89848301  0.10151699  0.30455097  1
