# generated using pymatgen
data_KRbCuH12(SeO7)2
_symmetry_space_group_name_H-M   'P 1'
_cell_length_a   6.53710971
_cell_length_b   9.35117878
_cell_length_c   12.56113885
_cell_angle_alpha   90.00000000
_cell_angle_beta   90.00000000
_cell_angle_gamma   103.72294304
_symmetry_Int_Tables_number   1
_chemical_formula_structural   KRbCuH12(SeO7)2
_chemical_formula_sum   'K2 Rb2 Cu2 H24 Se4 O28'
_cell_volume   745.93928997
_cell_formula_units_Z   2
loop_
 _symmetry_equiv_pos_site_id
 _symmetry_equiv_pos_as_xyz
  1  'x, y, z'
loop_
 _atom_site_type_symbol
 _atom_site_label
 _atom_site_symmetry_multiplicity
 _atom_site_fract_x
 _atom_site_fract_y
 _atom_site_fract_z
 _atom_site_occupancy
  K  K0  1  0.34920816  0.62881222  0.14901630  1
  K  K1  1  0.65079184  0.87118778  0.64901630  1
  Rb  Rb2  1  0.65045358  0.36722222  0.84215224  1
  Rb  Rb3  1  0.34954642  0.13277778  0.34215224  1
  Cu  Cu4  1  0.00014315  0.50055324  0.49980647  1
  Cu  Cu5  1  0.99985685  0.99944676  0.99980647  1
  H  H6  1  0.32436692  0.70936148  0.40625269  1
  H  H7  1  0.67563308  0.79063852  0.90625269  1
  H  H8  1  0.67600829  0.28944776  0.59203318  1
  H  H9  1  0.32399171  0.21055224  0.09203318  1
  H  H10  1  0.00420095  0.36529474  0.31744416  1
  H  H11  1  0.99579905  0.13470526  0.81744416  1
  H  H12  1  0.99601567  0.63637002  0.68235887  1
  H  H13  1  0.00398433  0.86362998  0.18235887  1
  H  H14  1  0.92878992  0.23946881  0.40476165  1
  H  H15  1  0.07121008  0.26053119  0.90476165  1
  H  H16  1  0.07130168  0.76112543  0.59479553  1
  H  H17  1  0.92869832  0.73887457  0.09479553  1
  H  H18  1  0.11368881  0.75102870  0.36883079  1
  H  H19  1  0.88631119  0.74897130  0.86883079  1
  H  H20  1  0.88688037  0.24790646  0.62980433  1
  H  H21  1  0.11311963  0.25209354  0.12980433  1
  H  H22  1  0.30886485  0.52540018  0.63430852  1
  H  H23  1  0.69113515  0.97459982  0.13430852  1
  H  H24  1  0.69146717  0.47555711  0.36556442  1
  H  H25  1  0.30853283  0.02444289  0.86556442  1
  H  H26  1  0.30333874  0.39170352  0.55434494  1
  H  H27  1  0.69666126  0.10829648  0.05434494  1
  H  H28  1  0.69607702  0.60842929  0.44599161  1
  H  H29  1  0.30392298  0.89157071  0.94599161  1
  Se  Se30  1  0.74031781  0.91167214  0.35635779  1
  Se  Se31  1  0.25968219  0.58832786  0.85635779  1
  Se  Se32  1  0.25855237  0.08568685  0.64337100  1
  Se  Se33  1  0.74144763  0.41431315  0.14337100  1
  O  O34  1  0.18346229  0.66867462  0.37613008  1
  O  O35  1  0.81653771  0.83132538  0.87613008  1
  O  O36  1  0.81738045  0.33015475  0.62176707  1
  O  O37  1  0.18261955  0.16984525  0.12176707  1
  O  O38  1  0.76671902  0.06869000  0.42442017  1
  O  O39  1  0.23328098  0.43131000  0.92442017  1
  O  O40  1  0.23714905  0.92966870  0.57492952  1
  O  O41  1  0.76285095  0.57033130  0.07492952  1
  O  O42  1  0.27399620  0.49134384  0.55904886  1
  O  O43  1  0.72600380  0.00865616  0.05904886  1
  O  O44  1  0.72573420  0.50882481  0.44105535  1
  O  O45  1  0.27426580  0.99117519  0.94105535  1
  O  O46  1  0.02869207  0.33703086  0.39243826  1
  O  O47  1  0.97130793  0.16296914  0.89243826  1
  O  O48  1  0.97029791  0.66400324  0.60724930  1
  O  O49  1  0.02970209  0.83599676  0.10724930  1
  O  O50  1  0.97600894  0.88973344  0.31564690  1
  O  O51  1  0.02399106  0.61026656  0.81564690  1
  O  O52  1  0.02076395  0.10541276  0.68306375  1
  O  O53  1  0.97923605  0.39458724  0.18306375  1
  O  O54  1  0.62227407  0.77300204  0.43690703  1
  O  O55  1  0.37772593  0.72699796  0.93690703  1
  O  O56  1  0.37736365  0.22716829  0.56561047  1
  O  O57  1  0.62263635  0.27283171  0.06561047  1
  O  O58  1  0.58530798  0.91216391  0.24975248  1
  O  O59  1  0.41469202  0.58783609  0.74975248  1
  O  O60  1  0.41277776  0.08331475  0.74992629  1
  O  O61  1  0.58722224  0.41668525  0.24992629  1
