# generated using pymatgen
data_Ga2CuAgSe4
_symmetry_space_group_name_H-M   'P 1'
_cell_length_a   5.83946453
_cell_length_b   5.83946453
_cell_length_c   6.97727760
_cell_angle_alpha   65.26241819
_cell_angle_beta   65.26241828
_cell_angle_gamma   90.00000000
_symmetry_Int_Tables_number   1
_chemical_formula_structural   Ga2CuAgSe4
_chemical_formula_sum   'Ga2 Cu1 Ag1 Se4'
_cell_volume   191.78490498
_cell_formula_units_Z   1
loop_
 _symmetry_equiv_pos_site_id
 _symmetry_equiv_pos_as_xyz
  1  'x, y, z'
loop_
 _atom_site_type_symbol
 _atom_site_label
 _atom_site_symmetry_multiplicity
 _atom_site_fract_x
 _atom_site_fract_y
 _atom_site_fract_z
 _atom_site_occupancy
  Ga  Ga0  1  0.25000000  0.75000000  0.50000000  1
  Ga  Ga1  1  0.50000000  0.50000000  -0.00000000  1
  Cu  Cu2  1  -0.00000000  0.00000000  -0.00000000  1
  Ag  Ag3  1  0.75000000  0.25000000  0.50000000  1
  Se  Se4  1  0.35387157  0.85536954  0.76349897  1
  Se  Se5  1  0.88262946  0.38113148  0.76349897  1
  Se  Se6  1  0.14463046  0.11737054  0.23650103  1
  Se  Se7  1  0.61886852  0.64612843  0.23650103  1
