# generated using pymatgen
data_Li4MnCo2O7
_symmetry_space_group_name_H-M   'P 1'
_cell_length_a   2.89613456
_cell_length_b   7.78279412
_cell_length_c   11.59168662
_cell_angle_alpha   85.08992724
_cell_angle_beta   97.17630332
_cell_angle_gamma   79.27705905
_symmetry_Int_Tables_number   1
_chemical_formula_structural   Li4MnCo2O7
_chemical_formula_sum   'Li8 Mn2 Co4 O14'
_cell_volume   253.11119525
_cell_formula_units_Z   2
loop_
 _symmetry_equiv_pos_site_id
 _symmetry_equiv_pos_as_xyz
  1  'x, y, z'
loop_
 _atom_site_type_symbol
 _atom_site_label
 _atom_site_symmetry_multiplicity
 _atom_site_fract_x
 _atom_site_fract_y
 _atom_site_fract_z
 _atom_site_occupancy
  Li  Li0  1  0.58012959  0.06796219  0.22822038  1
  Li  Li1  1  0.70893098  0.21733293  0.63519390  1
  Li  Li2  1  0.85926798  0.35435195  0.07288790  1
  Li  Li3  1  0.28588699  0.78864449  0.36041947  1
  Li  Li4  1  0.42548576  0.92719653  0.77816904  1
  Li  Li5  1  0.00386209  0.49150997  0.49923415  1
  Li  Li6  1  0.14050539  0.64308701  0.92409778  1
  Li  Li7  1  0.14049168  0.14853165  0.42951501  1
  Mn  Mn8  1  0.00006263  0.99884492  0.99897019  1
  Mn  Mn9  1  0.43752687  0.42005732  0.29511207  1
  Co  Co10  1  0.27998960  0.28977870  0.84975889  1
  Co  Co11  1  0.56622408  0.58075712  0.71320429  1
  Co  Co12  1  0.71931333  0.70968402  0.14830967  1
  Co  Co13  1  0.83927355  0.87522395  0.55377106  1
  O  O14  1  0.43424653  0.16255095  0.03104301  1
  O  O15  1  0.55871300  0.33183771  0.44926371  1
  O  O16  1  0.71723441  0.45479329  0.88926212  1
  O  O17  1  0.15333916  0.86995037  0.17662969  1
  O  O18  1  0.29252416  0.01867946  0.60372678  1
  O  O19  1  0.86746396  0.58503712  0.31996503  1
  O  O20  1  0.00575343  0.73767395  0.74918180  1
  O  O21  1  0.72241178  0.95467766  0.39950221  1
  O  O22  1  0.85101572  0.12010508  0.82213552  1
  O  O23  1  0.99068956  0.26982076  0.25119888  1
  O  O24  1  0.42376842  0.69814339  0.54568023  1
  O  O25  1  0.56710207  0.83524246  0.96944761  1
  O  O26  1  0.14055541  0.40167349  0.68278430  1
  O  O27  1  0.28823189  0.54685153  0.12331531  1
