# generated using pymatgen
data_HfZr2UC4
_symmetry_space_group_name_H-M   'P 1'
_cell_length_a   3.36019803
_cell_length_b   3.36019803
_cell_length_c   11.25456666
_cell_angle_alpha   90.00000000
_cell_angle_beta   81.41470710
_cell_angle_gamma   120.00000000
_symmetry_Int_Tables_number   1
_chemical_formula_structural   HfZr2UC4
_chemical_formula_sum   'Hf1 Zr2 U1 C4'
_cell_volume   108.40247364
_cell_formula_units_Z   1
loop_
 _symmetry_equiv_pos_site_id
 _symmetry_equiv_pos_as_xyz
  1  'x, y, z'
loop_
 _atom_site_type_symbol
 _atom_site_label
 _atom_site_symmetry_multiplicity
 _atom_site_fract_x
 _atom_site_fract_y
 _atom_site_fract_z
 _atom_site_occupancy
  Hf  Hf0  1  0.00706861  0.00353431  0.98939708  1
  Zr  Zr1  1  0.99306351  0.49653176  0.51040473  1
  Zr  Zr2  1  0.49930630  0.74965315  0.75104056  1
  U  U3  1  0.50081500  0.25040750  0.24877749  1
  C  C4  1  0.24816843  0.12408421  0.62774736  1
  C  C5  1  0.74889112  0.37444556  0.87666331  1
  C  C6  1  0.25466863  0.62733431  0.11799706  1
  C  C7  1  0.74801839  0.87400920  0.37797241  1
