# generated using pymatgen
data_K5H3(S2O9)2
_symmetry_space_group_name_H-M   'P 1'
_cell_length_a   8.84430901
_cell_length_b   9.99813120
_cell_length_c   10.80960062
_cell_angle_alpha   90.00000000
_cell_angle_beta   90.00000000
_cell_angle_gamma   104.89754128
_symmetry_Int_Tables_number   1
_chemical_formula_structural   K5H3(S2O9)2
_chemical_formula_sum   'K10 H6 S8 O36'
_cell_volume   923.72674442
_cell_formula_units_Z   2
loop_
 _symmetry_equiv_pos_site_id
 _symmetry_equiv_pos_as_xyz
  1  'x, y, z'
loop_
 _atom_site_type_symbol
 _atom_site_label
 _atom_site_symmetry_multiplicity
 _atom_site_fract_x
 _atom_site_fract_y
 _atom_site_fract_z
 _atom_site_occupancy
  K  K0  1  0.73775778  0.26227203  0.87421579  1
  K  K1  1  0.76224222  0.73772797  0.37421579  1
  K  K2  1  0.25471177  0.73706510  0.12481142  1
  K  K3  1  0.24528823  0.26293490  0.62481142  1
  K  K4  1  0.49516200  0.99778333  0.50141205  1
  K  K5  1  0.00483800  0.00221667  0.00141205  1
  K  K6  1  0.04525268  0.68792509  0.72940963  1
  K  K7  1  0.45474732  0.31207491  0.22940963  1
  K  K8  1  0.96497155  0.31412892  0.27224138  1
  K  K9  1  0.53502845  0.68587108  0.77224138  1
  H  H10  1  0.87455923  0.21352288  0.59191464  1
  H  H11  1  0.62544077  0.78647712  0.09191464  1
  H  H12  1  0.12546698  0.78869769  0.40518630  1
  H  H13  1  0.37453302  0.21130231  0.90518630  1
  H  H14  1  0.49743145  0.00502286  0.01671002  1
  H  H15  1  0.00256855  0.99497714  0.51671002  1
  S  S16  1  0.34414166  0.95686507  0.83005340  1
  S  S17  1  0.15585834  0.04313493  0.33005340  1
  S  S18  1  0.66135702  0.04462412  0.17603619  1
  S  S19  1  0.83864298  0.95537588  0.67603619  1
  S  S20  1  0.70194721  0.42233577  0.54742966  1
  S  S21  1  0.79805279  0.57766423  0.04742966  1
  S  S22  1  0.29821494  0.57869114  0.45269918  1
  S  S23  1  0.20178506  0.42130886  0.95269918  1
  O  O24  1  0.50087808  0.97594906  0.89538420  1
  O  O25  1  0.99912192  0.02405094  0.39538420  1
  O  O26  1  0.49615912  0.02894461  0.11649026  1
  O  O27  1  0.00384088  0.97105539  0.61649026  1
  O  O28  1  0.87529403  0.40695321  0.60145474  1
  O  O29  1  0.62470597  0.59304679  0.10145474  1
  O  O30  1  0.12545083  0.59472212  0.39873872  1
  O  O31  1  0.37454917  0.40527788  0.89873872  1
  O  O32  1  0.32039731  0.09755529  0.80498283  1
  O  O33  1  0.17960269  0.90244471  0.30498283  1
  O  O34  1  0.67956289  0.90247777  0.19642215  1
  O  O35  1  0.82043711  0.09752223  0.69642215  1
  O  O36  1  0.92200624  0.29529421  0.53606127  1
  O  O37  1  0.57799376  0.70470579  0.03606127  1
  O  O38  1  0.07967819  0.70724085  0.46337946  1
  O  O39  1  0.42032181  0.29275915  0.96337946  1
  O  O40  1  0.70017028  0.54924042  0.61391152  1
  O  O41  1  0.79982972  0.45075958  0.11391152  1
  O  O42  1  0.29894261  0.45150526  0.38623953  1
  O  O43  1  0.20105739  0.54849474  0.88623953  1
  O  O44  1  0.34984463  0.88208195  0.71339399  1
  O  O45  1  0.15015537  0.11791805  0.21339399  1
  O  O46  1  0.65817490  0.11873731  0.29221683  1
  O  O47  1  0.84182510  0.88126269  0.79221683  1
  O  O48  1  0.71661168  0.43769262  0.41345068  1
  O  O49  1  0.78338832  0.56230738  0.91345068  1
  O  O50  1  0.28335830  0.56293710  0.58671410  1
  O  O51  1  0.21664170  0.43706290  0.08671410  1
  O  O52  1  0.21892120  0.87782291  0.91280024  1
  O  O53  1  0.28107880  0.12217709  0.41280024  1
  O  O54  1  0.77860510  0.12181309  0.08765508  1
  O  O55  1  0.72139490  0.87818691  0.58765508  1
  O  O56  1  0.58633023  0.29788094  0.58886914  1
  O  O57  1  0.91366977  0.70211906  0.08886914  1
  O  O58  1  0.41486620  0.70256881  0.41171559  1
  O  O59  1  0.08513380  0.29743119  0.91171559  1
