# generated using pymatgen
data_HfTiFe4
_symmetry_space_group_name_H-M   'P 1'
_cell_length_a   4.87824281
_cell_length_b   4.87647226
_cell_length_c   7.90673903
_cell_angle_alpha   90.00000000
_cell_angle_beta   90.00632575
_cell_angle_gamma   60.01199899
_symmetry_Int_Tables_number   1
_chemical_formula_structural   HfTiFe4
_chemical_formula_sum   'Hf2 Ti2 Fe8'
_cell_volume   162.91073450
_cell_formula_units_Z   2
loop_
 _symmetry_equiv_pos_site_id
 _symmetry_equiv_pos_as_xyz
  1  'x, y, z'
loop_
 _atom_site_type_symbol
 _atom_site_label
 _atom_site_symmetry_multiplicity
 _atom_site_fract_x
 _atom_site_fract_y
 _atom_site_fract_z
 _atom_site_occupancy
  Hf  Hf0  1  0.33328479  0.33335761  0.56836817  1
  Hf  Hf1  1  0.66671521  0.66664239  0.43163183  1
  Ti  Ti2  1  0.66669089  0.66665455  0.05602471  1
  Ti  Ti3  1  0.33330911  0.33334545  0.94397529  1
  Fe  Fe4  1  0.00000000  -0.00000000  0.50000000  1
  Fe  Fe5  1  0.00000000  -0.00000000  -0.00000000  1
  Fe  Fe6  1  0.83067828  0.33859623  0.75527081  1
  Fe  Fe7  1  0.33854799  0.83072601  0.75523919  1
  Fe  Fe8  1  0.83067828  0.83072549  0.75527081  1
  Fe  Fe9  1  0.16932172  0.66140377  0.24472919  1
  Fe  Fe10  1  0.66145201  0.16927399  0.24476081  1
  Fe  Fe11  1  0.16932172  0.16927451  0.24472919  1
