# generated using pymatgen
data_Fe4Ni5P3
_symmetry_space_group_name_H-M   'P 1'
_cell_length_a   4.40595958
_cell_length_b   6.68822486
_cell_length_c   19.13452976
_cell_angle_alpha   92.09693109
_cell_angle_beta   83.45175737
_cell_angle_gamma   109.02665195
_symmetry_Int_Tables_number   1
_chemical_formula_structural   Fe4Ni5P3
_chemical_formula_sum   'Fe16 Ni20 P12'
_cell_volume   529.57441741
_cell_formula_units_Z   4
loop_
 _symmetry_equiv_pos_site_id
 _symmetry_equiv_pos_as_xyz
  1  'x, y, z'
loop_
 _atom_site_type_symbol
 _atom_site_label
 _atom_site_symmetry_multiplicity
 _atom_site_fract_x
 _atom_site_fract_y
 _atom_site_fract_z
 _atom_site_occupancy
  Fe  Fe0  1  0.85640343  0.18430004  0.00905659  1
  Fe  Fe1  1  0.18745822  0.18375174  0.34251013  1
  Fe  Fe2  1  0.52090913  0.18353497  0.67551806  1
  Fe  Fe3  1  0.01629137  0.81543773  0.32330242  1
  Fe  Fe4  1  0.34807970  0.81561203  0.65670607  1
  Fe  Fe5  1  0.67953066  0.81523675  0.99069035  1
  Fe  Fe6  1  0.18300411  0.96755138  0.06125916  1
  Fe  Fe7  1  0.52043129  0.97171910  0.39412480  1
  Fe  Fe8  1  0.85422543  0.97126349  0.72738505  1
  Fe  Fe9  1  0.60997030  0.03210804  0.27189087  1
  Fe  Fe10  1  0.94231980  0.03185913  0.60517114  1
  Fe  Fe11  1  0.27615296  0.03206079  0.93862793  1
  Fe  Fe12  1  0.61020606  0.39612905  0.22364807  1
  Fe  Fe13  1  0.93889656  0.39362653  0.55752767  1
  Fe  Fe14  1  0.27212297  0.39363408  0.89075717  1
  Fe  Fe15  1  0.77004269  0.60389813  0.10979533  1
  Ni  Ni16  1  0.43888997  0.38922760  0.01728241  1
  Ni  Ni17  1  0.76917653  0.38893594  0.35093151  1
  Ni  Ni18  1  0.10319545  0.38888248  0.68429272  1
  Ni  Ni19  1  0.40083135  0.61203377  0.31628952  1
  Ni  Ni20  1  0.73381666  0.61227369  0.64996630  1
  Ni  Ni21  1  0.06635324  0.61108704  0.98324432  1
  Ni  Ni22  1  0.65809341  0.94938175  0.12957711  1
  Ni  Ni23  1  0.99190090  0.94788120  0.46284786  1
  Ni  Ni24  1  0.32543914  0.94810367  0.79625449  1
  Ni  Ni25  1  0.17078228  0.05060606  0.20372320  1
  Ni  Ni26  1  0.50261359  0.04943656  0.53707152  1
  Ni  Ni27  1  0.83611584  0.04960759  0.87038559  1
  Ni  Ni28  1  0.10577800  0.60461904  0.44308280  1
  Ni  Ni29  1  0.43862308  0.60461350  0.77637350  1
  Ni  Ni30  1  0.07728657  0.33111434  0.13149267  1
  Ni  Ni31  1  0.41040023  0.33106794  0.46492486  1
  Ni  Ni32  1  0.74403155  0.33108606  0.79817950  1
  Ni  Ni33  1  0.21215621  0.66846287  0.20172676  1
  Ni  Ni34  1  0.54555545  0.66765173  0.53486508  1
  Ni  Ni35  1  0.87826071  0.66807453  0.86810597  1
  P  P36  1  0.05949416  0.33854425  0.25324154  1
  P  P37  1  0.39284498  0.33958763  0.58644968  1
  P  P38  1  0.72710714  0.33933102  0.91945958  1
  P  P39  1  0.30842188  0.66197010  0.08062830  1
  P  P40  1  0.64482542  0.66389504  0.41324879  1
  P  P41  1  0.97823120  0.66396567  0.74671773  1
  P  P42  1  0.54600146  0.24131482  0.11364965  1
  P  P43  1  0.88023074  0.24175525  0.44725862  1
  P  P44  1  0.21373288  0.24166521  0.78042435  1
  P  P45  1  0.75187642  0.75826500  0.21983770  1
  P  P46  1  0.08442820  0.75679895  0.55364306  1
  P  P47  1  0.41746071  0.75703673  0.88685253  1
