# generated using pymatgen
data_Dy2Mn3Sb3O14
_symmetry_space_group_name_H-M   'P 1'
_cell_length_a   7.32687840
_cell_length_b   7.25606666
_cell_length_c   7.34199179
_cell_angle_alpha   90.00000000
_cell_angle_beta   59.93174180
_cell_angle_gamma   120.12143003
_symmetry_Int_Tables_number   1
_chemical_formula_structural   Dy2Mn3Sb3O14
_chemical_formula_sum   'Dy2 Mn3 Sb3 O14'
_cell_volume   275.21309259
_cell_formula_units_Z   1
loop_
 _symmetry_equiv_pos_site_id
 _symmetry_equiv_pos_as_xyz
  1  'x, y, z'
loop_
 _atom_site_type_symbol
 _atom_site_label
 _atom_site_symmetry_multiplicity
 _atom_site_fract_x
 _atom_site_fract_y
 _atom_site_fract_z
 _atom_site_occupancy
  Dy  Dy0  1  0.50000000  0.50000000  -0.00000000  1
  Dy  Dy1  1  0.50000000  0.00000000  -0.00000000  1
  Mn  Mn2  1  0.00000000  0.00000000  0.50000000  1
  Mn  Mn3  1  0.00000000  0.00000000  -0.00000000  1
  Mn  Mn4  1  0.50000000  0.00000000  0.50000000  1
  Sb  Sb5  1  0.50000000  0.50000000  0.50000000  1
  Sb  Sb6  1  0.00000000  0.50000000  -0.00000000  1
  Sb  Sb7  1  0.00000000  0.50000000  0.50000000  1
  O  O8  1  0.65014685  0.82831748  0.42492657  1
  O  O9  1  0.83622637  0.42642854  0.83188681  1
  O  O10  1  0.24903226  0.82597422  0.84115679  1
  O  O11  1  0.25654342  0.42477971  0.41432139  1
  O  O12  1  0.25654342  0.42477971  0.82913520  1
  O  O13  1  0.24903226  0.82597422  0.40981095  1
  O  O14  1  0.34985315  0.17168252  0.57507343  1
  O  O15  1  0.16377363  0.57357146  0.16811319  1
  O  O16  1  0.75096774  0.17402578  0.15884321  1
  O  O17  1  0.74345658  0.57522029  0.58567861  1
  O  O18  1  0.74345658  0.57522029  0.17086480  1
  O  O19  1  0.75096774  0.17402578  0.59018905  1
  O  O20  1  0.24047495  0.12178166  0.12976252  1
  O  O21  1  0.75952505  0.87821834  0.87023748  1
