# generated using pymatgen
data_Dy2Al3Fe
_symmetry_space_group_name_H-M   'P 1'
_cell_length_a   5.49445832
_cell_length_b   5.49445832
_cell_length_c   5.38986066
_cell_angle_alpha   90.00000000
_cell_angle_beta   59.35593874
_cell_angle_gamma   120.00000000
_symmetry_Int_Tables_number   1
_chemical_formula_structural   Dy2Al3Fe
_chemical_formula_sum   'Dy2 Al3 Fe1'
_cell_volume   113.92397691
_cell_formula_units_Z   1
loop_
 _symmetry_equiv_pos_site_id
 _symmetry_equiv_pos_as_xyz
  1  'x, y, z'
loop_
 _atom_site_type_symbol
 _atom_site_label
 _atom_site_symmetry_multiplicity
 _atom_site_fract_x
 _atom_site_fract_y
 _atom_site_fract_z
 _atom_site_occupancy
  Dy  Dy0  1  0.49842216  0.74921108  0.75236676  1
  Dy  Dy1  1  0.00157784  0.00078892  0.99763324  1
  Al  Al2  1  0.25000000  0.37500000  0.37500000  1
  Al  Al3  1  0.25000000  0.87500000  0.37500000  1
  Al  Al4  1  0.75000000  0.37500000  0.37500000  1
  Fe  Fe5  1  0.75000000  0.37500000  0.87500000  1
