# generated using pymatgen
data_Dy3Bi(Ru2O7)2
_symmetry_space_group_name_H-M   'P 1'
_cell_length_a   7.29217330
_cell_length_b   7.29217330
_cell_length_c   7.26131800
_cell_angle_alpha   90.00000000
_cell_angle_beta   59.85933544
_cell_angle_gamma   120.00000000
_symmetry_Int_Tables_number   1
_chemical_formula_structural   Dy3Bi(Ru2O7)2
_chemical_formula_sum   'Dy3 Bi1 Ru4 O14'
_cell_volume   272.45060016
_cell_formula_units_Z   1
loop_
 _symmetry_equiv_pos_site_id
 _symmetry_equiv_pos_as_xyz
  1  'x, y, z'
loop_
 _atom_site_type_symbol
 _atom_site_label
 _atom_site_symmetry_multiplicity
 _atom_site_fract_x
 _atom_site_fract_y
 _atom_site_fract_z
 _atom_site_occupancy
  Dy  Dy0  1  0.25000000  0.37500000  0.37500000  1
  Dy  Dy1  1  0.25000000  0.87500000  0.37500000  1
  Dy  Dy2  1  0.75000000  0.37500000  0.37500000  1
  Bi  Bi3  1  0.75000000  0.37500000  0.87500000  1
  Ru  Ru4  1  0.75000000  0.87500000  0.37500000  1
  Ru  Ru5  1  0.25000000  0.87500000  0.87500000  1
  Ru  Ru6  1  0.25000000  0.37500000  0.87500000  1
  Ru  Ru7  1  0.75000000  0.87500000  0.87500000  1
  O  O8  1  0.92011336  0.96005668  0.53991137  1
  O  O9  1  0.50003195  0.53997527  0.53991137  1
  O  O10  1  0.50003195  0.96005668  0.53991137  1
  O  O11  1  0.08395121  0.54197560  0.95940192  1
  O  O12  1  0.49862247  0.95664687  0.95940192  1
  O  O13  1  0.49862247  0.54197560  0.95940192  1
  O  O14  1  0.57988664  0.78994332  0.21008863  1
  O  O15  1  -0.00003195  0.21002473  0.21008863  1
  O  O16  1  -0.00003195  0.78994332  0.21008863  1
  O  O17  1  0.41604879  0.20802440  0.79059808  1
  O  O18  1  0.00137753  0.79335313  0.79059808  1
  O  O19  1  0.00137753  0.20802440  0.79059808  1
  O  O20  1  0.49124255  0.24562127  0.26313618  1
  O  O21  1  0.00875745  0.50437873  0.48686382  1
