# generated using pymatgen
data_FeMo6Rh3N2
_symmetry_space_group_name_H-M   'P 1'
_cell_length_a   6.79607393
_cell_length_b   6.79589392
_cell_length_c   6.81124396
_cell_angle_alpha   90.00000000
_cell_angle_beta   90.07485545
_cell_angle_gamma   90.00000000
_symmetry_Int_Tables_number   1
_chemical_formula_structural   FeMo6Rh3N2
_chemical_formula_sum   'Fe2 Mo12 Rh6 N4'
_cell_volume   314.57974144
_cell_formula_units_Z   2
loop_
 _symmetry_equiv_pos_site_id
 _symmetry_equiv_pos_as_xyz
  1  'x, y, z'
loop_
 _atom_site_type_symbol
 _atom_site_label
 _atom_site_symmetry_multiplicity
 _atom_site_fract_x
 _atom_site_fract_y
 _atom_site_fract_z
 _atom_site_occupancy
  Fe  Fe0  1  0.81676249  0.31394415  0.18796424  1
  Fe  Fe1  1  0.18323751  0.81394415  0.31203576  1
  Mo  Mo2  1  0.94966397  0.37503246  0.79874806  1
  Mo  Mo3  1  0.05033603  0.87503246  0.70125194  1
  Mo  Mo4  1  0.45937724  0.12796919  0.19984020  1
  Mo  Mo5  1  0.54062276  0.62796919  0.30015980  1
  Mo  Mo6  1  0.37116862  0.79760685  0.95806767  1
  Mo  Mo7  1  0.87692064  0.69795925  0.04821387  1
  Mo  Mo8  1  0.12307936  0.19795925  0.45178613  1
  Mo  Mo9  1  0.62883138  0.29760685  0.54193233  1
  Mo  Mo10  1  0.80135324  0.95458375  0.37269562  1
  Mo  Mo11  1  0.70341905  0.04705178  0.87644536  1
  Mo  Mo12  1  0.19864676  0.45458375  0.12730438  1
  Mo  Mo13  1  0.29658095  0.54705178  0.62355464  1
  Rh  Rh14  1  0.31213878  0.18794252  0.81377142  1
  Rh  Rh15  1  0.68786122  0.68794252  0.68622858  1
  Rh  Rh16  1  0.43128398  0.93767511  0.55104273  1
  Rh  Rh17  1  0.94118151  0.56231335  0.42889039  1
  Rh  Rh18  1  0.56871602  0.43767511  0.94895727  1
  Rh  Rh19  1  0.05881849  0.06231335  0.07110961  1
  N  N20  1  0.12442682  0.62387915  0.87343564  1
  N  N21  1  0.87557318  0.12387915  0.62656436  1
  N  N22  1  0.62620233  0.87404244  0.12378810  1
  N  N23  1  0.37379767  0.37404244  0.37621190  1
