# generated using pymatgen
data_Li4MnCo2O7
_symmetry_space_group_name_H-M   'P 1'
_cell_length_a   2.89136619
_cell_length_b   17.53055871
_cell_length_c   5.18879391
_cell_angle_alpha   103.84628620
_cell_angle_beta   90.00000000
_cell_angle_gamma   85.26964795
_symmetry_Int_Tables_number   1
_chemical_formula_structural   Li4MnCo2O7
_chemical_formula_sum   'Li8 Mn2 Co4 O14'
_cell_volume   254.44040905
_cell_formula_units_Z   2
loop_
 _symmetry_equiv_pos_site_id
 _symmetry_equiv_pos_as_xyz
  1  'x, y, z'
loop_
 _atom_site_type_symbol
 _atom_site_label
 _atom_site_symmetry_multiplicity
 _atom_site_fract_x
 _atom_site_fract_y
 _atom_site_fract_z
 _atom_site_occupancy
  Li  Li0  1  0.50229053  0.99541894  0.49888573  1
  Li  Li1  1  0.92988181  0.14023537  0.77423462  1
  Li  Li2  1  0.36026030  0.27947941  0.05991433  1
  Li  Li3  1  0.78439500  0.43120900  0.36002593  1
  Li  Li4  1  0.21028259  0.57943582  0.64891114  1
  Li  Li5  1  0.07470783  0.85058534  0.19893614  1
  Li  Li6  1  0.64109902  0.71780197  0.94499229  1
  Li  Li7  1  0.57010834  0.85978432  0.71045269  1
  Mn  Mn8  1  0.00171790  0.99656420  0.98932918  1
  Mn  Mn9  1  0.28627422  0.42745057  0.86011565  1
  Co  Co10  1  0.42803599  0.14392702  0.27967928  1
  Co  Co11  1  0.85848847  0.28302307  0.56305203  1
  Co  Co12  1  0.71181129  0.57637842  0.15167827  1
  Co  Co13  1  0.13783344  0.72433312  0.46204070  1
  O  O14  1  0.53079850  0.93840401  0.10014953  1
  O  O15  1  0.96304081  0.07391837  0.36348714  1
  O  O16  1  0.39198738  0.21602425  0.65411225  1
  O  O17  1  0.81709609  0.36580781  0.96308717  1
  O  O18  1  0.25087917  0.49824067  0.21720119  1
  O  O19  1  0.10940495  0.78119010  0.81427792  1
  O  O20  1  0.67831139  0.64337822  0.51758226  1
  O  O21  1  0.46717513  0.06564875  0.91055198  1
  O  O22  1  0.89411840  0.21176320  0.17241030  1
  O  O23  1  0.32110057  0.35779786  0.50490875  1
  O  O24  1  0.75516676  0.48966748  0.76052983  1
  O  O25  1  0.18307056  0.63385889  0.04224753  1
  O  O26  1  0.03136245  0.93727510  0.64717287  1
  O  O27  1  0.60930113  0.78139874  0.33003330  1
