# generated using pymatgen
data_ErTiFe11
_symmetry_space_group_name_H-M   'P 1'
_cell_length_a   4.70275701
_cell_length_b   6.44162266
_cell_length_c   6.44162266
_cell_angle_alpha   97.54715179
_cell_angle_beta   111.40936201
_cell_angle_gamma   68.59063799
_symmetry_Int_Tables_number   1
_chemical_formula_structural   ErTiFe11
_chemical_formula_sum   'Er1 Ti1 Fe11'
_cell_volume   169.13670046
_cell_formula_units_Z   1
loop_
 _symmetry_equiv_pos_site_id
 _symmetry_equiv_pos_as_xyz
  1  'x, y, z'
loop_
 _atom_site_type_symbol
 _atom_site_label
 _atom_site_symmetry_multiplicity
 _atom_site_fract_x
 _atom_site_fract_y
 _atom_site_fract_z
 _atom_site_occupancy
  Er  Er0  1  0.00558391  0.99441609  0.00558391  1
  Ti  Ti1  1  0.63203502  0.36796498  0.63203502  1
  Fe  Fe2  1  0.72810276  0.77189724  0.22810276  1
  Fe  Fe3  1  0.27736570  0.22263430  0.77736570  1
  Fe  Fe4  1  0.49913026  0.77928880  0.77754931  1
  Fe  Fe5  1  0.49913026  0.22245069  0.22071120  1
  Fe  Fe6  1  0.50028659  0.99782406  0.49986117  1
  Fe  Fe7  1  0.00175051  0.99782406  0.49986117  1
  Fe  Fe8  1  0.50028659  0.50013883  0.00217594  1
  Fe  Fe9  1  0.00175051  0.50013883  0.00217594  1
  Fe  Fe10  1  0.35285707  0.64714293  0.35285707  1
  Fe  Fe11  1  0.00086041  0.35523073  0.35695155  1
  Fe  Fe12  1  0.00086041  0.64304845  0.64476927  1
