# generated using pymatgen
data_ErTiCo11
_symmetry_space_group_name_H-M   'P 1'
_cell_length_a   4.68418148
_cell_length_b   6.33059338
_cell_length_c   6.33059338
_cell_angle_alpha   97.57839809
_cell_angle_beta   111.71338823
_cell_angle_gamma   68.28661177
_symmetry_Int_Tables_number   1
_chemical_formula_structural   ErTiCo11
_chemical_formula_sum   'Er1 Ti1 Co11'
_cell_volume   162.02792327
_cell_formula_units_Z   1
loop_
 _symmetry_equiv_pos_site_id
 _symmetry_equiv_pos_as_xyz
  1  'x, y, z'
loop_
 _atom_site_type_symbol
 _atom_site_label
 _atom_site_symmetry_multiplicity
 _atom_site_fract_x
 _atom_site_fract_y
 _atom_site_fract_z
 _atom_site_occupancy
  Er  Er0  1  0.00720749  0.99279251  0.00720749  1
  Ti  Ti1  1  0.63119619  0.36880381  0.63119619  1
  Co  Co2  1  0.49981487  0.99557592  0.49939717  1
  Co  Co3  1  0.00400639  0.99557592  0.49939717  1
  Co  Co4  1  0.49981487  0.50060283  0.00442408  1
  Co  Co5  1  0.00400639  0.50060283  0.00442408  1
  Co  Co6  1  0.72453899  0.77546101  0.22453899  1
  Co  Co7  1  0.28136616  0.21863384  0.78136616  1
  Co  Co8  1  0.49887180  0.78321172  0.78095531  1
  Co  Co9  1  0.49887180  0.21904469  0.21678828  1
  Co  Co10  1  0.35317879  0.64682121  0.35317879  1
  Co  Co11  1  0.99856314  0.35984195  0.35696822  1
  Co  Co12  1  0.99856314  0.64303178  0.64015805  1
