# generated using pymatgen
data_GdErAl6
_symmetry_space_group_name_H-M   'P 1'
_cell_length_a   6.17286100
_cell_length_b   6.17242781
_cell_length_c   14.55618529
_cell_angle_alpha   101.93970096
_cell_angle_beta   101.93864941
_cell_angle_gamma   60.53086587
_symmetry_Int_Tables_number   1
_chemical_formula_structural   GdErAl6
_chemical_formula_sum   'Gd3 Er3 Al18'
_cell_volume   468.80242005
_cell_formula_units_Z   3
loop_
 _symmetry_equiv_pos_site_id
 _symmetry_equiv_pos_as_xyz
  1  'x, y, z'
loop_
 _atom_site_type_symbol
 _atom_site_label
 _atom_site_symmetry_multiplicity
 _atom_site_fract_x
 _atom_site_fract_y
 _atom_site_fract_z
 _atom_site_occupancy
  Gd  Gd0  1  0.89150563  0.89176709  0.67276932  1
  Gd  Gd1  1  0.10852955  0.10831904  0.32696658  1
  Gd  Gd2  1  0.60844300  0.60850140  0.82761397  1
  Er  Er3  1  0.00023046  0.00019945  0.00020562  1
  Er  Er4  1  0.49993466  0.50002378  0.50019354  1
  Er  Er5  1  0.39152920  0.39158406  0.17244100  1
  Al  Al6  1  0.07595361  0.62891750  0.33482842  1
  Al  Al7  1  0.57538806  0.12953462  0.83545668  1
  Al  Al8  1  0.62882020  0.62874130  0.33486704  1
  Al  Al9  1  0.12941058  0.12938355  0.83554860  1
  Al  Al10  1  0.62898182  0.07591611  0.33483339  1
  Al  Al11  1  0.12952102  0.57542941  0.83544927  1
  Al  Al12  1  0.42485586  0.87036896  0.16460537  1
  Al  Al13  1  0.92462316  0.37042482  0.66459225  1
  Al  Al14  1  0.87049178  0.87044901  0.16456531  1
  Al  Al15  1  0.37060052  0.37065970  0.66458631  1
  Al  Al16  1  0.87042712  0.42479104  0.16461205  1
  Al  Al17  1  0.37036365  0.92465958  0.66458874  1
  Al  Al18  1  0.49963502  0.49963881  0.00050790  1
  Al  Al19  1  0.99995635  0.00001446  0.49995044  1
  Al  Al20  1  0.49979273  0.00098714  0.00047360  1
  Al  Al21  1  0.00000583  0.49991672  0.49993816  1
  Al  Al22  1  0.00104437  0.49975792  0.00047313  1
  Al  Al23  1  0.49995581  0.00001451  0.49993331  1
