# generated using pymatgen
data_Li4MnCo2O7
_symmetry_space_group_name_H-M   'P 1'
_cell_length_a   2.88823315
_cell_length_b   17.46391252
_cell_length_c   5.17737836
_cell_angle_alpha   103.81269062
_cell_angle_beta   90.00000000
_cell_angle_gamma   85.25671168
_symmetry_Int_Tables_number   1
_chemical_formula_structural   Li4MnCo2O7
_chemical_formula_sum   'Li8 Mn2 Co4 O14'
_cell_volume   252.67311236
_cell_formula_units_Z   2
loop_
 _symmetry_equiv_pos_site_id
 _symmetry_equiv_pos_as_xyz
  1  'x, y, z'
loop_
 _atom_site_type_symbol
 _atom_site_label
 _atom_site_symmetry_multiplicity
 _atom_site_fract_x
 _atom_site_fract_y
 _atom_site_fract_z
 _atom_site_occupancy
  Li  Li0  1  0.50272982  0.99454035  0.49827608  1
  Li  Li1  1  0.92970179  0.14059543  0.77582563  1
  Li  Li2  1  0.35683453  0.28633093  0.07032182  1
  Li  Li3  1  0.78629817  0.42740267  0.35820230  1
  Li  Li4  1  0.21272427  0.57455247  0.64798428  1
  Li  Li5  1  0.07239988  0.85520124  0.22172001  1
  Li  Li6  1  0.63956551  0.72086898  0.93921959  1
  Li  Li7  1  0.57129376  0.85741347  0.70844962  1
  Mn  Mn8  1  0.00316710  0.99366580  0.98220834  1
  Mn  Mn9  1  0.85700047  0.28599906  0.57171739  1
  Co  Co10  1  0.42954171  0.14091557  0.26905592  1
  Co  Co11  1  0.28446594  0.43106713  0.87116984  1
  Co  Co12  1  0.71327257  0.57345586  0.14918546  1
  Co  Co13  1  0.13816326  0.72367349  0.45723253  1
  O  O14  1  0.53220244  0.93559612  0.09518424  1
  O  O15  1  0.96418146  0.07163708  0.36041255  1
  O  O16  1  0.39106825  0.21786249  0.65232507  1
  O  O17  1  0.81795873  0.36408255  0.97594806  1
  O  O18  1  0.24472808  0.51054284  0.24041861  1
  O  O19  1  0.11188451  0.77623099  0.79736542  1
  O  O20  1  0.67978221  0.64043658  0.49161025  1
  O  O21  1  0.46851289  0.06297323  0.90303409  1
  O  O22  1  0.89593293  0.20813415  0.16518337  1
  O  O23  1  0.32263797  0.35472306  0.48855701  1
  O  O24  1  0.74761835  0.50476430  0.78892116  1
  O  O25  1  0.18289590  0.63420821  0.06062690  1
  O  O26  1  0.03303648  0.93392703  0.63913006  1
  O  O27  1  0.61040103  0.77919895  0.32071439  1
