# generated using pymatgen
data_Cr5NiS8
_symmetry_space_group_name_H-M   'P 1'
_cell_length_a   6.40990501
_cell_length_b   6.60498265
_cell_length_c   6.78263867
_cell_angle_alpha   106.85371025
_cell_angle_beta   75.40256483
_cell_angle_gamma   63.87311508
_symmetry_Int_Tables_number   1
_chemical_formula_structural   Cr5NiS8
_chemical_formula_sum   'Cr5 Ni1 S8'
_cell_volume   221.34563846
_cell_formula_units_Z   1
loop_
 _symmetry_equiv_pos_site_id
 _symmetry_equiv_pos_as_xyz
  1  'x, y, z'
loop_
 _atom_site_type_symbol
 _atom_site_label
 _atom_site_symmetry_multiplicity
 _atom_site_fract_x
 _atom_site_fract_y
 _atom_site_fract_z
 _atom_site_occupancy
  Cr  Cr0  1  0.24160113  0.24271488  0.52261209  1
  Cr  Cr1  1  0.74379774  0.73165802  0.02329533  1
  Cr  Cr2  1  0.25620226  0.26834198  0.97670467  1
  Cr  Cr3  1  0.75839887  0.75728512  0.47738791  1
  Cr  Cr4  1  0.50000000  0.50000000  0.50000000  1
  Ni  Ni5  1  0.00000000  -0.00000000  -0.00000000  1
  S  S6  1  0.94760721  0.28902140  0.84431108  1
  S  S7  1  0.43987996  0.79390471  0.34526735  1
  S  S8  1  0.56012004  0.20609529  0.65473265  1
  S  S9  1  0.05239279  0.71097860  0.15568892  1
  S  S10  1  0.96620029  0.30505302  0.32735311  1
  S  S11  1  0.46443197  0.80433187  0.82851147  1
  S  S12  1  0.53556803  0.19566813  0.17148853  1
  S  S13  1  0.03379971  0.69494698  0.67264689  1
