# generated using pymatgen
data_Cr7Se10
_symmetry_space_group_name_H-M   'P 1'
_cell_length_a   3.66425903
_cell_length_b   6.37051864
_cell_length_c   29.86442029
_cell_angle_alpha   94.80430651
_cell_angle_beta   93.51720360
_cell_angle_gamma   90.00000000
_symmetry_Int_Tables_number   1
_chemical_formula_structural   Cr7Se10
_chemical_formula_sum   'Cr14 Se20'
_cell_volume   693.36497743
_cell_formula_units_Z   2
loop_
 _symmetry_equiv_pos_site_id
 _symmetry_equiv_pos_as_xyz
  1  'x, y, z'
loop_
 _atom_site_type_symbol
 _atom_site_label
 _atom_site_symmetry_multiplicity
 _atom_site_fract_x
 _atom_site_fract_y
 _atom_site_fract_z
 _atom_site_occupancy
  Cr  Cr0  1  0.05009243  0.06683952  0.10018486  1
  Cr  Cr1  1  0.65190816  0.67248245  0.30381632  1
  Cr  Cr2  1  0.25213047  0.27265630  0.50426094  1
  Cr  Cr3  1  0.85239089  0.87260624  0.70478179  1
  Cr  Cr4  1  0.45287217  0.46962485  0.90574435  1
  Cr  Cr5  1  0.54712783  0.53037515  0.09425565  1
  Cr  Cr6  1  0.14760911  0.12739376  0.29521821  1
  Cr  Cr7  1  0.74786953  0.72734370  0.49573906  1
  Cr  Cr8  1  0.34809184  0.32751755  0.69618368  1
  Cr  Cr9  1  0.94990757  0.93316048  0.89981514  1
  Cr  Cr10  1  0.59906662  0.59505182  0.19813324  1
  Cr  Cr11  1  0.19992588  0.19970633  0.39985176  1
  Cr  Cr12  1  0.80007412  0.80029367  0.60014824  1
  Cr  Cr13  1  0.40093338  0.40494818  0.80186676  1
  Se  Se14  1  0.07429352  0.73378223  0.14858705  1
  Se  Se15  1  0.67344164  0.33211521  0.34688328  1
  Se  Se16  1  0.27336790  0.93184407  0.54673580  1
  Se  Se17  1  0.87338523  0.53156903  0.74677045  1
  Se  Se18  1  0.47162294  0.13175120  0.94324587  1
  Se  Se19  1  0.52837706  0.86824880  0.05675413  1
  Se  Se20  1  0.12661477  0.46843097  0.25322955  1
  Se  Se21  1  0.72663210  0.06815593  0.45326420  1
  Se  Se22  1  0.32655836  0.66788479  0.65311672  1
  Se  Se23  1  0.92570648  0.26621777  0.85141295  1
  Se  Se24  1  0.02496787  0.35755119  0.04993573  1
  Se  Se25  1  0.62430562  0.95366102  0.24861124  1
  Se  Se26  1  0.22435099  0.55517686  0.44870199  1
  Se  Se27  1  0.82449209  0.15502587  0.64898417  1
  Se  Se28  1  0.42489852  0.75595784  0.84979705  1
  Se  Se29  1  0.57510148  0.24404216  0.15020295  1
  Se  Se30  1  0.17550791  0.84497413  0.35101583  1
  Se  Se31  1  0.77564901  0.44482314  0.55129801  1
  Se  Se32  1  0.37569438  0.04633898  0.75138876  1
  Se  Se33  1  0.97503213  0.64244881  0.95006427  1
