# generated using pymatgen
data_CoSi4Ni3
_symmetry_space_group_name_H-M   'P 1'
_cell_length_a   3.23204318
_cell_length_b   5.21737866
_cell_length_c   5.68620288
_cell_angle_alpha   90.18171358
_cell_angle_beta   90.00000000
_cell_angle_gamma   90.00000000
_symmetry_Int_Tables_number   1
_chemical_formula_structural   CoSi4Ni3
_chemical_formula_sum   'Co1 Si4 Ni3'
_cell_volume   95.88478049
_cell_formula_units_Z   1
loop_
 _symmetry_equiv_pos_site_id
 _symmetry_equiv_pos_as_xyz
  1  'x, y, z'
loop_
 _atom_site_type_symbol
 _atom_site_label
 _atom_site_symmetry_multiplicity
 _atom_site_fract_x
 _atom_site_fract_y
 _atom_site_fract_z
 _atom_site_occupancy
  Co  Co0  1  0.75000000  0.49267205  0.69087387  1
  Si  Si1  1  0.75000000  0.32277168  0.07356452  1
  Si  Si2  1  0.75000000  0.81547359  0.42470897  1
  Si  Si3  1  0.25000000  0.67567092  0.91908001  1
  Si  Si4  1  0.25000000  0.18777286  0.58084004  1
  Ni  Ni5  1  0.75000000  0.99202767  0.81142883  1
  Ni  Ni6  1  0.25000000  0.50735128  0.30995376  1
  Ni  Ni7  1  0.25000000  0.00625995  0.18955001  1
