# generated using pymatgen
data_CuNi3S8
_symmetry_space_group_name_H-M   'P 1'
_cell_length_a   5.67612355
_cell_length_b   5.67612355
_cell_length_c   5.67612355
_cell_angle_alpha   89.55772843
_cell_angle_beta   89.55772843
_cell_angle_gamma   90.44227157
_symmetry_Int_Tables_number   1
_chemical_formula_structural   CuNi3S8
_chemical_formula_sum   'Cu1 Ni3 S8'
_cell_volume   182.85906809
_cell_formula_units_Z   1
loop_
 _symmetry_equiv_pos_site_id
 _symmetry_equiv_pos_as_xyz
  1  'x, y, z'
loop_
 _atom_site_type_symbol
 _atom_site_label
 _atom_site_symmetry_multiplicity
 _atom_site_fract_x
 _atom_site_fract_y
 _atom_site_fract_z
 _atom_site_occupancy
  Cu  Cu0  1  0.50000000  -0.00000000  0.50000000  1
  Ni  Ni1  1  -0.00000000  0.50000000  0.50000000  1
  Ni  Ni2  1  0.50000000  0.50000000  -0.00000000  1
  Ni  Ni3  1  -0.00000000  -0.00000000  -0.00000000  1
  S  S4  1  0.89367206  0.39367206  0.10632794  1
  S  S5  1  0.39046010  0.10881265  0.90343023  1
  S  S6  1  0.09656977  0.89046010  0.39118735  1
  S  S7  1  0.60881265  0.59656977  0.60953990  1
  S  S8  1  0.10632794  0.60632794  0.89367206  1
  S  S9  1  0.60953990  0.89118735  0.09656977  1
  S  S10  1  0.90343023  0.10953990  0.60881265  1
  S  S11  1  0.39118735  0.40343023  0.39046010  1
