# generated using pymatgen
data_CsN3
_symmetry_space_group_name_H-M   'P 1'
_cell_length_a   4.10111662
_cell_length_b   5.74174828
_cell_length_c   4.10111662
_cell_angle_alpha   90.00000000
_cell_angle_beta   90.00000000
_cell_angle_gamma   90.00000000
_symmetry_Int_Tables_number   1
_chemical_formula_structural   CsN3
_chemical_formula_sum   'Cs1 N3'
_cell_volume   96.57136882
_cell_formula_units_Z   1
loop_
 _symmetry_equiv_pos_site_id
 _symmetry_equiv_pos_as_xyz
  1  'x, y, z'
loop_
 _atom_site_type_symbol
 _atom_site_label
 _atom_site_symmetry_multiplicity
 _atom_site_fract_x
 _atom_site_fract_y
 _atom_site_fract_z
 _atom_site_occupancy
  Cs  Cs0  1  0.50000000  0.50000000  0.50000000  1
  N  N1  1  -0.00000000  -0.00000000  -0.00000000  1
  N  N2  1  0.00000000  0.79267702  -0.00000000  1
  N  N3  1  -0.00000000  0.20732298  0.00000000  1
