# generated using pymatgen
data_Eu3YMn4O12
_symmetry_space_group_name_H-M   'P 1'
_cell_length_a   5.42149349
_cell_length_b   5.63637607
_cell_length_c   7.71702534
_cell_angle_alpha   90.00000000
_cell_angle_beta   90.00000000
_cell_angle_gamma   89.43228174
_symmetry_Int_Tables_number   1
_chemical_formula_structural   Eu3YMn4O12
_chemical_formula_sum   'Eu3 Y1 Mn4 O12'
_cell_volume   235.80201369
_cell_formula_units_Z   1
loop_
 _symmetry_equiv_pos_site_id
 _symmetry_equiv_pos_as_xyz
  1  'x, y, z'
loop_
 _atom_site_type_symbol
 _atom_site_label
 _atom_site_symmetry_multiplicity
 _atom_site_fract_x
 _atom_site_fract_y
 _atom_site_fract_z
 _atom_site_occupancy
  Eu  Eu0  1  0.98829276  0.05210101  0.25000000  1
  Eu  Eu1  1  0.48966378  0.44953703  0.75000000  1
  Eu  Eu2  1  0.01335247  0.94576700  0.75000000  1
  Y  Y3  1  0.51399269  0.56438821  0.25000000  1
  Mn  Mn4  1  0.00138915  0.49941278  0.00195365  1
  Mn  Mn5  1  0.49878340  0.00218576  0.49912797  1
  Mn  Mn6  1  0.00138915  0.49941278  0.49804635  1
  Mn  Mn7  1  0.49878340  0.00218576  0.00087203  1
  O  O8  1  0.78968328  0.78950306  0.04823924  1
  O  O9  1  0.70288612  0.30568271  0.44928198  1
  O  O10  1  0.20032261  0.20234084  0.54040648  1
  O  O11  1  0.29376761  0.69956593  0.96259064  1
  O  O12  1  0.20032261  0.20234084  0.95959352  1
  O  O13  1  0.29376761  0.69956593  0.53740936  1
  O  O14  1  0.78968328  0.78950306  0.45176076  1
  O  O15  1  0.70288612  0.30568271  0.05071802  1
  O  O16  1  0.42028141  0.97005356  0.25000000  1
  O  O17  1  0.10040279  0.48034027  0.25000000  1
  O  O18  1  0.57929567  0.02088151  0.75000000  1
  O  O19  1  0.92105408  0.51954923  0.75000000  1
