# generated using pymatgen
data_Cd2SeS
_symmetry_space_group_name_H-M   'P 1'
_cell_length_a   4.29765205
_cell_length_b   4.29769769
_cell_length_c   7.00787305
_cell_angle_alpha   90.00003121
_cell_angle_beta   89.99952704
_cell_angle_gamma   59.99965328
_symmetry_Int_Tables_number   1
_chemical_formula_structural   Cd2SeS
_chemical_formula_sum   'Cd2 Se1 S1'
_cell_volume   112.09402237
_cell_formula_units_Z   1
loop_
 _symmetry_equiv_pos_site_id
 _symmetry_equiv_pos_as_xyz
  1  'x, y, z'
loop_
 _atom_site_type_symbol
 _atom_site_label
 _atom_site_symmetry_multiplicity
 _atom_site_fract_x
 _atom_site_fract_y
 _atom_site_fract_z
 _atom_site_occupancy
  Cd  Cd0  1  0.66663521  0.66668244  0.49022725  1
  Cd  Cd1  1  0.33335619  0.33332190  0.00964443  1
  Se  Se2  1  0.33335141  0.33332422  0.62574594  1
  S  S3  1  0.66665719  0.66667144  0.12238237  1
