# generated using pymatgen
data_CdIn3Te4As
_symmetry_space_group_name_H-M   'P 1'
_cell_length_a   6.39789334
_cell_length_b   7.86179197
_cell_length_c   7.75471321
_cell_angle_alpha   100.12584444
_cell_angle_beta   114.19208479
_cell_angle_gamma   65.68166532
_symmetry_Int_Tables_number   1
_chemical_formula_structural   CdIn3Te4As
_chemical_formula_sum   'Cd1 In3 Te4 As1'
_cell_volume   324.21675020
_cell_formula_units_Z   1
loop_
 _symmetry_equiv_pos_site_id
 _symmetry_equiv_pos_as_xyz
  1  'x, y, z'
loop_
 _atom_site_type_symbol
 _atom_site_label
 _atom_site_symmetry_multiplicity
 _atom_site_fract_x
 _atom_site_fract_y
 _atom_site_fract_z
 _atom_site_occupancy
  Cd  Cd0  1  0.00160329  0.00886103  0.00462502  1
  In  In1  1  0.58154203  0.20673379  0.38728064  1
  In  In2  1  0.20949053  0.39598990  0.81573138  1
  In  In3  1  0.81140207  0.59021519  0.19376429  1
  Te  Te4  1  0.35556323  0.70385634  0.87843706  1
  Te  Te5  1  0.97379907  0.89444151  0.32385913  1
  Te  Te6  1  0.53783608  0.08129175  0.68999427  1
  Te  Te7  1  0.73070119  0.52040995  0.50827297  1
  As  As8  1  0.14806251  0.29820053  0.09803524  1
