# generated using pymatgen
data_CeZn2Ni3
_symmetry_space_group_name_H-M   'P 1'
_cell_length_a   3.90093408
_cell_length_b   5.19330024
_cell_length_c   5.19330026
_cell_angle_alpha   60.00287259
_cell_angle_beta   90.00000000
_cell_angle_gamma   90.00000000
_symmetry_Int_Tables_number   1
_chemical_formula_structural   CeZn2Ni3
_chemical_formula_sum   'Ce1 Zn2 Ni3'
_cell_volume   91.11684589
_cell_formula_units_Z   1
loop_
 _symmetry_equiv_pos_site_id
 _symmetry_equiv_pos_as_xyz
  1  'x, y, z'
loop_
 _atom_site_type_symbol
 _atom_site_label
 _atom_site_symmetry_multiplicity
 _atom_site_fract_x
 _atom_site_fract_y
 _atom_site_fract_z
 _atom_site_occupancy
  Ce  Ce0  1  0.00000000  0.99996626  0.00003374  1
  Zn  Zn1  1  -0.00000000  0.33331868  0.33335650  1
  Zn  Zn2  1  0.00000000  0.66664350  0.66668132  1
  Ni  Ni3  1  0.50000000  0.49999863  0.50000137  1
  Ni  Ni4  1  0.50000000  0.49999045  0.00001753  1
  Ni  Ni5  1  0.50000000  0.99998247  0.50000955  1
