# generated using pymatgen
data_Cr19S30
_symmetry_space_group_name_H-M   'P 1'
_cell_length_a   8.88115059
_cell_length_b   10.39611399
_cell_length_c   10.73536371
_cell_angle_alpha   80.86268254
_cell_angle_beta   107.54376279
_cell_angle_gamma   112.85075830
_symmetry_Int_Tables_number   1
_chemical_formula_structural   Cr19S30
_chemical_formula_sum   'Cr19 S30'
_cell_volume   869.93266395
_cell_formula_units_Z   1
loop_
 _symmetry_equiv_pos_site_id
 _symmetry_equiv_pos_as_xyz
  1  'x, y, z'
loop_
 _atom_site_type_symbol
 _atom_site_label
 _atom_site_symmetry_multiplicity
 _atom_site_fract_x
 _atom_site_fract_y
 _atom_site_fract_z
 _atom_site_occupancy
  Cr  Cr0  1  0.19715625  0.59717706  0.80151769  1
  Cr  Cr1  1  0.40000000  0.20000000  0.60000000  1
  Cr  Cr2  1  0.60284375  0.80282294  0.39848231  1
  Cr  Cr3  1  0.00382454  0.00002346  0.99818204  1
  Cr  Cr4  1  0.79617546  0.39997654  0.20181796  1
  Cr  Cr5  1  0.42241365  0.87765670  0.61371885  1
  Cr  Cr6  1  0.62381173  0.47075729  0.41090374  1
  Cr  Cr7  1  0.81641256  0.06665847  0.21553811  1
  Cr  Cr8  1  0.19590110  0.26353911  0.79740409  1
  Cr  Cr9  1  0.02038125  0.67174674  0.01450161  1
  Cr  Cr10  1  0.37758635  0.52234330  0.58628115  1
  Cr  Cr11  1  0.60409890  0.13646089  0.40259591  1
  Cr  Cr12  1  0.77961875  0.72825326  0.18549839  1
  Cr  Cr13  1  0.17618827  0.92924271  0.78909626  1
  Cr  Cr14  1  0.98358744  0.33334153  0.98446189  1
  Cr  Cr15  1  0.69324855  0.59849344  0.79684736  1
  Cr  Cr16  1  0.50583777  0.00380540  0.99816287  1
  Cr  Cr17  1  0.29416223  0.39619460  0.20183713  1
  Cr  Cr18  1  0.10675145  0.80150656  0.40315264  1
  S  S19  1  0.60673855  0.43381834  0.63185806  1
  S  S20  1  0.40479623  0.83506786  0.83248134  1
  S  S21  1  0.20181458  0.23454666  0.02971063  1
  S  S22  1  0.00275753  0.63409120  0.23409074  1
  S  S23  1  0.80401565  0.03031345  0.43176333  1
  S  S24  1  0.40870475  0.49963111  0.82036660  1
  S  S25  1  0.21827014  0.90562510  0.02359666  1
  S  S26  1  0.00989281  0.30282322  0.22342692  1
  S  S27  1  0.81486677  0.70549440  0.42025565  1
  S  S28  1  0.61277221  0.10594559  0.62562745  1
  S  S29  1  0.60685606  0.75707160  0.62700278  1
  S  S30  1  0.40362212  0.15496664  0.82676707  1
  S  S31  1  0.21127742  0.55743435  0.03181231  1
  S  S32  1  0.00681700  0.95222245  0.22836373  1
  S  S33  1  0.81292370  0.36136050  0.42620499  1
  S  S34  1  0.79724247  0.76590880  0.96590926  1
  S  S35  1  0.59818542  0.16545334  0.17028937  1
  S  S36  1  0.39520377  0.56493214  0.36751866  1
  S  S37  1  0.19326145  0.96618166  0.56814194  1
  S  S38  1  0.99598435  0.36968655  0.76823667  1
  S  S39  1  0.98513323  0.69450560  0.77974435  1
  S  S40  1  0.79010719  0.09717678  0.97657308  1
  S  S41  1  0.58172986  0.49437490  0.17640334  1
  S  S42  1  0.39129525  0.90036889  0.37963340  1
  S  S43  1  0.18722779  0.29405441  0.57437255  1
  S  S44  1  0.79318300  0.44777755  0.97163627  1
  S  S45  1  0.58872258  0.84256565  0.16818769  1
  S  S46  1  0.39637788  0.24503336  0.37323293  1
  S  S47  1  0.19314394  0.64292840  0.57299722  1
  S  S48  1  0.98707630  0.03863950  0.77379501  1
