# generated using pymatgen
data_CeY2(AlPd)3
_symmetry_space_group_name_H-M   'P 1'
_cell_length_a   4.03101717
_cell_length_b   7.28900605
_cell_length_c   7.19228879
_cell_angle_alpha   120.44583727
_cell_angle_beta   90.00000000
_cell_angle_gamma   90.00000000
_symmetry_Int_Tables_number   1
_chemical_formula_structural   CeY2(AlPd)3
_chemical_formula_sum   'Ce1 Y2 Al3 Pd3'
_cell_volume   182.18475507
_cell_formula_units_Z   1
loop_
 _symmetry_equiv_pos_site_id
 _symmetry_equiv_pos_as_xyz
  1  'x, y, z'
loop_
 _atom_site_type_symbol
 _atom_site_label
 _atom_site_symmetry_multiplicity
 _atom_site_fract_x
 _atom_site_fract_y
 _atom_site_fract_z
 _atom_site_occupancy
  Ce  Ce0  1  0.50000000  0.58120416  0.00000000  1
  Y  Y1  1  0.50000000  0.41629378  0.41567869  1
  Y  Y2  1  0.50000000  0.00061508  0.58432131  1
  Al  Al3  1  -0.00000000  0.23480647  1.00000000  1
  Al  Al4  1  -0.00000000  0.76206767  0.75968495  1
  Al  Al5  1  -0.00000000  0.00238272  0.24031505  1
  Pd  Pd6  1  0.00000000  0.33607178  0.66974085  1
  Pd  Pd7  1  0.00000000  0.66633093  0.33025915  1
  Pd  Pd8  1  0.50000000  0.00012741  -0.00000000  1
