# generated using pymatgen
data_CaNdGa3O7
_symmetry_space_group_name_H-M   'P 1'
_cell_length_a   5.29259963
_cell_length_b   7.99480234
_cell_length_c   7.97461829
_cell_angle_alpha   90.00000000
_cell_angle_beta   90.00000000
_cell_angle_gamma   90.27710483
_symmetry_Int_Tables_number   1
_chemical_formula_structural   CaNdGa3O7
_chemical_formula_sum   'Ca2 Nd2 Ga6 O14'
_cell_volume   337.42837314
_cell_formula_units_Z   2
loop_
 _symmetry_equiv_pos_site_id
 _symmetry_equiv_pos_as_xyz
  1  'x, y, z'
loop_
 _atom_site_type_symbol
 _atom_site_label
 _atom_site_symmetry_multiplicity
 _atom_site_fract_x
 _atom_site_fract_y
 _atom_site_fract_z
 _atom_site_occupancy
  Ca  Ca0  1  0.48624248  0.82973270  0.33712454  1
  Ca  Ca1  1  0.51375752  0.67026730  0.83712454  1
  Nd  Nd2  1  0.48581664  0.15513612  0.65945987  1
  Nd  Nd3  1  0.51418336  0.34486388  0.15945987  1
  Ga  Ga4  1  0.00035304  0.49931490  0.49897106  1
  Ga  Ga5  1  0.99964696  0.00068510  0.99897106  1
  Ga  Ga6  1  0.03732011  0.64513114  0.14416398  1
  Ga  Ga7  1  0.96267989  0.85486886  0.64416398  1
  Ga  Ga8  1  0.03515392  0.35665582  0.85594769  1
  Ga  Ga9  1  0.96484608  0.14334418  0.35594769  1
  O  O10  1  0.79470259  0.99686645  0.49542276  1
  O  O11  1  0.20529741  0.50313355  0.99542276  1
  O  O12  1  0.78197104  0.33771556  0.41248401  1
  O  O13  1  0.21802896  0.16228444  0.91248401  1
  O  O14  1  0.79432908  0.65631674  0.59737910  1
  O  O15  1  0.20567092  0.84368326  0.09737910  1
  O  O16  1  0.21781087  0.58188171  0.33714686  1
  O  O17  1  0.78218913  0.91811829  0.83714686  1
  O  O18  1  0.20676132  0.39699685  0.65613190  1
  O  O19  1  0.79323868  0.10300315  0.15613190  1
  O  O20  1  0.69415215  0.62856085  0.14198776  1
  O  O21  1  0.30584785  0.87143915  0.64198776  1
  O  O22  1  0.69117605  0.34950696  0.86378049  1
  O  O23  1  0.30882395  0.15049304  0.36378049  1
