# generated using pymatgen
data_Li7Mn2(CoO4)3
_symmetry_space_group_name_H-M   'P 1'
_cell_length_a   2.92640208
_cell_length_b   5.11701486
_cell_length_c   14.68284331
_cell_angle_alpha   98.86482974
_cell_angle_beta   83.94630611
_cell_angle_gamma   89.76365742
_symmetry_Int_Tables_number   1
_chemical_formula_structural   Li7Mn2(CoO4)3
_chemical_formula_sum   'Li7 Mn2 Co3 O12'
_cell_volume   215.98309913
_cell_formula_units_Z   1
loop_
 _symmetry_equiv_pos_site_id
 _symmetry_equiv_pos_as_xyz
  1  'x, y, z'
loop_
 _atom_site_type_symbol
 _atom_site_label
 _atom_site_symmetry_multiplicity
 _atom_site_fract_x
 _atom_site_fract_y
 _atom_site_fract_z
 _atom_site_occupancy
  Li  Li0  1  0.90393940  0.42081341  0.17674331  1
  Li  Li1  1  0.25514467  0.75771222  0.49063911  1
  Li  Li2  1  0.58292526  0.08935388  0.83398912  1
  Li  Li3  1  0.41152233  0.90895478  0.17602789  1
  Li  Li4  1  0.76272760  0.24585359  0.48992369  1
  Li  Li5  1  0.08374074  0.57731212  0.83267688  1
  Li  Li6  1  0.83333300  0.83333300  0.33333300  1
  Mn  Mn7  1  0.99736395  -0.00111534  0.00179239  1
  Mn  Mn8  1  0.66930305  0.66778234  0.66487461  1
  Co  Co9  1  0.33333300  0.33333300  0.33333300  1
  Co  Co10  1  0.49855317  0.49958271  0.00247517  1
  Co  Co11  1  0.16811383  0.16708429  0.66419183  1
  O  O12  1  0.45812930  0.17629526  0.07602760  1
  O  O13  1  0.80434800  0.52117006  0.40691365  1
  O  O14  1  0.12697426  0.84774266  0.74141825  1
  O  O15  1  0.95828447  0.72390008  0.07908087  1
  O  O16  1  0.29535113  0.08001919  0.40751113  1
  O  O17  1  0.62737373  0.39072549  0.74303871  1
  O  O18  1  0.37131587  0.58664781  0.25915587  1
  O  O19  1  0.70838253  0.94276692  0.58758613  1
  O  O20  1  0.03929227  0.27594051  0.92362729  1
  O  O21  1  0.86231900  0.14549694  0.25975335  1
  O  O22  1  0.20853770  0.49037174  0.59063940  1
  O  O23  1  0.53969174  0.81892334  0.92524775  1
