# generated using pymatgen
data_Cr19S30
_symmetry_space_group_name_H-M   'P 1'
_cell_length_a   8.88119749
_cell_length_b   10.69941640
_cell_length_c   10.38516962
_cell_angle_alpha   80.73425715
_cell_angle_beta   112.91672576
_cell_angle_gamma   107.49571319
_symmetry_Int_Tables_number   1
_chemical_formula_structural   Cr19S30
_chemical_formula_sum   'Cr19 S30'
_cell_volume   865.81328336
_cell_formula_units_Z   1
loop_
 _symmetry_equiv_pos_site_id
 _symmetry_equiv_pos_as_xyz
  1  'x, y, z'
loop_
 _atom_site_type_symbol
 _atom_site_label
 _atom_site_symmetry_multiplicity
 _atom_site_fract_x
 _atom_site_fract_y
 _atom_site_fract_z
 _atom_site_occupancy
  Cr  Cr0  1  0.61484532  0.41548346  0.46571882  1
  Cr  Cr1  1  0.19785779  0.79744442  0.26558090  1
  Cr  Cr2  1  0.02004402  0.01251396  0.67082117  1
  Cr  Cr3  1  0.42485305  0.60984110  0.87227160  1
  Cr  Cr4  1  0.81923230  0.21411339  0.07509255  1
  Cr  Cr5  1  0.60214221  0.40255558  0.13441910  1
  Cr  Cr6  1  0.18515468  0.78451654  0.93428118  1
  Cr  Cr7  1  0.98076770  0.98588661  0.32490745  1
  Cr  Cr8  1  0.37514695  0.59015890  0.52772840  1
  Cr  Cr9  1  0.77995598  0.18748604  0.72917883  1
  Cr  Cr10  1  0.40000000  0.60000000  0.20000000  1
  Cr  Cr11  1  0.99925020  -0.00000465  0.00379883  1
  Cr  Cr12  1  0.80074980  0.20000465  0.39620117  1
  Cr  Cr13  1  0.20315804  0.79815847  0.60017986  1
  Cr  Cr14  1  0.59684196  0.40184153  0.79982014  1
  Cr  Cr15  1  0.70069098  0.79880462  0.60045509  1
  Cr  Cr16  1  0.49660140  0.00019120  0.99874236  1
  Cr  Cr17  1  0.30339860  0.19980880  0.40125764  1
  Cr  Cr18  1  0.09930902  0.40119538  0.79954491  1
  S  S19  1  0.47958677  0.76165132  0.69244748  1
  S  S20  1  0.27485993  0.95896942  0.09192681  1
  S  S21  1  0.07770029  0.16231418  0.49093553  1
  S  S22  1  0.87308964  0.36039288  0.88984741  1
  S  S23  1  0.67395616  0.56257957  0.29141022  1
  S  S24  1  0.47778512  0.75732411  0.37227798  1
  S  S25  1  0.28247425  0.95851995  0.77179549  1
  S  S26  1  0.08158403  0.15888711  0.17282151  1
  S  S27  1  0.87590725  0.35536867  0.57061865  1
  S  S28  1  0.68195979  0.55623317  0.96915602  1
  S  S29  1  0.67027565  0.56671435  0.63180441  1
  S  S30  1  0.47395616  0.76558701  0.03315371  1
  S  S31  1  0.26813200  0.96464918  0.42979265  1
  S  S32  1  0.06786336  0.16723034  0.83203282  1
  S  S33  1  0.87189909  0.36421805  0.23538458  1
  S  S34  1  0.92691036  0.83960712  0.51015259  1
  S  S35  1  0.72229971  0.03768582  0.90906447  1
  S  S36  1  0.52514007  0.24103058  0.30807319  1
  S  S37  1  0.32041323  0.43834868  0.70755252  1
  S  S38  1  0.12604384  0.63742043  0.10858978  1
  S  S39  1  0.92409275  0.84463133  0.82938135  1
  S  S40  1  0.71841597  0.04111289  0.22717849  1
  S  S41  1  0.51752575  0.24148005  0.62820451  1
  S  S42  1  0.32221488  0.44267589  0.02772202  1
  S  S43  1  0.11804021  0.64376683  0.43084398  1
  S  S44  1  0.73213664  0.03276966  0.56796718  1
  S  S45  1  0.53186800  0.23535082  0.97020735  1
  S  S46  1  0.32604384  0.43441299  0.36684629  1
  S  S47  1  0.12972435  0.63328565  0.76819559  1
  S  S48  1  0.92810091  0.83578195  0.16461542  1
