# generated using pymatgen
data_Ca4ZrTi3(SiO5)4
_symmetry_space_group_name_H-M   'P 1'
_cell_length_a   6.69346430
_cell_length_b   8.85891495
_cell_length_c   7.20981626
_cell_angle_alpha   90.02800989
_cell_angle_beta   113.81647632
_cell_angle_gamma   89.68229038
_symmetry_Int_Tables_number   1
_chemical_formula_structural   Ca4ZrTi3(SiO5)4
_chemical_formula_sum   'Ca4 Zr1 Ti3 Si4 O20'
_cell_volume   391.10651941
_cell_formula_units_Z   1
loop_
 _symmetry_equiv_pos_site_id
 _symmetry_equiv_pos_as_xyz
  1  'x, y, z'
loop_
 _atom_site_type_symbol
 _atom_site_label
 _atom_site_symmetry_multiplicity
 _atom_site_fract_x
 _atom_site_fract_y
 _atom_site_fract_z
 _atom_site_occupancy
  Ca  Ca0  1  0.50000158  0.33428808  0.25493572  1
  Ca  Ca1  1  0.00838171  0.82664315  0.25491625  1
  Ca  Ca2  1  0.49999842  0.66571192  0.74506428  1
  Ca  Ca3  1  0.99161829  0.17335685  0.74508375  1
  Zr  Zr4  1  0.50000000  0.00000000  -0.00000000  1
  Ti  Ti5  1  -0.00000000  0.50000000  -0.00000000  1
  Ti  Ti6  1  0.50000000  0.00000000  0.50000000  1
  Ti  Ti7  1  -0.00000000  0.50000000  0.50000000  1
  Si  Si8  1  0.49909866  0.32217826  0.74889590  1
  Si  Si9  1  0.99194571  0.81661770  0.74647336  1
  Si  Si10  1  0.50090134  0.67782174  0.25110410  1
  Si  Si11  1  0.00805429  0.18338230  0.25352664  1
  O  O12  1  0.81110478  0.93366722  0.58643485  1
  O  O13  1  0.31520661  0.43806346  0.58892202  1
  O  O14  1  0.82969291  0.06652818  0.09503271  1
  O  O15  1  0.31394306  0.56372861  0.09423231  1
  O  O16  1  0.18889522  0.06633278  0.41356515  1
  O  O17  1  0.68479339  0.56193654  0.41107798  1
  O  O18  1  0.17030709  0.93347182  0.90496729  1
  O  O19  1  0.68605694  0.43627139  0.90576769  1
  O  O20  1  0.60793650  0.77864373  0.12235999  1
  O  O21  1  0.10373525  0.29074457  0.11998128  1
  O  O22  1  0.60210594  0.21208666  0.62396517  1
  O  O23  1  0.09681882  0.71097382  0.61655381  1
  O  O24  1  0.39206350  0.22135627  0.87764001  1
  O  O25  1  0.89626475  0.70925543  0.88001872  1
  O  O26  1  0.39789406  0.78791334  0.37603483  1
  O  O27  1  0.90318118  0.28902618  0.38344619  1
  O  O28  1  0.49904260  0.91835714  0.73740378  1
  O  O29  1  0.00053957  0.43221119  0.74993105  1
  O  O30  1  0.50095740  0.08164286  0.26259622  1
  O  O31  1  0.99946043  0.56778881  0.25006895  1
