# generated using pymatgen
data_Li7Mn2(CoO4)3
_symmetry_space_group_name_H-M   'P 1'
_cell_length_a   2.92144445
_cell_length_b   5.11362872
_cell_length_c   14.36303071
_cell_angle_alpha   91.10425970
_cell_angle_beta   90.00000000
_cell_angle_gamma   90.00000000
_symmetry_Int_Tables_number   1
_chemical_formula_structural   Li7Mn2(CoO4)3
_chemical_formula_sum   'Li7 Mn2 Co3 O12'
_cell_volume   214.53208341
_cell_formula_units_Z   1
loop_
 _symmetry_equiv_pos_site_id
 _symmetry_equiv_pos_as_xyz
  1  'x, y, z'
loop_
 _atom_site_type_symbol
 _atom_site_label
 _atom_site_symmetry_multiplicity
 _atom_site_fract_x
 _atom_site_fract_y
 _atom_site_fract_z
 _atom_site_occupancy
  Li  Li0  1  0.50000000  0.18203531  0.17957326  1
  Li  Li1  1  0.50000000  0.48463169  0.48709374  1
  Li  Li2  1  0.50000000  0.83333300  0.83333300  1
  Li  Li3  1  -0.00000000  0.67362690  0.17844236  1
  Li  Li4  1  -0.00000000  0.99304010  0.48822464  1
  Li  Li5  1  -0.00000000  0.33333300  0.83333300  1
  Li  Li6  1  -0.00000000  0.33333300  0.33333300  1
  Mn  Mn7  1  -0.00000000  0.00422544  0.00141167  1
  Mn  Mn8  1  0.00000000  0.66244156  0.66525533  1
  Co  Co9  1  0.50000000  0.50406399  0.00318468  1
  Co  Co10  1  0.50000000  0.83333300  0.33333300  1
  Co  Co11  1  0.50000000  0.16260301  0.66348232  1
  O  O12  1  0.50000000  0.86820398  0.07605879  1
  O  O13  1  0.50000000  0.12148595  0.40787004  1
  O  O14  1  0.50000000  0.52156691  0.74294900  1
  O  O15  1  0.00000000  0.31978012  0.07677387  1
  O  O16  1  -0.00000000  0.67878027  0.40715923  1
  O  O17  1  0.00000000  0.98295835  0.73993580  1
  O  O18  1  0.50000000  0.54518105  0.25879696  1
  O  O19  1  0.50000000  0.79846302  0.59060821  1
  O  O20  1  0.50000000  0.14509909  0.92371700  1
  O  O21  1  -0.00000000  0.98788673  0.25950777  1
  O  O22  1  -0.00000000  0.34688688  0.58989313  1
  O  O23  1  -0.00000000  0.68370765  0.92673020  1
