# generated using pymatgen
data_BaSrLuBiO6
_symmetry_space_group_name_H-M   'P 1'
_cell_length_a   6.02596711
_cell_length_b   8.52035350
_cell_length_c   6.02612480
_cell_angle_alpha   90.00000000
_cell_angle_beta   90.00000000
_cell_angle_gamma   89.94647198
_symmetry_Int_Tables_number   1
_chemical_formula_structural   BaSrLuBiO6
_chemical_formula_sum   'Ba2 Sr2 Lu2 Bi2 O12'
_cell_volume   309.40141989
_cell_formula_units_Z   2
loop_
 _symmetry_equiv_pos_site_id
 _symmetry_equiv_pos_as_xyz
  1  'x, y, z'
loop_
 _atom_site_type_symbol
 _atom_site_label
 _atom_site_symmetry_multiplicity
 _atom_site_fract_x
 _atom_site_fract_y
 _atom_site_fract_z
 _atom_site_occupancy
  Ba  Ba0  1  0.50340027  0.25022798  0.98482520  1
  Ba  Ba1  1  0.00340027  0.75022798  0.51517480  1
  Sr  Sr2  1  0.49295450  0.74992925  0.02415111  1
  Sr  Sr3  1  0.99295450  0.24992925  0.47584889  1
  Lu  Lu4  1  0.49975518  0.00019617  0.50083146  1
  Lu  Lu5  1  0.99975518  0.50019617  0.99916854  1
  Bi  Bi6  1  0.50004898  0.49969388  0.50089866  1
  Bi  Bi7  1  0.00004898  0.99969388  0.99910134  1
  O  O8  1  0.77958552  0.46066778  0.71410610  1
  O  O9  1  0.27958552  0.96066778  0.78589390  1
  O  O10  1  0.23284073  0.53051170  0.27255304  1
  O  O11  1  0.73284073  0.03051170  0.22744696  1
  O  O12  1  0.55294813  0.74703557  0.48423879  1
  O  O13  1  0.05294813  0.24703557  0.01576121  1
  O  O14  1  0.42559645  0.25352524  0.50858756  1
  O  O15  1  0.92559645  0.75352524  0.99141244  1
  O  O16  1  0.72479726  0.46996905  0.23007783  1
  O  O17  1  0.22479726  0.96996905  0.26992217  1
  O  O18  1  0.28807298  0.53824337  0.78109219  1
  O  O19  1  0.78807298  0.03824337  0.71890781  1
