# generated using pymatgen
data_BaSr2(SnO3)3
_symmetry_space_group_name_H-M   'P 1'
_cell_length_a   5.84010101
_cell_length_b   5.84010101
_cell_length_c   14.28502334
_cell_angle_alpha   90.19845878
_cell_angle_beta   89.80154122
_cell_angle_gamma   119.60317134
_symmetry_Int_Tables_number   1
_chemical_formula_structural   BaSr2(SnO3)3
_chemical_formula_sum   'Ba2 Sr4 Sn6 O18'
_cell_volume   423.61524568
_cell_formula_units_Z   2
loop_
 _symmetry_equiv_pos_site_id
 _symmetry_equiv_pos_as_xyz
  1  'x, y, z'
loop_
 _atom_site_type_symbol
 _atom_site_label
 _atom_site_symmetry_multiplicity
 _atom_site_fract_x
 _atom_site_fract_y
 _atom_site_fract_z
 _atom_site_occupancy
  Ba  Ba0  1  0.33180145  0.66563161  0.08296130  1
  Ba  Ba1  1  0.66563161  0.33180145  0.41703870  1
  Sr  Sr2  1  0.99330503  0.99330503  0.75000000  1
  Sr  Sr3  1  0.00974990  0.00974990  0.25000000  1
  Sr  Sr4  1  0.34443325  0.67729140  0.58524472  1
  Sr  Sr5  1  0.67729140  0.34443325  0.91475528  1
  Sn  Sn6  1  0.66685815  0.33366051  0.16574624  1
  Sn  Sn7  1  0.00080702  0.00164283  0.50255951  1
  Sn  Sn8  1  0.33421577  0.66700785  0.83168059  1
  Sn  Sn9  1  0.00164283  0.00080702  0.99744049  1
  Sn  Sn10  1  0.33366051  0.66685815  0.33425376  1
  Sn  Sn11  1  0.66700785  0.33421577  0.66831941  1
  O  O12  1  0.01505817  0.46811966  0.24193411  1
  O  O13  1  0.35131844  0.13074160  0.57666483  1
  O  O14  1  0.69203951  0.80168638  0.90226597  1
  O  O15  1  0.46811966  0.01505817  0.25806589  1
  O  O16  1  0.80168638  0.69203951  0.59773403  1
  O  O17  1  0.13074160  0.35131844  0.92333517  1
  O  O18  1  0.83850387  0.63825443  0.06760199  1
  O  O19  1  0.17264536  0.30445532  0.40386503  1
  O  O20  1  0.53583501  0.97277742  0.73637518  1
  O  O21  1  0.30445532  0.17264536  0.09613497  1
  O  O22  1  0.63825443  0.83850387  0.43239801  1
  O  O23  1  0.97277742  0.53583501  0.76362482  1
  O  O24  1  0.56892821  0.56892821  0.25000000  1
  O  O25  1  0.91048539  0.24280457  0.58633971  1
  O  O26  1  0.24280457  0.91048539  0.91366029  1
  O  O27  1  0.78680572  0.11937215  0.08172328  1
  O  O28  1  0.11937215  0.78680572  0.41827672  1
  O  O29  1  0.42376402  0.42376402  0.75000000  1
