# generated using pymatgen
data_CaAl12O19
_symmetry_space_group_name_H-M   'P 1'
_cell_length_a   5.61109137
_cell_length_b   5.61109137
_cell_length_c   22.06773084
_cell_angle_alpha   90.00000000
_cell_angle_beta   90.00000000
_cell_angle_gamma   120.00047368
_symmetry_Int_Tables_number   1
_chemical_formula_structural   CaAl12O19
_chemical_formula_sum   'Ca2 Al24 O38'
_cell_volume   601.70125737
_cell_formula_units_Z   2
loop_
 _symmetry_equiv_pos_site_id
 _symmetry_equiv_pos_as_xyz
  1  'x, y, z'
loop_
 _atom_site_type_symbol
 _atom_site_label
 _atom_site_symmetry_multiplicity
 _atom_site_fract_x
 _atom_site_fract_y
 _atom_site_fract_z
 _atom_site_occupancy
  Ca  Ca0  1  0.33330758  0.66669242  0.74913147  1
  Ca  Ca1  1  0.66669242  0.33330758  0.24913147  1
  Al  Al2  1  0.66667004  0.33332996  0.69085188  1
  Al  Al3  1  0.33333009  0.66666991  0.30893954  1
  Al  Al4  1  0.33332996  0.66667004  0.19085188  1
  Al  Al5  1  0.66666991  0.33333009  0.80893954  1
  Al  Al6  1  0.66667426  0.33332574  0.52842274  1
  Al  Al7  1  0.33332572  0.66667428  0.47205969  1
  Al  Al8  1  0.33332574  0.66667426  0.02842274  1
  Al  Al9  1  0.66667428  0.33332572  0.97205969  1
  Al  Al10  1  0.00000045  0.99999955  0.50033516  1
  Al  Al11  1  0.99999955  0.00000045  0.00033516  1
  Al  Al12  1  0.83094256  0.66189031  0.39108064  1
  Al  Al13  1  0.83094625  0.16905375  0.39108107  1
  Al  Al14  1  0.33810969  0.16905744  0.39108064  1
  Al  Al15  1  0.16788173  0.33575681  0.60970421  1
  Al  Al16  1  0.16787772  0.83212228  0.60970335  1
  Al  Al17  1  0.66424319  0.83211827  0.60970421  1
  Al  Al18  1  0.16905744  0.33810969  0.89108064  1
  Al  Al19  1  0.16905375  0.83094625  0.89108107  1
  Al  Al20  1  0.66189031  0.83094256  0.89108064  1
  Al  Al21  1  0.83211827  0.66424319  0.10970421  1
  Al  Al22  1  0.83212228  0.16787772  0.10970335  1
  Al  Al23  1  0.33575681  0.16788173  0.10970421  1
  Al  Al24  1  0.00000154  0.99999846  0.75682145  1
  Al  Al25  1  0.99999846  0.00000154  0.25682145  1
  O  O26  1  0.49682944  0.99365442  0.64942060  1
  O  O27  1  0.49683164  0.50316836  0.64942008  1
  O  O28  1  0.00634558  0.50317056  0.64942060  1
  O  O29  1  0.50350401  0.00701197  0.35084133  1
  O  O30  1  0.50350193  0.49649807  0.35084189  1
  O  O31  1  0.99298803  0.49649599  0.35084133  1
  O  O32  1  0.50317056  0.00634558  0.14942060  1
  O  O33  1  0.50316836  0.49683164  0.14942008  1
  O  O34  1  0.99365442  0.49682944  0.14942060  1
  O  O35  1  0.49649599  0.99298803  0.85084133  1
  O  O36  1  0.49649807  0.50350193  0.85084189  1
  O  O37  1  0.00701197  0.50350401  0.85084133  1
  O  O38  1  0.00000144  -0.00000144  0.64864211  1
  O  O39  1  -0.00000144  0.00000144  0.34965547  1
  O  O40  1  -0.00000144  0.00000144  0.14864211  1
  O  O41  1  0.00000144  -0.00000144  0.84965547  1
  O  O42  1  0.84464814  0.68930447  0.55184986  1
  O  O43  1  0.84466112  0.15533888  0.55185177  1
  O  O44  1  0.31069553  0.15535186  0.55184986  1
  O  O45  1  0.15481314  0.30961852  0.44749801  1
  O  O46  1  0.15480160  0.84519840  0.44749625  1
  O  O47  1  0.69038148  0.84518686  0.44749801  1
  O  O48  1  0.15535186  0.31069553  0.05184986  1
  O  O49  1  0.15533888  0.84466112  0.05185177  1
  O  O50  1  0.68930447  0.84464814  0.05184986  1
  O  O51  1  0.84518686  0.69038148  0.94749801  1
  O  O52  1  0.84519840  0.15480160  0.94749625  1
  O  O53  1  0.30961852  0.15481314  0.94749801  1
  O  O54  1  0.33331933  0.66668067  0.55455879  1
  O  O55  1  0.66667976  0.33332024  0.44545263  1
  O  O56  1  0.66668067  0.33331933  0.05455879  1
  O  O57  1  0.33332024  0.66667976  0.94545263  1
  O  O58  1  0.81872735  0.63742950  0.75055185  1
  O  O59  1  0.81871992  0.18128008  0.75055167  1
  O  O60  1  0.36257050  0.18127265  0.75055185  1
  O  O61  1  0.18127265  0.36257050  0.25055185  1
  O  O62  1  0.18128008  0.81871992  0.25055167  1
  O  O63  1  0.63742950  0.81872735  0.25055185  1
