# generated using pymatgen
data_BaSr2UO6
_symmetry_space_group_name_H-M   'P 1'
_cell_length_a   6.31874051
_cell_length_b   6.18981194
_cell_length_c   8.84791709
_cell_angle_alpha   89.78031571
_cell_angle_beta   90.00000000
_cell_angle_gamma   90.00000000
_symmetry_Int_Tables_number   1
_chemical_formula_structural   BaSr2UO6
_chemical_formula_sum   'Ba2 Sr4 U2 O12'
_cell_volume   346.05555684
_cell_formula_units_Z   2
loop_
 _symmetry_equiv_pos_site_id
 _symmetry_equiv_pos_as_xyz
  1  'x, y, z'
loop_
 _atom_site_type_symbol
 _atom_site_label
 _atom_site_symmetry_multiplicity
 _atom_site_fract_x
 _atom_site_fract_y
 _atom_site_fract_z
 _atom_site_occupancy
  Ba  Ba0  1  0.53850356  0.50679443  0.24926140  1
  Ba  Ba1  1  0.96149644  0.00679443  0.74926140  1
  Sr  Sr2  1  0.50801280  0.00074393  0.49995258  1
  Sr  Sr3  1  0.99198720  0.50074393  0.99995258  1
  Sr  Sr4  1  0.45091278  0.49613379  0.74777342  1
  Sr  Sr5  1  0.04908722  0.99613379  0.24777342  1
  U  U6  1  0.49499384  0.99958718  0.99919003  1
  U  U7  1  0.00500616  0.49958718  0.49919003  1
  O  O8  1  0.28416988  0.67378399  0.45439577  1
  O  O9  1  0.21583012  0.17378399  0.95439577  1
  O  O10  1  0.72218941  0.33577566  0.55828463  1
  O  O11  1  0.77781059  0.83577566  0.05828463  1
  O  O12  1  0.18675976  0.22420889  0.54243956  1
  O  O13  1  0.31324024  0.72420889  0.04243956  1
  O  O14  1  0.83795112  0.78497157  0.44836187  1
  O  O15  1  0.66204888  0.28497157  0.94836187  1
  O  O16  1  0.04813401  0.58396576  0.72767713  1
  O  O17  1  0.45186599  0.08396576  0.22767713  1
  O  O18  1  0.97100217  0.39403480  0.27266361  1
  O  O19  1  0.52899783  0.89403480  0.77266361  1
