# generated using pymatgen
data_Ca2HoMn3O9
_symmetry_space_group_name_H-M   'P 1'
_cell_length_a   7.62902474
_cell_length_b   9.26304148
_cell_length_c   10.78039290
_cell_angle_alpha   73.43216086
_cell_angle_beta   91.01796271
_cell_angle_gamma   113.66344561
_symmetry_Int_Tables_number   1
_chemical_formula_structural   Ca2HoMn3O9
_chemical_formula_sum   'Ca8 Ho4 Mn12 O36'
_cell_volume   664.73522286
_cell_formula_units_Z   4
loop_
 _symmetry_equiv_pos_site_id
 _symmetry_equiv_pos_as_xyz
  1  'x, y, z'
loop_
 _atom_site_type_symbol
 _atom_site_label
 _atom_site_symmetry_multiplicity
 _atom_site_fract_x
 _atom_site_fract_y
 _atom_site_fract_z
 _atom_site_occupancy
  Ca  Ca0  1  0.44613286  0.85137525  0.39712909  1
  Ca  Ca1  1  0.77829426  0.52030789  0.72969443  1
  Ca  Ca2  1  0.11416597  0.18773941  0.06352814  1
  Ca  Ca3  1  0.88583403  0.81226059  0.93647186  1
  Ca  Ca4  1  0.22170574  0.47969211  0.27030557  1
  Ca  Ca5  1  0.55386714  0.14862475  0.60287091  1
  Ca  Ca6  1  0.28656886  0.51309860  0.73617158  1
  Ca  Ca7  1  0.71343114  0.48690140  0.26382842  1
  Ho  Ho8  1  0.62751031  0.18243406  0.06864858  1
  Ho  Ho9  1  0.96060170  0.84714931  0.40255480  1
  Ho  Ho10  1  0.03939830  0.15285069  0.59744520  1
  Ho  Ho11  1  0.37248969  0.81756594  0.93135142  1
  Mn  Mn12  1  0.00000000  0.50000000  -0.00000000  1
  Mn  Mn13  1  0.33598752  0.16923558  0.33254421  1
  Mn  Mn14  1  0.66401248  0.83076442  0.66745579  1
  Mn  Mn15  1  0.50000000  0.50000000  0.50000000  1
  Mn  Mn16  1  0.83383498  0.16574089  0.83352083  1
  Mn  Mn17  1  0.16616502  0.83425911  0.16647917  1
  Mn  Mn18  1  0.50000000  0.50000000  -0.00000000  1
  Mn  Mn19  1  0.83268257  0.16666277  0.33430114  1
  Mn  Mn20  1  0.16731743  0.83333723  0.66569886  1
  Mn  Mn21  1  0.33314099  0.16740297  0.83192102  1
  Mn  Mn22  1  0.66685901  0.83259703  0.16807898  1
  Mn  Mn23  1  0.00000000  0.50000000  0.50000000  1
  O  O24  1  0.25131526  0.50457907  0.95501541  1
  O  O25  1  0.58042921  0.16190134  0.28454623  1
  O  O26  1  0.91856065  0.83982091  0.61611854  1
  O  O27  1  0.55154201  0.10056041  0.85346655  1
  O  O28  1  0.88782497  0.77518129  0.18359568  1
  O  O29  1  0.21820975  0.43393613  0.51471381  1
  O  O30  1  0.41957079  0.83809866  0.71545377  1
  O  O31  1  0.74868474  0.49542093  0.04498459  1
  O  O32  1  0.08143935  0.16017909  0.38388146  1
  O  O33  1  0.11217503  0.22481871  0.81640432  1
  O  O34  1  0.44845799  0.89943959  0.14653345  1
  O  O35  1  0.78179025  0.56606387  0.48528619  1
  O  O36  1  0.19812896  0.96739358  0.98196326  1
  O  O37  1  0.52360702  0.64096683  0.31904036  1
  O  O38  1  0.86515363  0.30055002  0.65054125  1
  O  O39  1  0.61557626  0.63983192  0.82037480  1
  O  O40  1  0.93424212  0.29870744  0.15126407  1
  O  O41  1  0.27033748  0.96662552  0.48346533  1
  O  O42  1  0.47639298  0.35903317  0.68095964  1
  O  O43  1  0.80187104  0.03260642  0.01803674  1
  O  O44  1  0.13484637  0.69944998  0.34945875  1
  O  O45  1  0.06575788  0.70129256  0.84873593  1
  O  O46  1  0.38442374  0.36016808  0.17962520  1
  O  O47  1  0.72966252  0.03337448  0.51653467  1
  O  O48  1  0.56482278  0.70650502  0.04495666  1
  O  O49  1  0.90284224  0.36754680  0.38168247  1
  O  O50  1  0.23000715  0.03872634  0.71053470  1
  O  O51  1  0.09715776  0.63245320  0.61831753  1
  O  O52  1  0.43517722  0.29349498  0.95504334  1
  O  O53  1  0.76999285  0.96127366  0.28946530  1
  O  O54  1  0.53794461  0.68638026  0.56427154  1
  O  O55  1  0.86651922  0.34977810  0.89893637  1
  O  O56  1  0.19985280  0.01756108  0.23276156  1
  O  O57  1  0.13348078  0.65022190  0.10106363  1
  O  O58  1  0.46205539  0.31361974  0.43572846  1
  O  O59  1  0.80014720  0.98243892  0.76723844  1
