# generated using pymatgen
data_Ca5Zr4Ti(GeO5)5
_symmetry_space_group_name_H-M   'P 1'
_cell_length_a   5.79321026
_cell_length_b   25.12194920
_cell_length_c   7.90718051
_cell_angle_alpha   81.00680890
_cell_angle_beta   72.96507631
_cell_angle_gamma   87.57986639
_symmetry_Int_Tables_number   1
_chemical_formula_structural   Ca5Zr4Ti(GeO5)5
_chemical_formula_sum   'Ca10 Zr8 Ti2 Ge10 O50'
_cell_volume   1086.76232159
_cell_formula_units_Z   2
loop_
 _symmetry_equiv_pos_site_id
 _symmetry_equiv_pos_as_xyz
  1  'x, y, z'
loop_
 _atom_site_type_symbol
 _atom_site_label
 _atom_site_symmetry_multiplicity
 _atom_site_fract_x
 _atom_site_fract_y
 _atom_site_fract_z
 _atom_site_occupancy
  Ca  Ca0  1  0.70661930  0.88076361  0.46382835  1
  Ca  Ca1  1  0.10502477  0.07954866  0.06494730  1
  Ca  Ca2  1  0.49816624  0.27921630  0.67527808  1
  Ca  Ca3  1  0.89909022  0.47955973  0.27434728  1
  Ca  Ca4  1  0.29981031  0.68046997  0.87430449  1
  Ca  Ca5  1  0.29338070  0.11923639  0.53617165  1
  Ca  Ca6  1  0.70018969  0.31953003  0.12569551  1
  Ca  Ca7  1  0.10090978  0.52044027  0.72565272  1
  Ca  Ca8  1  0.50183376  0.72078370  0.32472192  1
  Ca  Ca9  1  0.89497523  0.92045134  0.93505270  1
  Zr  Zr10  1  0.10015955  0.29914280  0.39972581  1
  Zr  Zr11  1  0.50000000  0.50000000  0.00000000  1
  Zr  Zr12  1  0.89984045  0.70085720  0.60027419  1
  Zr  Zr13  1  0.00000000  0.00000000  0.50000000  1
  Zr  Zr14  1  0.40312800  0.19828867  0.09947366  1
  Zr  Zr15  1  0.80015207  0.39981052  0.69969586  1
  Zr  Zr16  1  0.19984793  0.60018948  0.30030414  1
  Zr  Zr17  1  0.59687200  0.80171133  0.90052634  1
  Ti  Ti18  1  0.29980820  0.90080295  0.20006008  1
  Ti  Ti19  1  0.70019180  0.09919705  0.79993992  1
  Ge  Ge20  1  0.00442293  0.78763841  0.17769193  1
  Ge  Ge21  1  0.19938605  0.38581885  0.97731290  1
  Ge  Ge22  1  0.59976090  0.58609977  0.57711725  1
  Ge  Ge23  1  0.40544072  0.98533536  0.78325429  1
  Ge  Ge24  1  0.80041858  0.18366398  0.38318647  1
  Ge  Ge25  1  0.19958142  0.81633602  0.61681353  1
  Ge  Ge26  1  0.40023910  0.41390023  0.42288275  1
  Ge  Ge27  1  0.80061395  0.61418115  0.02268710  1
  Ge  Ge28  1  0.59455928  0.01466464  0.21674571  1
  Ge  Ge29  1  0.99557707  0.21236159  0.82230807  1
  O  O30  1  0.54411785  0.86923137  0.02911310  1
  O  O31  1  0.76893101  0.46850819  0.81323779  1
  O  O32  1  0.16807622  0.66873263  0.41457188  1
  O  O33  1  0.94384612  0.06806638  0.62586933  1
  O  O34  1  0.36739638  0.26743422  0.21100499  1
  O  O35  1  0.63260362  0.73256578  0.78899501  1
  O  O36  1  0.83192378  0.33126737  0.58542812  1
  O  O37  1  0.23106899  0.53149181  0.18676221  1
  O  O38  1  0.05615388  0.93193362  0.37413067  1
  O  O39  1  0.45588215  0.13076863  0.97088690  1
  O  O40  1  0.81356008  0.76595626  0.06282731  1
  O  O41  1  0.01251770  0.36261953  0.86283134  1
  O  O42  1  0.41281031  0.56285330  0.46264597  1
  O  O43  1  0.20952517  0.96555372  0.66876115  1
  O  O44  1  0.60873889  0.16234578  0.26858723  1
  O  O45  1  0.39126111  0.83765422  0.73141277  1
  O  O46  1  0.58718969  0.43714670  0.53735403  1
  O  O47  1  0.98748230  0.63738047  0.13716866  1
  O  O48  1  0.79047483  0.03444628  0.33123885  1
  O  O49  1  0.18643992  0.23404374  0.93717269  1
  O  O50  1  0.24676805  0.96046801  0.01038634  1
  O  O51  1  0.43888700  0.56310349  0.80384129  1
  O  O52  1  0.83924619  0.76386282  0.40330859  1
  O  O53  1  0.64670962  0.15926575  0.61112023  1
  O  O54  1  0.03909960  0.36258324  0.20401575  1
  O  O55  1  0.96090040  0.63741676  0.79598425  1
  O  O56  1  0.16075381  0.23613718  0.59669141  1
  O  O57  1  0.56111300  0.43689651  0.19615871  1
  O  O58  1  0.35329038  0.84073425  0.38887977  1
  O  O59  1  0.75323195  0.03953199  0.98961366  1
  O  O60  1  0.19204295  0.74466263  0.63588795  1
  O  O61  1  0.39021843  0.34252233  0.44047838  1
  O  O62  1  0.79064642  0.54290493  0.04106581  1
  O  O63  1  0.58035144  0.94295755  0.23310949  1
  O  O64  1  0.97913618  0.14096135  0.83716931  1
  O  O65  1  0.02086382  0.85903865  0.16283069  1
  O  O66  1  0.20935358  0.45709507  0.95893419  1
  O  O67  1  0.60978157  0.65747767  0.55952162  1
  O  O68  1  0.41964856  0.05704245  0.76689051  1
  O  O69  1  0.80795705  0.25533737  0.36411205  1
  O  O70  1  0.90398256  0.84128847  0.70156103  1
  O  O71  1  0.10624061  0.43991966  0.49888023  1
  O  O72  1  0.50614849  0.64003957  0.09871308  1
  O  O73  1  0.30309745  0.04156112  0.30223462  1
  O  O74  1  0.70556807  0.24026876  0.89942442  1
  O  O75  1  0.29443193  0.75973124  0.10057558  1
  O  O76  1  0.49385151  0.35996043  0.90128692  1
  O  O77  1  0.89375939  0.56008034  0.50111977  1
  O  O78  1  0.69690255  0.95843888  0.69776538  1
  O  O79  1  0.09601744  0.15871153  0.29843897  1
