# generated using pymatgen
data_CeU2S5
_symmetry_space_group_name_H-M   'P 1'
_cell_length_a   7.35210227
_cell_length_b   7.97372999
_cell_length_c   11.65488926
_cell_angle_alpha   90.00950354
_cell_angle_beta   89.96593729
_cell_angle_gamma   89.94230642
_symmetry_Int_Tables_number   1
_chemical_formula_structural   CeU2S5
_chemical_formula_sum   'Ce4 U8 S20'
_cell_volume   683.25200333
_cell_formula_units_Z   4
loop_
 _symmetry_equiv_pos_site_id
 _symmetry_equiv_pos_as_xyz
  1  'x, y, z'
loop_
 _atom_site_type_symbol
 _atom_site_label
 _atom_site_symmetry_multiplicity
 _atom_site_fract_x
 _atom_site_fract_y
 _atom_site_fract_z
 _atom_site_occupancy
  Ce  Ce0  1  0.53070644  0.50172157  0.67640665  1
  Ce  Ce1  1  0.46937112  0.00174083  0.32354518  1
  Ce  Ce2  1  0.03061034  0.00168880  0.82386715  1
  Ce  Ce3  1  0.96934861  0.50170721  0.17613801  1
  U  U4  1  0.42535893  0.74911234  0.00833437  1
  U  U5  1  0.07461781  0.74912117  0.50826797  1
  U  U6  1  0.57471374  0.24920693  0.99167527  1
  U  U7  1  0.92539236  0.24914137  0.49169418  1
  U  U8  1  0.97345712  0.99852939  0.17869836  1
  U  U9  1  0.02645428  0.49852139  0.82121626  1
  U  U10  1  0.47361225  0.49857063  0.32114495  1
  U  U11  1  0.52632127  0.99854198  0.67889467  1
  S  S12  1  0.03944190  0.74941223  0.00051041  1
  S  S13  1  0.46054460  0.74942323  0.50060524  1
  S  S14  1  0.96058293  0.24938494  0.99937089  1
  S  S15  1  0.53943132  0.24955993  0.49941466  1
  S  S16  1  0.67324803  0.54571858  0.90674948  1
  S  S17  1  0.83485201  0.95542913  0.40325852  1
  S  S18  1  0.32681110  0.04565778  0.09327181  1
  S  S19  1  0.16519362  0.45545355  0.59684063  1
  S  S20  1  0.33471287  0.45534013  0.09681501  1
  S  S21  1  0.17307625  0.04568268  0.59326928  1
  S  S22  1  0.66543636  0.95529304  0.90320272  1
  S  S23  1  0.82680539  0.54566754  0.40673785  1
  S  S24  1  0.30481581  0.74965919  0.78256716  1
  S  S25  1  0.19496838  0.74970847  0.28250441  1
  S  S26  1  0.69511798  0.24967756  0.21739079  1
  S  S27  1  0.80502010  0.24974494  0.71754567  1
  S  S28  1  0.66532428  0.75040254  0.18974393  1
  S  S29  1  0.83472602  0.75037382  0.68989620  1
  S  S30  1  0.33459965  0.25038532  0.81025937  1
  S  S31  1  0.16532709  0.25042179  0.31016293  1
