# generated using pymatgen
data_Ba3SrY2(SbO6)2
_symmetry_space_group_name_H-M   'P 1'
_cell_length_a   6.00025156
_cell_length_b   6.00434139
_cell_length_c   10.38806856
_cell_angle_alpha   89.94606641
_cell_angle_beta   73.21110465
_cell_angle_gamma   60.02710422
_symmetry_Int_Tables_number   1
_chemical_formula_structural   Ba3SrY2(SbO6)2
_chemical_formula_sum   'Ba3 Sr1 Y2 Sb2 O12'
_cell_volume   305.71260642
_cell_formula_units_Z   1
loop_
 _symmetry_equiv_pos_site_id
 _symmetry_equiv_pos_as_xyz
  1  'x, y, z'
loop_
 _atom_site_type_symbol
 _atom_site_label
 _atom_site_symmetry_multiplicity
 _atom_site_fract_x
 _atom_site_fract_y
 _atom_site_fract_z
 _atom_site_occupancy
  Ba  Ba0  1  0.24887992  0.37554997  0.12657979  1
  Ba  Ba1  1  0.25117902  0.87444138  0.62340391  1
  Ba  Ba2  1  0.75119422  0.62486670  0.87459166  1
  Sr  Sr3  1  0.74832682  0.12518591  0.37552500  1
  Y  Y4  1  0.99913555  0.00031155  0.00133019  1
  Y  Y5  1  0.00087319  0.49970950  0.49869621  1
  Sb  Sb6  1  0.49913037  0.75053128  0.25180954  1
  Sb  Sb7  1  0.50092888  0.24943203  0.74816075  1
  O  O8  1  0.73640196  0.39305114  0.13496935  1
  O  O9  1  0.73743446  0.89648234  0.62819485  1
  O  O10  1  0.26452942  0.60507177  0.86786474  1
  O  O11  1  0.26174028  0.10529729  0.36893717  1
  O  O12  1  0.29324675  0.61253759  0.37878793  1
  O  O13  1  0.28386853  0.12126382  0.87771305  1
  O  O14  1  0.71737815  0.37296804  0.61593408  1
  O  O15  1  0.71526815  0.87889383  0.12275726  1
  O  O16  1  0.75660714  0.65138196  0.35855979  1
  O  O17  1  0.75624431  0.14213853  0.85778155  1
  O  O18  1  0.23332184  0.86321327  0.14793147  1
  O  O19  1  0.24431105  0.35767210  0.64047172  1
