# generated using pymatgen
data_Ba6Nd2Y(CuO2)12
_symmetry_space_group_name_H-M   'P 1'
_cell_length_a   3.91984318
_cell_length_b   13.95801310
_cell_length_c   11.73870769
_cell_angle_alpha   98.00316986
_cell_angle_beta   90.00000000
_cell_angle_gamma   90.00000000
_symmetry_Int_Tables_number   1
_chemical_formula_structural   Ba6Nd2Y(CuO2)12
_chemical_formula_sum   'Ba6 Nd2 Y1 Cu12 O24'
_cell_volume   636.00712446
_cell_formula_units_Z   1
loop_
 _symmetry_equiv_pos_site_id
 _symmetry_equiv_pos_as_xyz
  1  'x, y, z'
loop_
 _atom_site_type_symbol
 _atom_site_label
 _atom_site_symmetry_multiplicity
 _atom_site_fract_x
 _atom_site_fract_y
 _atom_site_fract_z
 _atom_site_occupancy
  Ba  Ba0  1  0.50000000  0.27354227  0.54564971  1
  Ba  Ba1  1  0.50000000  0.27338759  0.21194984  1
  Ba  Ba2  1  0.50000000  0.27237139  0.87887365  1
  Ba  Ba3  1  0.50000000  0.72762861  0.78779235  1
  Ba  Ba4  1  0.50000000  0.72661241  0.45471716  1
  Ba  Ba5  1  0.50000000  0.72645773  0.12101729  1
  Nd  Nd6  1  0.50000000  0.00010835  0.16537605  1
  Nd  Nd7  1  0.50000000  0.99989165  0.50129095  1
  Y  Y8  1  0.50000000  -0.00000000  0.83333300  1
  Cu  Cu9  1  -0.00000000  0.42485898  0.73767862  1
  Cu  Cu10  1  0.00000000  0.42516001  0.40425071  1
  Cu  Cu11  1  0.00000000  0.42487450  0.07054461  1
  Cu  Cu12  1  -0.00000000  0.57512550  0.59612139  1
  Cu  Cu13  1  -0.00000000  0.57483999  0.26241629  1
  Cu  Cu14  1  -0.00000000  0.57514102  0.92898838  1
  Cu  Cu15  1  0.00000000  0.12693518  0.68955538  1
  Cu  Cu16  1  0.00000000  0.12822372  0.35456105  1
  Cu  Cu17  1  0.00000000  0.12690507  0.01915685  1
  Cu  Cu18  1  -0.00000000  0.87309493  0.64750915  1
  Cu  Cu19  1  -0.00000000  0.87177628  0.31210595  1
  Cu  Cu20  1  -0.00000000  0.87306482  0.97711162  1
  O  O21  1  0.00000000  0.43826630  0.57315727  1
  O  O22  1  -0.00000000  0.43802048  0.23963187  1
  O  O23  1  0.00000000  0.43817993  0.90636609  1
  O  O24  1  0.00000000  0.56182007  0.76030091  1
  O  O25  1  0.00000000  0.56197952  0.42703413  1
  O  O26  1  -0.00000000  0.56173370  0.09350973  1
  O  O27  1  0.50000000  0.10753987  0.68969417  1
  O  O28  1  0.50000000  0.11066961  0.35161824  1
  O  O29  1  0.50000000  0.10758166  0.01269547  1
  O  O30  1  0.50000000  0.89241834  0.65397153  1
  O  O31  1  0.50000000  0.88933039  0.31504776  1
  O  O32  1  0.50000000  0.89246013  0.97697283  1
  O  O33  1  0.00000000  0.29127237  0.71607439  1
  O  O34  1  0.00000000  0.29180961  0.38241082  1
  O  O35  1  0.00000000  0.29130359  0.04860559  1
  O  O36  1  -0.00000000  0.70869641  0.61806141  1
  O  O37  1  -0.00000000  0.70819039  0.28425518  1
  O  O38  1  0.00000000  0.70872763  0.95059261  1
  O  O39  1  -0.00000000  0.11045334  0.51938502  1
  O  O40  1  0.00000000  0.11031015  0.18412933  1
  O  O41  1  0.00000000  0.10378381  0.85017607  1
  O  O42  1  -0.00000000  0.89621619  0.81648993  1
  O  O43  1  0.00000000  0.88968985  0.48253767  1
  O  O44  1  0.00000000  0.88954666  0.14728198  1
