# generated using pymatgen
data_Ca11(Cd9Au2)2
_symmetry_space_group_name_H-M   'P 1'
_cell_length_a   10.42947082
_cell_length_b   10.42947082
_cell_length_c   17.08999706
_cell_angle_alpha   72.23378736
_cell_angle_beta   72.23378736
_cell_angle_gamma   90.00000000
_symmetry_Int_Tables_number   1
_chemical_formula_structural   Ca11(Cd9Au2)2
_chemical_formula_sum   'Ca22 Cd36 Au8'
_cell_volume   1676.95667451
_cell_formula_units_Z   2
loop_
 _symmetry_equiv_pos_site_id
 _symmetry_equiv_pos_as_xyz
  1  'x, y, z'
loop_
 _atom_site_type_symbol
 _atom_site_label
 _atom_site_symmetry_multiplicity
 _atom_site_fract_x
 _atom_site_fract_y
 _atom_site_fract_z
 _atom_site_occupancy
  Ca  Ca0  1  0.47664969  0.72664969  0.04670062  1
  Ca  Ca1  1  0.22664969  0.97664969  0.54670062  1
  Ca  Ca2  1  0.51779716  0.26779716  0.96440568  1
  Ca  Ca3  1  0.76779716  0.01779716  0.46440568  1
  Ca  Ca4  1  0.87478354  0.62478354  0.25043291  1
  Ca  Ca5  1  0.12478354  0.37478354  0.75043291  1
  Ca  Ca6  1  0.09998800  0.55733151  0.38533698  1
  Ca  Ca7  1  0.05733151  0.59998800  0.88533698  1
  Ca  Ca8  1  0.05733151  0.01467502  0.88533698  1
  Ca  Ca9  1  0.51467502  0.55733151  0.38533698  1
  Ca  Ca10  1  0.89874087  0.44254407  0.61491185  1
  Ca  Ca11  1  0.94254407  0.39874087  0.11491185  1
  Ca  Ca12  1  0.94254407  0.98634727  0.11491185  1
  Ca  Ca13  1  0.48634727  0.44254407  0.61491185  1
  Ca  Ca14  1  0.37120084  0.83935108  0.82129785  1
  Ca  Ca15  1  0.33935108  0.87120084  0.32129785  1
  Ca  Ca16  1  0.33935108  0.30750131  0.32129785  1
  Ca  Ca17  1  0.80750131  0.83935108  0.82129785  1
  Ca  Ca18  1  0.62254466  0.16494804  0.17010392  1
  Ca  Ca19  1  0.66494804  0.12254466  0.67010392  1
  Ca  Ca20  1  0.66494804  0.70735141  0.67010392  1
  Ca  Ca21  1  0.20735141  0.16494804  0.17010392  1
  Cd  Cd22  1  0.19061666  0.80647721  0.18356496  1
  Cd  Cd23  1  0.19061666  0.50995783  0.18356496  1
  Cd  Cd24  1  0.30647721  0.69061666  0.68356496  1
  Cd  Cd25  1  0.30647721  0.12581838  0.68356496  1
  Cd  Cd26  1  0.62581838  0.80647721  0.18356496  1
  Cd  Cd27  1  0.62581838  0.50995783  0.18356496  1
  Cd  Cd28  1  0.00995783  0.69061666  0.68356496  1
  Cd  Cd29  1  0.00995783  0.12581838  0.68356496  1
  Cd  Cd30  1  0.81191584  0.19573117  0.81634631  1
  Cd  Cd31  1  0.81191584  0.48792252  0.81634631  1
  Cd  Cd32  1  0.69573117  0.31191584  0.31634631  1
  Cd  Cd33  1  0.69573117  0.87173785  0.31634631  1
  Cd  Cd34  1  0.37173785  0.19573117  0.81634631  1
  Cd  Cd35  1  0.37173785  0.48792252  0.81634631  1
  Cd  Cd36  1  0.98792252  0.31191584  0.31634631  1
  Cd  Cd37  1  0.98792252  0.87173785  0.31634631  1
  Cd  Cd38  1  0.99809868  0.77372191  0.50104307  1
  Cd  Cd39  1  0.99809868  0.22523502  0.50104307  1
  Cd  Cd40  1  0.27372191  0.49809868  0.00104307  1
  Cd  Cd41  1  0.27372191  0.00085825  0.00104307  1
  Cd  Cd42  1  0.50085825  0.77372191  0.50104307  1
  Cd  Cd43  1  0.50085825  0.22523502  0.50104307  1
  Cd  Cd44  1  0.72523502  0.49809868  0.00104307  1
  Cd  Cd45  1  0.72523502  0.00085825  0.00104307  1
  Cd  Cd46  1  0.76857863  0.65809100  0.46284274  1
  Cd  Cd47  1  0.76857863  0.37906626  0.46284274  1
  Cd  Cd48  1  0.15809100  0.26857863  0.96284274  1
  Cd  Cd49  1  0.87906626  0.26857863  0.96284274  1
  Cd  Cd50  1  0.23168577  0.34126769  0.53662846  1
  Cd  Cd51  1  0.23168577  0.62210385  0.53662846  1
  Cd  Cd52  1  0.84126769  0.73168577  0.03662846  1
  Cd  Cd53  1  0.12210385  0.73168577  0.03662846  1
  Cd  Cd54  1  0.50942062  0.05672225  0.38655550  1
  Cd  Cd55  1  0.55672225  0.00942062  0.88655550  1
  Cd  Cd56  1  0.55672225  0.60402388  0.88655550  1
  Cd  Cd57  1  0.10402388  0.05672225  0.38655550  1
  Au  Au58  1  0.37568166  0.62568166  0.24863669  1
  Au  Au59  1  0.12568166  0.87568166  0.74863669  1
  Au  Au60  1  0.62313926  0.37313926  0.75372148  1
  Au  Au61  1  0.87313926  0.12313926  0.25372148  1
  Au  Au62  1  0.48931990  0.94326734  0.61346532  1
  Au  Au63  1  0.44326734  0.98931990  0.11346532  1
  Au  Au64  1  0.44326734  0.39721478  0.11346532  1
  Au  Au65  1  0.89721478  0.94326734  0.61346532  1
