# generated using pymatgen
data_Li7Mn2(CoO4)3
_symmetry_space_group_name_H-M   'P 1'
_cell_length_a   5.01757745
_cell_length_b   9.78719501
_cell_length_c   4.97315364
_cell_angle_alpha   92.23542989
_cell_angle_beta   63.00819946
_cell_angle_gamma   100.69251695
_symmetry_Int_Tables_number   1
_chemical_formula_structural   Li7Mn2(CoO4)3
_chemical_formula_sum   'Li7 Mn2 Co3 O12'
_cell_volume   213.55530671
_cell_formula_units_Z   1
loop_
 _symmetry_equiv_pos_site_id
 _symmetry_equiv_pos_as_xyz
  1  'x, y, z'
loop_
 _atom_site_type_symbol
 _atom_site_label
 _atom_site_symmetry_multiplicity
 _atom_site_fract_x
 _atom_site_fract_y
 _atom_site_fract_z
 _atom_site_occupancy
  Li  Li0  1  0.74144352  0.25659792  0.01153412  1
  Li  Li1  1  0.58693626  0.74346388  0.33071257  1
  Li  Li2  1  0.42484623  0.25874827  0.65631416  1
  Li  Li3  1  0.07972974  0.25653612  0.33595343  1
  Li  Li4  1  0.92522348  0.74340208  0.65513288  1
  Li  Li5  1  0.24182077  0.74125173  0.01035284  1
  Li  Li6  1  0.83333300  0.50000000  0.33333300  1
  Mn  Mn7  1  0.00297968  0.99950810  0.00280191  1
  Mn  Mn8  1  0.66368732  0.00049190  0.66386509  1
  Co  Co9  1  0.51214408  0.49647901  0.99687828  1
  Co  Co10  1  0.33333300  0.00000000  0.33333300  1
  Co  Co11  1  0.15452292  0.50352099  0.66978872  1
  O  O12  1  0.04750433  0.10520742  0.65070369  1
  O  O13  1  0.85712030  0.61635162  0.99256289  1
  O  O14  1  0.68582364  0.11796808  0.34593939  1
  O  O15  1  0.35331154  0.11506042  0.01657228  1
  O  O16  1  0.20807677  0.61542438  0.36655189  1
  O  O17  1  0.51075033  0.61272721  0.71067870  1
  O  O18  1  0.45859023  0.38457562  0.30011511  1
  O  O19  1  0.31335446  0.88493958  0.65009372  1
  O  O20  1  0.15591667  0.38727279  0.95598830  1
  O  O21  1  0.80954570  0.38364838  0.67410311  1
  O  O22  1  0.61916267  0.89479258  0.01596331  1
  O  O23  1  0.98084336  0.88203192  0.32072761  1
