# generated using pymatgen
data_Ba4Cr2MoWO12
_symmetry_space_group_name_H-M   'P 1'
_cell_length_a   5.77610263
_cell_length_b   5.77610263
_cell_length_c   10.06784133
_cell_angle_alpha   90.00000000
_cell_angle_beta   73.32999546
_cell_angle_gamma   120.00000000
_symmetry_Int_Tables_number   1
_chemical_formula_structural   Ba4Cr2MoWO12
_chemical_formula_sum   'Ba4 Cr2 Mo1 W1 O12'
_cell_volume   274.47368950
_cell_formula_units_Z   1
loop_
 _symmetry_equiv_pos_site_id
 _symmetry_equiv_pos_as_xyz
  1  'x, y, z'
loop_
 _atom_site_type_symbol
 _atom_site_label
 _atom_site_symmetry_multiplicity
 _atom_site_fract_x
 _atom_site_fract_y
 _atom_site_fract_z
 _atom_site_occupancy
  Ba  Ba0  1  0.75423400  0.87711700  0.36864900  1
  Ba  Ba1  1  0.24576600  0.12288300  0.63135100  1
  Ba  Ba2  1  0.74582983  0.37291491  0.88125526  1
  Ba  Ba3  1  0.25417017  0.62708509  0.11874474  1
  Cr  Cr4  1  0.50222395  0.25111197  0.24666408  1
  Cr  Cr5  1  0.49777605  0.74888803  0.75333592  1
  Mo  Mo6  1  -0.00000000  -0.00000000  0.00000000  1
  W  W7  1  -0.00000000  0.50000000  0.50000000  1
  O  O8  1  0.24297077  0.62148539  0.61847112  1
  O  O9  1  0.75262871  0.87631436  0.86893957  1
  O  O10  1  0.24737129  0.12368564  0.13106043  1
  O  O11  1  0.75702923  0.37851461  0.38152888  1
  O  O12  1  0.23995651  0.86144189  0.38152888  1
  O  O13  1  0.76004349  0.13855811  0.61847112  1
  O  O14  1  0.25474607  0.37843172  0.86893957  1
  O  O15  1  0.74525393  0.62156828  0.13106043  1
  O  O16  1  0.23995651  0.37851461  0.38152888  1
  O  O17  1  0.76004349  0.62148539  0.61847112  1
  O  O18  1  0.25474607  0.87631436  0.86893957  1
  O  O19  1  0.74525393  0.12368564  0.13106043  1
