# generated using pymatgen
data_BaSrAl20(CuO17)2
_symmetry_space_group_name_H-M   'P 1'
_cell_length_a   5.67077958
_cell_length_b   5.67084453
_cell_length_c   22.82302543
_cell_angle_alpha   90.01641547
_cell_angle_beta   89.98724232
_cell_angle_gamma   119.99816066
_symmetry_Int_Tables_number   1
_chemical_formula_structural   BaSrAl20(CuO17)2
_chemical_formula_sum   'Ba1 Sr1 Al20 Cu2 O34'
_cell_volume   635.62706796
_cell_formula_units_Z   1
loop_
 _symmetry_equiv_pos_site_id
 _symmetry_equiv_pos_as_xyz
  1  'x, y, z'
loop_
 _atom_site_type_symbol
 _atom_site_label
 _atom_site_symmetry_multiplicity
 _atom_site_fract_x
 _atom_site_fract_y
 _atom_site_fract_z
 _atom_site_occupancy
  Ba  Ba0  1  0.66667995  0.33332504  0.24809546  1
  Sr  Sr1  1  0.33329964  0.66669921  0.74731855  1
  Al  Al2  1  0.66667242  0.33334188  0.67244811  1
  Al  Al3  1  0.33333848  0.66665976  0.32375606  1
  Al  Al4  1  0.33332640  0.66667893  0.17171766  1
  Al  Al5  1  0.66667773  0.33330715  0.82290198  1
  Al  Al6  1  0.00001443  0.99998627  0.50191447  1
  Al  Al7  1  0.00000090  0.99997128  0.00044081  1
  Al  Al8  1  0.83165310  0.66335390  0.39424170  1
  Al  Al9  1  0.83166917  0.16834274  0.39424364  1
  Al  Al10  1  0.33665370  0.16835670  0.39424066  1
  Al  Al11  1  0.16428189  0.32854619  0.60726563  1
  Al  Al12  1  0.16428208  0.83571392  0.60725927  1
  Al  Al13  1  0.67144966  0.83571374  0.60726542  1
  Al  Al14  1  0.16875387  0.33752821  0.89273090  1
  Al  Al15  1  0.16876774  0.83124074  0.89272849  1
  Al  Al16  1  0.66247452  0.83125196  0.89273044  1
  Al  Al17  1  0.83594926  0.67190448  0.10582302  1
  Al  Al18  1  0.83595931  0.16403201  0.10582418  1
  Al  Al19  1  0.32810817  0.16405235  0.10582656  1
  Al  Al20  1  0.33332853  0.66668133  0.47795061  1
  Al  Al21  1  0.66667527  0.33335245  0.97700009  1
  Cu  Cu22  1  0.66667384  0.33331402  0.52535522  1
  Cu  Cu23  1  0.33326870  0.66662423  0.02473203  1
  O  O24  1  0.85183293  0.70359954  0.55493040  1
  O  O25  1  0.85176584  0.14823219  0.55494562  1
  O  O26  1  0.29639915  0.14816483  0.55493218  1
  O  O27  1  0.15790868  0.31581278  0.45032339  1
  O  O28  1  0.15791287  0.84209200  0.45032001  1
  O  O29  1  0.68418724  0.84209292  0.45032327  1
  O  O30  1  0.14791021  0.29573379  0.05365887  1
  O  O31  1  0.14776809  0.85216189  0.05364485  1
  O  O32  1  0.70430077  0.85207211  0.05364888  1
  O  O33  1  0.84168906  0.68334796  0.94911369  1
  O  O34  1  0.84169391  0.15831160  0.94911584  1
  O  O35  1  0.31664801  0.15831141  0.94911732  1
  O  O36  1  0.66665079  0.33336668  0.43654761  1
  O  O37  1  0.33334237  0.66665961  0.55764804  1
  O  O38  1  0.33333709  0.66669348  0.93546077  1
  O  O39  1  0.66666792  0.33330772  0.05663284  1
  O  O40  1  0.49272836  0.98550598  0.64965418  1
  O  O41  1  0.49276428  0.50725041  0.64965897  1
  O  O42  1  0.01450143  0.50728242  0.64965417  1
  O  O43  1  0.50338629  0.00675821  0.35039653  1
  O  O44  1  0.50336869  0.49662241  0.35039367  1
  O  O45  1  0.99324503  0.49661100  0.35039695  1
  O  O46  1  0.50572480  0.01146725  0.14752434  1
  O  O47  1  0.50576974  0.49425742  0.14752812  1
  O  O48  1  0.98852250  0.49428456  0.14752377  1
  O  O49  1  0.49518697  0.99035927  0.84823792  1
  O  O50  1  0.49516725  0.50482439  0.84823955  1
  O  O51  1  0.00964656  0.50481261  0.84823851  1
  O  O52  1  -0.00001263  0.00003245  0.64828968  1
  O  O53  1  0.00000537  -0.00002222  0.35871458  1
  O  O54  1  0.00000498  0.00003536  0.14740970  1
  O  O55  1  0.00001035  0.99997631  0.85796626  1
  O  O56  1  0.66669019  0.33331420  0.74802013  1
  O  O57  1  0.33331617  0.66668892  0.24797847  1
