# generated using pymatgen
data_Ca5Fe4(As3Pt)3
_symmetry_space_group_name_H-M   'P 1'
_cell_length_a   8.91064450
_cell_length_b   8.89077549
_cell_length_c   10.93509374
_cell_angle_alpha   99.29220215
_cell_angle_beta   109.15534234
_cell_angle_gamma   89.93449925
_symmetry_Int_Tables_number   1
_chemical_formula_structural   Ca5Fe4(As3Pt)3
_chemical_formula_sum   'Ca10 Fe8 As18 Pt6'
_cell_volume   806.35249517
_cell_formula_units_Z   2
loop_
 _symmetry_equiv_pos_site_id
 _symmetry_equiv_pos_as_xyz
  1  'x, y, z'
loop_
 _atom_site_type_symbol
 _atom_site_label
 _atom_site_symmetry_multiplicity
 _atom_site_fract_x
 _atom_site_fract_y
 _atom_site_fract_z
 _atom_site_occupancy
  Ca  Ca0  1  0.44864585  0.10869784  0.75111717  1
  Ca  Ca1  1  0.55135415  0.89130216  0.24888283  1
  Ca  Ca2  1  0.66332411  0.70005251  0.76852308  1
  Ca  Ca3  1  0.33667589  0.29994749  0.23147692  1
  Ca  Ca4  1  0.05700073  0.90565573  0.75084962  1
  Ca  Ca5  1  0.94299927  0.09434427  0.24915038  1
  Ca  Ca6  1  0.25360669  0.50443457  0.75633597  1
  Ca  Ca7  1  0.74639331  0.49556543  0.24366403  1
  Ca  Ca8  1  0.85611369  0.30092112  0.75171646  1
  Ca  Ca9  1  0.14388631  0.69907888  0.24828354  1
  Fe  Fe10  1  0.55637677  0.15239661  0.50307360  1
  Fe  Fe11  1  0.44362323  0.84760339  0.49692640  1
  Fe  Fe12  1  0.95047132  0.35391700  0.50165047  1
  Fe  Fe13  1  0.04952868  0.64608300  0.49834953  1
  Fe  Fe14  1  0.74413484  0.74911262  0.49815554  1
  Fe  Fe15  1  0.25586516  0.25088738  0.50184446  1
  Fe  Fe16  1  0.35014150  0.54420319  0.49889270  1
  Fe  Fe17  1  0.64985850  0.45579681  0.50110730  1
  As  As18  1  0.11312449  0.19963548  0.63735937  1
  As  As19  1  0.88687551  0.80036452  0.36264063  1
  As  As20  1  0.30929049  0.76009384  0.62946896  1
  As  As21  1  0.69070951  0.23990616  0.37053104  1
  As  As22  1  0.89913234  0.57827253  0.62473123  1
  As  As23  1  0.10086766  0.42172747  0.37526877  1
  As  As24  1  0.14773113  0.49452149  0.01609300  1
  As  As25  1  0.85226887  0.50547851  0.98390700  1
  As  As26  1  0.68666470  0.96667925  0.63026546  1
  As  As27  1  0.31333530  0.03332075  0.36973454  1
  As  As28  1  0.01820475  0.14460344  0.02023675  1
  As  As29  1  0.98179525  0.85539656  0.97976325  1
  As  As30  1  0.36612309  0.01327831  0.01862940  1
  As  As31  1  0.63387691  0.98672169  0.98137060  1
  As  As32  1  0.50453291  0.37768635  0.62671847  1
  As  As33  1  0.49546709  0.62231365  0.37328153  1
  As  As34  1  0.49687296  0.35959067  0.01223137  1
  As  As35  1  0.50312704  0.64040933  0.98776863  1
  Pt  Pt36  1  0.24864014  0.75198804  0.00096637  1
  Pt  Pt37  1  0.75135986  0.24801196  0.99903363  1
  Pt  Pt38  1  0.78074538  0.76617425  0.07538205  1
  Pt  Pt39  1  0.21925462  0.23382575  0.92461795  1
  Pt  Pt40  1  0.14972825  0.94948402  0.49840081  1
  Pt  Pt41  1  0.85027175  0.05051598  0.50159919  1
