# generated using pymatgen
data_Ba4Sr(SnO3)5
_symmetry_space_group_name_H-M   'P 1'
_cell_length_a   5.90562699
_cell_length_b   5.90562699
_cell_length_c   12.52515237
_cell_angle_alpha   76.36412166
_cell_angle_beta   90.00000000
_cell_angle_gamma   120.00000000
_symmetry_Int_Tables_number   1
_chemical_formula_structural   Ba4Sr(SnO3)5
_chemical_formula_sum   'Ba4 Sr1 Sn5 O15'
_cell_volume   364.02118175
_cell_formula_units_Z   1
loop_
 _symmetry_equiv_pos_site_id
 _symmetry_equiv_pos_as_xyz
  1  'x, y, z'
loop_
 _atom_site_type_symbol
 _atom_site_label
 _atom_site_symmetry_multiplicity
 _atom_site_fract_x
 _atom_site_fract_y
 _atom_site_fract_z
 _atom_site_occupancy
  Ba  Ba0  1  0.30013896  0.60027793  0.09958311  1
  Ba  Ba1  1  0.89999388  0.79998777  0.30001835  1
  Ba  Ba2  1  0.50000612  0.00001223  0.49998165  1
  Ba  Ba3  1  0.09986104  0.19972207  0.70041689  1
  Sr  Sr4  1  0.70000000  0.40000000  0.90000000  1
  Sn  Sn5  1  0.39985734  0.79971467  0.80042799  1
  Sn  Sn6  1  0.20000000  0.40000000  0.40000000  1
  Sn  Sn7  1  0.79982739  0.59965479  0.60051782  1
  Sn  Sn8  1  0.00014266  0.00028533  0.99957201  1
  Sn  Sn9  1  0.60017261  0.20034521  0.19948218  1
  O  O10  1  0.70000000  0.90000000  0.90000000  1
  O  O11  1  0.50017306  0.50007340  0.50002626  1
  O  O12  1  0.09786957  0.69828952  0.70129054  1
  O  O13  1  0.30213043  0.10171048  0.09870946  1
  O  O14  1  0.89982694  0.29992660  0.29997374  1
  O  O15  1  0.60041995  0.20083989  0.70129054  1
  O  O16  1  0.40009966  0.80019932  0.29997374  1
  O  O17  1  0.99990034  0.99980068  0.50002626  1
  O  O18  1  0.20000000  0.40000000  0.90000000  1
  O  O19  1  0.79958005  0.59916011  0.09870946  1
  O  O20  1  0.60041995  0.69828952  0.70129054  1
  O  O21  1  0.40009966  0.29992660  0.29997374  1
  O  O22  1  0.99990034  0.50007340  0.50002626  1
  O  O23  1  0.20000000  0.90000000  0.90000000  1
  O  O24  1  0.79958005  0.10171048  0.09870946  1
