# generated using pymatgen
data_Ba2AlGa3
_symmetry_space_group_name_H-M   'P 1'
_cell_length_a   4.94489318
_cell_length_b   6.18451230
_cell_length_c   6.22182092
_cell_angle_alpha   96.89747601
_cell_angle_beta   113.41468610
_cell_angle_gamma   66.43555121
_symmetry_Int_Tables_number   1
_chemical_formula_structural   Ba2AlGa3
_chemical_formula_sum   'Ba2 Al1 Ga3'
_cell_volume   159.87531863
_cell_formula_units_Z   1
loop_
 _symmetry_equiv_pos_site_id
 _symmetry_equiv_pos_as_xyz
  1  'x, y, z'
loop_
 _atom_site_type_symbol
 _atom_site_label
 _atom_site_symmetry_multiplicity
 _atom_site_fract_x
 _atom_site_fract_y
 _atom_site_fract_z
 _atom_site_occupancy
  Ba  Ba0  1  0.55920374  0.69087539  0.80928288  1
  Ba  Ba1  1  0.44117733  0.30820390  0.19055855  1
  Al  Al2  1  0.15977338  0.26329446  0.58284123  1
  Ga  Ga3  1  0.84118541  0.73496326  0.41733407  1
  Ga  Ga4  1  0.83942858  0.08445358  0.76331074  1
  Ga  Ga5  1  0.15923156  0.91820941  0.23667253  1
