# generated using pymatgen
data_Ba2Si3Ge5O18
_symmetry_space_group_name_H-M   'P 1'
_cell_length_a   6.77190046
_cell_length_b   6.77190752
_cell_length_c   9.86034873
_cell_angle_alpha   90.00000000
_cell_angle_beta   90.00000000
_cell_angle_gamma   119.99968650
_symmetry_Int_Tables_number   1
_chemical_formula_structural   Ba2Si3Ge5O18
_chemical_formula_sum   'Ba2 Si3 Ge5 O18'
_cell_volume   391.60286728
_cell_formula_units_Z   1
loop_
 _symmetry_equiv_pos_site_id
 _symmetry_equiv_pos_as_xyz
  1  'x, y, z'
loop_
 _atom_site_type_symbol
 _atom_site_label
 _atom_site_symmetry_multiplicity
 _atom_site_fract_x
 _atom_site_fract_y
 _atom_site_fract_z
 _atom_site_occupancy
  Ba  Ba0  1  0.33332159  0.66667552  0.00130881  1
  Ba  Ba1  1  0.33332159  0.66667552  0.49869119  1
  Si  Si2  1  0.91824407  0.70910171  0.25000000  1
  Si  Si3  1  0.79086082  0.08175573  0.25000000  1
  Si  Si4  1  0.29089650  0.20913910  0.25000000  1
  Ge  Ge5  1  0.66666771  0.33333380  0.00829337  1
  Ge  Ge6  1  0.66666771  0.33333380  0.49170663  1
  Ge  Ge7  1  0.78541479  0.69059347  0.75000000  1
  Ge  Ge8  1  0.30940239  0.09481600  0.75000000  1
  Ge  Ge9  1  0.90518299  0.21458169  0.75000000  1
  O  O10  1  0.90264147  0.56958394  0.11278508  1
  O  O11  1  0.66694736  0.09735879  0.11278539  1
  O  O12  1  0.43041488  0.33305423  0.11278537  1
  O  O13  1  0.90264147  0.56958394  0.38721492  1
  O  O14  1  0.66694736  0.09735879  0.38721461  1
  O  O15  1  0.43041488  0.33305423  0.38721463  1
  O  O16  1  0.64129106  0.55142136  0.60169409  1
  O  O17  1  0.44858539  0.08987388  0.60169560  1
  O  O18  1  0.91012712  0.35870729  0.60169579  1
  O  O19  1  0.64129106  0.55142136  0.89830591  1
  O  O20  1  0.44858539  0.08987388  0.89830440  1
  O  O21  1  0.91012712  0.35870729  0.89830421  1
  O  O22  1  0.74390246  0.81465685  0.25000000  1
  O  O23  1  0.07075387  0.25609255  0.25000000  1
  O  O24  1  0.18534267  0.92924553  0.25000000  1
  O  O25  1  0.08452217  0.80074395  0.75000000  1
  O  O26  1  0.19925826  0.28377700  0.75000000  1
  O  O27  1  0.71622586  0.91547882  0.75000000  1
