# generated using pymatgen
data_Ba3Sc3In(CuO4)3
_symmetry_space_group_name_H-M   'P 1'
_cell_length_a   8.52777632
_cell_length_b   9.56253892
_cell_length_c   9.56253892
_cell_angle_alpha   101.23200463
_cell_angle_beta   116.48061143
_cell_angle_gamma   63.51938857
_symmetry_Int_Tables_number   1
_chemical_formula_structural   Ba3Sc3In(CuO4)3
_chemical_formula_sum   'Ba6 Sc6 In2 Cu6 O24'
_cell_volume   624.74898750
_cell_formula_units_Z   2
loop_
 _symmetry_equiv_pos_site_id
 _symmetry_equiv_pos_as_xyz
  1  'x, y, z'
loop_
 _atom_site_type_symbol
 _atom_site_label
 _atom_site_symmetry_multiplicity
 _atom_site_fract_x
 _atom_site_fract_y
 _atom_site_fract_z
 _atom_site_occupancy
  Ba  Ba0  1  0.50188249  0.00000000  1.00000000  1
  Ba  Ba1  1  0.99811751  1.00000000  0.00000000  1
  Ba  Ba2  1  0.27768267  0.50122023  0.05716185  1
  Ba  Ba3  1  0.72174104  0.49877977  0.94283815  1
  Ba  Ba4  1  0.22231733  0.05716185  0.50122023  1
  Ba  Ba5  1  0.77825896  0.94283815  0.49877977  1
  Sc  Sc6  1  0.25000000  0.24034864  0.24034864  1
  Sc  Sc7  1  0.25000000  0.75965136  0.75965136  1
  Sc  Sc8  1  0.99333756  0.75666244  0.24333756  1
  Sc  Sc9  1  0.50666244  0.24333756  0.75666244  1
  Sc  Sc10  1  0.48963219  0.76036781  0.23963219  1
  Sc  Sc11  1  0.01036781  0.23963219  0.76036781  1
  In  In12  1  0.75000000  0.24197862  0.24197862  1
  In  In13  1  0.75000000  0.75802138  0.75802138  1
  Cu  Cu14  1  0.10765215  0.49686479  0.70870000  1
  Cu  Cu15  1  0.89581694  0.50313521  0.29130000  1
  Cu  Cu16  1  0.39234785  0.70870000  0.49686479  1
  Cu  Cu17  1  0.60418306  0.29130000  0.50313521  1
  Cu  Cu18  1  0.75000000  0.50000000  0.50000000  1
  Cu  Cu19  1  0.25000000  0.50000000  0.50000000  1
  O  O20  1  0.88092245  0.99225382  0.25745130  1
  O  O21  1  0.61572497  0.00774618  0.74254870  1
  O  O22  1  0.12338672  0.25412843  -0.00005533  1
  O  O23  1  0.37757048  0.74587157  0.00005533  1
  O  O24  1  0.88427503  0.74254870  0.00774618  1
  O  O25  1  0.61907755  0.25745130  0.99225382  1
  O  O26  1  0.37661328  -0.00005533  0.25412843  1
  O  O27  1  0.12242952  0.00005533  0.74587157  1
  O  O28  1  0.00786526  0.73245333  0.73920648  1
  O  O29  1  0.00111211  0.26754667  0.26079352  1
  O  O30  1  0.49213474  0.73920648  0.73245333  1
  O  O31  1  0.49888789  0.26079352  0.26754667  1
  O  O32  1  0.73882391  0.26165640  0.73649532  1
  O  O33  1  0.26398499  0.73834360  0.26350468  1
  O  O34  1  0.23601501  0.26350468  0.73834360  1
  O  O35  1  0.76117609  0.73649532  0.26165640  1
  O  O36  1  0.34747256  0.50019776  0.73036529  1
  O  O37  1  0.11730503  0.49980224  0.26963471  1
  O  O38  1  0.61063036  0.73019537  0.49818795  1
  O  O39  1  0.84263777  0.26980463  0.50181205  1
  O  O40  1  0.65736223  0.50181205  0.26980463  1
  O  O41  1  0.88936964  0.49818795  0.73019537  1
  O  O42  1  0.38269497  0.26963471  0.49980224  1
  O  O43  1  0.15252744  0.73036529  0.50019776  1
