# generated using pymatgen
data_Li7Mn2(CoO4)3
_symmetry_space_group_name_H-M   'P 1'
_cell_length_a   2.96484545
_cell_length_b   7.80621955
_cell_length_c   10.15728915
_cell_angle_alpha   69.32022053
_cell_angle_beta   91.17299893
_cell_angle_gamma   81.72992006
_symmetry_Int_Tables_number   1
_chemical_formula_structural   Li7Mn2(CoO4)3
_chemical_formula_sum   'Li7 Mn2 Co3 O12'
_cell_volume   217.00312186
_cell_formula_units_Z   1
loop_
 _symmetry_equiv_pos_site_id
 _symmetry_equiv_pos_as_xyz
  1  'x, y, z'
loop_
 _atom_site_type_symbol
 _atom_site_label
 _atom_site_symmetry_multiplicity
 _atom_site_fract_x
 _atom_site_fract_y
 _atom_site_fract_z
 _atom_site_occupancy
  Li  Li0  1  0.82388249  0.33670131  0.07799964  1
  Li  Li1  1  0.17203030  0.66241595  0.42098052  1
  Li  Li2  1  0.48874275  0.01082638  0.75151036  1
  Li  Li3  1  0.18094705  0.66594419  0.90858447  1
  Li  Li4  1  0.50122267  0.00045760  0.24916050  1
  Li  Li5  1  0.82995040  0.33159208  0.59398244  1
  Li  Li6  1  0.34964388  0.32774594  0.82725950  1
  Mn  Mn7  1  0.99245587  0.01200610  0.99145135  1
  Mn  Mn8  1  -0.00288261  0.99580799  0.50191502  1
  Co  Co9  1  0.32790468  0.33245324  0.33693741  1
  Co  Co10  1  0.68563065  0.65202604  0.67482605  1
  Co  Co11  1  0.66112764  0.66593390  0.16902834  1
  O  O12  1  0.43804528  0.14759290  0.03678908  1
  O  O13  1  0.76043919  0.49419006  0.36761000  1
  O  O14  1  0.05766203  0.82922200  0.69807159  1
  O  O15  1  0.73979063  0.52255265  0.85609969  1
  O  O16  1  0.07202129  0.82881547  0.19646617  1
  O  O17  1  0.37128698  0.16912927  0.53288390  1
  O  O18  1  0.25947040  0.50436952  0.13241805  1
  O  O19  1  0.61800722  0.82394029  0.47439795  1
  O  O20  1  0.92638583  0.15435712  0.80466203  1
  O  O21  1  0.55499799  0.85256360  0.96670344  1
  O  O22  1  0.90680144  0.16468686  0.30186768  1
  O  O23  1  0.28443598  0.51466954  0.62839483  1
