# generated using pymatgen
data_BaSrGd4O8
_symmetry_space_group_name_H-M   'P 1'
_cell_length_a   3.50505251
_cell_length_b   10.40878575
_cell_length_c   12.22195357
_cell_angle_alpha   90.01056526
_cell_angle_beta   89.99976294
_cell_angle_gamma   89.99782479
_symmetry_Int_Tables_number   1
_chemical_formula_structural   BaSrGd4O8
_chemical_formula_sum   'Ba2 Sr2 Gd8 O16'
_cell_volume   445.89768721
_cell_formula_units_Z   2
loop_
 _symmetry_equiv_pos_site_id
 _symmetry_equiv_pos_as_xyz
  1  'x, y, z'
loop_
 _atom_site_type_symbol
 _atom_site_label
 _atom_site_symmetry_multiplicity
 _atom_site_fract_x
 _atom_site_fract_y
 _atom_site_fract_z
 _atom_site_occupancy
  Ba  Ba0  1  0.75000039  0.74838735  0.14776386  1
  Ba  Ba1  1  0.75000047  0.24838867  0.35222181  1
  Sr  Sr2  1  0.24999942  0.25420219  0.85320329  1
  Sr  Sr3  1  0.24999995  0.75416164  0.64678484  1
  Gd  Gd4  1  0.75000072  0.07984199  0.10955117  1
  Gd  Gd5  1  0.75000319  0.57986771  0.39041462  1
  Gd  Gd6  1  0.25000239  0.92292004  0.88617700  1
  Gd  Gd7  1  0.24999440  0.42292799  0.61383412  1
  Gd  Gd8  1  0.75000098  0.07399574  0.61323355  1
  Gd  Gd9  1  0.74999635  0.57398230  0.88678968  1
  Gd  Gd10  1  0.24999706  0.92389400  0.39072476  1
  Gd  Gd11  1  0.25000880  0.42393293  0.10927652  1
  O  O12  1  0.75000014  0.28626339  0.67267877  1
  O  O13  1  0.74999882  0.78647103  0.82737705  1
  O  O14  1  0.24999822  0.71327378  0.33286702  1
  O  O15  1  0.25000016  0.21311535  0.16715422  1
  O  O16  1  0.75000851  0.37432215  0.97908093  1
  O  O17  1  0.75000028  0.87443482  0.52079989  1
  O  O18  1  0.25000478  0.61959855  0.01526097  1
  O  O19  1  0.24999859  0.11946595  0.48481487  1
  O  O20  1  0.74999578  0.07463391  0.91933301  1
  O  O21  1  0.74999581  0.57482336  0.58067643  1
  O  O22  1  0.25000249  0.93288859  0.07553172  1
  O  O23  1  0.25000267  0.43285432  0.42434677  1
  O  O24  1  0.75000136  0.99024216  0.28544851  1
  O  O25  1  0.74999458  0.49033380  0.21460323  1
  O  O26  1  0.25000195  0.00537725  0.71440127  1
  O  O27  1  0.24999176  0.50539904  0.78565014  1
