# generated using pymatgen
data_Ba2Sr3CaMg2(SiO4)4
_symmetry_space_group_name_H-M   'P 1'
_cell_length_a   5.54490966
_cell_length_b   9.60047892
_cell_length_c   7.04645680
_cell_angle_alpha   89.99746688
_cell_angle_beta   90.00020300
_cell_angle_gamma   90.00161475
_symmetry_Int_Tables_number   1
_chemical_formula_structural   Ba2Sr3CaMg2(SiO4)4
_chemical_formula_sum   'Ba2 Sr3 Ca1 Mg2 Si4 O16'
_cell_volume   375.10958930
_cell_formula_units_Z   1
loop_
 _symmetry_equiv_pos_site_id
 _symmetry_equiv_pos_as_xyz
  1  'x, y, z'
loop_
 _atom_site_type_symbol
 _atom_site_label
 _atom_site_symmetry_multiplicity
 _atom_site_fract_x
 _atom_site_fract_y
 _atom_site_fract_z
 _atom_site_occupancy
  Ba  Ba0  1  0.99999933  0.00037835  0.50025323  1
  Ba  Ba1  1  0.50000247  0.49961184  0.50072486  1
  Sr  Sr2  1  0.50000507  0.83325040  0.83755994  1
  Sr  Sr3  1  0.49999640  0.16742859  0.16154662  1
  Sr  Sr4  1  0.99999253  0.66590678  0.16204326  1
  Ca  Ca5  1  0.00003918  0.33346441  0.83125178  1
  Mg  Mg6  1  0.99999813  0.00132398  0.99992171  1
  Mg  Mg7  1  0.50000259  0.49872597  0.99977164  1
  Si  Si8  1  0.00000478  0.33331837  0.27269809  1
  Si  Si9  1  0.50000564  0.83337636  0.27051508  1
  Si  Si10  1  0.49999035  0.16820263  0.72906200  1
  Si  Si11  1  -0.00000511  0.66509126  0.72918730  1
  O  O12  1  0.23701179  0.41215343  0.17776260  1
  O  O13  1  0.73759021  0.91274539  0.17675685  1
  O  O14  1  0.76300223  0.41215160  0.17778096  1
  O  O15  1  0.26242318  0.91274353  0.17676822  1
  O  O16  1  0.00000258  0.17538820  0.17791501  1
  O  O17  1  0.50000161  0.67484213  0.17667861  1
  O  O18  1  0.26076155  0.09022315  0.82293435  1
  O  O19  1  0.76373350  0.58459125  0.82281790  1
  O  O20  1  0.73921962  0.09022575  0.82292372  1
  O  O21  1  0.23624711  0.58458962  0.82280409  1
  O  O22  1  0.49997868  0.32626162  0.82278678  1
  O  O23  1  0.99999927  0.82404151  0.82289414  1
  O  O24  1  0.00002263  0.33334968  0.50449578  1
  O  O25  1  0.50002225  0.83335721  0.49949867  1
  O  O26  1  0.49997518  0.16684546  0.50025633  1
  O  O27  1  0.99997726  0.66641155  0.50039047  1
