# generated using pymatgen
data_Ba2MnRuO6
_symmetry_space_group_name_H-M   'P 1'
_cell_length_a   5.85079376
_cell_length_b   5.84823331
_cell_length_c   14.39394417
_cell_angle_alpha   90.00000000
_cell_angle_beta   88.61777919
_cell_angle_gamma   60.01447550
_symmetry_Int_Tables_number   1
_chemical_formula_structural   Ba2MnRuO6
_chemical_formula_sum   'Ba6 Mn3 Ru3 O18'
_cell_volume   426.42707414
_cell_formula_units_Z   3
loop_
 _symmetry_equiv_pos_site_id
 _symmetry_equiv_pos_as_xyz
  1  'x, y, z'
loop_
 _atom_site_type_symbol
 _atom_site_label
 _atom_site_symmetry_multiplicity
 _atom_site_fract_x
 _atom_site_fract_y
 _atom_site_fract_z
 _atom_site_occupancy
  Ba  Ba0  1  0.33396369  0.33301816  0.59275892  1
  Ba  Ba1  1  0.66603631  0.66698184  0.40724108  1
  Ba  Ba2  1  0.66654281  0.66672860  0.09194507  1
  Ba  Ba3  1  0.33345719  0.33327140  0.90805493  1
  Ba  Ba4  1  0.99903379  0.00048311  0.75153330  1
  Ba  Ba5  1  0.00096621  0.99951689  0.24846670  1
  Mn  Mn6  1  0.33128945  0.33435528  0.15293696  1
  Mn  Mn7  1  0.66871055  0.66564472  0.84706304  1
  Mn  Mn8  1  -0.00000000  0.00000000  0.50000000  1
  Ru  Ru9  1  0.66473616  0.66763192  0.65690187  1
  Ru  Ru10  1  0.33526384  0.33236808  0.34309813  1
  Ru  Ru11  1  -0.00000000  0.00000000  0.00000000  1
  O  O12  1  0.36345216  0.81827392  0.58012061  1
  O  O13  1  0.84852911  0.82259997  0.58756031  1
  O  O14  1  0.84852911  0.32887092  0.58756031  1
  O  O15  1  0.63654784  0.18172608  0.41987939  1
  O  O16  1  0.15147089  0.17740003  0.41243969  1
  O  O17  1  0.15147089  0.67112908  0.41243969  1
  O  O18  1  0.66658949  0.16670525  0.08125424  1
  O  O19  1  0.15858212  0.16081245  0.07869622  1
  O  O20  1  0.15858212  0.68060542  0.07869622  1
  O  O21  1  0.33341051  0.83329475  0.91874576  1
  O  O22  1  0.84141788  0.83918755  0.92130378  1
  O  O23  1  0.84141788  0.31939458  0.92130378  1
  O  O24  1  0.95735321  0.52132339  0.75493687  1
  O  O25  1  0.51143818  0.51532216  0.74531945  1
  O  O26  1  0.51143818  0.97323965  0.74531945  1
  O  O27  1  0.04264679  0.47867661  0.24506313  1
  O  O28  1  0.48856182  0.48467784  0.25468055  1
  O  O29  1  0.48856182  0.02676035  0.25468055  1
