# generated using pymatgen
data_Ba6Nd2Y(CuO2)12
_symmetry_space_group_name_H-M   'P 1'
_cell_length_a   3.94121256
_cell_length_b   3.91130726
_cell_length_c   41.45025813
_cell_angle_alpha   87.29573911
_cell_angle_beta   90.00000000
_cell_angle_gamma   90.00000000
_symmetry_Int_Tables_number   1
_chemical_formula_structural   Ba6Nd2Y(CuO2)12
_chemical_formula_sum   'Ba6 Nd2 Y1 Cu12 O24'
_cell_volume   638.25631199
_cell_formula_units_Z   1
loop_
 _symmetry_equiv_pos_site_id
 _symmetry_equiv_pos_as_xyz
  1  'x, y, z'
loop_
 _atom_site_type_symbol
 _atom_site_label
 _atom_site_symmetry_multiplicity
 _atom_site_fract_x
 _atom_site_fract_y
 _atom_site_fract_z
 _atom_site_occupancy
  Ba  Ba0  1  0.50000000  0.45453164  0.09093671  1
  Ba  Ba1  1  0.50000000  0.78774404  0.42451091  1
  Ba  Ba2  1  0.50000000  0.12112673  0.75774753  1
  Ba  Ba3  1  0.50000000  0.87887327  0.24225247  1
  Ba  Ba4  1  0.50000000  0.21225596  0.57548909  1
  Ba  Ba5  1  0.50000000  0.54546836  0.90906329  1
  Nd  Nd6  1  0.50000000  0.83334672  0.33330555  1
  Nd  Nd7  1  0.50000000  0.16665328  0.66669445  1
  Y  Y8  1  0.50000000  0.50000000  -0.00000000  1
  Cu  Cu9  1  0.00000000  0.97915544  0.04168913  1
  Cu  Cu10  1  0.00000000  0.31202975  0.37593949  1
  Cu  Cu11  1  -0.00000000  0.64537902  0.70924297  1
  Cu  Cu12  1  0.00000000  0.35462098  0.29075703  1
  Cu  Cu13  1  0.00000000  0.68797025  0.62406051  1
  Cu  Cu14  1  -0.00000000  0.02084456  0.95831087  1
  Cu  Cu15  1  0.00000000  0.92914646  0.14170707  1
  Cu  Cu16  1  -0.00000000  0.26246675  0.47506550  1
  Cu  Cu17  1  -0.00000000  0.59578829  0.80842443  1
  Cu  Cu18  1  0.00000000  0.40421171  0.19157557  1
  Cu  Cu19  1  0.00000000  0.73753325  0.52493450  1
  Cu  Cu20  1  -0.00000000  0.07085354  0.85829293  1
  O  O21  1  -0.00000000  0.95150745  0.09698511  1
  O  O22  1  -0.00000000  0.28472504  0.43054891  1
  O  O23  1  -0.00000000  0.61805635  0.76388830  1
  O  O24  1  -0.00000000  0.38194365  0.23611170  1
  O  O25  1  -0.00000000  0.71527496  0.56945109  1
  O  O26  1  -0.00000000  0.04849255  0.90301489  1
  O  O27  1  -0.00000000  0.42717961  0.14564178  1
  O  O28  1  -0.00000000  0.76043740  0.47912520  1
  O  O29  1  -0.00000000  0.09378609  0.81242681  1
  O  O30  1  -0.00000000  0.90621391  0.18757319  1
  O  O31  1  -0.00000000  0.23956260  0.52087480  1
  O  O32  1  -0.00000000  0.57282039  0.85435822  1
  O  O33  1  0.50000000  0.98241072  0.03517756  1
  O  O34  1  0.50000000  0.31477507  0.37045086  1
  O  O35  1  0.50000000  0.64809962  0.70380077  1
  O  O36  1  0.50000000  0.35190038  0.29619923  1
  O  O37  1  0.50000000  0.68522493  0.62954914  1
  O  O38  1  0.50000000  0.01758928  0.96482244  1
  O  O39  1  -0.00000000  0.48271669  0.03456762  1
  O  O40  1  -0.00000000  0.81503863  0.36992274  1
  O  O41  1  -0.00000000  0.14837471  0.70324957  1
  O  O42  1  -0.00000000  0.85162529  0.29675043  1
  O  O43  1  -0.00000000  0.18496137  0.63007726  1
  O  O44  1  -0.00000000  0.51728331  0.96543238  1
