# generated using pymatgen
data_Ba2CaTl2(CuO4)2
_symmetry_space_group_name_H-M   'P 1'
_cell_length_a   3.88748075
_cell_length_b   3.90149296
_cell_length_c   15.47232629
_cell_angle_alpha   82.75688781
_cell_angle_beta   82.78304017
_cell_angle_gamma   90.00000000
_symmetry_Int_Tables_number   1
_chemical_formula_structural   Ba2CaTl2(CuO4)2
_chemical_formula_sum   'Ba2 Ca1 Tl2 Cu2 O8'
_cell_volume   230.92159390
_cell_formula_units_Z   1
loop_
 _symmetry_equiv_pos_site_id
 _symmetry_equiv_pos_as_xyz
  1  'x, y, z'
loop_
 _atom_site_type_symbol
 _atom_site_label
 _atom_site_symmetry_multiplicity
 _atom_site_fract_x
 _atom_site_fract_y
 _atom_site_fract_z
 _atom_site_occupancy
  Ba  Ba0  1  0.11763249  0.11967388  0.76473502  1
  Ba  Ba1  1  0.88236751  0.88440890  0.23526498  1
  Ca  Ca2  1  -0.00000000  0.00006456  -0.00000000  1
  Tl  Tl3  1  0.71207455  0.69935650  0.57585090  1
  Tl  Tl4  1  0.28792545  0.27520740  0.42414910  1
  Cu  Cu5  1  0.55127672  0.55152905  0.89744655  1
  Cu  Cu6  1  0.44872328  0.44897560  0.10255345  1
  O  O7  1  0.64465466  0.65231573  0.71069067  1
  O  O8  1  0.35534534  0.36300640  0.28930933  1
  O  O9  1  0.55224672  0.05254242  0.89550655  1
  O  O10  1  0.05222974  0.55235498  0.89554053  1
  O  O11  1  0.44775328  0.94804897  0.10449345  1
  O  O12  1  0.94777026  0.44789551  0.10445947  1
  O  O13  1  0.78031839  0.87472843  0.43936322  1
  O  O14  1  0.21968161  0.31409165  0.56063678  1
