# generated using pymatgen
data_Al6Cu2B4O17
_symmetry_space_group_name_H-M   'P 1'
_cell_length_a   5.73623535
_cell_length_b   8.15845513
_cell_length_c   7.97880888
_cell_angle_alpha   97.28530223
_cell_angle_beta   111.06746004
_cell_angle_gamma   69.41775475
_symmetry_Int_Tables_number   1
_chemical_formula_structural   Al6Cu2B4O17
_chemical_formula_sum   'Al6 Cu2 B4 O17'
_cell_volume   326.19855954
_cell_formula_units_Z   1
loop_
 _symmetry_equiv_pos_site_id
 _symmetry_equiv_pos_as_xyz
  1  'x, y, z'
loop_
 _atom_site_type_symbol
 _atom_site_label
 _atom_site_symmetry_multiplicity
 _atom_site_fract_x
 _atom_site_fract_y
 _atom_site_fract_z
 _atom_site_occupancy
  Al  Al0  1  0.50301059  0.49521118  0.00563044  1
  Al  Al1  1  0.00740867  0.49521118  0.00563044  1
  Al  Al2  1  0.49981018  0.00301215  0.50060529  1
  Al  Al3  1  0.99778297  0.00301215  0.50060529  1
  Al  Al4  1  0.02780804  0.78687459  0.84249067  1
  Al  Al5  1  0.18470896  0.84111896  0.21053688  1
  Cu  Cu6  1  0.97206299  0.21650995  0.16063593  1
  Cu  Cu7  1  0.81242183  0.16226224  0.78710590  1
  B  B8  1  0.75909977  0.74211211  0.26031164  1
  B  B9  1  0.23680747  0.25767864  0.73129358  1
  B  B10  1  0.49757412  0.26545597  0.26060420  1
  B  B11  1  0.50362917  0.73834812  0.74560645  1
  O  O12  1  0.75821072  0.61500779  0.13142923  1
  O  O13  1  0.23933579  0.38557387  0.86424546  1
  O  O14  1  0.62721185  0.12634650  0.38077019  1
  O  O15  1  0.37517335  0.86741013  0.61775682  1
  O  O16  1  0.78745161  0.36087282  0.93577604  1
  O  O17  1  0.21370298  0.64149654  0.06890251  1
  O  O18  1  0.85881099  0.92627946  0.64390143  1
  O  O19  1  0.15074424  0.05033162  0.35182010  1
  O  O20  1  0.35700330  0.67476033  0.81263323  1
  O  O21  1  0.22720992  0.33718299  0.19708858  1
  O  O22  1  0.54651858  0.80941591  0.32400684  1
  O  O23  1  0.03323069  0.19003859  0.66187609  1
  O  O24  1  0.63269566  0.33718299  0.19708858  1
  O  O25  1  0.78086960  0.67476033  0.81263323  1
  O  O26  1  0.43860680  0.19003859  0.66187609  1
  O  O27  1  0.96807235  0.80941591  0.32400684  1
  O  O28  1  0.02102682  0.96107837  0.00313201  1
