# generated using pymatgen
data_Ba6Ca6Mg(CO3)13
_symmetry_space_group_name_H-M   'P 1'
_cell_length_a   8.79657998
_cell_length_b   11.09526011
_cell_length_c   11.09525983
_cell_angle_alpha   113.28085190
_cell_angle_beta   105.32384495
_cell_angle_gamma   105.32384458
_symmetry_Int_Tables_number   1
_chemical_formula_structural   Ba6Ca6Mg(CO3)13
_chemical_formula_sum   'Ba6 Ca6 Mg1 C13 O39'
_cell_volume   872.32164502
_cell_formula_units_Z   1
loop_
 _symmetry_equiv_pos_site_id
 _symmetry_equiv_pos_as_xyz
  1  'x, y, z'
loop_
 _atom_site_type_symbol
 _atom_site_label
 _atom_site_symmetry_multiplicity
 _atom_site_fract_x
 _atom_site_fract_y
 _atom_site_fract_z
 _atom_site_occupancy
  Ba  Ba0  1  0.42498085  0.07018952  0.29881138  1
  Ba  Ba1  1  0.12616947  0.70118862  0.77137814  1
  Ba  Ba2  1  0.35479133  0.22862186  0.92981048  1
  Ba  Ba3  1  0.57903191  0.92798671  0.69400939  1
  Ba  Ba4  1  0.88502252  0.30599061  0.23397732  1
  Ba  Ba5  1  0.65104520  0.76602268  0.07201329  1
  Ca  Ca6  1  0.77804019  0.42168433  0.84001341  1
  Ca  Ca7  1  0.93802678  0.15998659  0.58167092  1
  Ca  Ca8  1  0.35635587  0.41832908  0.57831567  1
  Ca  Ca9  1  0.22256137  0.57885533  0.15966468  1
  Ca  Ca10  1  0.06289669  0.84033532  0.41919065  1
  Ca  Ca11  1  0.64370604  0.58080935  0.42114467  1
  Mg  Mg12  1  -0.00009015  1.00000000  1.00000000  1
  C  C13  1  0.16835827  0.62344015  0.46272680  1
  C  C14  1  0.70563148  0.53727320  0.16071335  1
  C  C15  1  0.54491813  0.83928665  0.37655985  1
  C  C16  1  0.83188816  0.37633242  0.53699760  1
  C  C17  1  0.29489057  0.46300240  0.83933482  1
  C  C18  1  0.45555574  0.16066518  0.62366758  1
  C  C19  1  0.08746766  0.76696713  0.07660879  1
  C  C20  1  0.01085887  0.92339121  0.69035835  1
  C  C21  1  0.32050053  0.30964165  0.23303287  1
  C  C22  1  0.91133681  0.23293761  0.92317974  1
  C  C23  1  0.98815707  0.07682026  0.30975787  1
  C  C24  1  0.67839920  0.69024213  0.76706239  1
  C  C25  1  0.47485056  0.00000000  0.00000000  1
  O  O26  1  0.22524173  0.75484561  0.56640912  1
  O  O27  1  0.65883262  0.43359088  0.18843650  1
  O  O28  1  0.47039612  0.81156350  0.24515439  1
  O  O29  1  0.77523597  0.24425873  0.43285060  1
  O  O30  1  0.34238537  0.56714940  0.81140813  1
  O  O31  1  0.53097724  0.18859187  0.75574127  1
  O  O32  1  0.17642687  0.52124192  0.48897461  1
  O  O33  1  0.68745226  0.51102539  0.03226731  1
  O  O34  1  0.65518496  0.96773269  0.47875808  1
  O  O35  1  0.82407270  0.47858440  0.51112605  1
  O  O36  1  0.31294665  0.48887395  0.96745835  1
  O  O37  1  0.34548830  0.03254165  0.52141560  1
  O  O38  1  0.09299414  0.59563171  0.33014355  1
  O  O39  1  0.76285059  0.66985645  0.26548816  1
  O  O40  1  0.49736243  0.73451184  0.40436829  1
  O  O41  1  0.90673389  0.40374402  0.66933067  1
  O  O42  1  0.23740322  0.33066933  0.73441334  1
  O  O43  1  0.50298987  0.26558666  0.59625598  1
  O  O44  1  0.11489861  0.80519572  0.20902643  1
  O  O45  1  0.90587218  0.79097357  0.59616930  1
  O  O46  1  0.30970289  0.40383070  0.19480428  1
  O  O47  1  0.88576590  0.19478117  0.79129910  1
  O  O48  1  0.09446680  0.20870090  0.40348207  1
  O  O49  1  0.69098473  0.59651793  0.80521883  1
  O  O50  1  0.05522367  0.63461048  0.98676542  1
  O  O51  1  0.06845825  0.01323458  0.64784506  1
  O  O52  1  0.42061319  0.35215494  0.36538952  1
  O  O53  1  0.94465261  0.36548379  0.01319507  1
  O  O54  1  0.93145754  0.98680493  0.35228872  1
  O  O55  1  0.57916882  0.64771128  0.63451621  1
  O  O56  1  0.10293100  0.86100969  0.03325253  1
  O  O57  1  0.06967847  0.96674747  0.82775716  1
  O  O58  1  0.24192130  0.17224284  0.13899031  1
  O  O59  1  0.89151667  0.13821917  0.96614487  1
  O  O60  1  0.92537180  0.03385513  0.17207430  1
  O  O61  1  0.75329750  0.82792570  0.86178083  1
  O  O62  1  0.44851972  0.89750519  0.03116198  1
  O  O63  1  0.41735774  0.96883802  0.86634321  1
  O  O64  1  0.55101453  0.13365679  0.10249481  1
