# generated using pymatgen
data_Ba2Si3GeO10
_symmetry_space_group_name_H-M   'P 1'
_cell_length_a   4.74106714
_cell_length_b   7.87397469
_cell_length_c   13.85494649
_cell_angle_alpha   90.00000000
_cell_angle_beta   90.00000000
_cell_angle_gamma   90.02045766
_symmetry_Int_Tables_number   1
_chemical_formula_structural   Ba2Si3GeO10
_chemical_formula_sum   'Ba4 Si6 Ge2 O20'
_cell_volume   517.21956488
_cell_formula_units_Z   2
loop_
 _symmetry_equiv_pos_site_id
 _symmetry_equiv_pos_as_xyz
  1  'x, y, z'
loop_
 _atom_site_type_symbol
 _atom_site_label
 _atom_site_symmetry_multiplicity
 _atom_site_fract_x
 _atom_site_fract_y
 _atom_site_fract_z
 _atom_site_occupancy
  Ba  Ba0  1  0.21487718  0.25061039  0.54476918  1
  Ba  Ba1  1  0.28512282  0.24938961  0.04476918  1
  Ba  Ba2  1  0.77960750  0.75527260  0.45723183  1
  Ba  Ba3  1  0.72039250  0.74472740  0.95723183  1
  Si  Si4  1  0.85374212  0.55026891  0.18033035  1
  Si  Si5  1  0.64625788  0.94973109  0.68033035  1
  Si  Si6  1  0.85472949  0.95374152  0.18316993  1
  Si  Si7  1  0.64527051  0.54625848  0.68316993  1
  Si  Si8  1  0.14498339  0.45857350  0.81653015  1
  Si  Si9  1  0.35501661  0.04142650  0.31653015  1
  Ge  Ge10  1  0.14953678  0.04370130  0.81738729  1
  Ge  Ge11  1  0.35046322  0.45629870  0.31738729  1
  O  O12  1  0.34528482  0.04676766  0.70775989  1
  O  O13  1  0.15471518  0.45323234  0.20775989  1
  O  O14  1  0.67545996  0.55323153  0.28316876  1
  O  O15  1  0.82454004  0.94676847  0.78316876  1
  O  O16  1  0.65274909  0.95066840  0.28073631  1
  O  O17  1  0.84725091  0.54933160  0.78073631  1
  O  O18  1  0.34659765  0.45614511  0.71894991  1
  O  O19  1  0.15340235  0.04385489  0.21894991  1
  O  O20  1  0.26763928  0.95308484  0.92176159  1
  O  O21  1  0.23236072  0.54691516  0.42176159  1
  O  O22  1  0.72769471  0.46240284  0.08624041  1
  O  O23  1  0.77230529  0.03759716  0.58624041  1
  O  O24  1  0.74011888  0.04469627  0.08843376  1
  O  O25  1  0.75988112  0.45530373  0.58843376  1
  O  O26  1  0.26159349  0.54876823  0.91148460  1
  O  O27  1  0.23840651  0.95123177  0.41148460  1
  O  O28  1  0.06749562  0.25929663  0.84451968  1
  O  O29  1  0.43250438  0.24070337  0.34451968  1
  O  O30  1  0.92509536  0.75220745  0.15752636  1
  O  O31  1  0.57490464  0.74779255  0.65752636  1
