# generated using pymatgen
data_Co3CuH56(SO11)4
_symmetry_space_group_name_H-M   'P 1'
_cell_length_a   6.50900561
_cell_length_b   10.98339336
_cell_length_c   14.13834125
_cell_angle_alpha   105.49820341
_cell_angle_beta   90.46264936
_cell_angle_gamma   90.42754930
_symmetry_Int_Tables_number   1
_chemical_formula_structural   Co3CuH56(SO11)4
_chemical_formula_sum   'Co3 Cu1 H56 S4 O44'
_cell_volume   973.93087786
_cell_formula_units_Z   1
loop_
 _symmetry_equiv_pos_site_id
 _symmetry_equiv_pos_as_xyz
  1  'x, y, z'
loop_
 _atom_site_type_symbol
 _atom_site_label
 _atom_site_symmetry_multiplicity
 _atom_site_fract_x
 _atom_site_fract_y
 _atom_site_fract_z
 _atom_site_occupancy
  Co  Co0  1  0.50000000  0.50000000  0.00000000  1
  Co  Co1  1  0.00000000  0.00000000  0.00000000  1
  Co  Co2  1  0.00000000  0.50000000  0.50000000  1
  Cu  Cu3  1  0.50000000  0.00000000  0.50000000  1
  H  H4  1  0.01103522  0.30382027  0.57803056  1
  H  H5  1  0.51973724  0.18765748  0.42223849  1
  H  H6  1  0.98896478  0.69617973  0.42196944  1
  H  H7  1  0.48026276  0.81234252  0.57776151  1
  H  H8  1  0.61841412  0.58035702  0.35132841  1
  H  H9  1  0.11143812  0.93502919  0.64997381  1
  H  H10  1  0.38158588  0.41964298  0.64867159  1
  H  H11  1  0.88856188  0.06497081  0.35002619  1
  H  H12  1  0.31152751  0.29640138  0.88254636  1
  H  H13  1  0.81481972  0.20319510  0.11739567  1
  H  H14  1  0.68847249  0.70359862  0.11745364  1
  H  H15  1  0.18518028  0.79680490  0.88260433  1
  H  H16  1  0.91531223  0.46157181  0.29824071  1
  H  H17  1  0.40197668  0.03878493  0.71356165  1
  H  H18  1  0.08468777  0.53842819  0.70175929  1
  H  H19  1  0.59802332  0.96121507  0.28643835  1
  H  H20  1  0.25542874  0.46043407  0.14619832  1
  H  H21  1  0.75690393  0.03731217  0.85252693  1
  H  H22  1  0.74457126  0.53956593  0.85380168  1
  H  H23  1  0.24309607  0.96268783  0.14747307  1
  H  H24  1  0.43916132  0.35853420  0.12594330  1
  H  H25  1  0.93723809  0.14430458  0.87574291  1
  H  H26  1  0.56083868  0.64146580  0.87405670  1
  H  H27  1  0.06276191  0.85569542  0.12425709  1
  H  H28  1  0.54282907  0.29989963  0.84428138  1
  H  H29  1  0.04636179  0.20116621  0.15631134  1
  H  H30  1  0.45717093  0.70010037  0.15571862  1
  H  H31  1  0.95363821  0.79883379  0.84368866  1
  H  H32  1  0.76174206  0.36823541  0.33433039  1
  H  H33  1  0.25256139  0.13253678  0.67602492  1
  H  H34  1  0.23825794  0.63176459  0.66566961  1
  H  H35  1  0.74743861  0.86746322  0.32397508  1
  H  H36  1  0.27002201  0.36782453  0.37076135  1
  H  H37  1  0.75956113  0.13073403  0.62676984  1
  H  H38  1  0.72997799  0.63217547  0.62923865  1
  H  H39  1  0.24043887  0.86926597  0.37323016  1
  H  H40  1  0.35550584  0.50878131  0.41096495  1
  H  H41  1  0.84212692  0.98903393  0.58913315  1
  H  H42  1  0.64449416  0.49121869  0.58903505  1
  H  H43  1  0.15787308  0.01096607  0.41086685  1
  H  H44  1  0.87860355  0.46536424  0.08919193  1
  H  H45  1  0.37707612  0.03372346  0.91238985  1
  H  H46  1  0.12139645  0.53463576  0.91080807  1
  H  H47  1  0.62292388  0.96627654  0.08761015  1
  H  H48  1  0.41328298  0.64402026  0.32129629  1
  H  H49  1  0.91453431  0.86084155  0.67988665  1
  H  H50  1  0.58671702  0.35597974  0.67870371  1
  H  H51  1  0.08546569  0.13915845  0.32011335  1
  H  H52  1  0.88637612  0.37778239  0.98025182  1
  H  H53  1  0.38574199  0.12482733  0.02041484  1
  H  H54  1  0.11362388  0.62221761  0.01974818  1
  H  H55  1  0.61425801  0.87517267  0.97958516  1
  H  H56  1  0.97366174  0.24328648  0.46430829  1
  H  H57  1  0.47526852  0.24855060  0.53583447  1
  H  H58  1  0.02633826  0.75671352  0.53569171  1
  H  H59  1  0.52473148  0.75144940  0.46416553  1
  S  S60  1  0.03472462  0.67366063  0.22714730  1
  S  S61  1  0.53370007  0.82447707  0.77290257  1
  S  S62  1  0.96527538  0.32633937  0.77285270  1
  S  S63  1  0.46629993  0.17552293  0.22709743  1
  O  O64  1  0.94741015  0.32076018  0.51909067  1
  O  O65  1  0.44964731  0.17097766  0.47968804  1
  O  O66  1  0.05258985  0.67923982  0.48090933  1
  O  O67  1  0.55035269  0.82902234  0.52031196  1
  O  O68  1  0.89322377  0.72521368  0.31006218  1
  O  O69  1  0.39216510  0.77340469  0.68815590  1
  O  O70  1  0.10677623  0.27478632  0.68993782  1
  O  O71  1  0.60783490  0.22659531  0.31184410  1
  O  O72  1  0.27431492  0.44068278  0.42908788  1
  O  O73  1  0.76636326  0.05806755  0.56826959  1
  O  O74  1  0.72568508  0.55931722  0.57091212  1
  O  O75  1  0.23363674  0.94193245  0.43173041  1
  O  O76  1  0.24945748  0.72164312  0.25516350  1
  O  O77  1  0.74780231  0.77900302  0.74630880  1
  O  O78  1  0.75054252  0.27835688  0.74483650  1
  O  O79  1  0.25219769  0.22099698  0.25369120  1
  O  O80  1  0.39380987  0.44122122  0.11806939  1
  O  O81  1  0.89344611  0.06107955  0.88365810  1
  O  O82  1  0.60619013  0.55877878  0.88193061  1
  O  O83  1  0.10655389  0.93892045  0.11634190  1
  O  O84  1  0.45602385  0.31741344  0.90305979  1
  O  O85  1  0.95865496  0.18455646  0.09696245  1
  O  O86  1  0.54397615  0.68258656  0.09694021  1
  O  O87  1  0.04134504  0.81544354  0.90303755  1
  O  O88  1  0.83638924  0.45041864  0.35494745  1
  O  O89  1  0.31592798  0.04793815  0.65798904  1
  O  O90  1  0.16361076  0.54958136  0.64505255  1
  O  O91  1  0.68407202  0.95206185  0.34201096  1
  O  O92  1  0.79572428  0.43098047  0.02921145  1
  O  O93  1  0.29477319  0.06943141  0.97130200  1
  O  O94  1  0.20427572  0.56901953  0.97078855  1
  O  O95  1  0.70522681  0.93056859  0.02869800  1
  O  O96  1  0.48757247  0.62087398  0.37548783  1
  O  O97  1  0.98160455  0.88760993  0.62610027  1
  O  O98  1  0.51242753  0.37912602  0.62451217  1
  O  O99  1  0.01839545  0.11239007  0.37389973  1
  O  O100  1  0.02993618  0.53167046  0.20287820  1
  O  O101  1  0.53072276  0.96664264  0.79959830  1
  O  O102  1  0.97006382  0.46832954  0.79712180  1
  O  O103  1  0.46927724  0.03335736  0.20040170  1
  O  O104  1  0.96740927  0.71335634  0.13842409  1
  O  O105  1  0.46530187  0.78247562  0.86016340  1
  O  O106  1  0.03259073  0.28664366  0.86157591  1
  O  O107  1  0.53469813  0.21752438  0.13983660  1
