# generated using pymatgen
data_Ba3Al2Ga2(FeO6)2
_symmetry_space_group_name_H-M   'P 1'
_cell_length_a   9.09467683
_cell_length_b   9.31679879
_cell_length_c   9.34640115
_cell_angle_alpha   119.54350342
_cell_angle_beta   90.00000000
_cell_angle_gamma   90.00000000
_symmetry_Int_Tables_number   1
_chemical_formula_structural   Ba3Al2Ga2(FeO6)2
_chemical_formula_sum   'Ba6 Al4 Ga4 Fe4 O24'
_cell_volume   688.98291358
_cell_formula_units_Z   2
loop_
 _symmetry_equiv_pos_site_id
 _symmetry_equiv_pos_as_xyz
  1  'x, y, z'
loop_
 _atom_site_type_symbol
 _atom_site_label
 _atom_site_symmetry_multiplicity
 _atom_site_fract_x
 _atom_site_fract_y
 _atom_site_fract_z
 _atom_site_occupancy
  Ba  Ba0  1  0.23527135  0.33373720  0.65835985  1
  Ba  Ba1  1  0.73527135  0.66626280  0.34164015  1
  Ba  Ba2  1  0.23839430  0.65905306  0.32896033  1
  Ba  Ba3  1  0.73839430  0.34094694  0.67103967  1
  Ba  Ba4  1  0.24315357  0.00720932  0.01082160  1
  Ba  Ba5  1  0.74315357  0.99279068  0.98917840  1
  Al  Al6  1  0.04240652  0.67816566  0.67081595  1
  Al  Al7  1  0.54240652  0.32183434  0.32918405  1
  Al  Al8  1  0.93507291  0.00645106  0.67214637  1
  Al  Al9  1  0.43507291  0.99354894  0.32785363  1
  Ga  Ga10  1  0.04078655  0.99706097  0.33908920  1
  Ga  Ga11  1  0.54078655  0.00293903  0.66091080  1
  Ga  Ga12  1  0.04010626  0.33079460  0.00554446  1
  Ga  Ga13  1  0.54010626  0.66920540  0.99445554  1
  Fe  Fe14  1  0.94421625  0.66964922  0.99669069  1
  Fe  Fe15  1  0.44421625  0.33035078  0.00330931  1
  Fe  Fe16  1  0.93513524  0.34223933  0.34855505  1
  Fe  Fe17  1  0.43513524  0.65776067  0.65144495  1
  O  O18  1  0.98273720  0.46937926  0.57496108  1
  O  O19  1  0.48273720  0.53062074  0.42503892  1
  O  O20  1  0.74151109  0.66693129  0.95372002  1
  O  O21  1  0.24151109  0.33306871  0.04627998  1
  O  O22  1  0.97279938  0.79229945  0.58050646  1
  O  O23  1  0.47279938  0.20770055  0.41949354  1
  O  O24  1  0.99350991  0.10931768  0.88192244  1
  O  O25  1  0.49350991  0.89068232  0.11807756  1
  O  O26  1  0.99862827  0.11966147  0.23587189  1
  O  O27  1  0.49862827  0.88033853  0.76412811  1
  O  O28  1  0.96992493  0.44560618  0.22067956  1
  O  O29  1  0.46992493  0.55439382  0.77932044  1
  O  O30  1  0.73228304  0.34063183  0.37084383  1
  O  O31  1  0.23228304  0.65936817  0.62915617  1
  O  O32  1  0.99999813  0.10541152  0.56280304  1
  O  O33  1  0.49999813  0.89458848  0.43719696  1
  O  O34  1  0.02035070  0.77955552  0.88816729  1
  O  O35  1  0.52035070  0.22044448  0.11183271  1
  O  O36  1  0.00434308  0.44561890  0.89417421  1
  O  O37  1  0.50434308  0.55438110  0.10582579  1
  O  O38  1  0.74257211  0.02978651  0.67982558  1
  O  O39  1  0.24257211  0.97021349  0.32017442  1
  O  O40  1  0.96889921  0.78291080  0.22819711  1
  O  O41  1  0.46889921  0.21708920  0.77180289  1
