# generated using pymatgen
data_Ca3Ga8
_symmetry_space_group_name_H-M   'P 1'
_cell_length_a   4.31554433
_cell_length_b   4.34339413
_cell_length_c   13.28963291
_cell_angle_alpha   99.40504724
_cell_angle_beta   99.34420004
_cell_angle_gamma   90.00000005
_symmetry_Int_Tables_number   1
_chemical_formula_structural   Ca3Ga8
_chemical_formula_sum   'Ca3 Ga8'
_cell_volume   242.40279354
_cell_formula_units_Z   1
loop_
 _symmetry_equiv_pos_site_id
 _symmetry_equiv_pos_as_xyz
  1  'x, y, z'
loop_
 _atom_site_type_symbol
 _atom_site_label
 _atom_site_symmetry_multiplicity
 _atom_site_fract_x
 _atom_site_fract_y
 _atom_site_fract_z
 _atom_site_occupancy
  Ca  Ca0  1  0.00000000  0.00000000  0.00000000  1
  Ca  Ca1  1  0.35481828  0.85481828  0.70963657  1
  Ca  Ca2  1  0.64518172  0.14518172  0.29036343  1
  Ga  Ga3  1  0.24969840  0.24969840  0.49939679  1
  Ga  Ga4  1  0.75030160  0.75030160  0.50060321  1
  Ga  Ga5  1  0.45180453  0.45180453  0.90360906  1
  Ga  Ga6  1  0.54819547  0.54819547  0.09639094  1
  Ga  Ga7  1  0.09458023  0.59458023  0.18916045  1
  Ga  Ga8  1  0.90541977  0.40541977  0.81083955  1
  Ga  Ga9  1  0.19077251  0.69077251  0.38154502  1
  Ga  Ga10  1  0.80922749  0.30922749  0.61845498  1
