# generated using pymatgen
data_Sm(ErSe2)3
_symmetry_space_group_name_H-M   'P 1'
_cell_length_a   4.10051188
_cell_length_b   11.54202986
_cell_length_c   11.82455872
_cell_angle_alpha   109.16687832
_cell_angle_beta   90.00000000
_cell_angle_gamma   90.00000000
_symmetry_Int_Tables_number   1
_chemical_formula_structural   Sm(ErSe2)3
_chemical_formula_sum   'Sm2 Er6 Se12'
_cell_volume   528.61279161
_cell_formula_units_Z   2
loop_
 _symmetry_equiv_pos_site_id
 _symmetry_equiv_pos_as_xyz
  1  'x, y, z'
loop_
 _atom_site_type_symbol
 _atom_site_label
 _atom_site_symmetry_multiplicity
 _atom_site_fract_x
 _atom_site_fract_y
 _atom_site_fract_z
 _atom_site_occupancy
  Se  Se0  1  0.25000000  0.30454679  0.24983845  1
  Se  Se1  1  0.75000000  0.69545321  0.75016155  1
  Se  Se2  1  0.25000000  0.41687522  0.59576744  1
  Se  Se3  1  0.75000000  0.58312478  0.40423256  1
  Se  Se4  1  0.25000000  0.61528693  0.96557621  1
  Se  Se5  1  0.75000000  0.38471307  0.03442379  1
  Se  Se6  1  0.25000000  0.97985148  0.11433989  1
  Se  Se7  1  0.75000000  0.02014852  0.88566011  1
  Se  Se8  1  0.75000000  0.10584530  0.43974235  1
  Se  Se9  1  0.25000000  0.89415470  0.56025765  1
  Se  Se10  1  0.75000000  0.75900017  0.22532107  1
  Se  Se11  1  0.25000000  0.24099983  0.77467893  1
  Sm  Sm12  1  0.25000000  0.54617795  0.19473895  1
  Sm  Sm13  1  0.75000000  0.45382205  0.80526105  1
  Er  Er14  1  0.25000000  0.65905430  0.58482422  1
  Er  Er15  1  0.75000000  0.34094570  0.41517578  1
  Er  Er16  1  0.25000000  0.18178384  0.00073954  1
  Er  Er17  1  0.75000000  0.81821616  0.99926046  1
  Er  Er18  1  0.25000000  0.93651322  0.33315920  1
  Er  Er19  1  0.75000000  0.06348678  0.66684080  1
