# generated using pymatgen
data_Al2Ga(PO4)3
_symmetry_space_group_name_H-M   'P 1'
_cell_length_a   4.99692737
_cell_length_b   5.01731521
_cell_length_c   11.13165004
_cell_angle_alpha   89.86758132
_cell_angle_beta   90.00011291
_cell_angle_gamma   119.86560777
_symmetry_Int_Tables_number   1
_chemical_formula_structural   Al2Ga(PO4)3
_chemical_formula_sum   'Al2 Ga1 P3 O12'
_cell_volume   242.01907678
_cell_formula_units_Z   1
loop_
 _symmetry_equiv_pos_site_id
 _symmetry_equiv_pos_as_xyz
  1  'x, y, z'
loop_
 _atom_site_type_symbol
 _atom_site_label
 _atom_site_symmetry_multiplicity
 _atom_site_fract_x
 _atom_site_fract_y
 _atom_site_fract_z
 _atom_site_occupancy
  Al  Al0  1  0.53579906  0.53573507  0.33494872  1
  Al  Al1  1  0.00005792  0.46426368  0.66507224  1
  Ga  Ga2  1  0.46659834  0.00000213  0.00001224  1
  P  P3  1  0.46608018  0.00000366  0.50000788  1
  P  P4  1  0.53481714  0.53523502  0.83079054  1
  P  P5  1  -0.00042339  0.46475968  0.16922594  1
  O  O6  1  0.40882184  0.30541239  0.93661396  1
  O  O7  1  0.87901574  0.58419364  0.27162132  1
  O  O8  1  0.70599275  0.12446235  0.60197857  1
  O  O9  1  0.10340615  0.69458097  0.06340724  1
  O  O10  1  0.29482561  0.41581143  0.72840156  1
  O  O11  1  0.58152913  0.87553925  0.39804561  1
  O  O12  1  0.41587659  0.25813259  0.44993888  1
  O  O13  1  0.84320687  0.57807330  0.78251974  1
  O  O14  1  0.74452000  0.14751803  0.12490854  1
  O  O15  1  0.15775268  0.74186422  0.55008636  1
  O  O16  1  0.26514145  0.42194301  0.21750431  1
  O  O17  1  0.59698194  0.85246959  0.87511636  1
