# generated using pymatgen
data_Li7Mn2(CoO4)3
_symmetry_space_group_name_H-M   'P 1'
_cell_length_a   2.96069270
_cell_length_b   15.07922374
_cell_length_c   5.10546487
_cell_angle_alpha   96.03490875
_cell_angle_beta   75.18197750
_cell_angle_gamma   85.27838741
_symmetry_Int_Tables_number   1
_chemical_formula_structural   Li7Mn2(CoO4)3
_chemical_formula_sum   'Li7 Mn2 Co3 O12'
_cell_volume   217.71339293
_cell_formula_units_Z   1
loop_
 _symmetry_equiv_pos_site_id
 _symmetry_equiv_pos_as_xyz
  1  'x, y, z'
loop_
 _atom_site_type_symbol
 _atom_site_label
 _atom_site_symmetry_multiplicity
 _atom_site_fract_x
 _atom_site_fract_y
 _atom_site_fract_z
 _atom_site_occupancy
  Li  Li0  1  0.65763569  0.08405040  0.58964516  1
  Li  Li1  1  0.99694019  0.25105879  0.75418702  1
  Li  Li2  1  0.33199198  0.41867111  0.91748542  1
  Li  Li3  1  0.66251797  0.58481956  0.08131946  1
  Li  Li4  1  0.00142399  0.75163866  0.24060683  1
  Li  Li5  1  0.35985269  0.90928609  0.40555206  1
  Li  Li6  1  0.65325235  0.83170366  0.84709608  1
  Mn  Mn7  1  0.00232607  0.99274011  0.00232693  1
  Mn  Mn8  1  0.66777115  0.33525537  0.33086775  1
  Co  Co9  1  0.34388545  0.16667557  0.15966878  1
  Co  Co10  1  0.99069740  0.50474915  0.50166783  1
  Co  Co11  1  0.32358088  0.67352005  0.67318528  1
  O  O12  1  0.37320961  0.03730725  0.25575323  1
  O  O13  1  0.66708037  0.20914857  0.43590464  1
  O  O14  1  0.96775995  0.38047307  0.61001358  1
  O  O15  1  0.34635467  0.55032264  0.77252492  1
  O  O16  1  0.65378999  0.70386319  0.93160568  1
  O  O17  1  0.99030255  0.88360922  0.12687869  1
  O  O18  1  0.00677892  0.12199319  0.89648635  1
  O  O19  1  0.36417412  0.29176946  0.05365086  1
  O  O20  1  0.65254401  0.45581911  0.22213300  1
  O  O21  1  0.02140563  0.62152333  0.39507913  1
  O  O22  1  0.34034107  0.77640990  0.54615121  1
  O  O23  1  0.62438329  0.96359256  0.75021011  1
