# generated using pymatgen
data_Ag2Hg3P4Br3
_symmetry_space_group_name_H-M   'P 1'
_cell_length_a   8.93490176
_cell_length_b   8.32962237
_cell_length_c   8.32962201
_cell_angle_alpha   82.29162382
_cell_angle_beta   79.77986010
_cell_angle_gamma   79.77985830
_symmetry_Int_Tables_number   1
_chemical_formula_structural   Ag2Hg3P4Br3
_chemical_formula_sum   'Ag4 Hg6 P8 Br6'
_cell_volume   597.02870807
_cell_formula_units_Z   2
loop_
 _symmetry_equiv_pos_site_id
 _symmetry_equiv_pos_as_xyz
  1  'x, y, z'
loop_
 _atom_site_type_symbol
 _atom_site_label
 _atom_site_symmetry_multiplicity
 _atom_site_fract_x
 _atom_site_fract_y
 _atom_site_fract_z
 _atom_site_occupancy
  Ag  Ag0  1  0.51252166  0.50848459  0.98830476  1
  Ag  Ag1  1  0.48747834  0.01169524  0.49151541  1
  Ag  Ag2  1  0.68122957  0.65864756  0.64777538  1
  Ag  Ag3  1  0.31877043  0.35222462  0.34135244  1
  Hg  Hg4  1  0.77003220  0.76560883  0.13399126  1
  Hg  Hg5  1  0.76847344  0.12994857  0.76466937  1
  Hg  Hg6  1  0.11822642  0.75169644  0.75255816  1
  Hg  Hg7  1  0.23152656  0.23533063  0.87005143  1
  Hg  Hg8  1  0.22996780  0.86600874  0.23439117  1
  Hg  Hg9  1  0.88177358  0.24744184  0.24830356  1
  P  P10  1  0.93646760  0.93603135  0.93540125  1
  P  P11  1  0.06353240  0.06459875  0.06396865  1
  P  P12  1  0.57795995  0.58065438  0.25363710  1
  P  P13  1  0.57868549  0.25400619  0.58068266  1
  P  P14  1  0.28187206  0.56251105  0.56194320  1
  P  P15  1  0.42131451  0.41931734  0.74599381  1
  P  P16  1  0.42204005  0.74636290  0.41934562  1
  P  P17  1  0.71812794  0.43805680  0.43748895  1
  Br  Br18  1  0.46110413  0.85797840  0.85167999  1
  Br  Br19  1  0.85791461  0.86892983  0.45535861  1
  Br  Br20  1  0.85727685  0.46001713  0.86331256  1
  Br  Br21  1  0.53889587  0.14832001  0.14202160  1
  Br  Br22  1  0.14272315  0.13668744  0.53998287  1
  Br  Br23  1  0.14208539  0.54464139  0.13107017  1
