# generated using pymatgen
data_SiO2
_symmetry_space_group_name_H-M   'P 1'
_cell_length_a   7.57120238
_cell_length_b   14.34696844
_cell_length_c   19.13503007
_cell_angle_alpha   90.00000000
_cell_angle_beta   90.00000000
_cell_angle_gamma   90.00000000
_symmetry_Int_Tables_number   1
_chemical_formula_structural   SiO2
_chemical_formula_sum   'Si36 O72'
_cell_volume   2078.51970991
_cell_formula_units_Z   36
loop_
 _symmetry_equiv_pos_site_id
 _symmetry_equiv_pos_as_xyz
  1  'x, y, z'
loop_
 _atom_site_type_symbol
 _atom_site_label
 _atom_site_symmetry_multiplicity
 _atom_site_fract_x
 _atom_site_fract_y
 _atom_site_fract_z
 _atom_site_occupancy
  O  O0  1  0.67637227  0.99928727  0.70241355  1
  O  O1  1  0.17637227  0.50071273  0.79758645  1
  O  O2  1  0.82362773  0.49928727  0.79758645  1
  O  O3  1  0.32362773  0.00071273  0.70241355  1
  O  O4  1  0.32362773  0.00071273  0.29758645  1
  O  O5  1  0.82362773  0.49928727  0.20241355  1
  O  O6  1  0.17637227  0.50071273  0.20241355  1
  O  O7  1  0.67637227  0.99928727  0.29758645  1
  O  O8  1  0.25158495  0.74983269  0.74956909  1
  O  O9  1  0.75158495  0.75016731  0.75043091  1
  O  O10  1  0.24841505  0.24983269  0.75043091  1
  O  O11  1  0.74841505  0.25016731  0.74956909  1
  O  O12  1  0.74841505  0.25016731  0.25043091  1
  O  O13  1  0.24841505  0.24983269  0.24956909  1
  O  O14  1  0.75158495  0.75016731  0.24956909  1
  O  O15  1  0.25158495  0.74983269  0.25043091  1
  O  O16  1  0.00033823  0.71748254  0.65577621  1
  O  O17  1  0.50033823  0.78251746  0.84422379  1
  O  O18  1  0.49966177  0.21748254  0.84422379  1
  O  O19  1  0.99966177  0.28251746  0.65577621  1
  O  O20  1  0.99966177  0.28251746  0.34422379  1
  O  O21  1  0.49966177  0.21748254  0.15577621  1
  O  O22  1  0.50033823  0.78251746  0.15577621  1
  O  O23  1  0.00033823  0.71748254  0.34422379  1
  O  O24  1  0.32351063  0.25043231  0.61467330  1
  O  O25  1  0.82351063  0.24956769  0.88532670  1
  O  O26  1  0.67642503  0.25123615  0.38643532  1
  O  O27  1  0.17648937  0.75043231  0.88532670  1
  O  O28  1  0.67648937  0.74956769  0.38532670  1
  O  O29  1  0.17648937  0.75043231  0.11467330  1
  O  O30  1  0.82351063  0.24956769  0.11467330  1
  O  O31  1  0.32351063  0.25043231  0.38532670  1
  O  O32  1  0.32357497  0.74876385  0.61356468  1
  O  O33  1  0.82357497  0.75123615  0.88643532  1
  O  O34  1  0.17642503  0.24876385  0.88643532  1
  O  O35  1  0.67642503  0.25123615  0.61356468  1
  O  O36  1  0.50217891  0.78883891  0.50000000  1
  O  O37  1  0.00217891  0.71116109  0.00000000  1
  O  O38  1  0.99782109  0.28883891  0.00000000  1
  O  O39  1  0.49782109  0.21116109  0.50000000  1
  O  O40  1  0.50000000  0.50000000  0.25001959  1
  O  O41  1  0.00000000  0.00000000  0.24998041  1
  O  O42  1  0.50000000  0.50000000  0.74998041  1
  O  O43  1  0.00000000  0.00000000  0.75001959  1
  O  O44  1  0.24967486  0.40873350  0.32052565  1
  O  O45  1  0.74967486  0.09126650  0.17947435  1
  O  O46  1  0.25032514  0.90873350  0.17947435  1
  O  O47  1  0.75032514  0.59126650  0.32052565  1
  O  O48  1  0.75032514  0.59126650  0.67947435  1
  O  O49  1  0.25032514  0.90873350  0.82052565  1
  O  O50  1  0.74967486  0.09126650  0.82052565  1
  O  O51  1  0.24967486  0.40873350  0.67947435  1
  O  O52  1  0.49884094  0.90880446  0.39569431  1
  O  O53  1  0.99884094  0.59119554  0.10430569  1
  O  O54  1  0.00115906  0.40880446  0.10430569  1
  O  O55  1  0.50115906  0.09119554  0.39569431  1
  O  O56  1  0.50115906  0.09119554  0.60430569  1
  O  O57  1  0.00115906  0.40880446  0.89569431  1
  O  O58  1  0.99884094  0.59119554  0.89569431  1
  O  O59  1  0.49884094  0.90880446  0.60430569  1
  O  O60  1  0.25011580  0.59077898  0.32120804  1
  O  O61  1  0.75011580  0.90922102  0.17879196  1
  O  O62  1  0.24988420  0.09077898  0.17879196  1
  O  O63  1  0.74988420  0.40922102  0.32120804  1
  O  O64  1  0.74988420  0.40922102  0.67879196  1
  O  O65  1  0.24988420  0.09077898  0.82120804  1
  O  O66  1  0.75011580  0.90922102  0.82120804  1
  O  O67  1  0.25011580  0.59077898  0.67879196  1
  O  O68  1  0.32357497  0.74876385  0.38643532  1
  O  O69  1  0.82357497  0.75123615  0.11356468  1
  O  O70  1  0.17642503  0.24876385  0.11356468  1
  O  O71  1  0.67648937  0.74956769  0.61467330  1
  Si  Si72  1  0.29363082  0.50003207  0.72655177  1
  Si  Si73  1  0.79363082  0.99996793  0.77344823  1
  Si  Si74  1  0.20636918  0.00003207  0.77344823  1
  Si  Si75  1  0.70636918  0.49996793  0.72655177  1
  Si  Si76  1  0.70636918  0.49996793  0.27344823  1
  Si  Si77  1  0.20636918  0.00003207  0.22655177  1
  Si  Si78  1  0.79363082  0.99996793  0.22655177  1
  Si  Si79  1  0.29363082  0.50003207  0.27344823  1
  Si  Si80  1  0.00000000  0.50000000  0.84611402  1
  Si  Si81  1  0.50000000  0.00000000  0.65388598  1
  Si  Si82  1  0.00000000  0.50000000  0.15388598  1
  Si  Si83  1  0.50000000  0.00000000  0.34611402  1
  Si  Si84  1  0.50025647  0.79913924  0.58371624  1
  Si  Si85  1  0.00025647  0.70086076  0.91628376  1
  Si  Si86  1  0.99974353  0.29913924  0.91628376  1
  Si  Si87  1  0.49974353  0.20086076  0.58371624  1
  Si  Si88  1  0.49974353  0.20086076  0.41628376  1
  Si  Si89  1  0.99974353  0.29913924  0.08371624  1
  Si  Si90  1  0.00025647  0.70086076  0.08371624  1
  Si  Si91  1  0.50025647  0.79913924  0.41628376  1
  Si  Si92  1  0.20590177  0.29790556  0.67548786  1
  Si  Si93  1  0.70590177  0.20209444  0.82451214  1
  Si  Si94  1  0.29409823  0.79790556  0.82451214  1
  Si  Si95  1  0.79409823  0.70209444  0.67548786  1
  Si  Si96  1  0.79409823  0.70209444  0.32451214  1
  Si  Si97  1  0.29409823  0.79790556  0.17548786  1
  Si  Si98  1  0.70590177  0.20209444  0.17548786  1
  Si  Si99  1  0.20590177  0.29790556  0.32451214  1
  Si  Si100  1  0.20685118  0.70168019  0.67484705  1
  Si  Si101  1  0.70685118  0.79831981  0.82515295  1
  Si  Si102  1  0.29314882  0.20168019  0.82515295  1
  Si  Si103  1  0.79314882  0.29831981  0.67484705  1
  Si  Si104  1  0.79314882  0.29831981  0.32515295  1
  Si  Si105  1  0.29314882  0.20168019  0.17484705  1
  Si  Si106  1  0.70685118  0.79831981  0.17484705  1
  Si  Si107  1  0.20685118  0.70168019  0.32515295  1
