# generated using pymatgen
data_CsAlF4
_symmetry_space_group_name_H-M   'P 1'
_cell_length_a   10.87159956
_cell_length_b   10.87159956
_cell_length_c   10.87159956
_cell_angle_alpha   102.66863279
_cell_angle_beta   112.97590251
_cell_angle_gamma   112.97590255
_symmetry_Int_Tables_number   1
_chemical_formula_structural   CsAlF4
_chemical_formula_sum   'Cs10 Al10 F40'
_cell_volume   978.85632772
_cell_formula_units_Z   10
loop_
 _symmetry_equiv_pos_site_id
 _symmetry_equiv_pos_as_xyz
  1  'x, y, z'
loop_
 _atom_site_type_symbol
 _atom_site_label
 _atom_site_symmetry_multiplicity
 _atom_site_fract_x
 _atom_site_fract_y
 _atom_site_fract_z
 _atom_site_occupancy
  F  F0  1  0.50000000  0.13058480  0.63058480  1
  F  F1  1  0.50000000  0.36941520  0.86941520  1
  F  F2  1  0.50000000  0.86941520  0.36941520  1
  F  F3  1  0.50000000  0.63058480  0.13058480  1
  F  F4  1  0.06830978  0.78415490  0.28415490  1
  F  F5  1  0.50000000  0.71584510  0.78415489  1
  F  F6  1  0.50000000  0.28415489  0.21584510  1
  F  F7  1  0.93169022  0.21584511  0.71584511  1
  F  F8  1  0.86827581  0.16021064  0.44654746  1
  F  F9  1  0.13172419  0.57827166  0.29193484  1
  F  F10  1  0.71366318  0.55345254  0.42172834  1
  F  F11  1  0.28633682  0.70806516  0.83978936  1
  F  F12  1  0.28633673  0.07827159  0.94654742  1
  F  F13  1  0.13172418  0.05345258  0.33978932  1
  F  F14  1  0.71370257  0.92166016  0.05355276  1
  F  F15  1  0.86827582  0.20806514  0.92172841  1
  F  F16  1  0.13189252  0.83985015  0.55355272  1
  F  F17  1  0.86810748  0.42166020  0.70795763  1
  F  F18  1  0.28629743  0.44644728  0.57833980  1
  F  F19  1  0.71370257  0.29204237  0.16014985  1
  F  F20  1  0.34570244  0.00050406  0.34525533  1
  F  F21  1  0.65524872  0.65474467  0.00044711  1
  F  F22  1  0.34475128  0.34519839  0.99949594  1
  F  F23  1  0.65429756  0.99955289  0.65480161  1
  F  F24  1  0.65429752  0.15474467  0.49949595  1
  F  F25  1  0.34570248  0.84519843  0.50044715  1
  F  F26  1  0.34475128  0.49955285  0.84525533  1
  F  F27  1  0.65524872  0.50050405  0.15480157  1
  F  F28  1  0.21111846  0.06821749  0.14301384  1
  F  F29  1  0.92520364  0.85698616  0.06810461  1
  F  F30  1  0.07479636  0.14290097  0.93178251  1
  F  F31  1  0.78888154  0.93189539  0.85709903  1
  F  F32  1  0.78888155  0.35698614  0.43178252  1
  F  F33  1  0.21111845  0.64290096  0.56810459  1
  F  F34  1  0.07479637  0.43189541  0.64301386  1
  F  F35  1  0.92520363  0.56821748  0.35709904  1
  F  F36  1  0.28629743  0.33985019  0.20795759  1
  F  F37  1  0.13189260  0.79204241  0.07833984  1
  F  F38  1  0.86810740  0.94644724  0.66014981  1
  F  F39  1  0.71366327  0.66021068  0.79193486  1
  Al  Al40  1  0.28352437  0.57550079  0.70803395  1
  Al  Al41  1  0.71647563  0.42450958  0.29197642  1
  Al  Al42  1  0.86746684  0.29196605  0.57549042  1
  Al  Al43  1  0.13253316  0.70802358  0.42449921  1
  Al  Al44  1  0.13253315  0.92450958  0.20803392  1
  Al  Al45  1  0.71647566  0.79196608  0.92449923  1
  Al  Al46  1  0.28352434  0.20802357  0.07549042  1
  Al  Al47  1  0.86746685  0.07550077  0.79197643  1
  Al  Al48  1  0.50000000  0.50000000  0.00000000  1
  Al  Al49  1  0.50000000  0.00000000  0.50000000  1
  Cs  Cs50  1  0.49991966  0.02398671  0.84334993  1
  Cs  Cs51  1  0.50008034  0.34343027  0.52406705  1
  Cs  Cs52  1  0.18063678  0.15665007  0.65656973  1
  Cs  Cs53  1  0.81936322  0.47593295  0.97601329  1
  Cs  Cs54  1  0.81936322  0.84343027  0.34334993  1
  Cs  Cs55  1  0.50008035  0.65665007  0.47601329  1
  Cs  Cs56  1  0.49991965  0.97593295  0.15656973  1
  Cs  Cs57  1  0.18063678  0.52398671  0.02406705  1
  Cs  Cs58  1  0.00000000  0.75000000  0.75000000  1
  Cs  Cs59  1  0.00000000  0.25000000  0.25000000  1
