# generated using pymatgen
data_Ca3Ga2(SiO4)3
_symmetry_space_group_name_H-M   'P 1'
_cell_length_a   10.50072969
_cell_length_b   10.50072969
_cell_length_c   10.50072969
_cell_angle_alpha   109.47122063
_cell_angle_beta   109.47122064
_cell_angle_gamma   109.47122064
_symmetry_Int_Tables_number   1
_chemical_formula_structural   Ca3Ga2(SiO4)3
_chemical_formula_sum   'Ca12 Ga8 Si12 O48'
_cell_volume   891.32594049
_cell_formula_units_Z   4
loop_
 _symmetry_equiv_pos_site_id
 _symmetry_equiv_pos_as_xyz
  1  'x, y, z'
loop_
 _atom_site_type_symbol
 _atom_site_label
 _atom_site_symmetry_multiplicity
 _atom_site_fract_x
 _atom_site_fract_y
 _atom_site_fract_z
 _atom_site_occupancy
  O  O0  1  0.70229422  0.69318100  0.08621281  1
  O  O1  1  0.69318100  0.10696819  0.99088678  1
  O  O2  1  0.61608141  0.70229422  0.50911322  1
  O  O3  1  0.50911322  0.61608141  0.70229422  1
  O  O4  1  0.08621281  0.88391859  0.39303181  1
  O  O5  1  0.39303181  0.08621281  0.88391859  1
  O  O6  1  0.10696819  0.99088678  0.69318100  1
  O  O7  1  0.61608141  0.41378719  0.10696819  1
  O  O8  1  0.50911322  0.39303181  0.80681900  1
  O  O9  1  0.88391859  0.99088678  0.79770578  1
  O  O10  1  0.41378719  0.10696819  0.61608141  1
  O  O11  1  0.80681900  0.50911322  0.39303181  1
  O  O12  1  0.99088678  0.79770578  0.88391859  1
  O  O13  1  0.08621281  0.70229422  0.69318100  1
  O  O14  1  0.69318100  0.08621281  0.70229422  1
  O  O15  1  0.10696819  0.61608141  0.41378719  1
  O  O16  1  0.80681900  0.79770578  0.41378719  1
  O  O17  1  0.39303181  0.80681900  0.50911322  1
  O  O18  1  0.41378719  0.80681900  0.79770578  1
  O  O19  1  0.79770578  0.88391859  0.99088678  1
  O  O20  1  0.79770578  0.41378719  0.80681900  1
  O  O21  1  0.88391859  0.39303181  0.08621281  1
  O  O22  1  0.99088678  0.69318100  0.10696819  1
  O  O23  1  0.70229422  0.50911322  0.61608141  1
  O  O24  1  0.29770578  0.30681900  0.91378719  1
  O  O25  1  0.30681900  0.89303181  0.00911322  1
  O  O26  1  0.38391859  0.29770578  0.49088678  1
  O  O27  1  0.49088678  0.38391859  0.29770578  1
  O  O28  1  0.91378719  0.11608141  0.60696819  1
  O  O29  1  0.60696819  0.91378719  0.11608141  1
  O  O30  1  0.89303181  0.00911322  0.30681900  1
  O  O31  1  0.38391859  0.58621281  0.89303181  1
  O  O32  1  0.49088678  0.60696819  0.19318100  1
  O  O33  1  0.11608141  0.00911322  0.20229422  1
  O  O34  1  0.58621281  0.89303181  0.38391859  1
  O  O35  1  0.19318100  0.49088678  0.60696819  1
  O  O36  1  0.00911322  0.20229422  0.11608141  1
  O  O37  1  0.91378719  0.29770578  0.30681900  1
  O  O38  1  0.30681900  0.91378719  0.29770578  1
  O  O39  1  0.89303181  0.38391859  0.58621281  1
  O  O40  1  0.19318100  0.20229422  0.58621281  1
  O  O41  1  0.60696819  0.19318100  0.49088678  1
  O  O42  1  0.58621281  0.19318100  0.20229422  1
  O  O43  1  0.20229422  0.11608141  0.00911322  1
  O  O44  1  0.20229422  0.58621281  0.19318100  1
  O  O45  1  0.11608141  0.60696819  0.91378719  1
  O  O46  1  0.00911322  0.30681900  0.89303181  1
  O  O47  1  0.29770578  0.49088678  0.38391859  1
  Si  Si48  1  0.25000000  0.12500000  0.87500000  1
  Si  Si49  1  0.62500000  0.75000000  0.37500000  1
  Si  Si50  1  0.25000000  0.62500000  0.37500000  1
  Si  Si51  1  0.37500000  0.62500000  0.75000000  1
  Si  Si52  1  0.75000000  0.37500000  0.62500000  1
  Si  Si53  1  0.87500000  0.12500000  0.75000000  1
  Si  Si54  1  0.12500000  0.87500000  0.25000000  1
  Si  Si55  1  0.12500000  0.75000000  0.87500000  1
  Si  Si56  1  0.62500000  0.37500000  0.25000000  1
  Si  Si57  1  0.37500000  0.25000000  0.62500000  1
  Si  Si58  1  0.75000000  0.87500000  0.12500000  1
  Si  Si59  1  0.87500000  0.25000000  0.12500000  1
  Ca  Ca60  1  0.87500000  0.62500000  0.25000000  1
  Ca  Ca61  1  0.62500000  0.87500000  0.75000000  1
  Ca  Ca62  1  0.87500000  0.75000000  0.62500000  1
  Ca  Ca63  1  0.62500000  0.25000000  0.87500000  1
  Ca  Ca64  1  0.75000000  0.62500000  0.87500000  1
  Ca  Ca65  1  0.75000000  0.12500000  0.37500000  1
  Ca  Ca66  1  0.12500000  0.37500000  0.75000000  1
  Ca  Ca67  1  0.37500000  0.12500000  0.25000000  1
  Ca  Ca68  1  0.12500000  0.25000000  0.37500000  1
  Ca  Ca69  1  0.37500000  0.75000000  0.12500000  1
  Ca  Ca70  1  0.25000000  0.87500000  0.62500000  1
  Ca  Ca71  1  0.25000000  0.37500000  0.12500000  1
  Ga  Ga72  1  0.50000000  0.50000000  0.50000000  1
  Ga  Ga73  1  0.50000000  0.50000000  0.00000000  1
  Ga  Ga74  1  0.50000000  0.00000000  0.50000000  1
  Ga  Ga75  1  0.50000000  0.00000000  0.00000000  1
  Ga  Ga76  1  0.00000000  0.00000000  0.50000000  1
  Ga  Ga77  1  0.00000000  0.50000000  0.00000000  1
  Ga  Ga78  1  0.00000000  0.00000000  0.00000000  1
  Ga  Ga79  1  0.00000000  0.50000000  0.50000000  1
