# generated using pymatgen
data_Ta5Ge3
_symmetry_space_group_name_H-M   'P 1'
_cell_length_a   5.19797647
_cell_length_b   7.64919776
_cell_length_c   7.64919777
_cell_angle_alpha   83.37068103
_cell_angle_beta   70.13697636
_cell_angle_gamma   70.13697641
_symmetry_Int_Tables_number   1
_chemical_formula_structural   Ta5Ge3
_chemical_formula_sum   'Ta10 Ge6'
_cell_volume   269.02380155
_cell_formula_units_Z   2
loop_
 _symmetry_equiv_pos_site_id
 _symmetry_equiv_pos_as_xyz
  1  'x, y, z'
loop_
 _atom_site_type_symbol
 _atom_site_label
 _atom_site_symmetry_multiplicity
 _atom_site_fract_x
 _atom_site_fract_y
 _atom_site_fract_z
 _atom_site_occupancy
  Ge  Ge0  1  0.83299059  0.50000000  0.83401881  1
  Ge  Ge1  1  0.66700941  0.16598119  0.50000000  1
  Ge  Ge2  1  0.33299059  0.83401881  0.50000000  1
  Ge  Ge3  1  0.16700941  0.50000000  0.16598119  1
  Ge  Ge4  1  0.75000000  0.00000000  0.00000000  1
  Ge  Ge5  1  0.25000000  0.00000000  0.00000000  1
  Ta  Ta6  1  0.27645862  0.14914211  0.29794064  1
  Ta  Ta7  1  0.72354138  0.85085789  0.70205936  1
  Ta  Ta8  1  0.42560074  0.29794064  0.85085789  1
  Ta  Ta9  1  0.57439926  0.70205936  0.14914211  1
  Ta  Ta10  1  0.92560074  0.85085789  0.29794064  1
  Ta  Ta11  1  0.22354138  0.70205936  0.85085789  1
  Ta  Ta12  1  0.77645862  0.29794064  0.14914211  1
  Ta  Ta13  1  0.07439926  0.14914211  0.70205936  1
  Ta  Ta14  1  0.75000000  0.50000000  0.50000000  1
  Ta  Ta15  1  0.25000000  0.50000000  0.50000000  1
