# generated using pymatgen
data_SiO2
_symmetry_space_group_name_H-M   'P 1'
_cell_length_a   9.35252535
_cell_length_b   9.35252535
_cell_length_c   9.35252535
_cell_angle_alpha   94.23052702
_cell_angle_beta   94.23052701
_cell_angle_gamma   94.23052705
_symmetry_Int_Tables_number   1
_chemical_formula_structural   SiO2
_chemical_formula_sum   'Si12 O24'
_cell_volume   811.02641702
_cell_formula_units_Z   12
loop_
 _symmetry_equiv_pos_site_id
 _symmetry_equiv_pos_as_xyz
  1  'x, y, z'
loop_
 _atom_site_type_symbol
 _atom_site_label
 _atom_site_symmetry_multiplicity
 _atom_site_fract_x
 _atom_site_fract_y
 _atom_site_fract_z
 _atom_site_occupancy
  O  O0  1  0.26305924  0.00000000  0.73694076  1
  O  O1  1  0.00000000  0.73694076  0.26305924  1
  O  O2  1  0.73694076  0.26305924  0.00000000  1
  O  O3  1  0.73694076  0.00000000  0.26305924  1
  O  O4  1  0.00000000  0.26305924  0.73694076  1
  O  O5  1  0.26305924  0.73694076  0.00000000  1
  O  O6  1  0.68090139  0.97762427  0.97762427  1
  O  O7  1  0.97762427  0.97762427  0.68090139  1
  O  O8  1  0.97762427  0.68090139  0.97762427  1
  O  O9  1  0.02237573  0.02237573  0.31909861  1
  O  O10  1  0.02237573  0.31909861  0.02237573  1
  O  O11  1  0.31909861  0.02237573  0.02237573  1
  O  O12  1  0.25086068  0.89030966  0.25086068  1
  O  O13  1  0.25086068  0.25086068  0.89030966  1
  O  O14  1  0.89030966  0.25086068  0.25086068  1
  O  O15  1  0.10969034  0.74913932  0.74913932  1
  O  O16  1  0.74913932  0.10969034  0.74913932  1
  O  O17  1  0.74913932  0.74913932  0.10969034  1
  O  O18  1  0.50000000  0.85215668  0.14784332  1
  O  O19  1  0.14784332  0.50000000  0.85215668  1
  O  O20  1  0.85215668  0.14784332  0.50000000  1
  O  O21  1  0.50000000  0.14784332  0.85215668  1
  O  O22  1  0.85215668  0.50000000  0.14784332  1
  O  O23  1  0.14784332  0.85215668  0.50000000  1
  Si  Si24  1  0.33288093  0.10443061  0.87550711  1
  Si  Si25  1  0.10443061  0.87550711  0.33288093  1
  Si  Si26  1  0.87550711  0.33288093  0.10443061  1
  Si  Si27  1  0.12449289  0.89556939  0.66711907  1
  Si  Si28  1  0.89556939  0.66711907  0.12449289  1
  Si  Si29  1  0.66711907  0.12449289  0.89556939  1
  Si  Si30  1  0.66711907  0.89556939  0.12449289  1
  Si  Si31  1  0.89556939  0.12449289  0.66711907  1
  Si  Si32  1  0.12449289  0.66711907  0.89556939  1
  Si  Si33  1  0.87550711  0.10443061  0.33288093  1
  Si  Si34  1  0.10443061  0.33288093  0.87550711  1
  Si  Si35  1  0.33288093  0.87550711  0.10443061  1
