# generated using pymatgen
data_Li7Mn2(CoO4)3
_symmetry_space_group_name_H-M   'P 1'
_cell_length_a   2.88716073
_cell_length_b   5.13169242
_cell_length_c   14.77600584
_cell_angle_alpha   99.66490750
_cell_angle_beta   85.02469317
_cell_angle_gamma   91.14898305
_symmetry_Int_Tables_number   1
_chemical_formula_structural   Li7Mn2(CoO4)3
_chemical_formula_sum   'Li7 Mn2 Co3 O12'
_cell_volume   214.99782809
_cell_formula_units_Z   1
loop_
 _symmetry_equiv_pos_site_id
 _symmetry_equiv_pos_as_xyz
  1  'x, y, z'
loop_
 _atom_site_type_symbol
 _atom_site_label
 _atom_site_symmetry_multiplicity
 _atom_site_fract_x
 _atom_site_fract_y
 _atom_site_fract_z
 _atom_site_occupancy
  Li  Li0  1  0.90444039  0.42211370  0.17691896  1
  Li  Li1  1  0.25142499  0.76075112  0.49099613  1
  Li  Li2  1  0.58355434  0.08420836  0.82981969  1
  Li  Li3  1  0.41187733  0.90382541  0.17963218  1
  Li  Li4  1  0.75759126  0.25059891  0.49544617  1
  Li  Li5  1  0.08646981  0.57693803  0.82766674  1
  Li  Li6  1  0.83365811  0.83162010  0.33351188  1
  Mn  Mn7  1  0.99906343  -0.00045178  0.00011562  1
  Mn  Mn8  1  0.33380603  0.33283008  0.33337886  1
  Co  Co9  1  0.66722810  0.66742069  0.66560380  1
  Co  Co10  1  0.49812462  0.50033688  0.00092486  1
  Co  Co11  1  0.16639708  0.16653053  0.66547960  1
  O  O12  1  0.47431571  0.18366381  0.07217361  1
  O  O13  1  0.80394385  0.52038367  0.40711704  1
  O  O14  1  0.11006433  0.86525311  0.74425700  1
  O  O15  1  0.95895028  0.72558276  0.07474111  1
  O  O16  1  0.29298003  0.06900375  0.41073673  1
  O  O17  1  0.61122089  0.36572012  0.74503148  1
  O  O18  1  0.37490856  0.59719487  0.25393820  1
  O  O19  1  0.72567401  0.97001985  0.59022871  1
  O  O20  1  0.03915288  0.27635593  0.92531943  1
  O  O21  1  0.86483704  0.14573065  0.25874919  1
  O  O22  1  0.22556972  0.47127470  0.59200575  1
  O  O23  1  0.52474723  0.81309475  0.92620728  1
