# generated using pymatgen
data_KZrPdF7
_symmetry_space_group_name_H-M   'P 1'
_cell_length_a   6.53202055
_cell_length_b   8.13593631
_cell_length_c   11.60789034
_cell_angle_alpha   90.00000000
_cell_angle_beta   90.00000000
_cell_angle_gamma   90.00000000
_symmetry_Int_Tables_number   1
_chemical_formula_structural   KZrPdF7
_chemical_formula_sum   'K4 Zr4 Pd4 F28'
_cell_volume   616.89092182
_cell_formula_units_Z   4
loop_
 _symmetry_equiv_pos_site_id
 _symmetry_equiv_pos_as_xyz
  1  'x, y, z'
loop_
 _atom_site_type_symbol
 _atom_site_label
 _atom_site_symmetry_multiplicity
 _atom_site_fract_x
 _atom_site_fract_y
 _atom_site_fract_z
 _atom_site_occupancy
  F  F0  1  0.94832804  0.18055489  0.45405339  1
  F  F1  1  0.94832804  0.81944511  0.04594661  1
  F  F2  1  0.55167196  0.68055489  0.04594661  1
  F  F3  1  0.55167196  0.31944511  0.45405339  1
  F  F4  1  0.05167196  0.81944511  0.54594661  1
  F  F5  1  0.05167196  0.18055489  0.95405339  1
  F  F6  1  0.44832804  0.31944511  0.95405339  1
  F  F7  1  0.44832804  0.68055489  0.54594661  1
  F  F8  1  0.25000000  0.75000000  0.91760563  1
  F  F9  1  0.25000000  0.25000000  0.58239437  1
  F  F10  1  0.75000000  0.25000000  0.08239437  1
  F  F11  1  0.75000000  0.75000000  0.41760563  1
  F  F12  1  0.93332975  0.79374946  0.74517280  1
  F  F13  1  0.93332975  0.20625054  0.75482720  1
  F  F14  1  0.56667025  0.29374946  0.75482720  1
  F  F15  1  0.56667025  0.70625054  0.74517280  1
  F  F16  1  0.06667025  0.20625054  0.25482720  1
  F  F17  1  0.06667025  0.79374946  0.24517280  1
  F  F18  1  0.43332975  0.70625054  0.24517280  1
  F  F19  1  0.43332975  0.29374946  0.25482720  1
  F  F20  1  0.64780963  0.01083369  0.89456833  1
  F  F21  1  0.64780963  0.98916631  0.60543167  1
  F  F22  1  0.85219037  0.51083369  0.60543167  1
  F  F23  1  0.85219037  0.48916631  0.89456833  1
  F  F24  1  0.35219037  0.98916631  0.10543167  1
  F  F25  1  0.35219037  0.01083369  0.39456833  1
  F  F26  1  0.14780963  0.48916631  0.39456833  1
  F  F27  1  0.14780963  0.51083369  0.10543167  1
  K  K28  1  0.26844892  0.00000000  0.75000000  1
  K  K29  1  0.73155108  0.00000000  0.25000000  1
  K  K30  1  0.23155108  0.50000000  0.75000000  1
  K  K31  1  0.76844892  0.50000000  0.25000000  1
  Zr  Zr32  1  0.75000000  0.25000000  0.90791587  1
  Zr  Zr33  1  0.25000000  0.25000000  0.40791587  1
  Zr  Zr34  1  0.25000000  0.75000000  0.09208413  1
  Zr  Zr35  1  0.75000000  0.75000000  0.59208413  1
  Pd  Pd36  1  0.75000000  0.75000000  0.90083896  1
  Pd  Pd37  1  0.25000000  0.25000000  0.09916104  1
  Pd  Pd38  1  0.25000000  0.75000000  0.40083896  1
  Pd  Pd39  1  0.75000000  0.25000000  0.59916104  1
