# generated using pymatgen
data_TbZn(BO2)5
_symmetry_space_group_name_H-M   'P 1'
_cell_length_a   7.68610333
_cell_length_b   8.65764258
_cell_length_c   9.43197682
_cell_angle_alpha   93.33539841
_cell_angle_beta   90.00000000
_cell_angle_gamma   90.00000000
_symmetry_Int_Tables_number   1
_chemical_formula_structural   TbZn(BO2)5
_chemical_formula_sum   'Tb4 Zn4 B20 O40'
_cell_volume   626.57390569
_cell_formula_units_Z   4
loop_
 _symmetry_equiv_pos_site_id
 _symmetry_equiv_pos_as_xyz
  1  'x, y, z'
loop_
 _atom_site_type_symbol
 _atom_site_label
 _atom_site_symmetry_multiplicity
 _atom_site_fract_x
 _atom_site_fract_y
 _atom_site_fract_z
 _atom_site_occupancy
  B  B0  1  0.42630188  0.08256380  0.74557704  1
  B  B1  1  0.81331659  0.56523094  0.08773419  1
  B  B2  1  0.31331659  0.93476906  0.41226581  1
  B  B3  1  0.18668341  0.43476906  0.91226581  1
  B  B4  1  0.68668341  0.06523094  0.58773419  1
  B  B5  1  0.10294093  0.65902419  0.50897597  1
  B  B6  1  0.60294093  0.84097581  0.99102403  1
  B  B7  1  0.89705907  0.34097581  0.49102403  1
  B  B8  1  0.39705907  0.15902419  0.00897597  1
  B  B9  1  0.92630188  0.41743620  0.75442296  1
  B  B10  1  0.57369812  0.91743620  0.25442296  1
  B  B11  1  0.07369812  0.58256380  0.24557704  1
  B  B12  1  0.67533552  0.51731238  0.60308685  1
  B  B13  1  0.17533552  0.98268762  0.89691315  1
  B  B14  1  0.32466448  0.48268762  0.39691315  1
  B  B15  1  0.82466448  0.01731238  0.10308685  1
  B  B16  1  0.46923259  0.27767503  0.55718513  1
  B  B17  1  0.96923259  0.22232497  0.94281487  1
  B  B18  1  0.53076741  0.72232497  0.44281487  1
  B  B19  1  0.03076741  0.77767503  0.05718513  1
  O  O20  1  0.79709251  0.53739235  0.72486951  1
  O  O21  1  0.34617754  0.50778295  0.93006451  1
  O  O22  1  0.84617754  0.99221705  0.56993549  1
  O  O23  1  0.65382246  0.49221705  0.06993549  1
  O  O24  1  0.15382246  0.00778295  0.43006451  1
  O  O25  1  0.55541036  0.75739345  0.87206855  1
  O  O26  1  0.05541036  0.74260655  0.62793145  1
  O  O27  1  0.44458964  0.24260655  0.12793145  1
  O  O28  1  0.29709251  0.96260765  0.77513049  1
  O  O29  1  0.94458964  0.25739345  0.37206855  1
  O  O30  1  0.70290749  0.03739235  0.22486951  1
  O  O31  1  0.20290749  0.46260765  0.27513049  1
  O  O32  1  0.46789367  0.18178118  0.87774835  1
  O  O33  1  0.96789367  0.31821882  0.62225165  1
  O  O34  1  0.53210633  0.81821882  0.12225165  1
  O  O35  1  0.03210633  0.68178118  0.37774835  1
  O  O36  1  0.59151268  0.01086541  0.69829577  1
  O  O37  1  0.09151268  0.48913459  0.80170423  1
  O  O38  1  0.40848732  0.98913459  0.30170423  1
  O  O39  1  0.90848732  0.51086541  0.19829577  1
  O  O40  1  0.35280768  0.18239548  0.63937631  1
  O  O41  1  0.85280768  0.31760452  0.86062369  1
  O  O42  1  0.64719232  0.81760452  0.36062369  1
  O  O43  1  0.14719232  0.68239548  0.13937631  1
  O  O44  1  0.53159425  0.41451147  0.65009710  1
  O  O45  1  0.03159425  0.08548853  0.84990290  1
  O  O46  1  0.46840575  0.58548853  0.34990290  1
  O  O47  1  0.96840575  0.91451147  0.15009710  1
  O  O48  1  0.60771250  0.67399137  0.57882488  1
  O  O49  1  0.10771250  0.82600863  0.92117512  1
  O  O50  1  0.39228750  0.32600863  0.42117512  1
  O  O51  1  0.87513536  0.68148924  0.00930226  1
  O  O52  1  0.76738445  0.45198738  0.47685670  1
  O  O53  1  0.26738445  0.04801262  0.02314330  1
  O  O54  1  0.23261555  0.54801262  0.52314330  1
  O  O55  1  0.73261555  0.95198738  0.97685670  1
  O  O56  1  0.62486464  0.18148924  0.50930226  1
  O  O57  1  0.12486464  0.31851076  0.99069774  1
  O  O58  1  0.37513536  0.81851076  0.49069774  1
  O  O59  1  0.89228750  0.17399137  0.07882488  1
  Zn  Zn60  1  0.59047100  0.39194669  0.87315469  1
  Zn  Zn61  1  0.09047100  0.10805331  0.62684531  1
  Zn  Zn62  1  0.40952900  0.60805331  0.12684531  1
  Zn  Zn63  1  0.90952900  0.89194669  0.37315469  1
  Tb  Tb64  1  0.81640820  0.81383696  0.75882329  1
  Tb  Tb65  1  0.31640820  0.68616304  0.74117671  1
  Tb  Tb66  1  0.18359180  0.18616304  0.24117671  1
  Tb  Tb67  1  0.68359180  0.31383696  0.25882329  1
