# generated using pymatgen
data_HoCo(BO2)5
_symmetry_space_group_name_H-M   'P 1'
_cell_length_a   7.65823843
_cell_length_b   8.59580184
_cell_length_c   9.43672194
_cell_angle_alpha   93.85458803
_cell_angle_beta   90.00000000
_cell_angle_gamma   90.00000000
_symmetry_Int_Tables_number   1
_chemical_formula_structural   HoCo(BO2)5
_chemical_formula_sum   'Ho4 Co4 B20 O40'
_cell_volume   619.80188874
_cell_formula_units_Z   4
loop_
 _symmetry_equiv_pos_site_id
 _symmetry_equiv_pos_as_xyz
  1  'x, y, z'
loop_
 _atom_site_type_symbol
 _atom_site_label
 _atom_site_symmetry_multiplicity
 _atom_site_fract_x
 _atom_site_fract_y
 _atom_site_fract_z
 _atom_site_occupancy
  B  B0  1  0.81268659  0.56554324  0.08981911  1
  B  B1  1  0.31268659  0.93445676  0.41018089  1
  B  B2  1  0.18731341  0.43445676  0.91018089  1
  B  B3  1  0.68731341  0.06554324  0.58981911  1
  B  B4  1  0.10310205  0.66251023  0.51145590  1
  B  B5  1  0.60310205  0.83748977  0.98854410  1
  B  B6  1  0.89689795  0.33748977  0.48854410  1
  B  B7  1  0.39689795  0.16251023  0.01145590  1
  B  B8  1  0.03224205  0.77722671  0.05788098  1
  B  B9  1  0.53224205  0.72277329  0.44211902  1
  B  B10  1  0.96775795  0.22277329  0.94211902  1
  B  B11  1  0.46775795  0.27722671  0.55788098  1
  B  B12  1  0.82425939  0.01801105  0.10126977  1
  B  B13  1  0.32425939  0.48198895  0.39873023  1
  B  B14  1  0.17574061  0.98198895  0.89873023  1
  B  B15  1  0.67574061  0.51801105  0.60126977  1
  B  B16  1  0.07226533  0.58406583  0.24910559  1
  B  B17  1  0.57226533  0.91593417  0.25089441  1
  B  B18  1  0.92773467  0.41593417  0.75089441  1
  B  B19  1  0.42773467  0.08406583  0.74910559  1
  O  O20  1  0.94317990  0.25440581  0.36778073  1
  O  O21  1  0.44317990  0.24559419  0.13221927  1
  O  O22  1  0.05682010  0.74559419  0.63221927  1
  O  O23  1  0.55682010  0.75440581  0.86778073  1
  O  O24  1  0.15297459  0.00854724  0.42847283  1
  O  O25  1  0.65297459  0.49145276  0.07152717  1
  O  O26  1  0.84702541  0.99145276  0.57152717  1
  O  O27  1  0.34702541  0.50854724  0.92847283  1
  O  O28  1  0.87659866  0.67966834  0.01016279  1
  O  O29  1  0.37659866  0.82033166  0.48983721  1
  O  O30  1  0.12340134  0.32033166  0.98983721  1
  O  O31  1  0.62340134  0.17966834  0.51016279  1
  O  O32  1  0.73321625  0.94971382  0.97517502  1
  O  O33  1  0.23321625  0.55028618  0.52482498  1
  O  O34  1  0.26678375  0.05028618  0.02482498  1
  O  O35  1  0.76678375  0.44971382  0.47517502  1
  O  O36  1  0.88845478  0.17651087  0.07730135  1
  O  O37  1  0.38845478  0.32348913  0.42269865  1
  O  O38  1  0.11154522  0.82348913  0.92269865  1
  O  O39  1  0.61154522  0.67651087  0.57730135  1
  O  O40  1  0.96968256  0.91677348  0.14928902  1
  O  O41  1  0.46968256  0.58322652  0.35071098  1
  O  O42  1  0.03031744  0.08322652  0.85071098  1
  O  O43  1  0.53031744  0.41677348  0.64928902  1
  O  O44  1  0.14762944  0.68296212  0.14271580  1
  O  O45  1  0.64762944  0.81703788  0.35728420  1
  O  O46  1  0.85237056  0.31703788  0.85728420  1
  O  O47  1  0.35237056  0.18296212  0.64271580  1
  O  O48  1  0.90638147  0.51238642  0.20156256  1
  O  O49  1  0.40638147  0.98761358  0.29843744  1
  O  O50  1  0.09361853  0.48761358  0.79843744  1
  O  O51  1  0.59361853  0.01238642  0.70156256  1
  O  O52  1  0.03159386  0.68499738  0.38094182  1
  O  O53  1  0.53159386  0.81500262  0.11905818  1
  O  O54  1  0.96840614  0.31500262  0.61905818  1
  O  O55  1  0.46840614  0.18499738  0.88094182  1
  O  O56  1  0.20215904  0.46219905  0.27625213  1
  O  O57  1  0.70215904  0.03780095  0.22374787  1
  O  O58  1  0.79784096  0.53780095  0.72374787  1
  O  O59  1  0.29784096  0.96219905  0.77625213  1
  Co  Co60  1  0.90257601  0.89889983  0.36965603  1
  Co  Co61  1  0.40257601  0.60110017  0.13034397  1
  Co  Co62  1  0.09742399  0.10110017  0.63034397  1
  Co  Co63  1  0.59742399  0.39889983  0.86965603  1
  Ho  Ho64  1  0.68537660  0.31561226  0.25618083  1
  Ho  Ho65  1  0.18537660  0.18438774  0.24381917  1
  Ho  Ho66  1  0.31462340  0.68438774  0.74381917  1
  Ho  Ho67  1  0.81462340  0.81561226  0.75618083  1
