# generated using pymatgen
data_KAg3S2
_symmetry_space_group_name_H-M   'P 1'
_cell_length_a   9.43664945
_cell_length_b   9.43664945
_cell_length_c   9.43664945
_cell_angle_alpha   60.00000002
_cell_angle_beta   60.00000003
_cell_angle_gamma   60.00000001
_symmetry_Int_Tables_number   1
_chemical_formula_structural   KAg3S2
_chemical_formula_sum   'K4 Ag12 S8'
_cell_volume   594.20796501
_cell_formula_units_Z   4
loop_
 _symmetry_equiv_pos_site_id
 _symmetry_equiv_pos_as_xyz
  1  'x, y, z'
loop_
 _atom_site_type_symbol
 _atom_site_label
 _atom_site_symmetry_multiplicity
 _atom_site_fract_x
 _atom_site_fract_y
 _atom_site_fract_z
 _atom_site_occupancy
  S  S0  1  0.74621993  0.74621993  0.26134021  1
  S  S1  1  0.25378007  0.25378007  0.25378007  1
  S  S2  1  0.25378007  0.73865979  0.25378007  1
  S  S3  1  0.73865979  0.25378007  0.25378007  1
  S  S4  1  0.26134021  0.74621993  0.74621993  1
  S  S5  1  0.25378007  0.25378007  0.73865979  1
  S  S6  1  0.74621993  0.74621993  0.74621993  1
  S  S7  1  0.74621993  0.26134021  0.74621993  1
  K  K8  1  0.50000000  0.50000000  0.50000000  1
  K  K9  1  0.50000000  0.50000000  0.00000000  1
  K  K10  1  0.00000000  0.50000000  0.50000000  1
  K  K11  1  0.50000000  0.00000000  0.50000000  1
  Ag  Ag12  1  0.96472067  0.28527933  0.28527933  1
  Ag  Ag13  1  0.71472067  0.03527933  0.03527933  1
  Ag  Ag14  1  0.28527933  0.96472067  0.28527933  1
  Ag  Ag15  1  0.28527933  0.28527933  0.96472067  1
  Ag  Ag16  1  0.96472067  0.96472067  0.28527933  1
  Ag  Ag17  1  0.96472067  0.28527933  0.96472067  1
  Ag  Ag18  1  0.71472067  0.03527933  0.71472067  1
  Ag  Ag19  1  0.03527933  0.71472067  0.03527933  1
  Ag  Ag20  1  0.03527933  0.71472067  0.71472067  1
  Ag  Ag21  1  0.71472067  0.71472067  0.03527933  1
  Ag  Ag22  1  0.03527933  0.03527933  0.71472067  1
  Ag  Ag23  1  0.28527933  0.96472067  0.96472067  1
