# generated using pymatgen
data_CrCdO4
_symmetry_space_group_name_H-M   'P 1'
_cell_length_a   7.19934694
_cell_length_b   7.23973301
_cell_length_c   7.23973302
_cell_angle_alpha   85.91413562
_cell_angle_beta   81.49190490
_cell_angle_gamma   81.49190487
_symmetry_Int_Tables_number   1
_chemical_formula_structural   CrCdO4
_chemical_formula_sum   'Cr4 Cd4 O16'
_cell_volume   368.61466271
_cell_formula_units_Z   4
loop_
 _symmetry_equiv_pos_site_id
 _symmetry_equiv_pos_as_xyz
  1  'x, y, z'
loop_
 _atom_site_type_symbol
 _atom_site_label
 _atom_site_symmetry_multiplicity
 _atom_site_fract_x
 _atom_site_fract_y
 _atom_site_fract_z
 _atom_site_occupancy
  O  O0  1  0.52146441  0.22068172  0.49642652  1
  O  O1  1  0.47853552  0.50357377  0.77931870  1
  O  O2  1  0.47853459  0.77931846  0.50357346  1
  O  O3  1  0.52146488  0.49642641  0.22068108  1
  O  O4  1  0.82803170  0.11457539  0.79586771  1
  O  O5  1  0.17196848  0.20413233  0.88542457  1
  O  O6  1  0.17196870  0.88542479  0.20413207  1
  O  O7  1  0.82803191  0.79586785  0.11457520  1
  O  O8  1  0.53967230  0.85430656  0.85430605  1
  O  O9  1  0.46032669  0.14569362  0.14569393  1
  O  O10  1  0.81133650  0.21552528  0.21552492  1
  O  O11  1  0.18866389  0.78447490  0.78447485  1
  O  O12  1  0.90078929  0.77384252  0.47216754  1
  O  O13  1  0.09920970  0.22615766  0.52783244  1
  O  O14  1  0.09921063  0.52783306  0.22615659  1
  O  O15  1  0.90078977  0.47216712  0.77384319  1
  Cr  Cr16  1  0.41771725  0.72619016  0.72619134  1
  Cr  Cr17  1  0.58228174  0.27381002  0.27381003  1
  Cr  Cr18  1  0.00000062  0.74431401  0.25568636  1
  Cr  Cr19  1  0.00000017  0.25568632  0.74431408  1
  Cd  Cd20  1  0.12533632  0.21063929  0.21063911  1
  Cd  Cd21  1  0.87466407  0.78936089  0.78936067  1
  Cd  Cd22  1  0.49999953  0.81306998  0.18693055  1
  Cd  Cd23  1  0.49999946  0.18693020  0.81306943  1
