# generated using pymatgen
data_LuNiO3
_symmetry_space_group_name_H-M   'P 1'
_cell_length_a   5.11981255
_cell_length_b   5.61718693
_cell_length_c   7.31261471
_cell_angle_alpha   90.00000000
_cell_angle_beta   89.94935018
_cell_angle_gamma   90.00000000
_symmetry_Int_Tables_number   1
_chemical_formula_structural   LuNiO3
_chemical_formula_sum   'Lu4 Ni4 O12'
_cell_volume   210.30299562
_cell_formula_units_Z   4
loop_
 _symmetry_equiv_pos_site_id
 _symmetry_equiv_pos_as_xyz
  1  'x, y, z'
loop_
 _atom_site_type_symbol
 _atom_site_label
 _atom_site_symmetry_multiplicity
 _atom_site_fract_x
 _atom_site_fract_y
 _atom_site_fract_z
 _atom_site_occupancy
  O  O0  1  0.69383136  0.31514345  0.44219314  1
  O  O1  1  0.80616990  0.81514417  0.05780671  1
  O  O2  1  0.30616944  0.68485618  0.55780633  1
  O  O3  1  0.19383091  0.18485546  0.94219275  1
  O  O4  1  0.19426447  0.18386388  0.55740859  1
  O  O5  1  0.30573587  0.68386460  0.94259185  1
  O  O6  1  0.80573633  0.81613576  0.44259087  1
  O  O7  1  0.69426297  0.31613504  0.05740898  1
  O  O8  1  0.12076028  0.45978045  0.25074894  1
  O  O9  1  0.37923914  0.95977937  0.24925147  1
  O  O10  1  0.62075970  0.04022027  0.75074935  1
  O  O11  1  0.87923856  0.54021918  0.74925052  1
  Ni  Ni12  1  0.00000000  0.50000072  0.00000000  1
  Ni  Ni13  1  0.49999942  0.00000000  0.50000041  1
  Ni  Ni14  1  0.00000046  0.50000072  0.49999933  1
  Ni  Ni15  1  0.50000092  0.00000000  0.99999972  1
  Lu  Lu16  1  0.47482810  0.41398622  0.75000403  1
  Lu  Lu17  1  0.02517224  0.91398694  0.74999504  1
  Lu  Lu18  1  0.52517074  0.58601341  0.24999543  1
  Lu  Lu19  1  0.97482856  0.08601269  0.25000442  1
