# generated using pymatgen
data_V2O3
_symmetry_space_group_name_H-M   'P 1'
_cell_length_a   5.12568269
_cell_length_b   5.56360021
_cell_length_c   5.12568239
_cell_angle_alpha   62.57130366
_cell_angle_beta   119.99999602
_cell_angle_gamma   117.42869469
_symmetry_Int_Tables_number   1
_chemical_formula_structural   V2O3
_chemical_formula_sum   'V4 O6'
_cell_volume   107.19449128
_cell_formula_units_Z   2
loop_
 _symmetry_equiv_pos_site_id
 _symmetry_equiv_pos_as_xyz
  1  'x, y, z'
loop_
 _atom_site_type_symbol
 _atom_site_label
 _atom_site_symmetry_multiplicity
 _atom_site_fract_x
 _atom_site_fract_y
 _atom_site_fract_z
 _atom_site_occupancy
  V  V0  1  0.35102298  0.05306894  0.64897702  1
  V  V1  1  0.85102298  0.55306894  0.14897702  1
  V  V2  1  0.14897736  0.44693208  0.85102264  1
  V  V3  1  0.64897736  0.94693208  0.35102264  1
  O  O4  1  0.94653074  0.74999966  0.75000049  1
  O  O5  1  0.44653074  0.24999966  0.94653059  1
  O  O6  1  0.74999951  0.24999966  0.55346926  1
  O  O7  1  0.55346941  0.74999966  0.05346926  1
  O  O8  1  0.05346941  0.24999966  0.25000049  1
  O  O9  1  0.24999951  0.74999966  0.44653059  1
