# generated using pymatgen
data_NaMnPO4
_symmetry_space_group_name_H-M   'P 1'
_cell_length_a   5.17240125
_cell_length_b   6.98061633
_cell_length_c   9.21375852
_cell_angle_alpha   90.00000000
_cell_angle_beta   90.00000000
_cell_angle_gamma   90.00000000
_symmetry_Int_Tables_number   1
_chemical_formula_structural   NaMnPO4
_chemical_formula_sum   'Na4 Mn4 P4 O16'
_cell_volume   332.67702008
_cell_formula_units_Z   4
loop_
 _symmetry_equiv_pos_site_id
 _symmetry_equiv_pos_as_xyz
  1  'x, y, z'
loop_
 _atom_site_type_symbol
 _atom_site_label
 _atom_site_symmetry_multiplicity
 _atom_site_fract_x
 _atom_site_fract_y
 _atom_site_fract_z
 _atom_site_occupancy
  O  O0  1  0.04242613  0.75000000  0.15285489  1
  O  O1  1  0.54242613  0.25000000  0.34714511  1
  O  O2  1  0.95757387  0.25000000  0.84714511  1
  O  O3  1  0.45757387  0.75000000  0.65285489  1
  O  O4  1  0.82965962  0.06869102  0.62164405  1
  O  O5  1  0.32965962  0.93130898  0.87835595  1
  O  O6  1  0.17034038  0.56869102  0.37835595  1
  O  O7  1  0.67034038  0.43130898  0.12164405  1
  O  O8  1  0.17034038  0.93130898  0.37835595  1
  O  O9  1  0.67034038  0.06869102  0.12164405  1
  O  O10  1  0.82965962  0.43130898  0.62164405  1
  O  O11  1  0.32965962  0.56869102  0.87835595  1
  O  O12  1  0.75634479  0.75000000  0.87982132  1
  O  O13  1  0.25634479  0.25000000  0.62017868  1
  O  O14  1  0.24365521  0.25000000  0.12017868  1
  O  O15  1  0.74365521  0.75000000  0.37982132  1
  Na  Na16  1  0.02715390  0.25000000  0.34985067  1
  Na  Na17  1  0.52715390  0.75000000  0.15014933  1
  Na  Na18  1  0.97284610  0.75000000  0.65014933  1
  Na  Na19  1  0.47284610  0.25000000  0.84985067  1
  P  P20  1  0.02945174  0.75000000  0.32401378  1
  P  P21  1  0.52945174  0.25000000  0.17598622  1
  P  P22  1  0.97054826  0.25000000  0.67598622  1
  P  P23  1  0.47054826  0.75000000  0.82401378  1
  Mn  Mn24  1  0.50000000  0.50000000  0.50000000  1
  Mn  Mn25  1  0.00000000  0.50000000  0.00000000  1
  Mn  Mn26  1  0.50000000  0.00000000  0.50000000  1
  Mn  Mn27  1  0.00000000  0.00000000  0.00000000  1
