# generated using pymatgen
data_Li7Mn2(CoO4)3
_symmetry_space_group_name_H-M   'P 1'
_cell_length_a   2.88675328
_cell_length_b   14.53774704
_cell_length_c   5.14048602
_cell_angle_alpha   90.48291848
_cell_angle_beta   88.96016741
_cell_angle_gamma   90.82595638
_symmetry_Int_Tables_number   1
_chemical_formula_structural   Li7Mn2(CoO4)3
_chemical_formula_sum   'Li7 Mn2 Co3 O12'
_cell_volume   215.66507145
_cell_formula_units_Z   1
loop_
 _symmetry_equiv_pos_site_id
 _symmetry_equiv_pos_as_xyz
  1  'x, y, z'
loop_
 _atom_site_type_symbol
 _atom_site_label
 _atom_site_symmetry_multiplicity
 _atom_site_fract_x
 _atom_site_fract_y
 _atom_site_fract_z
 _atom_site_occupancy
  Li  Li0  1  0.99839915  0.15248081  0.64614043  1
  Li  Li1  1  0.49949915  0.50625841  0.49654241  1
  Li  Li2  1  0.00371881  0.84276923  0.35112079  1
  Li  Li3  1  0.51020415  0.15567878  0.16781647  1
  Li  Li4  1  0.00071861  0.50394185  0.00265823  1
  Li  Li5  1  0.49178716  0.83791515  0.83514640  1
  Li  Li6  1  0.49896593  0.99955848  0.49802293  1
  Mn  Mn7  1  0.99899839  -0.00043604  -0.00028248  1
  Mn  Mn8  1  0.50105667  0.33323642  0.83268634  1
  Co  Co9  1  0.99962951  0.66805985  0.66727002  1
  Co  Co10  1  0.00191514  0.33267982  0.33306897  1
  Co  Co11  1  0.49968631  0.66786215  0.16742196  1
  O  O12  1  0.50513346  0.07414525  0.84950989  1
  O  O13  1  0.01127410  0.40773803  0.68508511  1
  O  O14  1  0.48375037  0.74351757  0.50719698  1
  O  O15  1  0.99893476  0.07906318  0.30374565  1
  O  O16  1  0.49838894  0.40839930  0.14803382  1
  O  O17  1  0.98076215  0.74143007  0.01008923  1
  O  O18  1  0.50550689  0.25886533  0.52033832  1
  O  O19  1  0.01496578  0.58803209  0.32784317  1
  O  O20  1  0.49200509  0.92596993  0.15015418  1
  O  O21  1  -0.00840928  0.26120064  -0.02083715  1
  O  O22  1  0.51243326  0.58936054  0.82447455  1
  O  O23  1  0.00067552  0.92227315  0.69675377  1
