# generated using pymatgen
data_Sr2MoO4
_symmetry_space_group_name_H-M   'P 1'
_cell_length_a   4.02203522
_cell_length_b   4.02203523
_cell_length_c   7.08951798
_cell_angle_alpha   106.47880858
_cell_angle_beta   106.47880865
_cell_angle_gamma   89.99999997
_symmetry_Int_Tables_number   1
_chemical_formula_structural   Sr2MoO4
_chemical_formula_sum   'Sr2 Mo1 O4'
_cell_volume   105.05298018
_cell_formula_units_Z   1
loop_
 _symmetry_equiv_pos_site_id
 _symmetry_equiv_pos_as_xyz
  1  'x, y, z'
loop_
 _atom_site_type_symbol
 _atom_site_label
 _atom_site_symmetry_multiplicity
 _atom_site_fract_x
 _atom_site_fract_y
 _atom_site_fract_z
 _atom_site_occupancy
  O  O0  1  0.00000113  0.49999881  0.99999963  1
  O  O1  1  0.49999936  0.00000000  0.99999954  1
  O  O2  1  0.83563711  0.83563774  0.67127669  1
  O  O3  1  0.16436274  0.16436044  0.32872263  1
  Sr  Sr4  1  0.34992800  0.34992675  0.69985517  1
  Sr  Sr5  1  0.65007185  0.65007143  0.30014416  1
  Mo  Mo6  1  0.00000000  0.00000000  0.00000000  1
