# generated using pymatgen
data_KY(PO3)4
_symmetry_space_group_name_H-M   'P 1'
_cell_length_a   7.34971384
_cell_length_b   7.96232587
_cell_length_c   8.44700767
_cell_angle_alpha   90.00000000
_cell_angle_beta   90.00000000
_cell_angle_gamma   91.49201137
_symmetry_Int_Tables_number   1
_chemical_formula_structural   KY(PO3)4
_chemical_formula_sum   'K2 Y2 P8 O24'
_cell_volume   494.15819297
_cell_formula_units_Z   2
loop_
 _symmetry_equiv_pos_site_id
 _symmetry_equiv_pos_as_xyz
  1  'x, y, z'
loop_
 _atom_site_type_symbol
 _atom_site_label
 _atom_site_symmetry_multiplicity
 _atom_site_fract_x
 _atom_site_fract_y
 _atom_site_fract_z
 _atom_site_occupancy
  O  O0  1  0.60828958  0.57502776  0.05178078  1
  O  O1  1  0.39171042  0.42497224  0.55178078  1
  O  O2  1  0.52358633  0.35359638  0.83836756  1
  O  O3  1  0.47641367  0.64640362  0.33836756  1
  O  O4  1  0.82072408  0.33927161  0.97954833  1
  O  O5  1  0.17927592  0.66072839  0.47954833  1
  O  O6  1  0.96487650  0.53743036  0.18531267  1
  O  O7  1  0.03512350  0.46256964  0.68531267  1
  O  O8  1  0.16041939  0.38316449  0.98471795  1
  O  O9  1  0.83958061  0.61683551  0.48471795  1
  O  O10  1  0.99015954  0.22048903  0.20272897  1
  O  O11  1  0.00984046  0.77951097  0.70272897  1
  O  O12  1  0.67856705  0.92841720  0.46857374  1
  O  O13  1  0.32143295  0.07158280  0.96857374  1
  O  O14  1  0.43075686  0.04271787  0.64511698  1
  O  O15  1  0.56924314  0.95728213  0.14511698  1
  O  O16  1  0.69215245  0.89342776  0.77017845  1
  O  O17  1  0.30784755  0.10657224  0.27017845  1
  O  O18  1  0.46507256  0.72567072  0.63077476  1
  O  O19  1  0.53492744  0.27432928  0.13077476  1
  O  O20  1  0.98084585  0.07426038  0.79133038  1
  O  O21  1  0.01915415  0.92573962  0.29133038  1
  O  O22  1  0.90953336  0.82820702  0.98524579  1
  O  O23  1  0.09046664  0.17179298  0.48524579  1
  P  P24  1  0.61317020  0.39796342  0.99255573  1
  P  P25  1  0.38682980  0.60203658  0.49255573  1
  P  P26  1  0.99510470  0.38182773  0.08918479  1
  P  P27  1  0.00489530  0.61817227  0.58918479  1
  P  P28  1  0.09750771  0.09873777  0.32237836  1
  P  P29  1  0.90249229  0.90126223  0.82237836  1
  P  P30  1  0.43435326  0.09210104  0.11537076  1
  P  P31  1  0.56564674  0.90789896  0.61537076  1
  K  K32  1  0.26714487  0.71701010  0.05245139  1
  K  K33  1  0.73285513  0.28298990  0.55245139  1
  Y  Y34  1  0.23821939  0.24203767  0.74121261  1
  Y  Y35  1  0.76178061  0.75796233  0.24121261  1
