# generated using pymatgen
data_Ba2Li(CuO2)3
_symmetry_space_group_name_H-M   'P 1'
_cell_length_a   7.12783756
_cell_length_b   7.12783756
_cell_length_c   8.24857124
_cell_angle_alpha   107.18305290
_cell_angle_beta   107.18305297
_cell_angle_gamma   108.43614462
_symmetry_Int_Tables_number   1
_chemical_formula_structural   Ba2Li(CuO2)3
_chemical_formula_sum   'Ba4 Li2 Cu6 O12'
_cell_volume   343.08940434
_cell_formula_units_Z   2
loop_
 _symmetry_equiv_pos_site_id
 _symmetry_equiv_pos_as_xyz
  1  'x, y, z'
loop_
 _atom_site_type_symbol
 _atom_site_label
 _atom_site_symmetry_multiplicity
 _atom_site_fract_x
 _atom_site_fract_y
 _atom_site_fract_z
 _atom_site_occupancy
  Li  Li0  1  0.66578746  0.66578746  0.33157491  1
  Li  Li1  1  0.33421254  0.33421254  0.66842509  1
  O  O2  1  0.29524540  0.51515909  0.19248711  1
  O  O3  1  0.32267197  0.10275828  0.80751289  1
  O  O4  1  0.51515909  0.29524540  0.19248711  1
  O  O5  1  0.10275828  0.32267197  0.80751289  1
  O  O6  1  0.70475460  0.48484091  0.80751289  1
  O  O7  1  0.67732803  0.89724172  0.19248711  1
  O  O8  1  0.69371734  0.92162101  0.61533835  1
  O  O9  1  0.30628266  0.07837899  0.38466165  1
  O  O10  1  0.48484091  0.70475460  0.80751289  1
  O  O11  1  0.89724172  0.67732803  0.19248711  1
  O  O12  1  0.92162101  0.69371734  0.61533835  1
  O  O13  1  0.07837899  0.30628266  0.38466165  1
  Cu  Cu14  1  0.31006749  0.31006749  0.30593093  1
  Cu  Cu15  1  0.00413656  0.00413656  0.69406907  1
  Cu  Cu16  1  0.68993251  0.68993251  0.69406907  1
  Cu  Cu17  1  0.99586344  0.99586344  0.30593093  1
  Cu  Cu18  1  0.32089909  0.32089909  0.00000000  1
  Cu  Cu19  1  0.67910091  0.67910091  0.00000000  1
  Ba  Ba20  1  0.75000000  0.25000000  0.50000000  1
  Ba  Ba21  1  0.25000000  0.75000000  0.50000000  1
  Ba  Ba22  1  0.76977985  0.23022015  0.00000000  1
  Ba  Ba23  1  0.23022015  0.76977985  0.00000000  1
