# generated using pymatgen
data_ZnS
_symmetry_space_group_name_H-M   'P 1'
_cell_length_a   31.54953963
_cell_length_b   31.54953963
_cell_length_c   31.54953963
_cell_angle_alpha   7.01324089
_cell_angle_beta   7.01324090
_cell_angle_gamma   7.01324089
_symmetry_Int_Tables_number   1
_chemical_formula_structural   ZnS
_chemical_formula_sum   'Zn10 S10'
_cell_volume   405.95117293
_cell_formula_units_Z   10
loop_
 _symmetry_equiv_pos_site_id
 _symmetry_equiv_pos_as_xyz
  1  'x, y, z'
loop_
 _atom_site_type_symbol
 _atom_site_label
 _atom_site_symmetry_multiplicity
 _atom_site_fract_x
 _atom_site_fract_y
 _atom_site_fract_z
 _atom_site_occupancy
  S  S0  1  0.65811048  0.65811048  0.65811048  1
  S  S1  1  0.95805578  0.95805578  0.95805578  1
  S  S2  1  0.25810174  0.25810174  0.25810174  1
  S  S3  1  0.89138749  0.89138749  0.89138749  1
  S  S4  1  0.52476831  0.52476831  0.52476831  1
  S  S5  1  0.82472259  0.82472259  0.82472259  1
  S  S6  1  0.12477142  0.12477142  0.12477142  1
  S  S7  1  0.75805061  0.75805061  0.75805061  1
  S  S8  1  0.39140901  0.39140901  0.39140901  1
  S  S9  1  0.02475687  0.02475687  0.02475687  1
  Zn  Zn10  1  0.63308664  0.63308664  0.63308664  1
  Zn  Zn11  1  0.93308498  0.93308498  0.93308498  1
  Zn  Zn12  1  0.23308434  0.23308434  0.23308434  1
  Zn  Zn13  1  0.86641545  0.86641545  0.86641545  1
  Zn  Zn14  1  0.49975343  0.49975343  0.49975343  1
  Zn  Zn15  1  0.79975281  0.79975281  0.79975281  1
  Zn  Zn16  1  0.09975912  0.09975912  0.09975912  1
  Zn  Zn17  1  0.73306722  0.73306722  0.73306722  1
  Zn  Zn18  1  0.36641990  0.36641990  0.36641990  1
  Zn  Zn19  1  0.99977516  0.99977516  0.99977516  1
