# generated using pymatgen
data_CeS2
_symmetry_space_group_name_H-M   'P 1'
_cell_length_a   4.05671022
_cell_length_b   7.98693788
_cell_length_c   16.09305361
_cell_angle_alpha   90.00000000
_cell_angle_beta   90.00000000
_cell_angle_gamma   90.00000000
_symmetry_Int_Tables_number   1
_chemical_formula_structural   CeS2
_chemical_formula_sum   'Ce8 S16'
_cell_volume   521.42608179
_cell_formula_units_Z   8
loop_
 _symmetry_equiv_pos_site_id
 _symmetry_equiv_pos_as_xyz
  1  'x, y, z'
loop_
 _atom_site_type_symbol
 _atom_site_label
 _atom_site_symmetry_multiplicity
 _atom_site_fract_x
 _atom_site_fract_y
 _atom_site_fract_z
 _atom_site_occupancy
  S  S0  1  0.83007455  0.59997744  0.50288514  1
  S  S1  1  0.16992545  0.40002256  0.00288514  1
  S  S2  1  0.66992545  0.09997744  0.50288514  1
  S  S3  1  0.33007455  0.90002256  0.00288514  1
  S  S4  1  0.35299823  0.88824212  0.50279034  1
  S  S5  1  0.64700177  0.11175788  0.00279034  1
  S  S6  1  0.14700177  0.38824212  0.50279034  1
  S  S7  1  0.85299823  0.61175788  0.00279034  1
  S  S8  1  0.75974084  0.87622524  0.32045725  1
  S  S9  1  0.24025916  0.12377476  0.82045725  1
  S  S10  1  0.74025916  0.37622524  0.32045725  1
  S  S11  1  0.25974084  0.62377476  0.82045725  1
  S  S12  1  0.25977962  0.62671252  0.18521092  1
  S  S13  1  0.74022038  0.37328748  0.68521092  1
  S  S14  1  0.24022038  0.12671252  0.18521092  1
  S  S15  1  0.75977962  0.87328748  0.68521092  1
  Ce  Ce16  1  0.77622608  0.86998055  0.86375560  1
  Ce  Ce17  1  0.22377392  0.13001945  0.36375560  1
  Ce  Ce18  1  0.72377392  0.36998055  0.86375560  1
  Ce  Ce19  1  0.27622608  0.63001945  0.36375560  1
  Ce  Ce20  1  0.27655742  0.62740089  0.64190076  1
  Ce  Ce21  1  0.72344258  0.37259911  0.14190076  1
  Ce  Ce22  1  0.22344258  0.12740089  0.64190076  1
  Ce  Ce23  1  0.77655742  0.87259911  0.14190076  1
