# generated using pymatgen
data_Er6Fe23
_symmetry_space_group_name_H-M   'P 1'
_cell_length_a   8.45317792
_cell_length_b   8.45317791
_cell_length_c   8.45317791
_cell_angle_alpha   59.99999996
_cell_angle_beta   60.00000000
_cell_angle_gamma   59.99999999
_symmetry_Int_Tables_number   1
_chemical_formula_structural   Er6Fe23
_chemical_formula_sum   'Er6 Fe23'
_cell_volume   427.11520363
_cell_formula_units_Z   1
loop_
 _symmetry_equiv_pos_site_id
 _symmetry_equiv_pos_as_xyz
  1  'x, y, z'
loop_
 _atom_site_type_symbol
 _atom_site_label
 _atom_site_symmetry_multiplicity
 _atom_site_fract_x
 _atom_site_fract_y
 _atom_site_fract_z
 _atom_site_occupancy
  Fe  Fe0  1  0.82476995  0.82476995  0.82476995  1
  Fe  Fe1  1  0.17523005  0.17523005  0.47430984  1
  Fe  Fe2  1  0.17523005  0.47430984  0.17523005  1
  Fe  Fe3  1  0.47430984  0.17523005  0.17523005  1
  Fe  Fe4  1  0.82476995  0.52569016  0.82476995  1
  Fe  Fe5  1  0.52569016  0.82476995  0.82476995  1
  Fe  Fe6  1  0.50000000  0.50000000  0.50000000  1
  Fe  Fe7  1  0.50000000  0.00000000  0.00000000  1
  Fe  Fe8  1  0.00000000  0.00000000  0.50000000  1
  Fe  Fe9  1  0.50000000  0.50000000  0.00000000  1
  Fe  Fe10  1  0.00000000  0.50000000  0.50000000  1
  Fe  Fe11  1  0.00000000  0.50000000  0.00000000  1
  Fe  Fe12  1  0.50000000  0.00000000  0.50000000  1
  Fe  Fe13  1  0.37850750  0.37850750  0.37850750  1
  Fe  Fe14  1  0.62149250  0.62149250  0.13552249  1
  Fe  Fe15  1  0.13552249  0.62149250  0.62149250  1
  Fe  Fe16  1  0.62149250  0.13552249  0.62149250  1
  Fe  Fe17  1  0.86447751  0.37850750  0.37850750  1
  Fe  Fe18  1  0.37850750  0.86447751  0.37850750  1
  Fe  Fe19  1  0.37850750  0.37850750  0.86447751  1
  Fe  Fe20  1  0.62149250  0.62149250  0.62149250  1
  Fe  Fe21  1  0.17523005  0.17523005  0.17523005  1
  Fe  Fe22  1  0.82476995  0.82476995  0.52569016  1
  Er  Er23  1  0.20953803  0.79046197  0.79046197  1
  Er  Er24  1  0.20953803  0.79046197  0.20953803  1
  Er  Er25  1  0.79046197  0.20953803  0.79046197  1
  Er  Er26  1  0.20953803  0.20953803  0.79046197  1
  Er  Er27  1  0.79046197  0.79046197  0.20953803  1
  Er  Er28  1  0.79046197  0.20953803  0.20953803  1
