# generated using pymatgen
data_Li7Mn2(CoO4)3
_symmetry_space_group_name_H-M   'P 1'
_cell_length_a   2.94999349
_cell_length_b   7.77417071
_cell_length_c   10.15541135
_cell_angle_alpha   69.65390264
_cell_angle_beta   91.19971788
_cell_angle_gamma   81.89235183
_symmetry_Int_Tables_number   1
_chemical_formula_structural   Li7Mn2(CoO4)3
_chemical_formula_sum   'Li7 Mn2 Co3 O12'
_cell_volume   215.57306055
_cell_formula_units_Z   1
loop_
 _symmetry_equiv_pos_site_id
 _symmetry_equiv_pos_as_xyz
  1  'x, y, z'
loop_
 _atom_site_type_symbol
 _atom_site_label
 _atom_site_symmetry_multiplicity
 _atom_site_fract_x
 _atom_site_fract_y
 _atom_site_fract_z
 _atom_site_occupancy
  Li  Li0  1  0.83681824  0.33047447  0.08412247  1
  Li  Li1  1  0.16654834  0.66379617  0.42789713  1
  Li  Li2  1  0.51795709  0.99683427  0.74163459  1
  Li  Li3  1  0.15621900  0.67310052  0.91035280  1
  Li  Li4  1  0.49957654  0.00018024  0.25501214  1
  Li  Li5  1  0.82187417  0.34461548  0.58348754  1
  Li  Li6  1  0.68158413  0.66270734  0.65966231  1
  Mn  Mn7  1  0.99578910  -0.00118035  -0.00055137  1
  Mn  Mn8  1  0.32168625  0.34505910  0.82742297  1
  Co  Co9  1  0.33870642  0.32919770  0.34057772  1
  Co  Co10  1  0.66658597  0.66219163  0.16796232  1
  Co  Co11  1  0.00745378  0.98707729  0.50668295  1
  O  O12  1  0.37413032  0.16723332  0.03161772  1
  O  O13  1  0.75943630  0.49441960  0.36982687  1
  O  O14  1  0.07047575  0.85676611  0.68759732  1
  O  O15  1  0.77174201  0.48283067  0.86899118  1
  O  O16  1  0.08335926  0.82454405  0.19921409  1
  O  O17  1  0.38465698  0.15994770  0.53254264  1
  O  O18  1  0.26199766  0.50228748  0.13343156  1
  O  O19  1  0.60655641  0.84858864  0.46036763  1
  O  O20  1  0.88171705  0.18455129  0.80298295  1
  O  O21  1  0.61411263  0.83727356  0.95930610  1
  O  O22  1  0.91859381  0.16183685  0.31042364  1
  O  O23  1  0.26242279  0.48566688  0.63943475  1
