# generated using pymatgen
data_Ce(In2Au)2
_symmetry_space_group_name_H-M   'P 1'
_cell_length_a   4.73720501
_cell_length_b   7.47453177
_cell_length_c   18.83660812
_cell_angle_alpha   90.00000000
_cell_angle_beta   90.00000000
_cell_angle_gamma   90.00000000
_symmetry_Int_Tables_number   1
_chemical_formula_structural   Ce(In2Au)2
_chemical_formula_sum   'Ce4 In16 Au8'
_cell_volume   666.97395431
_cell_formula_units_Z   4
loop_
 _symmetry_equiv_pos_site_id
 _symmetry_equiv_pos_as_xyz
  1  'x, y, z'
loop_
 _atom_site_type_symbol
 _atom_site_label
 _atom_site_symmetry_multiplicity
 _atom_site_fract_x
 _atom_site_fract_y
 _atom_site_fract_z
 _atom_site_occupancy
  In  In0  1  0.25000000  0.26633811  0.81138783  1
  In  In1  1  0.75000000  0.73366189  0.18861217  1
  In  In2  1  0.75000000  0.76633811  0.68861217  1
  In  In3  1  0.25000000  0.23366189  0.31138783  1
  In  In4  1  0.25000000  0.67824792  0.81524976  1
  In  In5  1  0.75000000  0.32175208  0.18475024  1
  In  In6  1  0.75000000  0.17824792  0.68475024  1
  In  In7  1  0.25000000  0.82175208  0.31524976  1
  In  In8  1  0.25000000  0.14531777  0.96488903  1
  In  In9  1  0.75000000  0.85468223  0.03511097  1
  In  In10  1  0.75000000  0.64531777  0.53511097  1
  In  In11  1  0.25000000  0.35468223  0.46488903  1
  In  In12  1  0.25000000  0.48726277  0.06783659  1
  In  In13  1  0.75000000  0.51273723  0.93216341  1
  In  In14  1  0.75000000  0.98726277  0.43216341  1
  In  In15  1  0.25000000  0.01273723  0.56783659  1
  Ce  Ce16  1  0.75000000  0.97804974  0.85939396  1
  Ce  Ce17  1  0.25000000  0.02195026  0.14060604  1
  Ce  Ce18  1  0.25000000  0.47804974  0.64060604  1
  Ce  Ce19  1  0.75000000  0.52195026  0.35939396  1
  Au  Au20  1  0.25000000  0.75887527  0.96153715  1
  Au  Au21  1  0.75000000  0.24112473  0.03846285  1
  Au  Au22  1  0.75000000  0.25887527  0.53846285  1
  Au  Au23  1  0.25000000  0.74112473  0.46153715  1
  Au  Au24  1  0.25000000  0.96854932  0.71809551  1
  Au  Au25  1  0.75000000  0.03145068  0.28190449  1
  Au  Au26  1  0.75000000  0.46854932  0.78190449  1
  Au  Au27  1  0.25000000  0.53145068  0.21809551  1
