# generated using pymatgen
data_Li7Mn2(CoO4)3
_symmetry_space_group_name_H-M   'P 1'
_cell_length_a   2.98373133
_cell_length_b   14.60140538
_cell_length_c   5.07055355
_cell_angle_alpha   87.86341059
_cell_angle_beta   90.77372356
_cell_angle_gamma   79.87096410
_symmetry_Int_Tables_number   1
_chemical_formula_structural   Li7Mn2(CoO4)3
_chemical_formula_sum   'Li7 Mn2 Co3 O12'
_cell_volume   217.26774741
_cell_formula_units_Z   1
loop_
 _symmetry_equiv_pos_site_id
 _symmetry_equiv_pos_as_xyz
  1  'x, y, z'
loop_
 _atom_site_type_symbol
 _atom_site_label
 _atom_site_symmetry_multiplicity
 _atom_site_fract_x
 _atom_site_fract_y
 _atom_site_fract_z
 _atom_site_occupancy
  Li  Li0  1  0.82395638  0.17214661  0.33918222  1
  Li  Li1  1  0.15615031  0.33462627  0.18543249  1
  Li  Li2  1  0.50750215  0.50058444  0.99609575  1
  Li  Li3  1  0.83737743  0.66551403  0.83307316  1
  Li  Li4  1  0.16872743  0.83220428  0.66772504  1
  Li  Li5  1  0.50711856  0.99698827  0.49361887  1
  Li  Li6  1  0.67999143  0.33170890  0.65067903  1
  Mn  Mn7  1  0.99515796  0.00012431  0.00490065  1
  Mn  Mn8  1  0.31948539  0.17345771  0.82570110  1
  Co  Co9  1  0.01048515  0.49313408  0.50318108  1
  Co  Co10  1  0.34009725  0.66405936  0.33767676  1
  Co  Co11  1  0.67343214  0.83050101  0.17030232  1
  O  O12  1  0.37204316  0.08330382  0.14558440  1
  O  O13  1  0.76594993  0.24150020  0.97660519  1
  O  O14  1  0.07273846  0.42820412  0.79718849  1
  O  O15  1  0.38249373  0.58324429  0.64574875  1
  O  O16  1  0.75587474  0.75033738  0.48290641  1
  O  O17  1  0.09711540  0.91530192  0.31902720  1
  O  O18  1  0.26140547  0.24422895  0.51738321  1
  O  O19  1  0.60707649  0.42423871  0.33845710  1
  O  O20  1  0.91200387  0.58126371  0.19973067  1
  O  O21  1  0.24734882  0.74748212  0.02092401  1
  O  O22  1  0.61977084  0.91495174  0.85271452  1
  O  O23  1  0.88669752  0.09089378  0.69616161  1
