# generated using pymatgen
data_Li5CrCl8
_symmetry_space_group_name_H-M   'P 1'
_cell_length_a   6.30963794
_cell_length_b   6.30963794
_cell_length_c   7.29589387
_cell_angle_alpha   90.00000000
_cell_angle_beta   90.00000000
_cell_angle_gamma   108.98775149
_symmetry_Int_Tables_number   1
_chemical_formula_structural   Li5CrCl8
_chemical_formula_sum   'Li5 Cr1 Cl8'
_cell_volume   274.65620082
_cell_formula_units_Z   1
loop_
 _symmetry_equiv_pos_site_id
 _symmetry_equiv_pos_as_xyz
  1  'x, y, z'
loop_
 _atom_site_type_symbol
 _atom_site_label
 _atom_site_symmetry_multiplicity
 _atom_site_fract_x
 _atom_site_fract_y
 _atom_site_fract_z
 _atom_site_occupancy
  Li  Li0  1  0.50000000  0.00000000  0.23317272  1
  Li  Li1  1  0.00000000  0.50000000  0.76682728  1
  Li  Li2  1  0.50000000  0.00000000  0.76682728  1
  Li  Li3  1  0.00000000  0.50000000  0.23317272  1
  Li  Li4  1  0.50000000  0.50000000  0.00000000  1
  Cl  Cl5  1  0.27233884  0.27233884  0.27002316  1
  Cl  Cl6  1  0.72766116  0.72766116  0.27002316  1
  Cl  Cl7  1  0.26931004  0.73068996  0.50000000  1
  Cl  Cl8  1  0.27233884  0.27233884  0.72997684  1
  Cl  Cl9  1  0.72766116  0.72766116  0.72997684  1
  Cl  Cl10  1  0.25276139  0.74723861  0.00000000  1
  Cl  Cl11  1  0.73068996  0.26931004  0.50000000  1
  Cl  Cl12  1  0.74723861  0.25276139  0.00000000  1
  Cr  Cr13  1  0.50000000  0.50000000  0.50000000  1
