# generated using pymatgen
data_Hg2ClO
_symmetry_space_group_name_H-M   'P 1'
_cell_length_a   6.10631219
_cell_length_b   6.87044005
_cell_length_c   9.75211371
_cell_angle_alpha   103.95183648
_cell_angle_beta   90.00000000
_cell_angle_gamma   116.38432923
_symmetry_Int_Tables_number   1
_chemical_formula_structural   Hg2ClO
_chemical_formula_sum   'Hg8 Cl4 O4'
_cell_volume   352.98900314
_cell_formula_units_Z   4
loop_
 _symmetry_equiv_pos_site_id
 _symmetry_equiv_pos_as_xyz
  1  'x, y, z'
loop_
 _atom_site_type_symbol
 _atom_site_label
 _atom_site_symmetry_multiplicity
 _atom_site_fract_x
 _atom_site_fract_y
 _atom_site_fract_z
 _atom_site_occupancy
  O  O0  1  0.25496669  0.15936370  0.43928283  1
  O  O1  1  0.09560299  0.84063630  0.06071717  1
  O  O2  1  0.74503331  0.84063630  0.56071717  1
  O  O3  1  0.90439701  0.15936370  0.93928283  1
  Cl  Cl4  1  0.48891465  0.37973877  0.14056005  1
  Cl  Cl5  1  0.10917588  0.62026123  0.35943995  1
  Cl  Cl6  1  0.51108535  0.62026123  0.85943995  1
  Cl  Cl7  1  0.89082412  0.37973877  0.64056005  1
  Hg  Hg8  1  0.14331119  0.89921907  0.60376323  1
  Hg  Hg9  1  0.24409212  0.10078093  0.89623677  1
  Hg  Hg10  1  0.85668881  0.10078093  0.39623677  1
  Hg  Hg11  1  0.75590788  0.89921907  0.10376323  1
  Hg  Hg12  1  0.59433066  0.00000000  0.75000000  1
  Hg  Hg13  1  0.40566934  0.00000000  0.25000000  1
  Hg  Hg14  1  0.50000000  0.50000000  0.50000000  1
  Hg  Hg15  1  0.00000000  0.50000000  0.00000000  1
