# generated using pymatgen
data_Tb3(CoGe2)2
_symmetry_space_group_name_H-M   'P 1'
_cell_length_a   4.16406892
_cell_length_b   5.76522924
_cell_length_c   8.06449590
_cell_angle_alpha   106.37697556
_cell_angle_beta   90.00000000
_cell_angle_gamma   111.17000614
_symmetry_Int_Tables_number   1
_chemical_formula_structural   Tb3(CoGe2)2
_chemical_formula_sum   'Tb3 Co2 Ge4'
_cell_volume   172.08682019
_cell_formula_units_Z   1
loop_
 _symmetry_equiv_pos_site_id
 _symmetry_equiv_pos_as_xyz
  1  'x, y, z'
loop_
 _atom_site_type_symbol
 _atom_site_label
 _atom_site_symmetry_multiplicity
 _atom_site_fract_x
 _atom_site_fract_y
 _atom_site_fract_z
 _atom_site_occupancy
  Co  Co0  1  0.30738812  0.61477624  0.62753762  1
  Co  Co1  1  0.69261188  0.38522376  0.37246238  1
  Ge  Ge2  1  0.90074934  0.80149869  0.60071157  1
  Ge  Ge3  1  0.70914891  0.41829781  0.08118045  1
  Ge  Ge4  1  0.29085109  0.58170219  0.91881955  1
  Ge  Ge5  1  0.09925066  0.19850131  0.39928843  1
  Tb  Tb6  1  0.00000000  0.00000000  0.00000000  1
  Tb  Tb7  1  0.62287903  0.24575805  0.69244196  1
  Tb  Tb8  1  0.37712097  0.75424195  0.30755804  1
