# generated using pymatgen
data_BiSeI
_symmetry_space_group_name_H-M   'P 1'
_cell_length_a   4.27399060
_cell_length_b   9.03710559
_cell_length_c   11.27748786
_cell_angle_alpha   90.00000000
_cell_angle_beta   90.00000000
_cell_angle_gamma   90.00000000
_symmetry_Int_Tables_number   1
_chemical_formula_structural   BiSeI
_chemical_formula_sum   'Bi4 Se4 I4'
_cell_volume   435.58737883
_cell_formula_units_Z   4
loop_
 _symmetry_equiv_pos_site_id
 _symmetry_equiv_pos_as_xyz
  1  'x, y, z'
loop_
 _atom_site_type_symbol
 _atom_site_label
 _atom_site_symmetry_multiplicity
 _atom_site_fract_x
 _atom_site_fract_y
 _atom_site_fract_z
 _atom_site_occupancy
  Se  Se0  1  0.25000000  0.17159658  0.03872359  1
  Se  Se1  1  0.75000000  0.32840342  0.53872359  1
  Se  Se2  1  0.25000000  0.67159658  0.46127641  1
  Se  Se3  1  0.75000000  0.82840342  0.96127641  1
  I  I4  1  0.25000000  0.47606188  0.81575216  1
  I  I5  1  0.75000000  0.02393812  0.31575216  1
  I  I6  1  0.25000000  0.97606188  0.68424784  1
  I  I7  1  0.75000000  0.52393812  0.18424784  1
  Bi  Bi8  1  0.75000000  0.11074640  0.87189798  1
  Bi  Bi9  1  0.25000000  0.88925360  0.12810202  1
  Bi  Bi10  1  0.75000000  0.61074640  0.62810202  1
  Bi  Bi11  1  0.25000000  0.38925360  0.37189798  1
