# generated using pymatgen
data_Sr2Cu3(BrO2)2
_symmetry_space_group_name_H-M   'P 1'
_cell_length_a   5.51879022
_cell_length_b   5.51879022
_cell_length_c   7.88278065
_cell_angle_alpha   110.49058869
_cell_angle_beta   110.49058867
_cell_angle_gamma   89.99999995
_symmetry_Int_Tables_number   1
_chemical_formula_structural   Sr2Cu3(BrO2)2
_chemical_formula_sum   'Sr2 Cu3 Br2 O4'
_cell_volume   208.60232140
_cell_formula_units_Z   1
loop_
 _symmetry_equiv_pos_site_id
 _symmetry_equiv_pos_as_xyz
  1  'x, y, z'
loop_
 _atom_site_type_symbol
 _atom_site_label
 _atom_site_symmetry_multiplicity
 _atom_site_fract_x
 _atom_site_fract_y
 _atom_site_fract_z
 _atom_site_occupancy
  O  O0  1  0.75017158  0.75017158  0.00000000  1
  O  O1  1  0.24982842  0.24982842  0.00000000  1
  O  O2  1  0.75017158  0.24982842  0.00000000  1
  O  O3  1  0.24982842  0.75017158  0.00000000  1
  Cu  Cu4  1  0.00000000  0.50000000  0.00000000  1
  Cu  Cu5  1  0.00000000  0.00000000  0.00000000  1
  Cu  Cu6  1  0.50000000  0.00000000  0.00000000  1
  Br  Br7  1  0.25000000  0.75000000  0.50000000  1
  Br  Br8  1  0.75000000  0.25000000  0.50000000  1
  Sr  Sr9  1  0.36939113  0.36939113  0.73878225  1
  Sr  Sr10  1  0.63060887  0.63060887  0.26121775  1
