# generated using pymatgen
data_Li7Mn2(CoO4)3
_symmetry_space_group_name_H-M   'P 1'
_cell_length_a   2.89016529
_cell_length_b   5.14726479
_cell_length_c   14.88732848
_cell_angle_alpha   99.96379864
_cell_angle_beta   84.97551320
_cell_angle_gamma   90.85167852
_symmetry_Int_Tables_number   1
_chemical_formula_structural   Li7Mn2(CoO4)3
_chemical_formula_sum   'Li7 Mn2 Co3 O12'
_cell_volume   217.29195361
_cell_formula_units_Z   1
loop_
 _symmetry_equiv_pos_site_id
 _symmetry_equiv_pos_as_xyz
  1  'x, y, z'
loop_
 _atom_site_type_symbol
 _atom_site_label
 _atom_site_symmetry_multiplicity
 _atom_site_fract_x
 _atom_site_fract_y
 _atom_site_fract_z
 _atom_site_occupancy
  Li  Li0  1  0.93103610  0.43200967  0.14615262  1
  Li  Li1  1  0.24715185  0.75354745  0.50475365  1
  Li  Li2  1  0.57000947  0.07679253  0.83877480  1
  Li  Li3  1  0.43277072  0.92159661  0.15811494  1
  Li  Li4  1  0.74750105  0.25822403  0.50761120  1
  Li  Li5  1  0.07760830  0.56621756  0.84353108  1
  Li  Li6  1  0.49946700  0.50055441  -0.00122790  1
  Mn  Mn7  1  0.99838689  -0.00055167  0.00017098  1
  Mn  Mn8  1  0.83701470  0.83361053  0.33227729  1
  Co  Co9  1  0.33519149  0.33476408  0.33194780  1
  Co  Co10  1  0.66643231  0.66429800  0.66843797  1
  Co  Co11  1  0.16491663  0.16476208  0.66895018  1
  O  O12  1  0.46532511  0.19050030  0.07499340  1
  O  O13  1  0.79753374  0.55812382  0.40743263  1
  O  O14  1  0.10906648  0.85728698  0.74194388  1
  O  O15  1  0.96253853  0.73552951  0.07731542  1
  O  O16  1  0.30547031  0.01823918  0.40697468  1
  O  O17  1  0.60727590  0.36092379  0.74415574  1
  O  O18  1  0.36799817  0.65014048  0.25911089  1
  O  O19  1  0.71909414  0.97191972  0.58980429  1
  O  O20  1  0.03591775  0.26112550  0.92282076  1
  O  O21  1  0.87054263  0.11067118  0.26087740  1
  O  O22  1  0.22257126  0.46798484  0.58844881  1
  O  O23  1  0.52917948  0.81172944  0.92662748  1
