# generated using pymatgen
data_CoH8(IO5)2
_symmetry_space_group_name_H-M   'P 1'
_cell_length_a   6.60543219
_cell_length_b   8.46011702
_cell_length_c   8.52889066
_cell_angle_alpha   99.47902869
_cell_angle_beta   90.00000000
_cell_angle_gamma   90.00000000
_symmetry_Int_Tables_number   1
_chemical_formula_structural   CoH8(IO5)2
_chemical_formula_sum   'Co2 H16 I4 O20'
_cell_volume   470.10992463
_cell_formula_units_Z   2
loop_
 _symmetry_equiv_pos_site_id
 _symmetry_equiv_pos_as_xyz
  1  'x, y, z'
loop_
 _atom_site_type_symbol
 _atom_site_label
 _atom_site_symmetry_multiplicity
 _atom_site_fract_x
 _atom_site_fract_y
 _atom_site_fract_z
 _atom_site_occupancy
  H  H0  1  0.21733547  0.22336998  0.94384491  1
  H  H1  1  0.71733582  0.77662992  0.55615523  1
  H  H2  1  0.78266371  0.77662999  0.05615547  1
  H  H3  1  0.28266488  0.22337005  0.44384515  1
  H  H4  1  0.10955162  0.23251938  0.77618379  1
  H  H5  1  0.60955196  0.76748173  0.72381655  1
  H  H6  1  0.00440540  0.34414246  0.23900755  1
  H  H7  1  0.50440575  0.65585760  0.26099189  1
  H  H8  1  0.99559530  0.65585753  0.76099165  1
  H  H9  1  0.49559495  0.34414238  0.73900849  1
  H  H10  1  0.11926869  0.50950049  0.30873341  1
  H  H11  1  0.61926904  0.49049956  0.19126721  1
  H  H12  1  0.88073049  0.49049949  0.69126697  1
  H  H13  1  0.38073014  0.50950042  0.80873317  1
  H  H14  1  0.89044756  0.76748060  0.22381659  1
  H  H15  1  0.39044721  0.23251945  0.27618403  1
  O  O16  1  0.78284092  0.38539680  0.52499516  1
  O  O17  1  0.71715860  0.38539687  0.02499540  1
  O  O18  1  0.40753471  0.25813707  0.39316269  1
  O  O19  1  0.90753354  0.74186298  0.10683675  1
  O  O20  1  0.59246599  0.74186291  0.60683769  1
  O  O21  1  0.21715977  0.61460318  0.47500404  1
  O  O22  1  0.41886841  0.43570162  0.70943372  1
  O  O23  1  0.91886876  0.56429829  0.79056642  1
  O  O24  1  0.58113228  0.56429836  0.29056666  1
  O  O25  1  0.08113193  0.43570169  0.20943396  1
  O  O26  1  0.38551082  0.83941629  0.23980506  1
  O  O27  1  0.88551116  0.16058376  0.26019555  1
  O  O28  1  0.61448988  0.16058369  0.76019531  1
  O  O29  1  0.11448953  0.83941622  0.73980483  1
  O  O30  1  0.42240203  0.16170353  0.05639466  1
  O  O31  1  0.92240238  0.83829652  0.44360595  1
  O  O32  1  0.57759714  0.83829645  0.94360571  1
  O  O33  1  0.07759679  0.16170346  0.55639443  1
  O  O34  1  0.28284058  0.61460311  0.97500380  1
  O  O35  1  0.09246564  0.25813700  0.89316245  1
  Co  Co36  1  0.00000000  0.50000006  0.00000043  1
  Co  Co37  1  0.50000035  0.49999999  0.50000019  1
  I  I38  1  0.17832044  0.83283723  0.53016038  1
  I  I39  1  0.67832079  0.16716268  0.96983976  1
  I  I40  1  0.82167874  0.16716275  0.46983999  1
  I  I41  1  0.32167839  0.83283730  0.03015945  1
