# generated using pymatgen
data_Ga3Pd5
_symmetry_space_group_name_H-M   'P 1'
_cell_length_a   4.08089538
_cell_length_b   5.49368440
_cell_length_c   10.70030962
_cell_angle_alpha   89.99962055
_cell_angle_beta   89.99996930
_cell_angle_gamma   90.00005703
_symmetry_Int_Tables_number   1
_chemical_formula_structural   Ga3Pd5
_chemical_formula_sum   'Ga6 Pd10'
_cell_volume   239.89186019
_cell_formula_units_Z   2
loop_
 _symmetry_equiv_pos_site_id
 _symmetry_equiv_pos_as_xyz
  1  'x, y, z'
loop_
 _atom_site_type_symbol
 _atom_site_label
 _atom_site_symmetry_multiplicity
 _atom_site_fract_x
 _atom_site_fract_y
 _atom_site_fract_z
 _atom_site_occupancy
  Ga  Ga0  1  0.49999933  0.83813983  0.64594800  1
  Ga  Ga1  1  0.50000030  0.33815035  0.85404762  1
  Ga  Ga2  1  0.00000006  0.49995265  0.49998402  1
  Ga  Ga3  1  0.50000029  0.16189939  0.35405503  1
  Ga  Ga4  1  0.99999985  0.99995597  0.00001420  1
  Ga  Ga5  1  0.49999952  0.66189164  0.14594972  1
  Pd  Pd6  1  0.50000006  0.80825375  0.89579701  1
  Pd  Pd7  1  0.49999932  0.69172015  0.39577907  1
  Pd  Pd8  1  0.50000057  0.30826679  0.60421083  1
  Pd  Pd9  1  0.00000112  0.91708649  0.23418056  1
  Pd  Pd10  1  0.00000034  0.41708399  0.26581622  1
  Pd  Pd11  1  0.99999974  0.58298182  0.73414391  1
  Pd  Pd12  1  0.00000055  0.08297868  0.76586106  1
  Pd  Pd13  1  0.99999919  0.49995604  0.99998691  1
  Pd  Pd14  1  0.99999956  0.99995793  0.50001346  1
  Pd  Pd15  1  0.50000020  0.19172452  0.10421238  1
