# generated using pymatgen
data_Na2Si(H4O3)3
_symmetry_space_group_name_H-M   'P 1'
_cell_length_a   5.95499827
_cell_length_b   6.36338131
_cell_length_c   11.46250787
_cell_angle_alpha   101.88456769
_cell_angle_beta   90.00000000
_cell_angle_gamma   90.00000000
_symmetry_Int_Tables_number   1
_chemical_formula_structural   Na2Si(H4O3)3
_chemical_formula_sum   'Na4 Si2 H24 O18'
_cell_volume   425.04869430
_cell_formula_units_Z   2
loop_
 _symmetry_equiv_pos_site_id
 _symmetry_equiv_pos_as_xyz
  1  'x, y, z'
loop_
 _atom_site_type_symbol
 _atom_site_label
 _atom_site_symmetry_multiplicity
 _atom_site_fract_x
 _atom_site_fract_y
 _atom_site_fract_z
 _atom_site_occupancy
  H  H0  1  0.21653384  0.04500774  0.84019498  1
  H  H1  1  0.71653384  0.95499226  0.15980502  1
  H  H2  1  0.97404950  0.94248743  0.84533885  1
  H  H3  1  0.47404950  0.05751257  0.15466115  1
  H  H4  1  0.38455138  0.83815358  0.63195237  1
  H  H5  1  0.88455138  0.16184642  0.36804763  1
  H  H6  1  0.45279040  0.07040443  0.62778469  1
  H  H7  1  0.95279040  0.92959557  0.37221531  1
  H  H8  1  0.26188302  0.53005984  0.68485100  1
  H  H9  1  0.76188302  0.46994016  0.31514900  1
  H  H10  1  0.01730701  0.53801740  0.62533952  1
  H  H11  1  0.51730701  0.46198260  0.37466048  1
  H  H12  1  0.75910402  0.65049793  0.50309780  1
  H  H13  1  0.25910402  0.34950207  0.49690220  1
  H  H14  1  0.69512480  0.68419330  0.64090520  1
  H  H15  1  0.19512480  0.31580670  0.35909480  1
  H  H16  1  0.57711183  0.39897844  0.73030950  1
  H  H17  1  0.07711183  0.60102156  0.26969050  1
  H  H18  1  0.57738591  0.19146243  0.79318249  1
  H  H19  1  0.07738591  0.80853757  0.20681751  1
  H  H20  1  0.72233497  0.20622389  0.99322465  1
  H  H21  1  0.34024128  0.17687047  0.00683157  1
  H  H22  1  0.22233497  0.79377611  0.00677535  1
  H  H23  1  0.84024128  0.82312953  0.99316843  1
  O  O24  1  0.32052317  0.68858674  0.95447769  1
  O  O25  1  0.55584458  0.94534778  0.18441219  1
  O  O26  1  0.35813866  0.95001632  0.58489527  1
  O  O27  1  0.85813866  0.04998368  0.41510473  1
  O  O28  1  0.12823182  0.43854131  0.65211504  1
  O  O29  1  0.62823182  0.56145869  0.34788496  1
  O  O30  1  0.82191126  0.69799466  0.58426467  1
  O  O31  1  0.32191126  0.30200534  0.41573533  1
  O  O32  1  0.63819762  0.25045527  0.72474183  1
  O  O33  1  0.13819762  0.74954473  0.27525817  1
  O  O34  1  0.77231469  0.73633539  0.91628668  1
  O  O35  1  0.27231469  0.26366461  0.08371332  1
  O  O36  1  0.99013256  0.33754711  0.26377335  1
  O  O37  1  0.82052317  0.31141326  0.04552231  1
  O  O38  1  0.48106087  0.05259375  0.89696423  1
  O  O39  1  0.98106087  0.94740625  0.10303577  1
  O  O40  1  0.49013256  0.66245289  0.73622665  1
  O  O41  1  0.05584458  0.05465222  0.81558781  1
  Na  Na42  1  0.99743898  0.43121395  0.86377157  1
  Na  Na43  1  0.49743898  0.56878605  0.13622843  1
  Na  Na44  1  0.96902533  0.06886590  0.61520434  1
  Na  Na45  1  0.46902533  0.93113410  0.38479566  1
  Si  Si46  1  0.51436251  0.79225196  0.87339874  1
  Si  Si47  1  0.01436251  0.20774804  0.12660126  1
