# generated using pymatgen
data_BaH2Cl2O7
_symmetry_space_group_name_H-M   'P 1'
_cell_length_a   7.58914364
_cell_length_b   7.58914364
_cell_length_c   7.84727420
_cell_angle_alpha   103.29242306
_cell_angle_beta   108.16137108
_cell_angle_gamma   116.10149161
_symmetry_Int_Tables_number   1
_chemical_formula_structural   BaH2Cl2O7
_chemical_formula_sum   'Ba2 H4 Cl4 O14'
_cell_volume   348.14649970
_cell_formula_units_Z   2
loop_
 _symmetry_equiv_pos_site_id
 _symmetry_equiv_pos_as_xyz
  1  'x, y, z'
loop_
 _atom_site_type_symbol
 _atom_site_label
 _atom_site_symmetry_multiplicity
 _atom_site_fract_x
 _atom_site_fract_y
 _atom_site_fract_z
 _atom_site_occupancy
  H  H0  1  0.05953273  0.27782014  0.36570118  1
  H  H1  1  0.91211896  0.19383154  0.13429882  1
  H  H2  1  0.94046727  0.72217986  0.63429882  1
  H  H3  1  0.08788104  0.80616846  0.86570118  1
  O  O4  1  0.05739924  0.30739924  0.25000000  1
  O  O5  1  0.94260076  0.69260076  0.75000000  1
  O  O6  1  0.75185402  0.10330550  0.52928780  1
  O  O7  1  0.57401771  0.72256622  0.97071220  1
  O  O8  1  0.24814598  0.89669450  0.47071220  1
  O  O9  1  0.42598229  0.27743378  0.02928780  1
  O  O10  1  0.14013082  0.25742849  0.61135089  1
  O  O11  1  0.64607760  0.02877994  0.88864911  1
  O  O12  1  0.85986918  0.74257151  0.38864911  1
  O  O13  1  0.35392240  0.97122006  0.11135089  1
  O  O14  1  0.03803504  0.36933498  0.86005426  1
  O  O15  1  0.50928072  0.67798078  0.63994574  1
  O  O16  1  0.96196496  0.63066502  0.13994574  1
  O  O17  1  0.49071928  0.32201922  0.36005426  1
  Cl  Cl18  1  0.51291100  0.21306809  0.18905470  1
  Cl  Cl19  1  0.02401338  0.82385630  0.31094530  1
  Cl  Cl20  1  0.48708900  0.78693191  0.81094530  1
  Cl  Cl21  1  0.97598662  0.17614370  0.68905470  1
  Ba  Ba22  1  0.39480985  0.64480985  0.25000000  1
  Ba  Ba23  1  0.60519015  0.35519015  0.75000000  1
