# generated using pymatgen
data_BaSr(FeO2)4
_symmetry_space_group_name_H-M   'P 1'
_cell_length_a   5.56407782
_cell_length_b   5.56407782
_cell_length_c   8.20573369
_cell_angle_alpha   90.00000000
_cell_angle_beta   90.00000000
_cell_angle_gamma   120.00000000
_symmetry_Int_Tables_number   1
_chemical_formula_structural   BaSr(FeO2)4
_chemical_formula_sum   'Ba1 Sr1 Fe4 O8'
_cell_volume   220.00595730
_cell_formula_units_Z   1
loop_
 _symmetry_equiv_pos_site_id
 _symmetry_equiv_pos_as_xyz
  1  'x, y, z'
loop_
 _atom_site_type_symbol
 _atom_site_label
 _atom_site_symmetry_multiplicity
 _atom_site_fract_x
 _atom_site_fract_y
 _atom_site_fract_z
 _atom_site_occupancy
  O  O0  1  0.33783044  0.33783129  0.70772550  1
  O  O1  1  0.66216965  0.00000000  0.70772550  1
  O  O2  1  0.99999911  0.66216786  0.70772550  1
  O  O3  1  0.66216876  0.66216786  0.29227340  1
  O  O4  1  0.00000085  0.33783129  0.29227340  1
  O  O5  1  0.33783139  0.00000000  0.29227340  1
  O  O6  1  0.33333374  0.66666749  0.00000000  1
  O  O7  1  0.66666649  0.33333374  0.00000000  1
  Fe  Fe8  1  0.66666649  0.33333374  0.22942607  1
  Fe  Fe9  1  0.66666649  0.33333374  0.77057405  1
  Fe  Fe10  1  0.33333374  0.66666749  0.77057405  1
  Fe  Fe11  1  0.33333374  0.66666749  0.22942607  1
  Sr  Sr12  1  0.00000000  0.00000000  0.49999945  1
  Ba  Ba13  1  0.00000000  0.00000000  0.00000000  1
