# generated using pymatgen
data_MgH8(IO5)2
_symmetry_space_group_name_H-M   'P 1'
_cell_length_a   6.70157805
_cell_length_b   8.43535528
_cell_length_c   8.53815418
_cell_angle_alpha   100.09170316
_cell_angle_beta   90.00000000
_cell_angle_gamma   90.00000000
_symmetry_Int_Tables_number   1
_chemical_formula_structural   MgH8(IO5)2
_chemical_formula_sum   'Mg2 H16 I4 O20'
_cell_volume   475.19599607
_cell_formula_units_Z   2
loop_
 _symmetry_equiv_pos_site_id
 _symmetry_equiv_pos_as_xyz
  1  'x, y, z'
loop_
 _atom_site_type_symbol
 _atom_site_label
 _atom_site_symmetry_multiplicity
 _atom_site_fract_x
 _atom_site_fract_y
 _atom_site_fract_z
 _atom_site_occupancy
  H  H0  1  0.22692245  0.22839289  0.94411249  1
  H  H1  1  0.72692245  0.77160711  0.55588751  1
  H  H2  1  0.77307755  0.77160711  0.05588751  1
  H  H3  1  0.27307755  0.22839289  0.44411249  1
  H  H4  1  0.11790487  0.23640522  0.77778726  1
  H  H5  1  0.61790487  0.76359478  0.72221274  1
  H  H6  1  0.99880503  0.34871448  0.24357679  1
  H  H7  1  0.49880503  0.65128552  0.25642321  1
  H  H8  1  0.00119497  0.65128552  0.75642321  1
  H  H9  1  0.50119497  0.34871448  0.74357679  1
  H  H10  1  0.11812268  0.51027148  0.31370154  1
  H  H11  1  0.61812268  0.48972852  0.18629846  1
  H  H12  1  0.88187732  0.48972852  0.68629846  1
  H  H13  1  0.38187732  0.51027148  0.81370154  1
  H  H14  1  0.88209513  0.76359478  0.22221274  1
  H  H15  1  0.38209513  0.23640522  0.27778726  1
  O  O16  1  0.72252794  0.38123042  0.02091616  1
  O  O17  1  0.77747206  0.38123042  0.52091616  1
  O  O18  1  0.39345016  0.26812064  0.39458141  1
  O  O19  1  0.89345016  0.73187936  0.10541859  1
  O  O20  1  0.60654984  0.73187936  0.60541859  1
  O  O21  1  0.10654984  0.26812064  0.89458141  1
  O  O22  1  0.42765806  0.44060327  0.71391419  1
  O  O23  1  0.92765806  0.55939673  0.78608581  1
  O  O24  1  0.57234194  0.55939673  0.28608581  1
  O  O25  1  0.07234194  0.44060327  0.21391419  1
  O  O26  1  0.38614895  0.84577176  0.24134970  1
  O  O27  1  0.88614895  0.15422824  0.25865030  1
  O  O28  1  0.61385105  0.15422824  0.75865030  1
  O  O29  1  0.11385105  0.84577176  0.74134970  1
  O  O30  1  0.42567980  0.16227313  0.05619103  1
  O  O31  1  0.92567980  0.83772687  0.44380897  1
  O  O32  1  0.57432020  0.83772687  0.94380897  1
  O  O33  1  0.07432020  0.16227313  0.55619103  1
  O  O34  1  0.27747206  0.61876958  0.97908384  1
  O  O35  1  0.22252794  0.61876958  0.47908384  1
  Mg  Mg36  1  0.50000000  0.50000000  0.50000000  1
  Mg  Mg37  1  0.00000000  0.50000000  0.00000000  1
  I  I38  1  0.32258168  0.83662926  0.03192339  1
  I  I39  1  0.82258168  0.16337074  0.46807661  1
  I  I40  1  0.67741832  0.16337074  0.96807661  1
  I  I41  1  0.17741832  0.83662926  0.53192339  1
