# generated using pymatgen
data_LiB2H3O5
_symmetry_space_group_name_H-M   'P 1'
_cell_length_a   8.38728990
_cell_length_b   9.78145632
_cell_length_c   9.97059926
_cell_angle_alpha   90.00000000
_cell_angle_beta   90.00000000
_cell_angle_gamma   90.00000000
_symmetry_Int_Tables_number   1
_chemical_formula_structural   LiB2H3O5
_chemical_formula_sum   'Li8 B16 H24 O40'
_cell_volume   817.98706394
_cell_formula_units_Z   8
loop_
 _symmetry_equiv_pos_site_id
 _symmetry_equiv_pos_as_xyz
  1  'x, y, z'
loop_
 _atom_site_type_symbol
 _atom_site_label
 _atom_site_symmetry_multiplicity
 _atom_site_fract_x
 _atom_site_fract_y
 _atom_site_fract_z
 _atom_site_occupancy
  H  H0  1  0.70865092  0.40667716  0.93794615  1
  H  H1  1  0.20865092  0.09332284  0.56205385  1
  H  H2  1  0.29134908  0.40667716  0.56205385  1
  H  H3  1  0.79134908  0.09332284  0.93794615  1
  H  H4  1  0.29134908  0.59332284  0.06205385  1
  H  H5  1  0.79134908  0.90667716  0.43794615  1
  H  H6  1  0.70865092  0.59332284  0.43794615  1
  H  H7  1  0.20865092  0.90667716  0.06205385  1
  H  H8  1  0.40594775  0.23575477  0.18302493  1
  H  H9  1  0.90594775  0.26424523  0.31697507  1
  H  H10  1  0.59405225  0.23575477  0.31697507  1
  H  H11  1  0.09405225  0.26424523  0.18302493  1
  H  H12  1  0.59405225  0.76424523  0.81697507  1
  H  H13  1  0.09405225  0.73575477  0.68302493  1
  H  H14  1  0.40594775  0.76424523  0.68302493  1
  H  H15  1  0.90594775  0.73575477  0.81697507  1
  H  H16  1  0.50152763  0.36239929  0.12477303  1
  H  H17  1  0.00152763  0.13760071  0.37522697  1
  H  H18  1  0.49847237  0.36239929  0.37522697  1
  H  H19  1  0.99847237  0.13760071  0.12477303  1
  H  H20  1  0.49847237  0.63760071  0.87522697  1
  H  H21  1  0.99847237  0.86239929  0.62477303  1
  H  H22  1  0.50152763  0.63760071  0.62477303  1
  H  H23  1  0.00152763  0.86239929  0.87522697  1
  Li  Li24  1  0.52585263  0.83185718  0.44569133  1
  Li  Li25  1  0.02585263  0.66814282  0.05430867  1
  Li  Li26  1  0.47414737  0.83185718  0.05430867  1
  Li  Li27  1  0.97414737  0.66814282  0.44569133  1
  Li  Li28  1  0.47414737  0.16814282  0.55430867  1
  Li  Li29  1  0.97414737  0.33185718  0.94569133  1
  Li  Li30  1  0.52585263  0.16814282  0.94569133  1
  Li  Li31  1  0.02585263  0.33185718  0.55430867  1
  B  B32  1  0.25000000  0.75000000  0.26530619  1
  B  B33  1  0.75000000  0.75000000  0.23469381  1
  B  B34  1  0.75000000  0.25000000  0.73469381  1
  B  B35  1  0.25000000  0.25000000  0.76530619  1
  B  B36  1  0.72514888  0.53999380  0.09598598  1
  B  B37  1  0.22514888  0.96000620  0.40401402  1
  B  B38  1  0.27485112  0.53999380  0.40401402  1
  B  B39  1  0.77485112  0.96000620  0.09598598  1
  B  B40  1  0.27485112  0.46000620  0.90401402  1
  B  B41  1  0.77485112  0.03999380  0.59598598  1
  B  B42  1  0.72514888  0.46000620  0.59598598  1
  B  B43  1  0.22514888  0.03999380  0.90401402  1
  B  B44  1  0.50000000  0.60762608  0.25000000  1
  B  B45  1  0.00000000  0.89237392  0.25000000  1
  B  B46  1  0.50000000  0.39237392  0.75000000  1
  B  B47  1  0.00000000  0.10762608  0.75000000  1
  O  O48  1  0.52720237  0.73581213  0.89148188  1
  O  O49  1  0.02720237  0.76418787  0.60851812  1
  O  O50  1  0.47279763  0.73581213  0.60851812  1
  O  O51  1  0.97279763  0.76418787  0.89148188  1
  O  O52  1  0.47279763  0.26418787  0.10851812  1
  O  O53  1  0.97279763  0.23581213  0.39148188  1
  O  O54  1  0.52720237  0.26418787  0.39148188  1
  O  O55  1  0.02720237  0.23581213  0.10851812  1
  O  O56  1  0.78776370  0.45897842  0.99416486  1
  O  O57  1  0.28776370  0.04102158  0.50583514  1
  O  O58  1  0.21223630  0.45897842  0.50583514  1
  O  O59  1  0.71223630  0.04102158  0.99416486  1
  O  O60  1  0.21223630  0.54102158  0.00583514  1
  O  O61  1  0.71223630  0.95897842  0.49416486  1
  O  O62  1  0.78776370  0.54102158  0.49416486  1
  O  O63  1  0.28776370  0.95897842  0.00583514  1
  O  O64  1  0.57479909  0.51723426  0.14704006  1
  O  O65  1  0.07479909  0.98276574  0.35295994  1
  O  O66  1  0.42520091  0.51723426  0.35295994  1
  O  O67  1  0.92520091  0.98276574  0.14704006  1
  O  O68  1  0.42520091  0.48276574  0.85295994  1
  O  O69  1  0.92520091  0.01723426  0.64704006  1
  O  O70  1  0.57479909  0.48276574  0.64704006  1
  O  O71  1  0.07479909  0.01723426  0.85295994  1
  O  O72  1  0.62301600  0.69167631  0.31867945  1
  O  O73  1  0.12301600  0.80832369  0.18132055  1
  O  O74  1  0.37698400  0.69167631  0.18132055  1
  O  O75  1  0.87698400  0.80832369  0.31867945  1
  O  O76  1  0.37698400  0.30832369  0.68132055  1
  O  O77  1  0.87698400  0.19167631  0.81867945  1
  O  O78  1  0.62301600  0.30832369  0.81867945  1
  O  O79  1  0.12301600  0.19167631  0.68132055  1
  O  O80  1  0.82081515  0.64128531  0.14603988  1
  O  O81  1  0.32081515  0.85871469  0.35396012  1
  O  O82  1  0.17918485  0.64128531  0.35396012  1
  O  O83  1  0.67918485  0.85871469  0.14603988  1
  O  O84  1  0.17918485  0.35871469  0.85396012  1
  O  O85  1  0.67918485  0.14128531  0.64603988  1
  O  O86  1  0.82081515  0.35871469  0.64603988  1
  O  O87  1  0.32081515  0.14128531  0.85396012  1
