# generated using pymatgen
data_Co2P2O7
_symmetry_space_group_name_H-M   'P 1'
_cell_length_a   4.54791339
_cell_length_b   5.33582336
_cell_length_c   5.33582336
_cell_angle_alpha   103.93707477
_cell_angle_beta   98.10080184
_cell_angle_gamma   98.10080180
_symmetry_Int_Tables_number   1
_chemical_formula_structural   Co2P2O7
_chemical_formula_sum   'Co2 P2 O7'
_cell_volume   122.34042528
_cell_formula_units_Z   1
loop_
 _symmetry_equiv_pos_site_id
 _symmetry_equiv_pos_as_xyz
  1  'x, y, z'
loop_
 _atom_site_type_symbol
 _atom_site_label
 _atom_site_symmetry_multiplicity
 _atom_site_fract_x
 _atom_site_fract_y
 _atom_site_fract_z
 _atom_site_occupancy
  O  O0  1  0.00000000  0.00000000  0.00000000  1
  O  O1  1  0.27771281  0.62173556  0.92574407  1
  O  O2  1  0.72228719  0.07425593  0.37826444  1
  O  O3  1  0.72228719  0.37826444  0.07425593  1
  O  O4  1  0.78770080  0.62187728  0.62187728  1
  O  O5  1  0.21229920  0.37812272  0.37812272  1
  O  O6  1  0.27771281  0.92574407  0.62173556  1
  P  P7  1  0.90714320  0.21786335  0.21786335  1
  P  P8  1  0.09285680  0.78213665  0.78213665  1
  Co  Co9  1  0.50000000  0.31111310  0.68888690  1
  Co  Co10  1  0.50000000  0.68888690  0.31111310  1
