# generated using pymatgen
data_HoCoO3
_symmetry_space_group_name_H-M   'P 1'
_cell_length_a   5.21474926
_cell_length_b   5.73538015
_cell_length_c   7.32890420
_cell_angle_alpha   90.00000000
_cell_angle_beta   90.00000000
_cell_angle_gamma   90.00000000
_symmetry_Int_Tables_number   1
_chemical_formula_structural   HoCoO3
_chemical_formula_sum   'Ho4 Co4 O12'
_cell_volume   219.19703984
_cell_formula_units_Z   4
loop_
 _symmetry_equiv_pos_site_id
 _symmetry_equiv_pos_as_xyz
  1  'x, y, z'
loop_
 _atom_site_type_symbol
 _atom_site_label
 _atom_site_symmetry_multiplicity
 _atom_site_fract_x
 _atom_site_fract_y
 _atom_site_fract_z
 _atom_site_occupancy
  O  O0  1  0.69813204  0.31680884  0.44725021  1
  O  O1  1  0.19813104  0.18319016  0.55275079  1
  O  O2  1  0.80186896  0.81680984  0.05275079  1
  O  O3  1  0.30186896  0.68319116  0.94725021  1
  O  O4  1  0.30186896  0.68319116  0.55275079  1
  O  O5  1  0.80186896  0.81680984  0.44725021  1
  O  O6  1  0.19813104  0.18319016  0.94725021  1
  O  O7  1  0.69813204  0.31680884  0.05275079  1
  O  O8  1  0.11224897  0.46809930  0.25000100  1
  O  O9  1  0.61224997  0.03190070  0.75000000  1
  O  O10  1  0.88775103  0.53189970  0.75000000  1
  O  O11  1  0.38775103  0.96809830  0.25000100  1
  Co  Co12  1  0.50000000  0.00000000  0.50000000  1
  Co  Co13  1  0.00000000  0.50000100  0.50000000  1
  Co  Co14  1  0.00000000  0.50000100  0.00000000  1
  Co  Co15  1  0.50000000  0.00000000  0.00000000  1
  Ho  Ho16  1  0.02453743  0.91435573  0.75000000  1
  Ho  Ho17  1  0.52453843  0.58564427  0.25000100  1
  Ho  Ho18  1  0.47546257  0.41435573  0.75000000  1
  Ho  Ho19  1  0.97546257  0.08564327  0.25000100  1
