# generated using pymatgen
data_CaAl12O19
_symmetry_space_group_name_H-M   'P 1'
_cell_length_a   5.61588059
_cell_length_b   5.61588058
_cell_length_c   22.05086989
_cell_angle_alpha   90.00000000
_cell_angle_beta   90.00000000
_cell_angle_gamma   119.99999998
_symmetry_Int_Tables_number   1
_chemical_formula_structural   CaAl12O19
_chemical_formula_sum   'Ca2 Al24 O38'
_cell_volume   602.27118820
_cell_formula_units_Z   2
loop_
 _symmetry_equiv_pos_site_id
 _symmetry_equiv_pos_as_xyz
  1  'x, y, z'
loop_
 _atom_site_type_symbol
 _atom_site_label
 _atom_site_symmetry_multiplicity
 _atom_site_fract_x
 _atom_site_fract_y
 _atom_site_fract_z
 _atom_site_occupancy
  O  O0  1  0.81841220  0.63682441  0.75000000  1
  O  O1  1  0.18158780  0.81841220  0.25000000  1
  O  O2  1  0.63682441  0.81841220  0.25000000  1
  O  O3  1  0.36317559  0.18158780  0.75000000  1
  O  O4  1  0.81841220  0.18158780  0.75000000  1
  O  O5  1  0.18158780  0.36317559  0.25000000  1
  O  O6  1  0.00000000  0.00000000  0.35006992  1
  O  O7  1  0.00000000  0.00000000  0.85006992  1
  O  O8  1  0.00000000  0.00000000  0.64993008  1
  O  O9  1  0.00000000  0.00000000  0.14993008  1
  O  O10  1  0.33333333  0.66666667  0.55475559  1
  O  O11  1  0.66666667  0.33333333  0.05475559  1
  O  O12  1  0.66666667  0.33333333  0.44524441  1
  O  O13  1  0.33333333  0.66666667  0.94524441  1
  O  O14  1  0.50350523  0.49649477  0.35044298  1
  O  O15  1  0.15516629  0.84483371  0.44772085  1
  O  O16  1  0.50350523  0.00701046  0.35044298  1
  O  O17  1  0.00701046  0.50350523  0.85044298  1
  O  O18  1  0.49649477  0.99298954  0.64955702  1
  O  O19  1  0.49649477  0.50350523  0.85044298  1
  O  O20  1  0.49649477  0.99298954  0.85044298  1
  O  O21  1  0.50350523  0.49649477  0.14955702  1
  O  O22  1  0.99298954  0.49649477  0.14955702  1
  O  O23  1  0.00701046  0.50350523  0.64955702  1
  O  O24  1  0.49649477  0.50350523  0.64955702  1
  O  O25  1  0.50350523  0.00701046  0.14955702  1
  O  O26  1  0.15516629  0.31033258  0.05227915  1
  O  O27  1  0.84483371  0.15516629  0.55227915  1
  O  O28  1  0.31033258  0.15516629  0.55227915  1
  O  O29  1  0.68966742  0.84483371  0.05227915  1
  O  O30  1  0.15516629  0.84483371  0.05227915  1
  O  O31  1  0.84483371  0.68966742  0.94772085  1
  O  O32  1  0.84483371  0.15516629  0.94772085  1
  O  O33  1  0.84483371  0.68966742  0.55227915  1
  O  O34  1  0.31033258  0.15516629  0.94772085  1
  O  O35  1  0.68966742  0.84483371  0.44772085  1
  O  O36  1  0.15516629  0.31033258  0.44772085  1
  O  O37  1  0.99298954  0.49649477  0.35044298  1
  Al  Al38  1  0.00000000  0.00000000  0.75000000  1
  Al  Al39  1  0.00000000  0.00000000  0.25000000  1
  Al  Al40  1  0.00000000  0.00000000  0.50000000  1
  Al  Al41  1  0.00000000  0.00000000  0.00000000  1
  Al  Al42  1  0.33333333  0.66666667  0.30896938  1
  Al  Al43  1  0.66666667  0.33333333  0.80896938  1
  Al  Al44  1  0.66666667  0.33333333  0.69103062  1
  Al  Al45  1  0.33333333  0.66666667  0.19103062  1
  Al  Al46  1  0.33333333  0.66666667  0.47195401  1
  Al  Al47  1  0.66666667  0.33333333  0.97195401  1
  Al  Al48  1  0.66666667  0.33333333  0.52804599  1
  Al  Al49  1  0.33333333  0.66666667  0.02804599  1
  Al  Al50  1  0.16834467  0.83165533  0.60956860  1
  Al  Al51  1  0.16834467  0.33668934  0.60956860  1
  Al  Al52  1  0.66331066  0.83165533  0.60956860  1
  Al  Al53  1  0.33668934  0.16834467  0.10956860  1
  Al  Al54  1  0.83165533  0.66331066  0.39043140  1
  Al  Al55  1  0.83165533  0.16834467  0.10956860  1
  Al  Al56  1  0.83165533  0.66331066  0.10956860  1
  Al  Al57  1  0.16834467  0.83165533  0.89043140  1
  Al  Al58  1  0.66331066  0.83165533  0.89043140  1
  Al  Al59  1  0.33668934  0.16834467  0.39043140  1
  Al  Al60  1  0.83165533  0.16834467  0.39043140  1
  Al  Al61  1  0.16834467  0.33668934  0.89043140  1
  Ca  Ca62  1  0.66666667  0.33333333  0.25000000  1
  Ca  Ca63  1  0.33333333  0.66666667  0.75000000  1
