# generated using pymatgen
data_Li7Mn2(CoO4)3
_symmetry_space_group_name_H-M   'P 1'
_cell_length_a   4.98756078
_cell_length_b   9.88114375
_cell_length_c   5.03572884
_cell_angle_alpha   93.59231427
_cell_angle_beta   62.78850938
_cell_angle_gamma   101.82218863
_symmetry_Int_Tables_number   1
_chemical_formula_structural   Li7Mn2(CoO4)3
_chemical_formula_sum   'Li7 Mn2 Co3 O12'
_cell_volume   215.88909776
_cell_formula_units_Z   1
loop_
 _symmetry_equiv_pos_site_id
 _symmetry_equiv_pos_as_xyz
  1  'x, y, z'
loop_
 _atom_site_type_symbol
 _atom_site_label
 _atom_site_symmetry_multiplicity
 _atom_site_fract_x
 _atom_site_fract_y
 _atom_site_fract_z
 _atom_site_occupancy
  Li  Li0  1  0.75157515  0.25828233  0.00618269  1
  Li  Li1  1  0.57936957  0.74300078  0.33808743  1
  Li  Li2  1  0.43176062  0.26029751  0.65923663  1
  Li  Li3  1  0.07049028  0.25939941  0.34804644  1
  Li  Li4  1  0.91376432  0.74146771  0.65903298  1
  Li  Li5  1  0.24884899  0.73798665  0.99467773  1
  Li  Li6  1  0.83343718  0.50013173  0.33252202  1
  Mn  Mn7  1  0.99795408  0.99961505  0.99648651  1
  Mn  Mn8  1  0.33651174  0.00033464  0.33557324  1
  Co  Co9  1  0.66677386  0.00038811  0.66695310  1
  Co  Co10  1  0.49894729  0.50349788  0.01377745  1
  Co  Co11  1  0.16748550  0.49650794  0.65388476  1
  O  O12  1  0.02555984  0.11487435  0.68181702  1
  O  O13  1  0.84155974  0.61751410  0.99746154  1
  O  O14  1  0.69581613  0.11710460  0.35127609  1
  O  O15  1  0.38730991  0.10470366  0.98476230  1
  O  O16  1  0.21124508  0.61591830  0.34530283  1
  O  O17  1  0.49649579  0.61134338  0.69222964  1
  O  O18  1  0.45390510  0.38305797  0.31870595  1
  O  O19  1  0.30955753  0.88515732  0.65223673  1
  O  O20  1  0.17141732  0.38649914  0.97326862  1
  O  O21  1  0.82577906  0.38397917  0.67064055  1
  O  O22  1  0.63717138  0.88499420  0.98076499  1
  O  O23  1  0.94726455  0.89394408  0.34707274  1
