# generated using pymatgen
data_CaMnSiHO5
_symmetry_space_group_name_H-M   'P 1'
_cell_length_a   5.95287845
_cell_length_b   7.32579733
_cell_length_c   8.78375691
_cell_angle_alpha   90.00000000
_cell_angle_beta   90.00000000
_cell_angle_gamma   90.00000000
_symmetry_Int_Tables_number   1
_chemical_formula_structural   CaMnSiHO5
_chemical_formula_sum   'Ca4 Mn4 Si4 H4 O20'
_cell_volume   383.05595893
_cell_formula_units_Z   4
loop_
 _symmetry_equiv_pos_site_id
 _symmetry_equiv_pos_as_xyz
  1  'x, y, z'
loop_
 _atom_site_type_symbol
 _atom_site_label
 _atom_site_symmetry_multiplicity
 _atom_site_fract_x
 _atom_site_fract_y
 _atom_site_fract_z
 _atom_site_occupancy
  H  H0  1  0.47358469  0.43017062  0.52294272  1
  H  H1  1  0.97358524  0.06982980  0.47705724  1
  H  H2  1  0.52641473  0.93016968  0.97705778  1
  H  H3  1  0.02641586  0.56983021  0.02294217  1
  O  O4  1  0.73817346  0.62607402  0.70967237  1
  O  O5  1  0.99738601  0.89473786  0.55916592  1
  O  O6  1  0.50261396  0.10526161  0.05916651  1
  O  O7  1  0.00261341  0.39473881  0.94083344  1
  O  O8  1  0.76182651  0.37392682  0.20967182  1
  O  O9  1  0.26182765  0.12607360  0.79032813  1
  O  O10  1  0.23817291  0.87392588  0.29032759  1
  O  O11  1  0.49738714  0.60526203  0.44083404  1
  O  O12  1  0.49086527  0.45882672  0.93585374  1
  O  O13  1  0.99086582  0.04117369  0.06414621  1
  O  O14  1  0.50913415  0.95882578  0.56414676  1
  O  O15  1  0.00913360  0.54117411  0.43585320  1
  O  O16  1  0.07830702  0.69963679  0.05844388  1
  O  O17  1  0.57830758  0.80036311  0.94155607  1
  O  O18  1  0.22606831  0.33815076  0.22498319  1
  O  O19  1  0.42169353  0.30036405  0.55844443  1
  O  O20  1  0.27393056  0.66185008  0.72498260  1
  O  O21  1  0.77393111  0.83814982  0.27501735  1
  O  O22  1  0.72606886  0.16184966  0.77501676  1
  O  O23  1  0.92169240  0.19963637  0.44155667  1
  Si  Si24  1  0.98845794  0.36612020  0.31876925  1
  Si  Si25  1  0.48845739  0.13388022  0.68123070  1
  Si  Si26  1  0.01154316  0.86611926  0.18123130  1
  Si  Si27  1  0.51154203  0.63388063  0.81876865  1
  Ca  Ca28  1  0.51981087  0.12182238  0.32256485  1
  Ca  Ca29  1  0.98018911  0.87817846  0.82256540  1
  Ca  Ca30  1  0.48018855  0.62182144  0.17743456  1
  Ca  Ca31  1  0.01981200  0.37817804  0.67743510  1
  Mn  Mn32  1  0.74623334  0.25728841  0.99647283  1
  Mn  Mn33  1  0.25376608  0.75728883  0.50352766  1
  Mn  Mn34  1  0.75376663  0.74271107  0.49647229  1
  Mn  Mn35  1  0.24623447  0.24271201  0.00352712  1
