# generated using pymatgen
data_B4H5
_symmetry_space_group_name_H-M   'P 1'
_cell_length_a   6.31462700
_cell_length_b   14.25006769
_cell_length_c   18.99231677
_cell_angle_alpha   90.00000000
_cell_angle_beta   113.00550157
_cell_angle_gamma   90.00000000
_symmetry_Int_Tables_number   1
_chemical_formula_structural   B4H5
_chemical_formula_sum   'B64 H80'
_cell_volume   1573.08052251
_cell_formula_units_Z   16
loop_
 _symmetry_equiv_pos_site_id
 _symmetry_equiv_pos_as_xyz
  1  'x, y, z'
loop_
 _atom_site_type_symbol
 _atom_site_label
 _atom_site_symmetry_multiplicity
 _atom_site_fract_x
 _atom_site_fract_y
 _atom_site_fract_z
 _atom_site_occupancy
  B  B0  1  0.16685875  0.58610431  0.63458176  1
  B  B1  1  0.33314125  0.08610431  0.86541824  1
  B  B2  1  0.83314125  0.41389569  0.36541824  1
  B  B3  1  0.66685875  0.91389569  0.13458176  1
  B  B4  1  0.13238864  0.69827539  0.67062609  1
  B  B5  1  0.36761136  0.19827539  0.82937391  1
  B  B6  1  0.86761136  0.30172461  0.32937391  1
  B  B7  1  0.63238864  0.80172461  0.17062609  1
  B  B8  1  0.23933224  0.60535507  0.73480278  1
  B  B9  1  0.26066776  0.10535507  0.76519722  1
  B  B10  1  0.76066776  0.39464493  0.26519722  1
  B  B11  1  0.73933224  0.89464493  0.23480278  1
  B  B12  1  0.14533667  0.49232326  0.69399269  1
  B  B13  1  0.35466333  0.99232326  0.80600731  1
  B  B14  1  0.85466333  0.50767674  0.30600731  1
  B  B15  1  0.64533667  0.00767674  0.19399269  1
  B  B16  1  0.91503960  0.64702570  0.58799407  1
  B  B17  1  0.58496040  0.14702570  0.91200593  1
  B  B18  1  0.08496040  0.35297430  0.41200593  1
  B  B19  1  0.41503960  0.85297430  0.08799407  1
  B  B20  1  0.84322304  0.71453696  0.64990886  1
  B  B21  1  0.65677696  0.21453696  0.85009114  1
  B  B22  1  0.15677696  0.28546304  0.35009114  1
  B  B23  1  0.34322304  0.78546304  0.14990886  1
  B  B24  1  0.02287806  0.67885964  0.74301786  1
  B  B25  1  0.47712194  0.17885964  0.75698214  1
  B  B26  1  0.97712194  0.32114036  0.25698214  1
  B  B27  1  0.52287806  0.82114036  0.24301786  1
  B  B28  1  0.04497239  0.54136986  0.76142303  1
  B  B29  1  0.45502761  0.04136986  0.73857697  1
  B  B30  1  0.95502761  0.45863014  0.23857697  1
  B  B31  1  0.54497239  0.95863014  0.26142303  1
  B  B32  1  0.86557327  0.47298695  0.68302076  1
  B  B33  1  0.63442673  0.97298695  0.81697924  1
  B  B34  1  0.13442673  0.52701305  0.31697924  1
  B  B35  1  0.36557327  0.02701305  0.18302076  1
  B  B36  1  0.91942309  0.51417768  0.60330423  1
  B  B37  1  0.58057691  0.01417768  0.89669577  1
  B  B38  1  0.08057691  0.48582232  0.39669577  1
  B  B39  1  0.41942309  0.98582232  0.10330423  1
  B  B40  1  0.65292723  0.70171917  0.55629480  1
  B  B41  1  0.84707277  0.20171917  0.94370520  1
  B  B42  1  0.34707277  0.29828083  0.44370520  1
  B  B43  1  0.15292723  0.79828083  0.05629480  1
  B  B44  1  0.63328807  0.80665126  0.50185734  1
  B  B45  1  0.86671193  0.30665126  0.99814266  1
  B  B46  1  0.36671193  0.19334874  0.49814266  1
  B  B47  1  0.13328807  0.69334874  0.00185734  1
  B  B48  1  0.67806041  0.81473030  0.60234911  1
  B  B49  1  0.82193959  0.31473030  0.89765089  1
  B  B50  1  0.32193959  0.18526970  0.39765089  1
  B  B51  1  0.17806041  0.68526970  0.10234911  1
  B  B52  1  0.81004487  0.89381040  0.55779939  1
  B  B53  1  0.68995513  0.39381040  0.94220061  1
  B  B54  1  0.18995513  0.10618960  0.44220061  1
  B  B55  1  0.31004487  0.60618960  0.05779939  1
  B  B56  1  0.89515445  0.82943247  0.49569926  1
  B  B57  1  0.60484555  0.32943247  0.00430074  1
  B  B58  1  0.10484555  0.17056753  0.50430074  1
  B  B59  1  0.39515445  0.67056753  0.99569926  1
  B  B60  1  0.81345818  0.70971382  0.49690971  1
  B  B61  1  0.68654182  0.20971382  0.00309029  1
  B  B62  1  0.18654182  0.29028618  0.50309029  1
  B  B63  1  0.31345818  0.79028618  0.99690971  1
  H  H64  1  0.29706107  0.57547862  0.60338344  1
  H  H65  1  0.20293893  0.07547862  0.89661656  1
  H  H66  1  0.70293893  0.42452138  0.39661656  1
  H  H67  1  0.79706107  0.92452138  0.10338344  1
  H  H68  1  0.25342341  0.76248445  0.67023305  1
  H  H69  1  0.24657659  0.26248445  0.82976695  1
  H  H70  1  0.74657659  0.23751555  0.32976695  1
  H  H71  1  0.75342341  0.73751555  0.17023305  1
  H  H72  1  0.42918292  0.61211792  0.78346297  1
  H  H73  1  0.07081708  0.11211792  0.71653703  1
  H  H74  1  0.57081708  0.38788208  0.21653703  1
  H  H75  1  0.92918292  0.88788208  0.28346297  1
  H  H76  1  0.27885302  0.42878361  0.70837323  1
  H  H77  1  0.22114698  0.92878361  0.79162677  1
  H  H78  1  0.72114698  0.57121639  0.29162677  1
  H  H79  1  0.77885302  0.07121639  0.20837323  1
  H  H80  1  0.04775144  0.72568969  0.79779069  1
  H  H81  1  0.45224856  0.22568969  0.70220931  1
  H  H82  1  0.95224856  0.27431031  0.20220931  1
  H  H83  1  0.54775144  0.77431031  0.29779069  1
  H  H84  1  0.09133461  0.51544423  0.82547143  1
  H  H85  1  0.40866539  0.01544423  0.67452857  1
  H  H86  1  0.90866539  0.48455577  0.17452857  1
  H  H87  1  0.59133461  0.98455577  0.32547143  1
  H  H88  1  0.76879603  0.40261360  0.68657494  1
  H  H89  1  0.73120397  0.90261360  0.81342506  1
  H  H90  1  0.23120397  0.59738640  0.31342506  1
  H  H91  1  0.26879603  0.09738640  0.18657494  1
  H  H92  1  0.86713648  0.46412852  0.54869708  1
  H  H93  1  0.63286352  0.96412852  0.95130292  1
  H  H94  1  0.13286352  0.53587148  0.45130292  1
  H  H95  1  0.36713648  0.03587148  0.04869708  1
  H  H96  1  0.47703126  0.65874650  0.53700991  1
  H  H97  1  0.02296874  0.15874650  0.96299009  1
  H  H98  1  0.52296874  0.34125350  0.46299009  1
  H  H99  1  0.97703126  0.84125350  0.03700991  1
  H  H100  1  0.45505935  0.82532519  0.45087787  1
  H  H101  1  0.04494065  0.32532519  0.04912213  1
  H  H102  1  0.54494065  0.17467481  0.54912213  1
  H  H103  1  0.95505935  0.67467481  0.95087787  1
  H  H104  1  0.53304800  0.84816130  0.62023510  1
  H  H105  1  0.96695200  0.34816130  0.87976490  1
  H  H106  1  0.46695200  0.15183870  0.37976490  1
  H  H107  1  0.03304800  0.65183870  0.12023510  1
  H  H108  1  0.78685873  0.97686557  0.55394862  1
  H  H109  1  0.71314127  0.47686557  0.94605138  1
  H  H110  1  0.21314127  0.02313443  0.44605138  1
  H  H111  1  0.28685873  0.52313443  0.05394862  1
  H  H112  1  0.93999003  0.86378196  0.44613031  1
  H  H113  1  0.56000997  0.36378196  0.05386969  1
  H  H114  1  0.06000997  0.13621804  0.55386969  1
  H  H115  1  0.43999003  0.63621804  0.94613031  1
  H  H116  1  0.77396093  0.66858228  0.43873592  1
  H  H117  1  0.72603907  0.16858228  0.06126408  1
  H  H118  1  0.22603907  0.33141772  0.56126408  1
  H  H119  1  0.27396093  0.83141772  0.93873592  1
  H  H120  1  0.79232327  0.67420363  0.70394724  1
  H  H121  1  0.70767673  0.17420363  0.79605276  1
  H  H122  1  0.20767673  0.32579637  0.29605276  1
  H  H123  1  0.29232327  0.82579637  0.20394724  1
  H  H124  1  0.81817606  0.53557131  0.72794924  1
  H  H125  1  0.68182394  0.03557131  0.77205076  1
  H  H126  1  0.18182394  0.46442869  0.27205076  1
  H  H127  1  0.31817606  0.96442869  0.22794924  1
  H  H128  1  0.73415871  0.52031708  0.61930801  1
  H  H129  1  0.76584129  0.02031708  0.88069199  1
  H  H130  1  0.26584129  0.47968292  0.38069199  1
  H  H131  1  0.23415871  0.97968292  0.11930801  1
  H  H132  1  0.86798018  0.86453985  0.63154683  1
  H  H133  1  0.63201982  0.36453985  0.86845317  1
  H  H134  1  0.13201982  0.13546015  0.36845317  1
  H  H135  1  0.36798018  0.63546015  0.13154683  1
  H  H136  1  0.02280374  0.87387095  0.56182348  1
  H  H137  1  0.47719626  0.37387095  0.93817652  1
  H  H138  1  0.97719626  0.12612905  0.43817652  1
  H  H139  1  0.52280374  0.62612905  0.06182348  1
  H  H140  1  0.01818347  0.74825204  0.52091217  1
  H  H141  1  0.48181653  0.24825204  0.97908783  1
  H  H142  1  0.98181653  0.25174796  0.47908783  1
  H  H143  1  0.51818347  0.75174796  0.02091217  1
