# generated using pymatgen
data_Mo2N
_symmetry_space_group_name_H-M   'P 1'
_cell_length_a   4.26271800
_cell_length_b   4.26271800
_cell_length_c   5.04359469
_cell_angle_alpha   114.99804177
_cell_angle_beta   114.99804177
_cell_angle_gamma   90.00000011
_symmetry_Int_Tables_number   1
_chemical_formula_structural   Mo2N
_chemical_formula_sum   'Mo4 N2'
_cell_volume   73.47926797
_cell_formula_units_Z   2
loop_
 _symmetry_equiv_pos_site_id
 _symmetry_equiv_pos_as_xyz
  1  'x, y, z'
loop_
 _atom_site_type_symbol
 _atom_site_label
 _atom_site_symmetry_multiplicity
 _atom_site_fract_x
 _atom_site_fract_y
 _atom_site_fract_z
 _atom_site_occupancy
  N  N0  1  0.62500000  0.37500000  0.25000000  1
  N  N1  1  0.37500000  0.62500000  0.75000000  1
  Mo  Mo2  1  0.36480114  0.11480114  0.72960228  1
  Mo  Mo3  1  0.11480114  0.36480114  0.22960228  1
  Mo  Mo4  1  0.88519886  0.63519886  0.77039772  1
  Mo  Mo5  1  0.63519886  0.88519886  0.27039772  1
