# generated using pymatgen
data_LiSb(PO3)4
_symmetry_space_group_name_H-M   'P 1'
_cell_length_a   10.79311412
_cell_length_b   9.35226032
_cell_length_c   10.35642228
_cell_angle_alpha   90.00000000
_cell_angle_beta   107.02880266
_cell_angle_gamma   90.00000000
_symmetry_Int_Tables_number   1
_chemical_formula_structural   LiSb(PO3)4
_chemical_formula_sum   'Li4 Sb4 P16 O48'
_cell_volume   999.54560703
_cell_formula_units_Z   4
loop_
 _symmetry_equiv_pos_site_id
 _symmetry_equiv_pos_as_xyz
  1  'x, y, z'
loop_
 _atom_site_type_symbol
 _atom_site_label
 _atom_site_symmetry_multiplicity
 _atom_site_fract_x
 _atom_site_fract_y
 _atom_site_fract_z
 _atom_site_occupancy
  Li  Li0  1  0.11000084  0.94627107  0.97280849  1
  Li  Li1  1  0.38999916  0.44627107  0.52719151  1
  Li  Li2  1  0.61000084  0.55372893  0.47280849  1
  Li  Li3  1  0.88999916  0.05372893  0.02719151  1
  O  O4  1  0.07892580  0.73276862  0.96780647  1
  O  O5  1  0.17211352  0.34044223  0.98508541  1
  O  O6  1  0.12436331  0.37806454  0.69829245  1
  O  O7  1  0.15925907  0.63616464  0.77809647  1
  O  O8  1  0.20115166  0.03369630  0.85784467  1
  O  O9  1  0.07980084  0.79491161  0.41419972  1
  O  O10  1  0.04927549  0.23337690  0.27780183  1
  O  O11  1  0.03960855  0.48049331  0.17879682  1
  O  O12  1  0.16572569  0.95044928  0.62049418  1
  O  O13  1  0.08375520  1.01130391  0.14574567  1
  O  O14  1  0.17851436  0.04130635  0.40303739  1
  O  O15  1  0.33427431  0.45044928  0.87950582  1
  O  O16  1  0.29884834  0.53369630  0.64215533  1
  O  O17  1  0.34074093  0.13616464  0.72190353  1
  O  O18  1  0.37563669  0.87806454  0.80170755  1
  O  O19  1  0.22903283  0.68749687  0.25193346  1
  O  O20  1  0.32788648  0.84044223  0.51491459  1
  O  O21  1  0.27096717  0.18749687  0.24806654  1
  O  O22  1  0.42107420  0.23276862  0.53219353  1
  O  O23  1  0.32148564  0.54130635  0.09696261  1
  O  O24  1  0.41624480  0.51130391  0.35425433  1
  O  O25  1  0.57980084  0.70508839  0.91419972  1
  O  O26  1  0.54927549  0.26662310  0.77780183  1
  O  O27  1  0.53960855  0.01950669  0.67879682  1
  O  O28  1  0.46039145  0.98049331  0.32120318  1
  O  O29  1  0.45072451  0.73337690  0.22219817  1
  O  O30  1  0.42019916  0.29491161  0.08580028  1
  O  O31  1  0.58375520  0.48869609  0.64574567  1
  O  O32  1  0.67851436  0.45869365  0.90303739  1
  O  O33  1  0.57892580  0.76723138  0.46780647  1
  O  O34  1  0.72903283  0.81250313  0.75193346  1
  O  O35  1  0.67211352  0.15955777  0.48508541  1
  O  O36  1  0.77096717  0.31250313  0.74806654  1
  O  O37  1  0.62436331  0.12193546  0.19829245  1
  O  O38  1  0.65925907  0.86383536  0.27809647  1
  O  O39  1  0.70115166  0.46630370  0.35784467  1
  O  O40  1  0.66572569  0.54955072  0.12049418  1
  O  O41  1  0.82148564  0.95869365  0.59696261  1
  O  O42  1  0.91624480  -0.01130391  0.85425433  1
  O  O43  1  0.83427431  0.04955072  0.37950582  1
  O  O44  1  0.96039145  0.51950669  0.82120318  1
  O  O45  1  0.95072451  0.76662310  0.72219817  1
  O  O46  1  0.92019916  0.20508839  0.58580028  1
  O  O47  1  0.79884834  0.96630370  0.14215533  1
  O  O48  1  0.84074093  0.36383536  0.22190353  1
  O  O49  1  0.87563669  0.62193546  0.30170755  1
  O  O50  1  0.82788648  0.65955777  0.01491459  1
  O  O51  1  0.92107420  0.26723138  0.03219353  1
  P  P52  1  0.03609113  0.65915358  0.83365638  1
  P  P53  1  0.22751250  0.49411488  0.73939299  1
  P  P54  1  0.19025147  0.89196885  0.48270040  1
  P  P55  1  0.27248750  -0.00588512  0.76060701  1
  P  P56  1  0.15132641  0.11235011  0.25789255  1
  P  P57  1  0.34867359  0.61235011  0.24210745  1
  P  P58  1  0.46390887  0.15915358  0.66634362  1
  P  P59  1  0.30974853  0.39196885  0.01729960  1
  P  P60  1  0.69025147  0.60803115  0.98270040  1
  P  P61  1  0.53609113  0.84084642  0.33365638  1
  P  P62  1  0.65132641  0.38764989  0.75789255  1
  P  P63  1  0.84867359  0.88764989  0.74210745  1
  P  P64  1  0.72751250  1.00588512  0.23939299  1
  P  P65  1  0.80974853  0.10803115  0.51729960  1
  P  P66  1  0.77248750  0.50588512  0.26060701  1
  P  P67  1  0.96390887  0.34084642  0.16634362  1
  Sb  Sb68  1  0.00762041  0.70274265  0.19645394  1
  Sb  Sb69  1  0.50762041  0.79725735  0.69645394  1
  Sb  Sb70  1  0.49237959  0.20274265  0.30354606  1
  Sb  Sb71  1  0.99237959  0.29725735  0.80354606  1
