# generated using pymatgen
data_Li2MnPCO7
_symmetry_space_group_name_H-M   'P 1'
_cell_length_a   5.17848617
_cell_length_b   6.29741670
_cell_length_c   8.58304574
_cell_angle_alpha   90.00000000
_cell_angle_beta   87.74396480
_cell_angle_gamma   90.00000000
_symmetry_Int_Tables_number   1
_chemical_formula_structural   Li2MnPCO7
_chemical_formula_sum   'Li4 Mn2 P2 C2 O14'
_cell_volume   279.68548308
_cell_formula_units_Z   2
loop_
 _symmetry_equiv_pos_site_id
 _symmetry_equiv_pos_as_xyz
  1  'x, y, z'
loop_
 _atom_site_type_symbol
 _atom_site_label
 _atom_site_symmetry_multiplicity
 _atom_site_fract_x
 _atom_site_fract_y
 _atom_site_fract_z
 _atom_site_occupancy
  Li  Li0  1  0.78060158  0.02072179  0.78662786  1
  Li  Li1  1  0.21939842  0.97927821  0.21337214  1
  Li  Li2  1  0.21939842  0.52072179  0.21337214  1
  Li  Li3  1  0.78060158  0.47927821  0.78662786  1
  C  C4  1  0.71917739  0.75000000  0.05489335  1
  C  C5  1  0.28082261  0.25000000  0.94510665  1
  O  O6  1  0.50790419  0.75000000  0.14071349  1
  O  O7  1  0.93529079  0.75000000  0.13523308  1
  O  O8  1  0.49209581  0.25000000  0.85928651  1
  O  O9  1  0.19543563  0.94332057  0.66447748  1
  O  O10  1  0.19543563  0.55667943  0.66447748  1
  O  O11  1  0.18964275  0.75000000  0.40152249  1
  O  O12  1  0.81035725  0.25000000  0.59847751  1
  O  O13  1  0.80456437  0.44332057  0.33552252  1
  O  O14  1  0.80456437  0.05667943  0.33552252  1
  O  O15  1  0.40428150  0.25000000  0.44495527  1
  O  O16  1  0.73248630  0.75000000  0.90724811  1
  O  O17  1  0.26751370  0.25000000  0.09275189  1
  O  O18  1  0.59571850  0.75000000  0.55504473  1
  O  O19  1  0.06470921  0.25000000  0.86476692  1
  P  P20  1  0.70773620  0.25000000  0.43204094  1
  P  P21  1  0.29226380  0.75000000  0.56795906  1
  Mn  Mn22  1  0.77341360  0.75000000  0.35176229  1
  Mn  Mn23  1  0.22658640  0.25000000  0.64823771  1
