# generated using pymatgen
data_Tl6SCl4
_symmetry_space_group_name_H-M   'P 1'
_cell_length_a   8.70890631
_cell_length_b   8.70890631
_cell_length_c   9.37756185
_cell_angle_alpha   90.00000000
_cell_angle_beta   90.00000000
_cell_angle_gamma   90.00000000
_symmetry_Int_Tables_number   1
_chemical_formula_structural   Tl6SCl4
_chemical_formula_sum   'Tl12 S2 Cl8'
_cell_volume   711.24163910
_cell_formula_units_Z   2
loop_
 _symmetry_equiv_pos_site_id
 _symmetry_equiv_pos_as_xyz
  1  'x, y, z'
loop_
 _atom_site_type_symbol
 _atom_site_label
 _atom_site_symmetry_multiplicity
 _atom_site_fract_x
 _atom_site_fract_y
 _atom_site_fract_z
 _atom_site_occupancy
  S  S0  1  0.00000000  0.00000000  0.50000000  1
  S  S1  1  0.50000000  0.50000000  0.00000000  1
  Cl  Cl2  1  0.17555627  0.32444373  0.75000000  1
  Cl  Cl3  1  0.67555627  0.17555627  0.75000000  1
  Cl  Cl4  1  0.32444373  0.82444373  0.75000000  1
  Cl  Cl5  1  0.82444373  0.67555627  0.75000000  1
  Cl  Cl6  1  0.82444373  0.67555627  0.25000000  1
  Cl  Cl7  1  0.32444373  0.82444373  0.25000000  1
  Cl  Cl8  1  0.67555627  0.17555627  0.25000000  1
  Cl  Cl9  1  0.17555627  0.32444373  0.25000000  1
  Tl  Tl10  1  0.68062058  0.88980928  0.50000000  1
  Tl  Tl11  1  0.31937942  0.11019072  0.50000000  1
  Tl  Tl12  1  0.61019072  0.81937942  0.00000000  1
  Tl  Tl13  1  0.11019072  0.68062058  0.50000000  1
  Tl  Tl14  1  0.88980928  0.31937942  0.50000000  1
  Tl  Tl15  1  0.18062058  0.61019072  0.00000000  1
  Tl  Tl16  1  0.81937942  0.38980928  0.00000000  1
  Tl  Tl17  1  0.38980928  0.18062058  0.00000000  1
  Tl  Tl18  1  0.00000000  0.00000000  0.80388257  1
  Tl  Tl19  1  0.50000000  0.50000000  0.69611743  1
  Tl  Tl20  1  0.00000000  0.00000000  0.19611743  1
  Tl  Tl21  1  0.50000000  0.50000000  0.30388257  1
