# generated using pymatgen
data_Ba3AlF9
_symmetry_space_group_name_H-M   'P 1'
_cell_length_a   5.67584186
_cell_length_b   15.40702414
_cell_length_c   20.09377817
_cell_angle_alpha   90.00000000
_cell_angle_beta   90.00000000
_cell_angle_gamma   90.00000000
_symmetry_Int_Tables_number   1
_chemical_formula_structural   Ba3AlF9
_chemical_formula_sum   'Ba24 Al8 F72'
_cell_volume   1757.15734874
_cell_formula_units_Z   8
loop_
 _symmetry_equiv_pos_site_id
 _symmetry_equiv_pos_as_xyz
  1  'x, y, z'
loop_
 _atom_site_type_symbol
 _atom_site_label
 _atom_site_symmetry_multiplicity
 _atom_site_fract_x
 _atom_site_fract_y
 _atom_site_fract_z
 _atom_site_occupancy
  F  F0  1  0.25000000  0.32029233  0.47234086  1
  F  F1  1  0.75000000  0.67970767  0.52765914  1
  F  F2  1  0.75000000  0.82029233  0.02765914  1
  F  F3  1  0.25000000  0.17970767  0.97234086  1
  F  F4  1  0.25000000  0.24962484  0.30014837  1
  F  F5  1  0.75000000  0.75037516  0.69985163  1
  F  F6  1  0.75000000  0.74962484  0.19985163  1
  F  F7  1  0.25000000  0.25037516  0.80014837  1
  F  F8  1  0.25000000  0.50366230  0.18844520  1
  F  F9  1  0.75000000  0.49633770  0.81155480  1
  F  F10  1  0.75000000  0.00366230  0.31155480  1
  F  F11  1  0.25000000  0.99633770  0.68844520  1
  F  F12  1  0.25000000  0.35565710  0.04599870  1
  F  F13  1  0.75000000  0.64434290  0.95400130  1
  F  F14  1  0.75000000  0.85565710  0.45400130  1
  F  F15  1  0.25000000  0.14434290  0.54599870  1
  F  F16  1  0.25000000  0.96118178  0.22624496  1
  F  F17  1  0.75000000  0.03881822  0.77375504  1
  F  F18  1  0.75000000  0.46118178  0.27375504  1
  F  F19  1  0.25000000  0.53881822  0.72624496  1
  F  F20  1  0.25000000  0.72579150  0.44612868  1
  F  F21  1  0.75000000  0.27420850  0.55387132  1
  F  F22  1  0.75000000  0.22579150  0.05387132  1
  F  F23  1  0.25000000  0.77420850  0.94612868  1
  F  F24  1  0.99262737  0.14592842  0.21357058  1
  F  F25  1  0.49262737  0.85407158  0.78642942  1
  F  F26  1  0.00737263  0.64592842  0.28642942  1
  F  F27  1  0.50737263  0.35407158  0.71357058  1
  F  F28  1  0.00737263  0.85407158  0.78642942  1
  F  F29  1  0.50737263  0.14592842  0.21357058  1
  F  F30  1  0.99262737  0.35407158  0.71357058  1
  F  F31  1  0.49262737  0.64592842  0.28642942  1
  F  F32  1  0.00555086  0.04544910  0.07265638  1
  F  F33  1  0.50555086  0.95455090  0.92734362  1
  F  F34  1  0.99444914  0.54544910  0.42734362  1
  F  F35  1  0.49444914  0.45455090  0.57265638  1
  F  F36  1  0.99444914  0.95455090  0.92734362  1
  F  F37  1  0.49444914  0.04544910  0.07265638  1
  F  F38  1  0.00555086  0.45455090  0.57265638  1
  F  F39  1  0.50555086  0.54544910  0.42734362  1
  F  F40  1  0.02001286  0.35752778  0.36623684  1
  F  F41  1  0.52001286  0.64247222  0.63376316  1
  F  F42  1  0.97998714  0.85752778  0.13376316  1
  F  F43  1  0.47998714  0.14247222  0.86623684  1
  F  F44  1  0.97998714  0.64247222  0.63376316  1
  F  F45  1  0.47998714  0.35752778  0.36623684  1
  F  F46  1  0.02001286  0.14247222  0.86623684  1
  F  F47  1  0.52001286  0.85752778  0.13376316  1
  F  F48  1  0.01966683  0.49345238  0.07903477  1
  F  F49  1  0.51966683  0.50654762  0.92096523  1
  F  F50  1  0.98033317  0.99345238  0.42096523  1
  F  F51  1  0.48033317  0.00654762  0.57903477  1
  F  F52  1  0.98033317  0.50654762  0.92096523  1
  F  F53  1  0.48033317  0.49345238  0.07903477  1
  F  F54  1  0.01966683  0.00654762  0.57903477  1
  F  F55  1  0.51966683  0.99345238  0.42096523  1
  F  F56  1  0.02400242  0.35732310  0.15726496  1
  F  F57  1  0.52400242  0.64267690  0.84273504  1
  F  F58  1  0.97599758  0.85732310  0.34273504  1
  F  F59  1  0.47599758  0.14267690  0.65726496  1
  F  F60  1  0.97599758  0.64267690  0.84273504  1
  F  F61  1  0.47599758  0.35732310  0.15726496  1
  F  F62  1  0.02400242  0.14267690  0.65726496  1
  F  F63  1  0.52400242  0.85732310  0.34273504  1
  F  F64  1  0.02144629  0.19650798  0.40340784  1
  F  F65  1  0.52144629  0.80349202  0.59659216  1
  F  F66  1  0.97855371  0.69650798  0.09659216  1
  F  F67  1  0.47855371  0.30349202  0.90340784  1
  F  F68  1  0.97855371  0.80349202  0.59659216  1
  F  F69  1  0.47855371  0.19650798  0.40340784  1
  F  F70  1  0.02144629  0.30349202  0.90340784  1
  F  F71  1  0.52144629  0.69650798  0.09659216  1
  Al  Al72  1  0.25000000  0.42584622  0.11975559  1
  Al  Al73  1  0.75000000  0.57415378  0.88024441  1
  Al  Al74  1  0.75000000  0.92584622  0.38024441  1
  Al  Al75  1  0.25000000  0.07415378  0.61975559  1
  Al  Al76  1  0.25000000  0.27822150  0.38837503  1
  Al  Al77  1  0.75000000  0.72177850  0.61162497  1
  Al  Al78  1  0.75000000  0.77822150  0.11162497  1
  Al  Al79  1  0.25000000  0.22177850  0.88837503  1
  Ba  Ba80  1  0.25000000  0.19078692  0.10790859  1
  Ba  Ba81  1  0.75000000  0.80921308  0.89209141  1
  Ba  Ba82  1  0.75000000  0.69078692  0.39209141  1
  Ba  Ba83  1  0.25000000  0.30921308  0.60790859  1
  Ba  Ba84  1  0.25000000  0.78962981  0.24335894  1
  Ba  Ba85  1  0.75000000  0.21037019  0.75664106  1
  Ba  Ba86  1  0.75000000  0.28962981  0.25664106  1
  Ba  Ba87  1  0.25000000  0.71037019  0.74335894  1
  Ba  Ba88  1  0.25000000  0.50674206  0.32238663  1
  Ba  Ba89  1  0.75000000  0.49325794  0.67761337  1
  Ba  Ba90  1  0.75000000  0.00674206  0.17761337  1
  Ba  Ba91  1  0.25000000  0.99325794  0.82238663  1
  Ba  Ba92  1  0.25000000  0.90756660  0.03046206  1
  Ba  Ba93  1  0.75000000  0.09243340  0.96953794  1
  Ba  Ba94  1  0.75000000  0.40756660  0.46953794  1
  Ba  Ba95  1  0.25000000  0.59243340  0.53046206  1
  Ba  Ba96  1  0.25000000  0.07545355  0.31640500  1
  Ba  Ba97  1  0.75000000  0.92454645  0.68359500  1
  Ba  Ba98  1  0.75000000  0.57545355  0.18359500  1
  Ba  Ba99  1  0.25000000  0.42454645  0.81640500  1
  Ba  Ba100  1  0.25000000  0.62202432  0.99802768  1
  Ba  Ba101  1  0.75000000  0.37797568  0.00197232  1
  Ba  Ba102  1  0.75000000  0.12202432  0.50197232  1
  Ba  Ba103  1  0.25000000  0.87797568  0.49802768  1
