# generated using pymatgen
data_P2S3
_symmetry_space_group_name_H-M   'P 1'
_cell_length_a   7.53594276
_cell_length_b   12.35091296
_cell_length_c   13.20373150
_cell_angle_alpha   90.00000000
_cell_angle_beta   90.00000000
_cell_angle_gamma   101.21775003
_symmetry_Int_Tables_number   1
_chemical_formula_structural   P2S3
_chemical_formula_sum   'P16 S24'
_cell_volume   1205.46839488
_cell_formula_units_Z   8
loop_
 _symmetry_equiv_pos_site_id
 _symmetry_equiv_pos_as_xyz
  1  'x, y, z'
loop_
 _atom_site_type_symbol
 _atom_site_label
 _atom_site_symmetry_multiplicity
 _atom_site_fract_x
 _atom_site_fract_y
 _atom_site_fract_z
 _atom_site_occupancy
  P  P0  1  0.27981428  0.16626713  0.91628334  1
  P  P1  1  0.72018572  0.33373287  0.41628334  1
  P  P2  1  0.72018572  0.83373287  0.08371666  1
  P  P3  1  0.27981428  0.66626713  0.58371666  1
  P  P4  1  0.25342719  0.43009686  0.93700570  1
  P  P5  1  0.74657281  0.06990314  0.43700570  1
  P  P6  1  0.74657281  0.56990314  0.06299430  1
  P  P7  1  0.25342719  0.93009686  0.56299430  1
  P  P8  1  0.22362870  0.34337494  0.09577037  1
  P  P9  1  0.77637130  0.15662506  0.59577037  1
  P  P10  1  0.77637130  0.65662506  0.90422963  1
  P  P11  1  0.22362870  0.84337494  0.40422963  1
  P  P12  1  0.85405942  0.24717495  0.95148151  1
  P  P13  1  0.14594058  0.25282505  0.45148151  1
  P  P14  1  0.14594058  0.75282505  0.04851849  1
  P  P15  1  0.85405942  0.74717495  0.54851849  1
  S  S16  1  0.99836720  0.12301631  0.89515030  1
  S  S17  1  0.00163280  0.37698369  0.39515030  1
  S  S18  1  0.00163280  0.87698369  0.10484970  1
  S  S19  1  0.99836720  0.62301631  0.60484970  1
  S  S20  1  0.38345850  0.32284051  0.85117623  1
  S  S21  1  0.61654150  0.17715949  0.35117623  1
  S  S22  1  0.61654150  0.67715949  0.14882377  1
  S  S23  1  0.38345850  0.82284051  0.64882377  1
  S  S24  1  0.34152425  0.20269241  0.07066620  1
  S  S25  1  0.65847575  0.29730759  0.57066620  1
  S  S26  1  0.65847575  0.79730759  0.92933380  1
  S  S27  1  0.34152425  0.70269241  0.42933380  1
  S  S28  1  0.38581835  0.04881146  0.86176147  1
  S  S29  1  0.61418165  0.45118854  0.36176147  1
  S  S30  1  0.61418165  0.95118854  0.13823853  1
  S  S31  1  0.38581835  0.54881146  0.63823853  1
  S  S32  1  0.98121212  0.39768082  0.88379882  1
  S  S33  1  0.01878788  0.10231918  0.38379882  1
  S  S34  1  0.01878788  0.60231918  0.11620118  1
  S  S35  1  0.98121212  0.89768082  0.61620118  1
  S  S36  1  0.94073416  0.28117152  0.10244607  1
  S  S37  1  0.05926584  0.21882848  0.60244607  1
  S  S38  1  0.05926584  0.71882848  0.89755393  1
  S  S39  1  0.94073416  0.78117152  0.39755393  1
