# generated using pymatgen
data_CaTeO3
_symmetry_space_group_name_H-M   'P 1'
_cell_length_a   10.59815842
_cell_length_b   11.37964533
_cell_length_c   13.93153637
_cell_angle_alpha   76.65399760
_cell_angle_beta   85.72763871
_cell_angle_gamma   71.12597616
_symmetry_Int_Tables_number   1
_chemical_formula_structural   CaTeO3
_chemical_formula_sum   'Ca18 Te18 O54'
_cell_volume   1546.91310977
_cell_formula_units_Z   18
loop_
 _symmetry_equiv_pos_site_id
 _symmetry_equiv_pos_as_xyz
  1  'x, y, z'
loop_
 _atom_site_type_symbol
 _atom_site_label
 _atom_site_symmetry_multiplicity
 _atom_site_fract_x
 _atom_site_fract_y
 _atom_site_fract_z
 _atom_site_occupancy
  O  O0  1  0.00094230  0.89035915  0.95493209  1
  O  O1  1  0.99905770  0.10964085  0.04506791  1
  O  O2  1  0.13149050  0.81808877  0.39069183  1
  O  O3  1  0.86850950  0.18191123  0.60930817  1
  O  O4  1  0.47421094  0.78445036  0.11590144  1
  O  O5  1  0.52578906  0.21554964  0.88409856  1
  O  O6  1  0.76126551  0.93587445  0.85930725  1
  O  O7  1  0.23873449  0.06412555  0.14069275  1
  O  O8  1  0.11870518  0.95008588  0.54433665  1
  O  O9  1  0.88129482  0.04991412  0.45566335  1
  O  O10  1  0.50539754  0.92593019  0.23738205  1
  O  O11  1  0.49460246  0.07406981  0.76261795  1
  O  O12  1  0.00200046  0.89364904  0.74528902  1
  O  O13  1  0.99799954  0.10635096  0.25471098  1
  O  O14  1  0.28296411  0.97229725  0.38311209  1
  O  O15  1  0.71703589  0.02770275  0.61688791  1
  O  O16  1  0.63198635  0.94562077  0.05554065  1
  O  O17  1  0.36801365  0.05437923  0.94445935  1
  O  O18  1  0.07722740  0.47172997  0.59061071  1
  O  O19  1  0.92277260  0.52827003  0.40938929  1
  O  O20  1  0.66270770  0.56351011  0.28577529  1
  O  O21  1  0.33729230  0.43648989  0.71422471  1
  O  O22  1  0.78019770  0.47989299  0.90340265  1
  O  O23  1  0.21980230  0.52010701  0.09659735  1
  O  O24  1  0.91707784  0.67080097  0.70075442  1
  O  O25  1  0.08292216  0.32919903  0.29924558  1
  O  O26  1  0.42749165  0.50814179  0.24237066  1
  O  O27  1  0.57250835  0.49185821  0.75762934  1
  O  O28  1  0.61145346  0.48337166  0.05953597  1
  O  O29  1  0.38854654  0.51662834  0.94046403  1
  O  O30  1  0.14206339  0.68229399  0.59208166  1
  O  O31  1  0.85793661  0.31770601  0.40791834  1
  O  O32  1  0.41029915  0.68589525  0.36561475  1
  O  O33  1  0.58970085  0.31410475  0.63438525  1
  O  O34  1  0.72711076  0.69402704  0.00136205  1
  O  O35  1  0.27288924  0.30597296  0.99863795  1
  O  O36  1  0.56977417  0.77049663  0.77028992  1
  O  O37  1  0.43022583  0.22950337  0.22971008  1
  O  O38  1  0.87078386  0.77722321  0.45941559  1
  O  O39  1  0.12921614  0.22277679  0.54058441  1
  O  O40  1  0.19819215  0.79530249  0.11983831  1
  O  O41  1  0.80180785  0.20469751  0.88016169  1
  O  O42  1  0.36662239  0.80143046  0.91446178  1
  O  O43  1  0.63337761  0.19856954  0.08553822  1
  O  O44  1  0.73244518  0.59178785  0.56843308  1
  O  O45  1  0.26755482  0.40821215  0.43156692  1
  O  O46  1  0.91605909  0.87722909  0.17915968  1
  O  O47  1  0.08394091  0.12277091  0.82084032  1
  O  O48  1  0.31942288  0.92482610  0.70472724  1
  O  O49  1  0.68057712  0.07517390  0.29527276  1
  O  O50  1  0.58961436  0.86261085  0.49985431  1
  O  O51  1  0.41038564  0.13738915  0.50014569  1
  O  O52  1  0.09958668  0.62487954  0.26658005  1
  O  O53  1  0.90041332  0.37512046  0.73341995  1
  Ca  Ca54  1  0.09650252  0.05131393  0.67417530  1
  Ca  Ca55  1  0.90349748  0.94868607  0.32582470  1
  Ca  Ca56  1  0.47576326  0.03088968  0.36734456  1
  Ca  Ca57  1  0.52423674  0.96911032  0.63265544  1
  Ca  Ca58  1  0.81364486  0.03386104  0.02858148  1
  Ca  Ca59  1  0.18635514  0.96613896  0.97141852  1
  Ca  Ca60  1  0.91155293  0.38451559  0.56461545  1
  Ca  Ca61  1  0.08844707  0.61548441  0.43538455  1
  Ca  Ca62  1  0.25508641  0.41562794  0.26312909  1
  Ca  Ca63  1  0.74491359  0.58437206  0.73687091  1
  Ca  Ca64  1  0.59751827  0.37120353  0.92333981  1
  Ca  Ca65  1  0.40248173  0.62879647  0.07666019  1
  Ca  Ca66  1  0.93490782  0.86132215  0.59154939  1
  Ca  Ca67  1  0.06509218  0.13867785  0.40845061  1
  Ca  Ca68  1  0.30113729  0.86027887  0.24329587  1
  Ca  Ca69  1  0.69886271  0.13972113  0.75670413  1
  Ca  Ca70  1  0.56557012  0.88203702  0.91690989  1
  Ca  Ca71  1  0.43442988  0.11796298  0.08309011  1
  Te  Te72  1  0.93565324  0.82041463  0.86495790  1
  Te  Te73  1  0.06434676  0.17958537  0.13504210  1
  Te  Te74  1  0.24955389  0.83469932  0.48090278  1
  Te  Te75  1  0.75044611  0.16530068  0.51909722  1
  Te  Te76  1  0.62253866  0.81098248  0.16483570  1
  Te  Te77  1  0.37746134  0.18901752  0.83516430  1
  Te  Te78  1  0.09555871  0.55524709  0.68930942  1
  Te  Te79  1  0.90444129  0.44475291  0.31069058  1
  Te  Te80  1  0.51483208  0.52243474  0.35116676  1
  Te  Te81  1  0.48516792  0.47756526  0.64883324  1
  Te  Te82  1  0.77415518  0.51620466  0.03000801  1
  Te  Te83  1  0.22584482  0.48379534  0.96999199  1
  Te  Te84  1  0.95328818  0.26598759  0.85821885  1
  Te  Te85  1  0.04671182  0.73401241  0.14178115  1
  Te  Te86  1  0.28261825  0.27620642  0.54551913  1
  Te  Te87  1  0.71738175  0.72379358  0.45448087  1
  Te  Te88  1  0.60828131  0.23808600  0.21276232  1
  Te  Te89  1  0.39171869  0.76191400  0.78723768  1
