# generated using pymatgen
data_Li7Mn2(CoO4)3
_symmetry_space_group_name_H-M   'P 1'
_cell_length_a   2.98301079
_cell_length_b   5.99541017
_cell_length_c   12.49127133
_cell_angle_alpha   103.17132513
_cell_angle_beta   88.79268130
_cell_angle_gamma   93.00194012
_symmetry_Int_Tables_number   1
_chemical_formula_structural   Li7Mn2(CoO4)3
_chemical_formula_sum   'Li7 Mn2 Co3 O12'
_cell_volume   217.21354539
_cell_formula_units_Z   1
loop_
 _symmetry_equiv_pos_site_id
 _symmetry_equiv_pos_as_xyz
  1  'x, y, z'
loop_
 _atom_site_type_symbol
 _atom_site_label
 _atom_site_symmetry_multiplicity
 _atom_site_fract_x
 _atom_site_fract_y
 _atom_site_fract_z
 _atom_site_occupancy
  Li  Li0  1  0.00538568  0.50876134  0.00641168  1
  Li  Li1  1  0.50266821  0.32457851  0.17209438  1
  Li  Li2  1  0.49584610  0.67128117  0.83254023  1
  Li  Li3  1  0.99906042  0.83236103  0.66602072  1
  Li  Li4  1  0.49909887  0.99607224  0.49601594  1
  Li  Li5  1  0.99956053  0.15678962  0.32717949  1
  Li  Li6  1  0.48946504  0.84662353  0.17070878  1
  Mn  Mn7  1  0.99436768  0.99836151  0.00635073  1
  Mn  Mn8  1  0.01100386  0.33562052  0.66582443  1
  Co  Co9  1  0.99257645  0.67168786  0.32537217  1
  Co  Co10  1  0.49812553  0.50080468  0.49728976  1
  Co  Co11  1  0.50951662  0.16115064  0.83103018  1
  O  O12  1  0.51287573  0.22215640  0.99590733  1
  O  O13  1  0.99374051  0.08011367  0.15528327  1
  O  O14  1  0.02727996  0.39879417  0.82971570  1
  O  O15  1  0.46933196  0.57581477  0.65839567  1
  O  O16  1  0.96862784  0.72819141  0.48627012  1
  O  O17  1  0.46272714  0.89556076  0.33403944  1
  O  O18  1  0.47682042  0.78226163  0.99952352  1
  O  O19  1  0.99812471  0.58729107  0.18316649  1
  O  O20  1  0.99262932  0.93394976  0.84088197  1
  O  O21  1  0.54543719  0.08969958  0.67244055  1
  O  O22  1  0.02847738  0.26688407  0.50566532  1
  O  O23  1  0.52725286  0.43519006  0.34187211  1
