# generated using pymatgen
data_Ti6O11
_symmetry_space_group_name_H-M   'P 1'
_cell_length_a   5.60365661
_cell_length_b   7.18983533
_cell_length_c   19.39175911
_cell_angle_alpha   84.67895752
_cell_angle_beta   83.91890169
_cell_angle_gamma   71.30907829
_symmetry_Int_Tables_number   1
_chemical_formula_structural   Ti6O11
_chemical_formula_sum   'Ti24 O44'
_cell_volume   734.47862122
_cell_formula_units_Z   4
loop_
 _symmetry_equiv_pos_site_id
 _symmetry_equiv_pos_as_xyz
  1  'x, y, z'
loop_
 _atom_site_type_symbol
 _atom_site_label
 _atom_site_symmetry_multiplicity
 _atom_site_fract_x
 _atom_site_fract_y
 _atom_site_fract_z
 _atom_site_occupancy
  O  O0  1  0.41663480  0.35777609  0.48691804  1
  O  O1  1  0.58336520  0.64222391  0.51308196  1
  O  O2  1  0.94407863  0.30296866  0.46233190  1
  O  O3  1  0.05592137  0.69703134  0.53766810  1
  O  O4  1  0.67682398  0.98225248  0.44508432  1
  O  O5  1  0.32317602  0.01774752  0.55491568  1
  O  O6  1  0.21147964  0.92219254  0.42438885  1
  O  O7  1  0.78852036  0.07780746  0.57561115  1
  O  O8  1  0.03663269  0.64203933  0.39752862  1
  O  O9  1  0.96336731  0.35796067  0.60247138  1
  O  O10  1  0.57441030  0.57440782  0.37130674  1
  O  O11  1  0.42558970  0.42559218  0.62869326  1
  O  O12  1  0.30248300  0.26184243  0.35807953  1
  O  O13  1  0.69751700  0.73815757  0.64192047  1
  O  O14  1  0.86160987  0.20090557  0.32295471  1
  O  O15  1  0.13839013  0.79909443  0.67704529  1
  O  O16  1  0.30918459  0.17215079  0.21754169  1
  O  O17  1  0.68139755  0.90601171  0.30430387  1
  O  O18  1  0.19081541  0.82784921  0.28245831  1
  O  O19  1  0.80918459  0.17215079  0.71754169  1
  O  O20  1  0.94394344  0.54454231  0.26637209  1
  O  O21  1  0.05605656  0.45545769  0.73362791  1
  O  O22  1  0.55605656  0.45545769  0.23362791  1
  O  O23  1  0.44394344  0.54454231  0.76637209  1
  O  O24  1  0.91663480  0.35777609  0.98691804  1
  O  O25  1  0.08336520  0.64222391  0.01308196  1
  O  O26  1  0.44407863  0.30296866  0.96233190  1
  O  O27  1  0.55592137  0.69703134  0.03766810  1
  O  O28  1  0.17682398  0.98225248  0.94508432  1
  O  O29  1  0.82317602  0.01774752  0.05491568  1
  O  O30  1  0.71147964  0.92219254  0.92438885  1
  O  O31  1  0.28852036  0.07780746  0.07561115  1
  O  O32  1  0.53663269  0.64203933  0.89752862  1
  O  O33  1  0.46336731  0.35796067  0.10247138  1
  O  O34  1  0.07441030  0.57440782  0.87130674  1
  O  O35  1  0.92558970  0.42559218  0.12869326  1
  O  O36  1  0.80248300  0.26184243  0.85807953  1
  O  O37  1  0.19751700  0.73815757  0.14192047  1
  O  O38  1  0.36160987  0.20090557  0.82295471  1
  O  O39  1  0.63839013  0.79909443  0.17704529  1
  O  O40  1  0.18139755  0.90601171  0.80430387  1
  O  O41  1  0.81860245  0.09398829  0.19569613  1
  O  O42  1  0.69081541  0.82784921  0.78245831  1
  O  O43  1  0.31860245  0.09398829  0.69569613  1
  Ti  Ti44  1  0.31375301  0.63821852  0.45713659  1
  Ti  Ti45  1  0.68624699  0.36178148  0.54286341  1
  Ti  Ti46  1  0.31569422  0.13876676  0.45846538  1
  Ti  Ti47  1  0.68430578  0.86123324  0.54153462  1
  Ti  Ti48  1  0.93933681  0.42787917  0.37165494  1
  Ti  Ti49  1  0.06066319  0.57212083  0.62834506  1
  Ti  Ti50  1  0.94211831  0.92468284  0.37151184  1
  Ti  Ti51  1  0.05788169  0.07531716  0.62848816  1
  Ti  Ti52  1  0.53803945  0.69625145  0.28043930  1
  Ti  Ti53  1  0.46196055  0.30374855  0.71956070  1
  Ti  Ti54  1  0.53845884  0.19336145  0.28267509  1
  Ti  Ti55  1  0.46154116  0.80663855  0.71732491  1
  Ti  Ti56  1  0.96196055  0.30374855  0.21956070  1
  Ti  Ti57  1  0.03803945  0.69625145  0.78043930  1
  Ti  Ti58  1  0.96154116  0.80663855  0.21732491  1
  Ti  Ti59  1  0.03845884  0.19336145  0.78267509  1
  Ti  Ti60  1  0.56066319  0.57212083  0.12834506  1
  Ti  Ti61  1  0.43933681  0.42787917  0.87165494  1
  Ti  Ti62  1  0.55788169  0.07531716  0.12848816  1
  Ti  Ti63  1  0.44211831  0.92468284  0.87151184  1
  Ti  Ti64  1  0.18624699  0.36178148  0.04286341  1
  Ti  Ti65  1  0.81375301  0.63821852  0.95713659  1
  Ti  Ti66  1  0.18430578  0.86123324  0.04153462  1
  Ti  Ti67  1  0.81569422  0.13876676  0.95846538  1
