# generated using pymatgen
data_SbSCl9
_symmetry_space_group_name_H-M   'P 1'
_cell_length_a   9.08290541
_cell_length_b   9.08290541
_cell_length_c   9.09348834
_cell_angle_alpha   76.52289169
_cell_angle_beta   76.52289170
_cell_angle_gamma   76.54991188
_symmetry_Int_Tables_number   1
_chemical_formula_structural   SbSCl9
_chemical_formula_sum   'Sb2 S2 Cl18'
_cell_volume   696.73611618
_cell_formula_units_Z   2
loop_
 _symmetry_equiv_pos_site_id
 _symmetry_equiv_pos_as_xyz
  1  'x, y, z'
loop_
 _atom_site_type_symbol
 _atom_site_label
 _atom_site_symmetry_multiplicity
 _atom_site_fract_x
 _atom_site_fract_y
 _atom_site_fract_z
 _atom_site_occupancy
  S  S0  1  0.70680331  0.70680331  0.70705921  1
  S  S1  1  0.29319669  0.29319669  0.29294079  1
  Cl  Cl2  1  0.02842586  0.02842586  0.72465252  1
  Cl  Cl3  1  0.97157414  0.97157414  0.27534748  1
  Cl  Cl4  1  0.27559380  0.97177486  0.97190873  1
  Cl  Cl5  1  0.02822514  0.72440620  0.02809127  1
  Cl  Cl6  1  0.72440620  0.02822514  0.02809127  1
  Cl  Cl7  1  0.97177486  0.27559380  0.97190873  1
  Cl  Cl8  1  0.67447059  0.37079767  0.67457182  1
  Cl  Cl9  1  0.62920233  0.32552941  0.32542818  1
  Cl  Cl10  1  0.32552941  0.62920233  0.32542818  1
  Cl  Cl11  1  0.37079767  0.67447059  0.67457182  1
  Cl  Cl12  1  0.32526679  0.32526679  0.62866447  1
  Cl  Cl13  1  0.67473321  0.67473321  0.37133553  1
  Cl  Cl14  1  0.34097370  0.06236589  0.34065602  1
  Cl  Cl15  1  0.93763411  0.65902630  0.65934398  1
  Cl  Cl16  1  0.65902630  0.93763411  0.65934398  1
  Cl  Cl17  1  0.06236589  0.34097370  0.34065602  1
  Cl  Cl18  1  0.34112294  0.34112294  0.06236024  1
  Cl  Cl19  1  0.65887706  0.65887706  0.93763976  1
  Sb  Sb20  1  0.50000000  0.50000000  0.50000000  1
  Sb  Sb21  1  0.00000000  0.00000000  0.00000000  1
