# generated using pymatgen
data_Rb3Mo15Se17
_symmetry_space_group_name_H-M   'P 1'
_cell_length_a   9.71462022
_cell_length_b   9.71462021
_cell_length_c   21.19214925
_cell_angle_alpha   90.00000000
_cell_angle_beta   90.00000000
_cell_angle_gamma   120.00000001
_symmetry_Int_Tables_number   1
_chemical_formula_structural   Rb3Mo15Se17
_chemical_formula_sum   'Rb6 Mo30 Se34'
_cell_volume   1732.03749509
_cell_formula_units_Z   2
loop_
 _symmetry_equiv_pos_site_id
 _symmetry_equiv_pos_as_xyz
  1  'x, y, z'
loop_
 _atom_site_type_symbol
 _atom_site_label
 _atom_site_symmetry_multiplicity
 _atom_site_fract_x
 _atom_site_fract_y
 _atom_site_fract_z
 _atom_site_occupancy
  Se  Se0  1  0.63120036  0.62464548  0.85772145  1
  Se  Se1  1  0.70644869  0.04376262  0.54292620  1
  Se  Se2  1  0.95623738  0.66268607  0.54292620  1
  Se  Se3  1  0.66268607  0.70644869  0.04292620  1
  Se  Se4  1  0.66268607  0.70644869  0.45707380  1
  Se  Se5  1  0.95623738  0.66268607  0.95707380  1
  Se  Se6  1  0.33333333  0.66666667  0.93929620  1
  Se  Se7  1  0.66666667  0.33333333  0.43929620  1
  Se  Se8  1  0.66666667  0.33333333  0.06070380  1
  Se  Se9  1  0.33333333  0.66666667  0.56070380  1
  Se  Se10  1  0.29479058  0.95972285  0.25000000  1
  Se  Se11  1  0.33506773  0.29479058  0.75000000  1
  Se  Se12  1  0.95972285  0.66493227  0.75000000  1
  Se  Se13  1  0.04027715  0.33506773  0.25000000  1
  Se  Se14  1  0.66493227  0.70520942  0.25000000  1
  Se  Se15  1  0.70520942  0.04027715  0.75000000  1
  Se  Se16  1  0.62464548  0.99344512  0.35772145  1
  Se  Se17  1  0.29355131  0.95623738  0.04292620  1
  Se  Se18  1  0.99344512  0.36879964  0.85772145  1
  Se  Se19  1  0.70644869  0.04376262  0.95707380  1
  Se  Se20  1  0.36879964  0.37535452  0.35772145  1
  Se  Se21  1  0.37535452  0.00655488  0.85772145  1
  Se  Se22  1  0.37535452  0.00655488  0.64227855  1
  Se  Se23  1  0.36879964  0.37535452  0.14227855  1
  Se  Se24  1  0.00655488  0.63120036  0.14227855  1
  Se  Se25  1  0.99344512  0.36879964  0.64227855  1
  Se  Se26  1  0.63120036  0.62464548  0.64227855  1
  Se  Se27  1  0.62464548  0.99344512  0.14227855  1
  Se  Se28  1  0.33731393  0.29355131  0.54292620  1
  Se  Se29  1  0.04376262  0.33731393  0.04292620  1
  Se  Se30  1  0.33731393  0.29355131  0.95707380  1
  Se  Se31  1  0.04376262  0.33731393  0.45707380  1
  Se  Se32  1  0.29355131  0.95623738  0.45707380  1
  Se  Se33  1  0.00655488  0.63120036  0.35772145  1
  Rb  Rb34  1  0.00000000  0.00000000  0.36207647  1
  Rb  Rb35  1  0.00000000  0.00000000  0.86207647  1
  Rb  Rb36  1  0.00000000  0.00000000  0.63792353  1
  Rb  Rb37  1  0.00000000  0.00000000  0.13792353  1
  Rb  Rb38  1  0.33333333  0.66666667  0.75000000  1
  Rb  Rb39  1  0.66666667  0.33333333  0.25000000  1
  Mo  Mo40  1  0.48166923  0.83378144  0.25000000  1
  Mo  Mo41  1  0.64788779  0.48166923  0.75000000  1
  Mo  Mo42  1  0.83378144  0.35211221  0.75000000  1
  Mo  Mo43  1  0.16621856  0.64788779  0.25000000  1
  Mo  Mo44  1  0.35211221  0.51833077  0.25000000  1
  Mo  Mo45  1  0.51833077  0.16621856  0.75000000  1
  Mo  Mo46  1  0.68381994  0.18306405  0.85677845  1
  Mo  Mo47  1  0.50075589  0.68381994  0.35677845  1
  Mo  Mo48  1  0.18306405  0.49924411  0.35677845  1
  Mo  Mo49  1  0.81693595  0.50075589  0.85677845  1
  Mo  Mo50  1  0.49924411  0.31618006  0.85677845  1
  Mo  Mo51  1  0.31618006  0.81693595  0.35677845  1
  Mo  Mo52  1  0.31618006  0.81693595  0.14322155  1
  Mo  Mo53  1  0.49924411  0.31618006  0.64322155  1
  Mo  Mo54  1  0.81693595  0.50075589  0.64322155  1
  Mo  Mo55  1  0.18306405  0.49924411  0.14322155  1
  Mo  Mo56  1  0.50075589  0.68381994  0.14322155  1
  Mo  Mo57  1  0.68381994  0.18306405  0.64322155  1
  Mo  Mo58  1  0.52021903  0.16477455  0.96510336  1
  Mo  Mo59  1  0.35544449  0.52021903  0.46510336  1
  Mo  Mo60  1  0.16477455  0.64455551  0.46510336  1
  Mo  Mo61  1  0.83522545  0.35544449  0.96510336  1
  Mo  Mo62  1  0.64455551  0.47978097  0.96510336  1
  Mo  Mo63  1  0.47978097  0.83522545  0.46510336  1
  Mo  Mo64  1  0.47978097  0.83522545  0.03489664  1
  Mo  Mo65  1  0.64455551  0.47978097  0.53489664  1
  Mo  Mo66  1  0.83522545  0.35544449  0.53489664  1
  Mo  Mo67  1  0.16477455  0.64455551  0.03489664  1
  Mo  Mo68  1  0.35544449  0.52021903  0.03489664  1
  Mo  Mo69  1  0.52021903  0.16477455  0.53489664  1
