# generated using pymatgen
data_NbTeCl9
_symmetry_space_group_name_H-M   'P 1'
_cell_length_a   6.70481344
_cell_length_b   9.79131192
_cell_length_c   11.96055152
_cell_angle_alpha   73.08576523
_cell_angle_beta   72.48505360
_cell_angle_gamma   88.85090301
_symmetry_Int_Tables_number   1
_chemical_formula_structural   NbTeCl9
_chemical_formula_sum   'Nb2 Te2 Cl18'
_cell_volume   714.43893498
_cell_formula_units_Z   2
loop_
 _symmetry_equiv_pos_site_id
 _symmetry_equiv_pos_as_xyz
  1  'x, y, z'
loop_
 _atom_site_type_symbol
 _atom_site_label
 _atom_site_symmetry_multiplicity
 _atom_site_fract_x
 _atom_site_fract_y
 _atom_site_fract_z
 _atom_site_occupancy
  Cl  Cl0  1  0.68069295  0.13173922  0.84243690  1
  Cl  Cl1  1  0.31930705  0.86826078  0.15756310  1
  Cl  Cl2  1  0.08447716  0.36692827  0.63594083  1
  Cl  Cl3  1  0.91552284  0.63307173  0.36405917  1
  Cl  Cl4  1  0.36006098  0.74180218  0.52992768  1
  Cl  Cl5  1  0.63993902  0.25819782  0.47007232  1
  Cl  Cl6  1  0.56020830  0.49660330  0.71571624  1
  Cl  Cl7  1  0.43979170  0.50339670  0.28428376  1
  Cl  Cl8  1  0.26481309  0.94271433  0.72655509  1
  Cl  Cl9  1  0.73518691  0.05728567  0.27344491  1
  Cl  Cl10  1  0.07217093  0.60099123  0.82786228  1
  Cl  Cl11  1  0.92782907  0.39900877  0.17213772  1
  Cl  Cl12  1  0.46826794  0.69097067  0.91476028  1
  Cl  Cl13  1  0.53173206  0.30902933  0.08523972  1
  Cl  Cl14  1  0.75751690  0.84348914  0.61965118  1
  Cl  Cl15  1  0.24248310  0.15651086  0.38034882  1
  Cl  Cl16  1  0.90551576  0.79201395  0.06700430  1
  Cl  Cl17  1  0.09448424  0.20798605  0.93299570  1
  Nb  Nb18  1  0.57702048  0.26571420  0.28877586  1
  Nb  Nb19  1  0.42297952  0.73428580  0.71122414  1
  Te  Te20  1  0.86460476  0.33837480  0.83575311  1
  Te  Te21  1  0.13539524  0.66162520  0.16424689  1
