# generated using pymatgen
data_HfBrN
_symmetry_space_group_name_H-M   'P 1'
_cell_length_a   3.63364831
_cell_length_b   3.63364831
_cell_length_c   10.50626017
_cell_angle_alpha   80.04190955
_cell_angle_beta   80.04190955
_cell_angle_gamma   59.99999286
_symmetry_Int_Tables_number   1
_chemical_formula_structural   HfBrN
_chemical_formula_sum   'Hf2 Br2 N2'
_cell_volume   117.71426532
_cell_formula_units_Z   2
loop_
 _symmetry_equiv_pos_site_id
 _symmetry_equiv_pos_as_xyz
  1  'x, y, z'
loop_
 _atom_site_type_symbol
 _atom_site_label
 _atom_site_symmetry_multiplicity
 _atom_site_fract_x
 _atom_site_fract_y
 _atom_site_fract_z
 _atom_site_occupancy
  Hf  Hf0  1  0.20842101  0.20842101  0.37473696  1
  Hf  Hf1  1  0.79157899  0.79157899  0.62526304  1
  Br  Br2  1  0.39391187  0.39391187  0.81826438  1
  Br  Br3  1  0.60608813  0.60608813  0.18173562  1
  N  N4  1  0.13855133  0.13855133  0.58434601  1
  N  N5  1  0.86144867  0.86144867  0.41565399  1
