# generated using pymatgen
data_Pd13Pb9
_symmetry_space_group_name_H-M   'P 1'
_cell_length_a   9.26061100
_cell_length_b   9.26961967
_cell_length_c   12.63147527
_cell_angle_alpha   100.36024434
_cell_angle_beta   100.72701910
_cell_angle_gamma   119.97674082
_symmetry_Int_Tables_number   1
_chemical_formula_structural   Pd13Pb9
_chemical_formula_sum   'Pd26 Pb18'
_cell_volume   874.14685340
_cell_formula_units_Z   2
loop_
 _symmetry_equiv_pos_site_id
 _symmetry_equiv_pos_as_xyz
  1  'x, y, z'
loop_
 _atom_site_type_symbol
 _atom_site_label
 _atom_site_symmetry_multiplicity
 _atom_site_fract_x
 _atom_site_fract_y
 _atom_site_fract_z
 _atom_site_occupancy
  Pd  Pd0  1  0.76408005  0.99984457  0.50031979  1
  Pd  Pd1  1  0.98562018  0.24381388  0.00557267  1
  Pd  Pd2  1  0.25633657  0.84410661  0.85967983  1
  Pd  Pd3  1  0.49946391  0.76349833  0.99961486  1
  Pd  Pd4  1  0.77182086  0.84311470  0.86981771  1
  Pd  Pd5  1  0.50807315  0.59918337  0.37489492  1
  Pd  Pd6  1  0.50053609  0.23650167  0.00038514  1
  Pd  Pd7  1  0.97319241  0.40195816  0.63016078  1
  Pd  Pd8  1  0.98433125  0.89666959  0.64035972  1
  Pd  Pd9  1  0.77566812  0.36684907  0.87479757  1
  Pd  Pd10  1  0.22817914  0.15688530  0.13018229  1
  Pd  Pd11  1  0.49192685  0.40081663  0.62510508  1
  Pd  Pd12  1  0.12644079  0.87625228  0.24936087  1
  Pd  Pd13  1  0.76174226  0.52003954  0.50556333  1
  Pd  Pd14  1  0.62679851  0.37693348  0.25048716  1
  Pd  Pd15  1  0.01566875  0.10333041  0.35964028  1
  Pd  Pd16  1  0.02680759  0.59804184  0.36983922  1
  Pd  Pd17  1  0.37320149  0.62306652  0.74951284  1
  Pd  Pd18  1  0.23825774  0.47996046  0.49443667  1
  Pd  Pd19  1  0.62520908  0.87515932  0.25000905  1
  Pd  Pd20  1  0.23591995  0.00015543  0.49968021  1
  Pd  Pd21  1  0.87355921  0.12374772  0.75063913  1
  Pd  Pd22  1  0.74366343  0.15589339  0.14032017  1
  Pd  Pd23  1  0.01437982  0.75618612  0.99442733  1
  Pd  Pd24  1  0.37479092  0.12484068  0.74999095  1
  Pd  Pd25  1  0.22433188  0.63315093  0.12520243  1
  Pb  Pb26  1  0.80716603  0.25438846  0.38673805  1
  Pb  Pb27  1  0.13242009  0.07957520  0.88672723  1
  Pb  Pb28  1  0.61117026  0.74996811  0.61840960  1
  Pb  Pb29  1  0.38882974  0.25003189  0.38159040  1
  Pb  Pb30  1  0.13146672  0.49275486  0.88158558  1
  Pb  Pb31  1  0.85681234  0.77198552  0.38368870  1
  Pb  Pb32  1  0.54651829  0.49143336  0.87486572  1
  Pb  Pb33  1  0.12631900  0.37623011  0.25001884  1
  Pb  Pb34  1  0.86853328  0.50724514  0.11841442  1
  Pb  Pb35  1  0.38341871  0.82846038  0.37502346  1
  Pb  Pb36  1  0.38818003  0.97293803  0.11626798  1
  Pb  Pb37  1  0.14318766  0.22801448  0.61631130  1
  Pb  Pb38  1  0.45348171  0.50856664  0.12513428  1
  Pb  Pb39  1  0.86757991  0.92042480  0.11327277  1
  Pb  Pb40  1  0.61181997  0.02706197  0.88373202  1
  Pb  Pb41  1  0.19283397  0.74561154  0.61326195  1
  Pb  Pb42  1  0.61658129  0.17153962  0.62497654  1
  Pb  Pb43  1  0.87368100  0.62376989  0.74998116  1
