# generated using pymatgen
data_Li2Ni(PO3)4
_symmetry_space_group_name_H-M   'P 1'
_cell_length_a   8.51684035
_cell_length_b   8.51684036
_cell_length_c   7.64362288
_cell_angle_alpha   82.81575687
_cell_angle_beta   97.18424314
_cell_angle_gamma   66.02475835
_symmetry_Int_Tables_number   1
_chemical_formula_structural   Li2Ni(PO3)4
_chemical_formula_sum   'Li4 Ni2 P8 O24'
_cell_volume   493.07826311
_cell_formula_units_Z   2
loop_
 _symmetry_equiv_pos_site_id
 _symmetry_equiv_pos_as_xyz
  1  'x, y, z'
loop_
 _atom_site_type_symbol
 _atom_site_label
 _atom_site_symmetry_multiplicity
 _atom_site_fract_x
 _atom_site_fract_y
 _atom_site_fract_z
 _atom_site_occupancy
  Li  Li0  1  0.48376703  0.81539549  0.74998735  1
  Li  Li1  1  0.18460537  0.51623226  0.24998737  1
  Li  Li2  1  0.81539503  0.48376765  0.75001307  1
  Li  Li3  1  0.51623218  0.18460442  0.25001293  1
  O  O4  1  0.62372428  0.91874561  0.31235078  1
  O  O5  1  0.98269837  0.26983758  0.49242654  1
  O  O6  1  0.17256469  0.89487063  0.66879676  1
  O  O7  1  0.01730202  0.73016234  0.50757258  1
  O  O8  1  0.10512916  0.82743508  0.16879658  1
  O  O9  1  0.26983842  0.98269746  0.00757387  1
  O  O10  1  0.16443766  0.63087254  0.83963394  1
  O  O11  1  0.36912719  0.83556259  0.33963500  1
  O  O12  1  0.08125480  0.37627500  0.81235111  1
  O  O13  1  0.82743571  0.10512928  0.33120368  1
  O  O14  1  0.63469660  0.68363819  0.57103087  1
  O  O15  1  0.37074990  0.37075011  0.75000025  1
  O  O16  1  0.88992102  0.88992067  0.75000032  1
  O  O17  1  0.68363842  0.63469597  0.92896849  1
  O  O18  1  0.31636198  0.36530394  0.07103195  1
  O  O19  1  0.89487005  0.17256483  0.83120370  1
  O  O20  1  0.62924931  0.62924981  0.25000003  1
  O  O21  1  0.36530379  0.31636173  0.42896825  1
  O  O22  1  0.37627611  0.08125431  0.68764834  1
  O  O23  1  0.91874558  0.62372492  0.18764801  1
  O  O24  1  0.63087322  0.16443732  0.66036544  1
  O  O25  1  0.83556273  0.36912738  0.16036518  1
  O  O26  1  0.73016199  0.01730245  0.99242656  1
  O  O27  1  0.11007938  0.11007924  0.25000011  1
  P  P28  1  0.93654480  0.20717307  0.32752528  1
  P  P29  1  0.79282808  0.06345532  0.82752560  1
  P  P30  1  0.06345505  0.79282815  0.67247491  1
  P  P31  1  0.20717233  0.93654458  0.17247484  1
  P  P32  1  0.22803339  0.42451834  0.87728272  1
  P  P33  1  0.77196583  0.57548158  0.12271756  1
  P  P34  1  0.42451887  0.22803411  0.62271781  1
  P  P35  1  0.57548153  0.77196579  0.37728263  1
  Ni  Ni36  1  0.12802496  0.12802476  0.75000030  1
  Ni  Ni37  1  0.87197545  0.87197515  0.25000013  1
