# generated using pymatgen
data_Li7Mn2(CoO4)3
_symmetry_space_group_name_H-M   'P 1'
_cell_length_a   2.98379476
_cell_length_b   5.98858982
_cell_length_c   12.49897104
_cell_angle_alpha   103.15462587
_cell_angle_beta   89.10851516
_cell_angle_gamma   92.24890783
_symmetry_Int_Tables_number   1
_chemical_formula_structural   Li7Mn2(CoO4)3
_chemical_formula_sum   'Li7 Mn2 Co3 O12'
_cell_volume   217.30751674
_cell_formula_units_Z   1
loop_
 _symmetry_equiv_pos_site_id
 _symmetry_equiv_pos_as_xyz
  1  'x, y, z'
loop_
 _atom_site_type_symbol
 _atom_site_label
 _atom_site_symmetry_multiplicity
 _atom_site_fract_x
 _atom_site_fract_y
 _atom_site_fract_z
 _atom_site_occupancy
  Li  Li0  1  0.99847953  0.50135585  0.99805457  1
  Li  Li1  1  0.49780701  0.34824228  0.17652423  1
  Li  Li2  1  0.50424256  0.66537563  0.83026379  1
  Li  Li3  1  0.99531078  0.83004220  0.66449137  1
  Li  Li4  1  0.49844674  0.98729272  0.49275115  1
  Li  Li5  1  0.00720027  0.15557953  0.34000361  1
  Li  Li6  1  0.98802699  0.68290686  0.33867450  1
  Mn  Mn7  1  0.00083885  0.99842294  0.99834085  1
  Mn  Mn8  1  0.51031984  0.82907109  0.17360552  1
  Co  Co9  1  0.49756924  0.50641485  0.49300101  1
  Co  Co10  1  0.99747602  0.33210024  0.66257300  1
  Co  Co11  1  0.49404853  0.16883410  0.82971730  1
  O  O12  1  0.46020556  0.24039149  0.99400988  1
  O  O13  1  0.02129397  0.05286306  0.16280651  1
  O  O14  1  0.00495952  0.40572251  0.82412250  1
  O  O15  1  0.50526808  0.56330912  0.65298380  1
  O  O16  1  0.96417068  0.72908191  0.50130236  1
  O  O17  1  0.49890092  0.91344940  0.32314681  1
  O  O18  1  0.54305143  0.76345042  0.00808051  1
  O  O19  1  0.99649504  0.61297778  0.16833570  1
  O  O20  1  0.98465012  0.93205372  0.83745047  1
  O  O21  1  0.49181386  0.09605345  0.67278390  1
  O  O22  1  0.04042343  0.26397270  0.50668567  1
  O  O23  1  0.49900102  0.42103616  0.35029099  1
