# generated using pymatgen
data_Sr9Mg38
_symmetry_space_group_name_H-M   'P 1'
_cell_length_a   10.51816488
_cell_length_b   10.51816511
_cell_length_c   27.90024682
_cell_angle_alpha   90.00000000
_cell_angle_beta   90.00000000
_cell_angle_gamma   119.99999928
_symmetry_Int_Tables_number   1
_chemical_formula_structural   Sr9Mg38
_chemical_formula_sum   'Sr18 Mg76'
_cell_volume   2673.12112685
_cell_formula_units_Z   2
loop_
 _symmetry_equiv_pos_site_id
 _symmetry_equiv_pos_as_xyz
  1  'x, y, z'
loop_
 _atom_site_type_symbol
 _atom_site_label
 _atom_site_symmetry_multiplicity
 _atom_site_fract_x
 _atom_site_fract_y
 _atom_site_fract_z
 _atom_site_occupancy
  Mg  Mg0  1  0.00000000  0.00000000  0.15738525  1
  Mg  Mg1  1  0.00000000  0.00000000  0.65738525  1
  Mg  Mg2  1  0.00000000  0.00000000  0.84261475  1
  Mg  Mg3  1  0.00000000  0.00000000  0.34261475  1
  Mg  Mg4  1  0.33333333  0.66666667  0.04200483  1
  Mg  Mg5  1  0.66666667  0.33333333  0.54200483  1
  Mg  Mg6  1  0.66666667  0.33333333  0.95799517  1
  Mg  Mg7  1  0.33333333  0.66666667  0.45799517  1
  Mg  Mg8  1  0.33333333  0.66666667  0.15701272  1
  Mg  Mg9  1  0.66666667  0.33333333  0.65701272  1
  Mg  Mg10  1  0.66666667  0.33333333  0.84298728  1
  Mg  Mg11  1  0.33333333  0.66666667  0.34298728  1
  Mg  Mg12  1  0.33333333  0.66666667  0.65071698  1
  Mg  Mg13  1  0.66666667  0.33333333  0.15071698  1
  Mg  Mg14  1  0.66666667  0.33333333  0.34928302  1
  Mg  Mg15  1  0.33333333  0.66666667  0.84928302  1
  Mg  Mg16  1  0.50000000  0.00000000  0.00000000  1
  Mg  Mg17  1  0.50000000  0.50000000  0.50000000  1
  Mg  Mg18  1  0.00000000  0.50000000  0.50000000  1
  Mg  Mg19  1  0.00000000  0.50000000  0.00000000  1
  Mg  Mg20  1  0.50000000  0.50000000  0.00000000  1
  Mg  Mg21  1  0.50000000  0.00000000  0.50000000  1
  Mg  Mg22  1  0.90176190  0.80352381  0.25000000  1
  Mg  Mg23  1  0.09823810  0.90176190  0.75000000  1
  Mg  Mg24  1  0.80352381  0.90176190  0.75000000  1
  Mg  Mg25  1  0.19647619  0.09823810  0.25000000  1
  Mg  Mg26  1  0.90176190  0.09823810  0.25000000  1
  Mg  Mg27  1  0.09823810  0.19647619  0.75000000  1
  Mg  Mg28  1  0.23402808  0.46805615  0.55486914  1
  Mg  Mg29  1  0.76597192  0.23402808  0.05486914  1
  Mg  Mg30  1  0.46805615  0.23402808  0.05486914  1
  Mg  Mg31  1  0.53194385  0.76597192  0.55486914  1
  Mg  Mg32  1  0.23402808  0.76597192  0.55486914  1
  Mg  Mg33  1  0.76597192  0.53194385  0.44513086  1
  Mg  Mg34  1  0.76597192  0.23402808  0.44513086  1
  Mg  Mg35  1  0.76597192  0.53194385  0.05486914  1
  Mg  Mg36  1  0.46805615  0.23402808  0.44513086  1
  Mg  Mg37  1  0.53194385  0.76597192  0.94513086  1
  Mg  Mg38  1  0.23402808  0.46805615  0.94513086  1
  Mg  Mg39  1  0.23402808  0.76597192  0.94513086  1
  Mg  Mg40  1  0.50485279  0.00970558  0.61897694  1
  Mg  Mg41  1  0.49514721  0.50485279  0.11897694  1
  Mg  Mg42  1  0.00970558  0.50485279  0.11897694  1
  Mg  Mg43  1  0.99029442  0.49514721  0.61897694  1
  Mg  Mg44  1  0.50485279  0.49514721  0.61897694  1
  Mg  Mg45  1  0.49514721  0.99029442  0.38102306  1
  Mg  Mg46  1  0.49514721  0.50485279  0.38102306  1
  Mg  Mg47  1  0.49514721  0.99029442  0.11897694  1
  Mg  Mg48  1  0.00970558  0.50485279  0.38102306  1
  Mg  Mg49  1  0.99029442  0.49514721  0.88102306  1
  Mg  Mg50  1  0.50485279  0.00970558  0.88102306  1
  Mg  Mg51  1  0.50485279  0.49514721  0.88102306  1
  Mg  Mg52  1  0.16758882  0.33517765  0.65378184  1
  Mg  Mg53  1  0.83241118  0.16758882  0.15378184  1
  Mg  Mg54  1  0.33517765  0.16758882  0.15378184  1
  Mg  Mg55  1  0.66482235  0.83241118  0.65378184  1
  Mg  Mg56  1  0.16758882  0.83241118  0.65378184  1
  Mg  Mg57  1  0.83241118  0.66482235  0.34621816  1
  Mg  Mg58  1  0.83241118  0.16758882  0.34621816  1
  Mg  Mg59  1  0.83241118  0.66482235  0.15378184  1
  Mg  Mg60  1  0.33517765  0.16758882  0.34621816  1
  Mg  Mg61  1  0.66482235  0.83241118  0.84621816  1
  Mg  Mg62  1  0.16758882  0.33517765  0.84621816  1
  Mg  Mg63  1  0.16758882  0.83241118  0.84621816  1
  Mg  Mg64  1  0.16994728  0.33989455  0.18983017  1
  Mg  Mg65  1  0.83005272  0.16994728  0.68983017  1
  Mg  Mg66  1  0.33989455  0.16994728  0.68983017  1
  Mg  Mg67  1  0.66010545  0.83005272  0.18983017  1
  Mg  Mg68  1  0.16994728  0.83005272  0.18983017  1
  Mg  Mg69  1  0.83005272  0.66010545  0.81016983  1
  Mg  Mg70  1  0.83005272  0.16994728  0.81016983  1
  Mg  Mg71  1  0.83005272  0.66010545  0.68983017  1
  Mg  Mg72  1  0.33989455  0.16994728  0.81016983  1
  Mg  Mg73  1  0.66010545  0.83005272  0.31016983  1
  Mg  Mg74  1  0.16994728  0.33989455  0.31016983  1
  Mg  Mg75  1  0.16994728  0.83005272  0.31016983  1
  Sr  Sr76  1  0.52276516  0.04553031  0.25000000  1
  Sr  Sr77  1  0.47723484  0.52276516  0.75000000  1
  Sr  Sr78  1  0.04553031  0.52276516  0.75000000  1
  Sr  Sr79  1  0.95446969  0.47723484  0.25000000  1
  Sr  Sr80  1  0.52276516  0.47723484  0.25000000  1
  Sr  Sr81  1  0.47723484  0.95446969  0.75000000  1
  Sr  Sr82  1  0.13875959  0.27751917  0.06275307  1
  Sr  Sr83  1  0.86124041  0.13875959  0.56275307  1
  Sr  Sr84  1  0.27751917  0.13875959  0.56275307  1
  Sr  Sr85  1  0.72248083  0.86124041  0.06275307  1
  Sr  Sr86  1  0.13875959  0.86124041  0.06275307  1
  Sr  Sr87  1  0.86124041  0.72248083  0.93724693  1
  Sr  Sr88  1  0.86124041  0.13875959  0.93724693  1
  Sr  Sr89  1  0.86124041  0.72248083  0.56275307  1
  Sr  Sr90  1  0.27751917  0.13875959  0.93724693  1
  Sr  Sr91  1  0.72248083  0.86124041  0.43724693  1
  Sr  Sr92  1  0.13875959  0.27751917  0.43724693  1
  Sr  Sr93  1  0.13875959  0.86124041  0.43724693  1
