# generated using pymatgen
data_LiCr2P5O16
_symmetry_space_group_name_H-M   'P 1'
_cell_length_a   18.76352879
_cell_length_b   6.74031542
_cell_length_c   5.02639326
_cell_angle_alpha   90.00000000
_cell_angle_beta   89.85019767
_cell_angle_gamma   90.00000000
_symmetry_Int_Tables_number   1
_chemical_formula_structural   LiCr2P5O16
_chemical_formula_sum   'Li2 Cr4 P10 O32'
_cell_volume   635.69635061
_cell_formula_units_Z   2
loop_
 _symmetry_equiv_pos_site_id
 _symmetry_equiv_pos_as_xyz
  1  'x, y, z'
loop_
 _atom_site_type_symbol
 _atom_site_label
 _atom_site_symmetry_multiplicity
 _atom_site_fract_x
 _atom_site_fract_y
 _atom_site_fract_z
 _atom_site_occupancy
  Li  Li0  1  0.47439339  0.36941616  0.72639602  1
  Li  Li1  1  0.97439357  0.63058435  0.72639534  1
  O  O2  1  0.35980215  0.29936647  0.22367976  1
  O  O3  1  0.91788108  0.38231506  0.04957072  1
  O  O4  1  0.57759769  0.36515519  0.92548949  1
  O  O5  1  0.98731010  0.77372639  0.35575367  1
  O  O6  1  0.00918180  0.23061989  0.66205522  1
  O  O7  1  0.06775654  0.05683157  0.05225109  1
  O  O8  1  0.07759751  0.63484532  0.92548818  1
  O  O9  1  0.10928642  0.97532576  0.58081451  1
  O  O10  1  0.11784646  0.57044974  0.44901311  1
  O  O11  1  0.13632695  0.30335829  0.78843232  1
  O  O12  1  0.19507749  0.86484243  0.15304379  1
  O  O13  1  0.21180462  0.58982356  0.81272779  1
  O  O14  1  0.28832141  0.60216597  0.21986550  1
  O  O15  1  0.30481350  0.85621788  0.84794485  1
  O  O16  1  0.93033395  0.92535957  0.93849618  1
  O  O17  1  0.38915188  0.96351195  0.40530883  1
  O  O18  1  0.38981046  0.56134681  0.54818217  1
  O  O19  1  0.41788090  0.61768545  0.04957141  1
  O  O20  1  0.43033377  0.07464095  0.93849487  1
  O  O21  1  0.88915207  0.03648708  0.40530815  1
  O  O22  1  0.50918199  0.76938062  0.66205454  1
  O  O23  1  0.56775672  0.94316894  0.05225040  1
  O  O24  1  0.88981064  0.43865370  0.54818149  1
  O  O25  1  0.60928660  0.02467475  0.58081583  1
  O  O26  1  0.61784665  0.42955077  0.44901243  1
  O  O27  1  0.63632713  0.69664073  0.78843364  1
  O  O28  1  0.69507767  0.13515659  0.15304311  1
  O  O29  1  0.71180481  0.41017547  0.81272711  1
  O  O30  1  0.78832160  0.39783305  0.21986482  1
  O  O31  1  0.80481315  0.14378114  0.84794616  1
  O  O32  1  0.85980180  0.70063404  0.22368107  1
  O  O33  1  0.48730991  0.22627412  0.35575436  1
  P  P34  1  0.57640338  0.87262671  0.76683627  1
  P  P35  1  0.63111429  0.46626960  0.74040007  1
  P  P36  1  0.74984594  0.25384684  0.00638669  1
  P  P37  1  0.86885932  0.46822588  0.25917372  1
  P  P38  1  0.07640373  0.12737231  0.76683696  1
  P  P39  1  0.13111411  0.53373092  0.74039875  1
  P  P40  1  0.24984629  0.74615367  0.00638538  1
  P  P41  1  0.36885913  0.53177463  0.25917441  1
  P  P42  1  0.42102882  0.12554701  0.23397380  1
  P  P43  1  0.92102900  0.87445350  0.23397312  1
  Cr  Cr44  1  0.90770441  0.18147756  0.74577752  1
  Cr  Cr45  1  0.59252640  0.18054851  0.25287783  1
  Cr  Cr46  1  0.40770422  0.81852146  0.74577821  1
  Cr  Cr47  1  0.09252675  0.81945200  0.25287651  1
