# generated using pymatgen
data_LiMnP2O7
_symmetry_space_group_name_H-M   'P 1'
_cell_length_a   6.29679674
_cell_length_b   6.23967583
_cell_length_c   7.19173576
_cell_angle_alpha   111.12186380
_cell_angle_beta   97.50573915
_cell_angle_gamma   81.96386757
_symmetry_Int_Tables_number   1
_chemical_formula_structural   LiMnP2O7
_chemical_formula_sum   'Li2 Mn2 P4 O14'
_cell_volume   260.00416317
_cell_formula_units_Z   2
loop_
 _symmetry_equiv_pos_site_id
 _symmetry_equiv_pos_as_xyz
  1  'x, y, z'
loop_
 _atom_site_type_symbol
 _atom_site_label
 _atom_site_symmetry_multiplicity
 _atom_site_fract_x
 _atom_site_fract_y
 _atom_site_fract_z
 _atom_site_occupancy
  Li  Li0  1  0.01110128  0.70495139  0.15752793  1
  Li  Li1  1  0.98890023  0.29504954  0.84246465  1
  O  O2  1  0.30155136  0.21799454  0.75990504  1
  O  O3  1  0.94169554  0.61391021  0.86295615  1
  O  O4  1  0.03173779  0.93882197  0.75706255  1
  O  O5  1  0.05830805  0.38609037  0.13704007  1
  O  O6  1  0.20582043  0.36077178  0.47000646  1
  O  O7  1  0.96826067  0.06118082  0.24293630  1
  O  O8  1  0.34025663  0.05307154  0.15087078  1
  O  O9  1  0.39719154  0.60117590  0.78446197  1
  O  O10  1  0.40105893  0.76613674  0.44744427  1
  O  O11  1  0.79418927  0.63922415  0.52998725  1
  O  O12  1  0.60280417  0.39882120  0.21554301  1
  O  O13  1  0.65974168  0.94692225  0.84912030  1
  O  O14  1  0.69844448  0.78200249  0.24009490  1
  O  O15  1  0.59894653  0.23386564  0.55256615  1
  P  P16  1  0.86015651  0.78388177  0.76053388  1
  P  P17  1  0.60925831  0.65147468  0.35498001  1
  P  P18  1  0.13984282  0.21611728  0.23946217  1
  P  P19  1  0.39074104  0.34852382  0.64502343  1
  Mn  Mn20  1  0.35224565  0.90057461  0.75734193  1
  Mn  Mn21  1  0.64774892  0.09943874  0.24267325  1
