# generated using pymatgen
data_Sc3Co2Ge3
_symmetry_space_group_name_H-M   'P 1'
_cell_length_a   4.04154211
_cell_length_b   5.34826593
_cell_length_c   13.29105646
_cell_angle_alpha   90.00000000
_cell_angle_beta   90.00000000
_cell_angle_gamma   112.19974596
_symmetry_Int_Tables_number   1
_chemical_formula_structural   Sc3Co2Ge3
_chemical_formula_sum   'Sc6 Co4 Ge6'
_cell_volume   265.99328719
_cell_formula_units_Z   2
loop_
 _symmetry_equiv_pos_site_id
 _symmetry_equiv_pos_as_xyz
  1  'x, y, z'
loop_
 _atom_site_type_symbol
 _atom_site_label
 _atom_site_symmetry_multiplicity
 _atom_site_fract_x
 _atom_site_fract_y
 _atom_site_fract_z
 _atom_site_occupancy
  Sc  Sc0  1  0.42003357  0.84006714  0.88945092  1
  Sc  Sc1  1  0.57996643  0.15993286  0.11054908  1
  Sc  Sc2  1  0.57996643  0.15993286  0.38945092  1
  Sc  Sc3  1  0.42003357  0.84006714  0.61054908  1
  Sc  Sc4  1  0.14656878  0.29313756  0.75000000  1
  Sc  Sc5  1  0.85343122  0.70686244  0.25000000  1
  Co  Co6  1  0.70902716  0.41805432  0.90203542  1
  Co  Co7  1  0.29097284  0.58194568  0.09796458  1
  Co  Co8  1  0.29097284  0.58194568  0.40203542  1
  Co  Co9  1  0.70902716  0.41805432  0.59796458  1
  Ge  Ge10  1  0.12320395  0.24640791  0.96015417  1
  Ge  Ge11  1  0.87679605  0.75359209  0.03984583  1
  Ge  Ge12  1  0.87679605  0.75359209  0.46015417  1
  Ge  Ge13  1  0.12320395  0.24640791  0.53984583  1
  Ge  Ge14  1  0.84645262  0.69290525  0.75000000  1
  Ge  Ge15  1  0.15354738  0.30709475  0.25000000  1
