# generated using pymatgen
data_Li7Mn2(CoO4)3
_symmetry_space_group_name_H-M   'P 1'
_cell_length_a   2.92182687
_cell_length_b   5.08819692
_cell_length_c   14.79823830
_cell_angle_alpha   81.17998843
_cell_angle_beta   84.33440419
_cell_angle_gamma   90.00000397
_symmetry_Int_Tables_number   1
_chemical_formula_structural   Li7Mn2(CoO4)3
_chemical_formula_sum   'Li7 Mn2 Co3 O12'
_cell_volume   216.31370809
_cell_formula_units_Z   1
loop_
 _symmetry_equiv_pos_site_id
 _symmetry_equiv_pos_as_xyz
  1  'x, y, z'
loop_
 _atom_site_type_symbol
 _atom_site_label
 _atom_site_symmetry_multiplicity
 _atom_site_fract_x
 _atom_site_fract_y
 _atom_site_fract_z
 _atom_site_occupancy
  Li  Li0  1  0.74772149  0.74807346  0.50455703  1
  Li  Li1  1  0.58110857  0.91295790  0.83778185  1
  Li  Li2  1  0.42033306  0.08721595  0.15933488  1
  Li  Li3  1  0.07852140  0.42585290  0.84295620  1
  Li  Li4  1  0.92448460  0.57797842  0.15103181  1
  Li  Li5  1  0.24835401  0.25368843  0.50329198  1
  Li  Li6  1  0.50017691  0.49907271  0.99964618  1
  Mn  Mn7  1  -0.00004744  0.99924149  0.00009489  1
  Mn  Mn8  1  0.83341315  0.16689006  0.33317270  1
  Co  Co9  1  0.66626672  0.33385229  0.66746757  1
  Co  Co10  1  0.33340909  0.66641847  0.33318081  1
  Co  Co11  1  0.16627031  0.83421542  0.66746039  1
  O  O12  1  0.62835329  0.61250179  0.74329343  1
  O  O13  1  0.46251382  0.81173731  0.07497135  1
  O  O14  1  0.29565954  0.99262509  0.40868191  1
  O  O15  1  0.96071272  0.26771060  0.07857357  1
  O  O16  1  0.79678359  0.45436518  0.40643382  1
  O  O17  1  0.12921501  0.11566683  0.74156998  1
  O  O18  1  0.86874894  0.87803648  0.26250212  1
  O  O19  1  0.70572776  0.05167250  0.58854348  1
  O  O20  1  0.53650653  0.18356649  0.92698794  1
  O  O21  1  0.20629216  0.55375313  0.58741467  1
  O  O22  1  0.03882753  0.73171980  0.92234594  1
  O  O23  1  0.37064725  0.34118730  0.25870551  1
