# generated using pymatgen
data_H2S
_symmetry_space_group_name_H-M   'P 1'
_cell_length_a   5.45928477
_cell_length_b   6.16520737
_cell_length_c   6.09328581
_cell_angle_alpha   83.65908685
_cell_angle_beta   92.54746334
_cell_angle_gamma   91.78169759
_symmetry_Int_Tables_number   1
_chemical_formula_structural   H2S
_chemical_formula_sum   'H8 S4'
_cell_volume   203.55862451
_cell_formula_units_Z   4
loop_
 _symmetry_equiv_pos_site_id
 _symmetry_equiv_pos_as_xyz
  1  'x, y, z'
loop_
 _atom_site_type_symbol
 _atom_site_label
 _atom_site_symmetry_multiplicity
 _atom_site_fract_x
 _atom_site_fract_y
 _atom_site_fract_z
 _atom_site_occupancy
  H  H0  1  0.29718216  0.06898285  0.39522706  1
  H  H1  1  0.41595910  0.21374287  0.11191407  1
  H  H2  1  0.36959165  0.60492125  0.69942338  1
  H  H3  1  0.61191393  0.06636389  0.76452891  1
  H  H4  1  0.88645194  0.21454143  0.91263478  1
  H  H5  1  0.92565056  0.90817862  0.19219900  1
  H  H6  1  0.90147456  0.59334714  0.18529493  1
  H  H7  1  0.05176219  0.73392963  0.59977969  1
  S  S8  1  0.25715285  0.25810322  0.26423966  1
  S  S9  1  0.22498966  0.75839056  0.76403523  1
  S  S10  1  0.73796019  0.25890052  0.73024093  1
  S  S11  1  0.76191122  0.74659802  0.25648237  1
