# generated using pymatgen
data_V(PO3)3
_symmetry_space_group_name_H-M   'P 1'
_cell_length_a   8.55569175
_cell_length_b   8.59838316
_cell_length_c   8.71541211
_cell_angle_alpha   90.00000000
_cell_angle_beta   90.00000000
_cell_angle_gamma   90.00000000
_symmetry_Int_Tables_number   1
_chemical_formula_structural   V(PO3)3
_chemical_formula_sum   'V4 P12 O36'
_cell_volume   641.15030169
_cell_formula_units_Z   4
loop_
 _symmetry_equiv_pos_site_id
 _symmetry_equiv_pos_as_xyz
  1  'x, y, z'
loop_
 _atom_site_type_symbol
 _atom_site_label
 _atom_site_symmetry_multiplicity
 _atom_site_fract_x
 _atom_site_fract_y
 _atom_site_fract_z
 _atom_site_occupancy
  V  V0  1  0.12952908  0.14403268  0.15576059  1
  V  V1  1  0.87047092  0.64403268  0.34423941  1
  V  V2  1  0.37047092  0.85596732  0.65576059  1
  V  V3  1  0.62952908  0.35596732  0.84423941  1
  P  P4  1  0.70180649  0.30919741  0.44574472  1
  P  P5  1  0.31379734  0.48435377  0.68952180  1
  P  P6  1  0.29819351  0.80919741  0.05425528  1
  P  P7  1  0.53337605  0.82255725  0.31328470  1
  P  P8  1  0.46662395  0.32255725  0.18671530  1
  P  P9  1  0.79819351  0.69080259  0.94574472  1
  P  P10  1  0.20180649  0.19080259  0.55425528  1
  P  P11  1  0.18620266  0.51564623  0.18952180  1
  P  P12  1  0.96662395  0.17744275  0.81328470  1
  P  P13  1  0.68620266  0.98435377  0.81047820  1
  P  P14  1  0.81379734  0.01564623  0.31047820  1
  P  P15  1  0.03337605  0.67744275  0.68671530  1
  O  O16  1  0.95483899  0.71967402  0.84815654  1
  O  O17  1  0.30922092  0.08170630  0.63712292  1
  O  O18  1  0.09021817  0.12653639  0.92340630  1
  O  O19  1  0.13807985  0.80934336  0.64116776  1
  O  O20  1  0.63807985  0.69065664  0.35883224  1
  O  O21  1  0.34652740  0.84183103  0.89272827  1
  O  O22  1  0.86014257  0.03061488  0.75848866  1
  O  O23  1  0.86192015  0.30934336  0.85883224  1
  O  O24  1  0.45483899  0.78032598  0.15184346  1
  O  O25  1  0.40978183  0.87346361  0.42340630  1
  O  O26  1  0.60485026  0.90082329  0.68117642  1
  O  O27  1  0.39617687  0.62432598  0.62477147  1
  O  O28  1  0.10382313  0.37567402  0.12477147  1
  O  O29  1  0.59021817  0.37346361  0.07659370  1
  O  O30  1  0.13985743  0.53061488  0.74151134  1
  O  O31  1  0.72136830  0.86272150  0.94621820  1
  O  O32  1  0.36192015  0.19065664  0.14116776  1
  O  O33  1  0.10485026  0.59917671  0.31882358  1
  O  O34  1  0.89514974  0.09917671  0.18117642  1
  O  O35  1  0.77863170  0.13727850  0.44621820  1
  O  O36  1  0.60382313  0.12432598  0.87522853  1
  O  O37  1  0.15347260  0.15816897  0.39272827  1
  O  O38  1  0.89617687  0.87567402  0.37522853  1
  O  O39  1  0.63985743  0.96938512  0.25848866  1
  O  O40  1  0.80922092  0.41829370  0.36287708  1
  O  O41  1  0.90978183  0.62653639  0.57659370  1
  O  O42  1  0.84652740  0.65816897  0.10727173  1
  O  O43  1  0.39514974  0.40082329  0.81882358  1
  O  O44  1  0.65347260  0.34183103  0.60727173  1
  O  O45  1  0.19077908  0.91829370  0.13712292  1
  O  O46  1  0.27863170  0.36272150  0.55378180  1
  O  O47  1  0.22136830  0.63727850  0.05378180  1
  O  O48  1  0.04516101  0.21967402  0.65184346  1
  O  O49  1  0.36014257  0.46938512  0.24151234  1
  O  O50  1  0.69077908  0.58170630  0.86287708  1
  O  O51  1  0.54516101  0.28032598  0.34815654  1
