# generated using pymatgen
data_Co5SbO8
_symmetry_space_group_name_H-M   'P 1'
_cell_length_a   6.15240701
_cell_length_b   6.01237477
_cell_length_c   6.01237518
_cell_angle_alpha   60.00000328
_cell_angle_beta   60.75010342
_cell_angle_gamma   60.75010329
_symmetry_Int_Tables_number   1
_chemical_formula_structural   Co5SbO8
_chemical_formula_sum   'Co5 Sb1 O8'
_cell_volume   159.02089554
_cell_formula_units_Z   1
loop_
 _symmetry_equiv_pos_site_id
 _symmetry_equiv_pos_as_xyz
  1  'x, y, z'
loop_
 _atom_site_type_symbol
 _atom_site_label
 _atom_site_symmetry_multiplicity
 _atom_site_fract_x
 _atom_site_fract_y
 _atom_site_fract_z
 _atom_site_occupancy
  Co  Co0  1  0.09790884  0.13403039  0.13403039  1
  Co  Co1  1  0.50000000  0.50000000  0.50000000  1
  Co  Co2  1  0.50000000  0.50000000  0.00000000  1
  Co  Co3  1  0.50000000  0.00000000  0.50000000  1
  Co  Co4  1  0.90209116  0.86596961  0.86596961  1
  Sb  Sb5  1  0.00000000  0.50000000  0.50000000  1
  O  O6  1  0.24269065  0.26538174  0.26538174  1
  O  O7  1  0.24269065  0.72654587  0.26538174  1
  O  O8  1  0.24269065  0.26538174  0.72654587  1
  O  O9  1  0.70491567  0.26502811  0.26502811  1
  O  O10  1  0.29508433  0.73497189  0.73497189  1
  O  O11  1  0.75730935  0.27345413  0.73461826  1
  O  O12  1  0.75730935  0.73461826  0.27345413  1
  O  O13  1  0.75730935  0.73461826  0.73461826  1
