# generated using pymatgen
data_Li3V3(PO4)4
_symmetry_space_group_name_H-M   'P 1'
_cell_length_a   7.67040927
_cell_length_b   8.11389744
_cell_length_c   10.19882526
_cell_angle_alpha   90.00000000
_cell_angle_beta   94.28177121
_cell_angle_gamma   90.00000000
_symmetry_Int_Tables_number   1
_chemical_formula_structural   Li3V3(PO4)4
_chemical_formula_sum   'Li6 V6 P8 O32'
_cell_volume   632.97180395
_cell_formula_units_Z   2
loop_
 _symmetry_equiv_pos_site_id
 _symmetry_equiv_pos_as_xyz
  1  'x, y, z'
loop_
 _atom_site_type_symbol
 _atom_site_label
 _atom_site_symmetry_multiplicity
 _atom_site_fract_x
 _atom_site_fract_y
 _atom_site_fract_z
 _atom_site_occupancy
  Li  Li0  1  0.09173268  0.36881162  0.29623100  1
  Li  Li1  1  0.90245018  0.63327410  0.20130891  1
  Li  Li2  1  0.59754982  0.13327410  0.04869109  1
  Li  Li3  1  0.40826732  0.86881162  0.95376900  1
  Li  Li4  1  0.61138697  0.14140117  0.54708595  1
  Li  Li5  1  0.88861303  0.64140117  0.70291405  1
  V  V6  1  0.10721428  0.36047356  0.80266945  1
  V  V7  1  0.50851509  0.48850596  0.49548930  1
  V  V8  1  0.39278572  0.86047356  0.44733055  1
  V  V9  1  0.51362922  0.50532997  0.00043717  1
  V  V10  1  0.98637078  0.00532997  0.24956283  1
  V  V11  1  0.99148491  0.98850596  0.75451070  1
  P  P12  1  0.79956887  0.81176093  0.98358305  1
  P  P13  1  0.29984069  0.69734559  0.73120457  1
  P  P14  1  0.70186596  0.30142651  0.77107700  1
  P  P15  1  0.70043113  0.31176093  0.26641695  1
  P  P16  1  0.30143699  0.68502849  0.22423357  1
  P  P17  1  0.19856301  0.18502849  0.02576643  1
  P  P18  1  0.79813404  0.80142651  0.47892300  1
  P  P19  1  0.20015931  0.19734559  0.51879543  1
  O  O20  1  0.24690014  0.86487364  0.27689110  1
  O  O21  1  0.93161239  0.85830565  0.58992744  1
  O  O22  1  0.05710018  0.14618768  0.90824634  1
  O  O23  1  0.14927105  0.56987718  0.21709015  1
  O  O24  1  0.05690425  0.14063269  0.41583530  1
  O  O25  1  0.85135953  0.43036283  0.28148846  1
  O  O26  1  0.44309575  0.64063269  0.83416470  1
  O  O27  1  0.14517383  0.57501910  0.71913993  1
  O  O28  1  0.55722595  0.36376501  0.15735899  1
  O  O29  1  0.60544991  0.30441506  0.39892059  1
  O  O30  1  0.11973031  0.19631442  0.65856169  1
  O  O31  1  0.64864047  0.93036283  0.96851154  1
  O  O32  1  0.94277405  0.86376501  0.09264101  1
  O  O33  1  0.76439762  0.12783098  0.73054147  1
  O  O34  1  0.26347156  0.37057280  0.48325848  1
  O  O35  1  0.86317616  0.42146307  0.77994235  1
  O  O36  1  0.88519335  0.80901131  0.34758626  1
  O  O37  1  0.56838761  0.35830565  0.66007256  1
  O  O38  1  0.74488148  0.63325951  0.02123483  1
  O  O39  1  0.44289982  0.64618768  0.34175366  1
  O  O40  1  0.75511852  0.13325951  0.22876517  1
  O  O41  1  0.38026969  0.69631442  0.59143831  1
  O  O42  1  0.10592928  0.19474917  0.15441642  1
  O  O43  1  0.89455009  0.80441506  0.85107941  1
  O  O44  1  0.25309986  0.36487364  0.97310890  1
  O  O45  1  0.61480665  0.30901131  0.90241374  1
  O  O46  1  0.39407072  0.69474917  0.09558358  1
  O  O47  1  0.63682384  0.92146307  0.47005765  1
  O  O48  1  0.35482617  0.07501910  0.53086007  1
  O  O49  1  0.35072895  0.06987718  0.03290985  1
  O  O50  1  0.23652844  0.87057280  0.76674152  1
  O  O51  1  0.73560238  0.62783098  0.51945853  1
