# generated using pymatgen
data_La5TlS8
_symmetry_space_group_name_H-M   'P 1'
_cell_length_a   7.64522760
_cell_length_b   7.64522718
_cell_length_c   7.64522738
_cell_angle_alpha   109.04459125
_cell_angle_beta   110.32789068
_cell_angle_gamma   109.04458871
_symmetry_Int_Tables_number   1
_chemical_formula_structural   La5TlS8
_chemical_formula_sum   'La5 Tl1 S8'
_cell_volume   343.93501793
_cell_formula_units_Z   1
loop_
 _symmetry_equiv_pos_site_id
 _symmetry_equiv_pos_as_xyz
  1  'x, y, z'
loop_
 _atom_site_type_symbol
 _atom_site_label
 _atom_site_symmetry_multiplicity
 _atom_site_fract_x
 _atom_site_fract_y
 _atom_site_fract_z
 _atom_site_occupancy
  La  La0  1  0.24289550  0.63117339  0.37745321  1
  La  La1  1  0.37500000  0.25000000  0.62500000  1
  La  La2  1  0.62254679  0.36544229  0.25372018  1
  La  La3  1  0.74627982  0.86882661  0.11172211  1
  La  La4  1  0.88827789  0.13455771  0.75710450  1
  S  S5  1  0.99514223  0.85745429  0.48611917  1
  S  S6  1  0.99554042  0.33285161  0.48492061  1
  S  S7  1  0.51507939  0.01061981  0.84793101  1
  S  S8  1  0.15206899  0.16714839  0.16268881  1
  S  S9  1  0.36231207  0.49097695  0.00485777  1
  S  S10  1  0.62866488  0.64254571  0.63768793  1
  S  S11  1  0.51388083  0.00902305  0.37133512  1
  S  S12  1  0.83731119  0.48938019  0.00445958  1
  Tl  Tl13  1  0.12500000  0.75000000  0.87500000  1
