# generated using pymatgen
data_Al2FeO4
_symmetry_space_group_name_H-M   'P 1'
_cell_length_a   5.82652289
_cell_length_b   5.82373588
_cell_length_c   17.52531386
_cell_angle_alpha   60.08513334
_cell_angle_beta   60.01193729
_cell_angle_gamma   60.08063399
_symmetry_Int_Tables_number   1
_chemical_formula_structural   Al2FeO4
_chemical_formula_sum   'Al12 Fe6 O24'
_cell_volume   421.06014850
_cell_formula_units_Z   6
loop_
 _symmetry_equiv_pos_site_id
 _symmetry_equiv_pos_as_xyz
  1  'x, y, z'
loop_
 _atom_site_type_symbol
 _atom_site_label
 _atom_site_symmetry_multiplicity
 _atom_site_fract_x
 _atom_site_fract_y
 _atom_site_fract_z
 _atom_site_occupancy
  Al  Al0  1  0.49344342  0.49788212  0.16832429  1
  Al  Al1  1  0.50499272  0.99978979  0.49866626  1
  Al  Al2  1  0.49146111  0.00405904  0.16954150  1
  Al  Al3  1  0.50042458  0.49907207  0.33346900  1
  Al  Al4  1  -0.00027460  0.49790432  0.16816239  1
  Al  Al5  1  0.50472650  0.49871737  0.49886529  1
  Al  Al6  1  0.00571376  0.50118418  0.83149377  1
  Al  Al7  1  0.50224338  0.50135528  0.66460136  1
  Al  Al8  1  1.00414909  0.49832073  0.49967374  1
  Al  Al9  1  0.49675638  0.50048517  0.83213965  1
  Al  Al10  1  0.49873777  0.00584770  0.83184538  1
  Al  Al11  1  0.87732596  0.87779474  0.95531244  1
  Fe  Fe12  1  0.12150328  0.12656168  0.04327437  1
  Fe  Fe13  1  0.49899243  0.49595629  0.00223670  1
  Fe  Fe14  1  0.12607417  0.12183752  0.37660458  1
  Fe  Fe15  1  0.12467755  0.12607993  0.70786656  1
  Fe  Fe16  1  0.87858864  0.87975957  0.28764273  1
  Fe  Fe17  1  0.87505432  0.87279607  0.62568906  1
  O  O18  1  0.24282757  0.24465845  0.10088895  1
  O  O19  1  0.25595683  0.26680491  0.23828467  1
  O  O20  1  0.24833341  0.70860875  0.09695153  1
  O  O21  1  0.70699576  0.24432017  0.10082607  1
  O  O22  1  0.26772448  0.26275187  0.42295530  1
  O  O23  1  0.30069787  0.73127596  0.24528983  1
  O  O24  1  0.72841915  0.30412018  0.24447896  1
  O  O25  1  0.26995461  0.26171548  0.56800213  1
  O  O26  1  0.26792308  0.70015622  0.42303738  1
  O  O27  1  0.74733118  0.74884964  0.08400806  1
  O  O28  1  0.70434285  0.26560817  0.42152528  1
  O  O29  1  0.72941442  0.73398436  0.24423352  1
  O  O30  1  0.26733235  0.26985200  0.75337018  1
  O  O31  1  0.29874779  0.73514596  0.57730810  1
  O  O32  1  0.73795889  0.29503533  0.57795229  1
  O  O33  1  0.26477366  0.26566388  0.90119469  1
  O  O34  1  0.26959760  0.70338709  0.75254423  1
  O  O35  1  0.74036112  0.73334424  0.43119329  1
  O  O36  1  0.70209550  0.27006360  0.75350181  1
  O  O37  1  0.73694371  0.73298529  0.57828738  1
  O  O38  1  0.26070556  0.76186527  0.90587224  1
  O  O39  1  0.75748634  0.26313289  0.90750545  1
  O  O40  1  0.72879588  0.72875309  0.77040574  1
  O  O41  1  0.76068995  0.76251364  0.90497386  1
