# generated using pymatgen
data_Ce(TeO3)2
_symmetry_space_group_name_H-M   'P 1'
_cell_length_a   7.12645200
_cell_length_b   7.42035937
_cell_length_c   11.33018497
_cell_angle_alpha   90.00000000
_cell_angle_beta   90.00000000
_cell_angle_gamma   107.46503775
_symmetry_Int_Tables_number   1
_chemical_formula_structural   Ce(TeO3)2
_chemical_formula_sum   'Ce4 Te8 O24'
_cell_volume   571.52900185
_cell_formula_units_Z   4
loop_
 _symmetry_equiv_pos_site_id
 _symmetry_equiv_pos_as_xyz
  1  'x, y, z'
loop_
 _atom_site_type_symbol
 _atom_site_label
 _atom_site_symmetry_multiplicity
 _atom_site_fract_x
 _atom_site_fract_y
 _atom_site_fract_z
 _atom_site_occupancy
  O  O0  1  0.18568889  0.62418603  0.77571403  1
  O  O1  1  0.31431111  0.87581397  0.27571403  1
  O  O2  1  0.81431111  0.37581397  0.22428597  1
  O  O3  1  0.68568889  0.12418603  0.72428597  1
  O  O4  1  0.04631083  0.18246784  0.59746956  1
  O  O5  1  0.45368917  0.31753216  0.09746956  1
  O  O6  1  0.95368917  0.81753216  0.40253044  1
  O  O7  1  0.54631083  0.68246784  0.90253044  1
  O  O8  1  0.31750198  0.79592678  0.52201276  1
  O  O9  1  0.18249802  0.70407322  0.02201276  1
  O  O10  1  0.68249802  0.20407322  0.47798724  1
  O  O11  1  0.81750198  0.29592678  0.97798724  1
  O  O12  1  0.86068408  0.83498128  0.74677064  1
  O  O13  1  0.63931592  0.66501872  0.24677064  1
  O  O14  1  0.13931592  0.16501872  0.25322936  1
  O  O15  1  0.36068408  0.33498128  0.75322936  1
  O  O16  1  0.58449519  0.59046908  0.59845439  1
  O  O17  1  0.91550481  0.90953092  0.09845439  1
  O  O18  1  0.41550481  0.40953092  0.40154561  1
  O  O19  1  0.08449519  0.09046908  0.90154561  1
  O  O20  1  0.92780426  0.53980762  0.59760497  1
  O  O21  1  0.57219574  0.96019238  0.09760497  1
  O  O22  1  0.07219574  0.46019238  0.40239503  1
  O  O23  1  0.42780426  0.03980762  0.90239503  1
  Te  Te24  1  0.27297419  0.54072073  0.91857457  1
  Te  Te25  1  0.22702581  0.95927927  0.41857457  1
  Te  Te26  1  0.72702581  0.45927927  0.08142543  1
  Te  Te27  1  0.77297419  0.04072073  0.58142543  1
  Te  Te28  1  0.25818829  0.06911204  0.77638735  1
  Te  Te29  1  0.24181171  0.43088796  0.27638735  1
  Te  Te30  1  0.74181171  0.93088796  0.22361265  1
  Te  Te31  1  0.75818829  0.56911204  0.72361265  1
  Ce  Ce32  1  0.24009185  0.50148673  0.59139658  1
  Ce  Ce33  1  0.25990815  0.99851327  0.09139658  1
  Ce  Ce34  1  0.75990815  0.49851327  0.40860342  1
  Ce  Ce35  1  0.74009185  0.00148673  0.90860342  1
