# generated using pymatgen
data_K(OsO3)2
_symmetry_space_group_name_H-M   'P 1'
_cell_length_a   7.22766852
_cell_length_b   7.22766852
_cell_length_c   7.22766852
_cell_angle_alpha   59.99999998
_cell_angle_beta   60.00000001
_cell_angle_gamma   60.00000000
_symmetry_Int_Tables_number   1
_chemical_formula_structural   K(OsO3)2
_chemical_formula_sum   'K2 Os4 O12'
_cell_volume   266.98058558
_cell_formula_units_Z   2
loop_
 _symmetry_equiv_pos_site_id
 _symmetry_equiv_pos_as_xyz
  1  'x, y, z'
loop_
 _atom_site_type_symbol
 _atom_site_label
 _atom_site_symmetry_multiplicity
 _atom_site_fract_x
 _atom_site_fract_y
 _atom_site_fract_z
 _atom_site_occupancy
  O  O0  1  0.31566782  0.93433218  0.93433218  1
  O  O1  1  0.06566782  0.68433218  0.68433218  1
  O  O2  1  0.93433218  0.31566782  0.93433218  1
  O  O3  1  0.93433218  0.93433218  0.31566782  1
  O  O4  1  0.31566782  0.31566782  0.93433218  1
  O  O5  1  0.31566782  0.93433218  0.31566782  1
  O  O6  1  0.93433218  0.31566782  0.31566782  1
  O  O7  1  0.68433218  0.68433218  0.06566782  1
  O  O8  1  0.06566782  0.06566782  0.68433218  1
  O  O9  1  0.68433218  0.06566782  0.06566782  1
  O  O10  1  0.68433218  0.06566782  0.68433218  1
  O  O11  1  0.06566782  0.68433218  0.06566782  1
  K  K12  1  0.37500000  0.37500000  0.37500000  1
  K  K13  1  0.62500000  0.62500000  0.62500000  1
  Os  Os14  1  0.00000000  0.00000000  0.50000000  1
  Os  Os15  1  0.00000000  0.00000000  0.00000000  1
  Os  Os16  1  0.50000000  0.00000000  0.00000000  1
  Os  Os17  1  0.00000000  0.50000000  0.00000000  1
