# generated using pymatgen
data_Li11(NiO2)12
_symmetry_space_group_name_H-M   'P 1'
_cell_length_a   20.15478198
_cell_length_b   24.34394368
_cell_length_c   9.75054542
_cell_angle_alpha   15.59291730
_cell_angle_beta   28.90272177
_cell_angle_gamma   19.96132542
_symmetry_Int_Tables_number   1
_chemical_formula_structural   Li11(NiO2)12
_chemical_formula_sum   'Li11 Ni12 O24'
_cell_volume   415.07032392
_cell_formula_units_Z   1
loop_
 _symmetry_equiv_pos_site_id
 _symmetry_equiv_pos_as_xyz
  1  'x, y, z'
loop_
 _atom_site_type_symbol
 _atom_site_label
 _atom_site_symmetry_multiplicity
 _atom_site_fract_x
 _atom_site_fract_y
 _atom_site_fract_z
 _atom_site_occupancy
  Li  Li0  1  0.25081780  1.00000000  -0.00053907  1
  Li  Li1  1  0.08149485  0.32638514  0.01962718  1
  Li  Li2  1  0.50000000  0.00000000  0.00000000  1
  Li  Li3  1  0.32573196  0.34853507  0.97719689  1
  Li  Li4  1  0.74918220  0.00000000  1.00053907  1
  Li  Li5  1  0.16954415  0.66091269  1.00863146  1
  Li  Li6  1  0.59211901  0.32638514  1.00121640  1
  Li  Li7  1  0.40788099  0.67361486  -0.00121640  1
  Li  Li8  1  0.83045585  0.33908731  -0.00863146  1
  Li  Li9  1  0.67426804  0.65146493  0.02280311  1
  Li  Li10  1  0.91850515  0.67361486  0.98037282  1
  Ni  Ni11  1  0.12471290  0.00000000  0.49887573  1
  Ni  Ni12  1  0.37656390  0.00000000  0.49552288  1
  Ni  Ni13  1  0.21067199  0.33131390  0.50217300  1
  Ni  Ni14  1  0.62343610  1.00000000  0.50447712  1
  Ni  Ni15  1  0.04054447  0.66692793  0.50199884  1
  Ni  Ni16  1  0.45801311  0.33131390  0.50388429  1
  Ni  Ni17  1  0.87528710  1.00000000  0.50112427  1
  Ni  Ni18  1  0.29252860  0.66692793  0.49721836  1
  Ni  Ni19  1  0.70747140  0.33307207  0.50278164  1
  Ni  Ni20  1  0.54198689  0.66868610  0.49611571  1
  Ni  Ni21  1  0.95945553  0.33307207  0.49800116  1
  Ni  Ni22  1  0.78932801  0.66868610  0.49782700  1
  O  O23  1  0.06979826  0.00000000  0.22212529  1
  O  O24  1  0.31806402  0.00000000  0.22248179  1
  O  O25  1  0.13975488  0.33695407  0.23682441  1
  O  O26  1  0.55330896  1.00000000  0.25644003  1
  O  O27  1  0.02696545  0.34193154  0.72589029  1
  O  O28  1  0.39046749  0.33040004  0.25712921  1
  O  O29  1  0.79679552  1.00000000  0.26955425  1
  O  O30  1  0.27913146  0.33040004  0.75166967  1
  O  O31  1  0.23642889  0.64141194  0.27806705  1
  O  O32  1  0.63110202  0.34193154  0.24831409  1
  O  O33  1  0.12216017  0.64141194  0.79769812  1
  O  O34  1  0.52329005  0.33695407  0.75231238  1
  O  O35  1  0.47670995  0.66304593  0.24768762  1
  O  O36  1  0.87783983  0.35858806  0.20230188  1
  O  O37  1  0.36889798  0.65806846  0.75168591  1
  O  O38  1  0.76357111  0.35858806  0.72193295  1
  O  O39  1  0.72086854  0.66959996  0.24833033  1
  O  O40  1  0.20320448  0.00000000  0.73044575  1
  O  O41  1  0.60953251  0.66959996  0.74287079  1
  O  O42  1  0.97303455  0.65806846  0.27410971  1
  O  O43  1  0.44669104  0.00000000  0.74355997  1
  O  O44  1  0.86024512  0.66304593  0.76317559  1
  O  O45  1  0.68193598  1.00000000  0.77751821  1
  O  O46  1  0.93020174  1.00000000  0.77787471  1
