# generated using pymatgen
data_LiCoP2O7
_symmetry_space_group_name_H-M   'P 1'
_cell_length_a   6.29758971
_cell_length_b   6.29793511
_cell_length_c   13.17852025
_cell_angle_alpha   79.08893094
_cell_angle_beta   78.07060399
_cell_angle_gamma   99.88471621
_symmetry_Int_Tables_number   1
_chemical_formula_structural   LiCoP2O7
_chemical_formula_sum   'Li4 Co4 P8 O28'
_cell_volume   489.91440221
_cell_formula_units_Z   4
loop_
 _symmetry_equiv_pos_site_id
 _symmetry_equiv_pos_as_xyz
  1  'x, y, z'
loop_
 _atom_site_type_symbol
 _atom_site_label
 _atom_site_symmetry_multiplicity
 _atom_site_fract_x
 _atom_site_fract_y
 _atom_site_fract_z
 _atom_site_occupancy
  Li  Li0  1  0.41169668  0.00674892  0.35213339  1
  Li  Li1  1  0.58830184  0.99324923  0.64786706  1
  Li  Li2  1  0.85878891  0.76393270  0.14783499  1
  Li  Li3  1  0.14121000  0.23606726  0.85216546  1
  O  O4  1  0.30462162  0.61425946  0.47747383  1
  O  O5  1  0.78887074  0.18384730  0.87278902  1
  O  O6  1  0.72802899  0.06757752  0.37910799  1
  O  O7  1  0.94675789  0.10723416  0.12083967  1
  O  O8  1  0.05324316  0.89276390  0.87915937  1
  O  O9  1  0.27197148  0.93242045  0.62089321  1
  O  O10  1  0.21113068  0.81615615  0.12720801  1
  O  O11  1  0.46096427  0.90878608  0.81263597  1
  O  O12  1  0.08269420  0.45621561  0.35647583  1
  O  O13  1  0.17888121  0.57209539  0.80324353  1
  O  O14  1  0.23030186  0.61767062  0.97796033  1
  O  O15  1  0.77854803  0.72634001  0.31260664  1
  O  O16  1  0.59178024  0.78207616  0.02250509  1
  O  O17  1  0.31278653  0.43915718  0.14356026  1
  O  O18  1  0.09565244  0.20823312  0.52208864  1
  O  O19  1  0.91730718  0.54378589  0.64352580  1
  O  O20  1  0.87538575  0.98216560  0.69682398  1
  O  O21  1  0.22145157  0.27365963  0.68739469  1
  O  O22  1  0.53903443  0.09121420  0.18736262  1
  O  O23  1  0.12461612  0.01783350  0.30317567  1
  O  O24  1  0.44338265  0.33829285  0.37277765  1
  O  O25  1  0.90434791  0.79176752  0.47791314  1
  O  O26  1  0.68721449  0.56084310  0.85643829  1
  O  O27  1  0.40822589  0.21792776  0.97749149  1
  O  O28  1  0.69537948  0.38574614  0.52252962  1
  O  O29  1  0.76970037  0.38232973  0.02203779  1
  O  O30  1  0.82111798  0.42790253  0.19675472  1
  O  O31  1  0.55661557  0.66170742  0.62722485  1
  P  P32  1  0.88266154  0.90769144  0.36202424  1
  P  P33  1  0.11733532  0.09230784  0.63797670  1
  P  P34  1  0.75768815  0.58265403  0.57124901  1
  P  P35  1  0.65387181  0.32900816  0.92873199  1
  P  P36  1  0.23021638  0.75526556  0.86207991  1
  P  P37  1  0.34612475  0.67099111  0.07126630  1
  P  P38  1  0.24230985  0.41734062  0.42875080  1
  P  P39  1  0.76978382  0.24473807  0.13791914  1
  Co  Co40  1  0.77262478  0.40314253  0.35802308  1
  Co  Co41  1  0.26123084  0.13059118  0.14194536  1
  Co  Co42  1  0.73877045  0.86940896  0.85805343  1
  Co  Co43  1  0.22737416  0.59685641  0.64197745  1
