# generated using pymatgen
data_SrAl2O4
_symmetry_space_group_name_H-M   'P 1'
_cell_length_a   5.19050273
_cell_length_b   5.19050374
_cell_length_c   25.38105409
_cell_angle_alpha   90.00000000
_cell_angle_beta   90.00000000
_cell_angle_gamma   120.00000034
_symmetry_Int_Tables_number   1
_chemical_formula_structural   SrAl2O4
_chemical_formula_sum   'Sr6 Al12 O24'
_cell_volume   592.18747446
_cell_formula_units_Z   6
loop_
 _symmetry_equiv_pos_site_id
 _symmetry_equiv_pos_as_xyz
  1  'x, y, z'
loop_
 _atom_site_type_symbol
 _atom_site_label
 _atom_site_symmetry_multiplicity
 _atom_site_fract_x
 _atom_site_fract_y
 _atom_site_fract_z
 _atom_site_occupancy
  Sr  Sr0  1  0.99770606  0.99541212  0.41666700  1
  Sr  Sr1  1  0.00229394  0.00458788  0.91666700  1
  Sr  Sr2  1  0.00458788  0.00229394  0.75000000  1
  Sr  Sr3  1  0.99770606  0.00229394  0.08333300  1
  Sr  Sr4  1  0.99541212  0.99770606  0.25000000  1
  Sr  Sr5  1  0.00229394  0.99770606  0.58333300  1
  Al  Al6  1  0.34983481  0.64214368  0.01796919  1
  Al  Al7  1  0.34983481  0.70769112  0.48203081  1
  Al  Al8  1  0.35785632  0.70769112  0.35130219  1
  Al  Al9  1  0.29230888  0.64214368  0.81536481  1
  Al  Al10  1  0.29230888  0.65016519  0.68463519  1
  Al  Al11  1  0.35785632  0.65016519  0.14869781  1
  Al  Al12  1  0.70769112  0.35785632  0.31536481  1
  Al  Al13  1  0.64214368  0.34983481  0.64869781  1
  Al  Al14  1  0.65016519  0.29230888  0.98203081  1
  Al  Al15  1  0.64214368  0.29230888  0.85130219  1
  Al  Al16  1  0.70769112  0.34983481  0.18463519  1
  Al  Al17  1  0.65016519  0.35785632  0.51796919  1
  O  O18  1  0.84508544  0.42254272  0.25000000  1
  O  O19  1  0.57745728  0.15491456  0.91666700  1
  O  O20  1  0.57745728  0.42254272  0.58333300  1
  O  O21  1  0.63731172  0.00840845  0.51781992  1
  O  O22  1  0.62890327  0.99159155  0.81551308  1
  O  O23  1  0.37109673  0.36268828  0.18448692  1
  O  O24  1  0.36268828  0.37109673  0.48218008  1
  O  O25  1  0.34042794  0.34042794  0.83333300  1
  O  O26  1  0.63731172  0.62890327  0.98218008  1
  O  O27  1  0.65957206  0.65957206  0.33333300  1
  O  O28  1  0.62890327  0.63731172  0.68448692  1
  O  O29  1  0.36268828  0.99159155  0.01781992  1
  O  O30  1  0.37109673  0.00840845  0.31551308  1
  O  O31  1  0.34042794  0.00000000  0.66666700  1
  O  O32  1  0.42254272  0.57745728  0.08333300  1
  O  O33  1  0.42254272  0.84508544  0.41666700  1
  O  O34  1  0.15491456  0.57745728  0.75000000  1
  O  O35  1  0.65957206  1.00000000  0.16666700  1
  O  O36  1  0.00840845  0.63731172  0.14884708  1
  O  O37  1  0.00000000  0.65957206  0.50000000  1
  O  O38  1  0.99159155  0.62890327  0.85115292  1
  O  O39  1  1.00000000  0.34042794  0.00000000  1
  O  O40  1  0.00840845  0.37109673  0.35115292  1
  O  O41  1  0.99159155  0.36268828  0.64884708  1
