# generated using pymatgen
data_Zr2AlC
_symmetry_space_group_name_H-M   'P 1'
_cell_length_a   3.33035770
_cell_length_b   3.33035771
_cell_length_c   14.61432391
_cell_angle_alpha   90.00000000
_cell_angle_beta   90.00000000
_cell_angle_gamma   119.99999993
_symmetry_Int_Tables_number   1
_chemical_formula_structural   Zr2AlC
_chemical_formula_sum   'Zr4 Al2 C2'
_cell_volume   140.37543829
_cell_formula_units_Z   2
loop_
 _symmetry_equiv_pos_site_id
 _symmetry_equiv_pos_as_xyz
  1  'x, y, z'
loop_
 _atom_site_type_symbol
 _atom_site_label
 _atom_site_symmetry_multiplicity
 _atom_site_fract_x
 _atom_site_fract_y
 _atom_site_fract_z
 _atom_site_occupancy
  C  C0  1  0.00000000  0.00000000  0.00000000  1
  C  C1  1  0.00000000  0.00000000  0.50000000  1
  Al  Al2  1  0.33333333  0.66666667  0.75000000  1
  Al  Al3  1  0.66666667  0.33333333  0.25000000  1
  Zr  Zr4  1  0.33333333  0.66666667  0.08677932  1
  Zr  Zr5  1  0.66666667  0.33333333  0.58677932  1
  Zr  Zr6  1  0.66666667  0.33333333  0.91322068  1
  Zr  Zr7  1  0.33333333  0.66666667  0.41322068  1
