# generated using pymatgen
data_Li7Mn2(CoO4)3
_symmetry_space_group_name_H-M   'P 1'
_cell_length_a   2.89468699
_cell_length_b   14.78962888
_cell_length_c   5.14052944
_cell_angle_alpha   100.15271576
_cell_angle_beta   90.00000000
_cell_angle_gamma   84.38392856
_symmetry_Int_Tables_number   1
_chemical_formula_structural   Li7Mn2(CoO4)3
_chemical_formula_sum   'Li7 Mn2 Co3 O12'
_cell_volume   215.55371465
_cell_formula_units_Z   1
loop_
 _symmetry_equiv_pos_site_id
 _symmetry_equiv_pos_as_xyz
  1  'x, y, z'
loop_
 _atom_site_type_symbol
 _atom_site_label
 _atom_site_symmetry_multiplicity
 _atom_site_fract_x
 _atom_site_fract_y
 _atom_site_fract_z
 _atom_site_occupancy
  Li  Li0  1  0.40949327  0.18101447  0.27555505  1
  Li  Li1  1  0.25456578  0.49086843  0.72725179  1
  Li  Li2  1  0.08583085  0.82833730  0.24972952  1
  Li  Li3  1  0.91205745  0.17588610  0.76113559  1
  Li  Li4  1  0.75224777  0.49550446  0.24041490  1
  Li  Li5  1  0.58547304  0.82905291  0.74824237  1
  Li  Li6  1  0.83305484  0.33388933  0.50043228  1
  Mn  Mn7  1  0.00016731  -0.00033461  0.00357620  1
  Mn  Mn8  1  0.33310838  0.33378225  -0.00116782  1
  Co  Co9  1  0.66713009  0.66574081  0.99761216  1
  Co  Co10  1  0.49945781  0.00108438  0.50330460  1
  Co  Co11  1  0.16721002  0.66558096  0.49802692  1
  O  O12  1  0.46255135  0.07489830  0.90315317  1
  O  O13  1  0.29424393  0.41151215  0.34017007  1
  O  O14  1  0.12799162  0.74401575  0.87732859  1
  O  O15  1  0.96397743  0.07204613  0.35955882  1
  O  O16  1  0.79677184  0.40645632  0.88371468  1
  O  O17  1  0.62743896  0.74512107  0.37871742  1
  O  O18  1  0.37352774  0.25294551  0.65611045  1
  O  O19  1  0.20411297  0.59177407  0.11744642  1
  O  O20  1  0.03633541  0.92732817  0.64279485  1
  O  O21  1  0.87017090  0.25965921  0.11466211  1
  O  O22  1  0.70481924  0.59036152  0.61780902  1
  O  O23  1  0.53826199  0.92347501  0.10442084  1
