# generated using pymatgen
data_LiAlPO4F
_symmetry_space_group_name_H-M   'P 1'
_cell_length_a   5.12813083
_cell_length_b   5.19306710
_cell_length_c   6.98165508
_cell_angle_alpha   107.48869434
_cell_angle_beta   108.18684636
_cell_angle_gamma   97.97912578
_symmetry_Int_Tables_number   1
_chemical_formula_structural   LiAlPO4F
_chemical_formula_sum   'Li2 Al2 P2 O8 F2'
_cell_volume   162.82784347
_cell_formula_units_Z   2
loop_
 _symmetry_equiv_pos_site_id
 _symmetry_equiv_pos_as_xyz
  1  'x, y, z'
loop_
 _atom_site_type_symbol
 _atom_site_label
 _atom_site_symmetry_multiplicity
 _atom_site_fract_x
 _atom_site_fract_y
 _atom_site_fract_z
 _atom_site_occupancy
  Al  Al0  1  0.00000000  0.00000000  0.50000000  1
  Al  Al1  1  0.00000000  0.00000000  0.00000000  1
  F  F2  1  0.09696310  0.93427828  0.25716289  1
  F  F3  1  0.90303690  0.06572172  0.74283711  1
  Li  Li4  1  0.26803697  0.62033171  0.23676248  1
  Li  Li5  1  0.73196303  0.37966829  0.76323752  1
  O  O6  1  0.12894001  0.68273890  0.88592632  1
  O  O7  1  0.24747362  0.78173746  0.58291312  1
  O  O8  1  0.30081675  0.32798068  0.64710521  1
  O  O9  1  0.64190336  0.76048972  0.90246926  1
  O  O10  1  0.35809664  0.23951028  0.09753074  1
  O  O11  1  0.69918325  0.67201932  0.35289479  1
  O  O12  1  0.75252638  0.21826254  0.41708688  1
  O  O13  1  0.87105999  0.31726110  0.11407368  1
  P  P14  1  0.32560866  0.64382681  0.75339475  1
  P  P15  1  0.67439134  0.35617319  0.24660525  1
