# generated using pymatgen
data_Ge(PbS2)2
_symmetry_space_group_name_H-M   'P 1'
_cell_length_a   12.51248375
_cell_length_b   12.51248344
_cell_length_c   12.51248336
_cell_angle_alpha   110.09673331
_cell_angle_beta   110.09673283
_cell_angle_gamma   108.22731313
_symmetry_Int_Tables_number   1
_chemical_formula_structural   Ge(PbS2)2
_chemical_formula_sum   'Ge8 Pb16 S32'
_cell_volume   1507.49370621
_cell_formula_units_Z   8
loop_
 _symmetry_equiv_pos_site_id
 _symmetry_equiv_pos_as_xyz
  1  'x, y, z'
loop_
 _atom_site_type_symbol
 _atom_site_label
 _atom_site_symmetry_multiplicity
 _atom_site_fract_x
 _atom_site_fract_y
 _atom_site_fract_z
 _atom_site_occupancy
  Ge  Ge0  1  0.99583022  0.44577728  0.50199084  1
  Ge  Ge1  1  0.50616062  0.00416978  0.94994706  1
  Ge  Ge2  1  0.05621356  0.05422272  0.05005294  1
  Ge  Ge3  1  0.50416978  0.00616062  0.44994706  1
  Ge  Ge4  1  0.55422272  0.55621356  0.55005294  1
  Ge  Ge5  1  0.44378644  0.49383938  0.99800916  1
  Ge  Ge6  1  0.94577728  0.49583022  0.00199084  1
  Ge  Ge7  1  0.99383938  0.94378644  0.49800916  1
  Pb  Pb8  1  0.01893698  0.26893698  0.75000000  1
  Pb  Pb9  1  0.25000000  0.77030862  0.52030862  1
  Pb  Pb10  1  0.25000000  0.08517884  0.83517884  1
  Pb  Pb11  1  0.22969138  0.25000000  0.47969138  1
  Pb  Pb12  1  0.25000000  0.47969527  0.22969527  1
  Pb  Pb13  1  0.27030862  0.75000000  0.02030862  1
  Pb  Pb14  1  0.73106302  0.98106302  0.75000000  1
  Pb  Pb15  1  0.75000000  0.72969138  0.97969138  1
  Pb  Pb16  1  0.52030473  0.25000000  0.77030473  1
  Pb  Pb17  1  0.58517884  0.75000000  0.33517884  1
  Pb  Pb18  1  0.48106302  0.23106302  0.25000000  1
  Pb  Pb19  1  0.75000000  0.41482116  0.66482116  1
  Pb  Pb20  1  0.97969527  0.75000000  0.72969527  1
  Pb  Pb21  1  0.76893698  0.51893698  0.25000000  1
  Pb  Pb22  1  0.75000000  0.02030473  0.27030473  1
  Pb  Pb23  1  0.91482116  0.25000000  0.16482116  1
  S  S24  1  0.00143500  0.62831555  0.50138242  1
  S  S25  1  0.02550040  0.47648098  0.69858928  1
  S  S26  1  0.19659175  0.97986463  0.55068829  1
  S  S27  1  0.30340825  0.85409654  0.78327288  1
  S  S28  1  0.14590346  0.42917634  0.44931171  1
  S  S29  1  0.27789170  0.32691111  0.80141072  1
  S  S30  1  0.02013537  0.07082366  0.21672712  1
  S  S31  1  0.12831555  0.50143500  0.00138242  1
  S  S32  1  0.35409654  0.80340825  0.28327288  1
  S  S33  1  0.05667500  0.22042167  0.01695296  1
  S  S34  1  0.67308889  0.97449960  0.95098059  1
  S  S35  1  0.52351902  0.72210830  0.54901941  1
  S  S36  1  0.37168445  0.37306687  0.37311945  1
  S  S37  1  0.53972203  0.20346871  0.98304704  1
  S  S38  1  0.57082366  0.52013537  0.71672712  1
  S  S39  1  0.22210830  0.02351902  0.04901941  1
  S  S40  1  0.44332500  0.46027797  0.16374668  1
  S  S41  1  0.47986463  0.69659175  0.05068829  1
  S  S42  1  0.47449960  0.17308889  0.45098059  1
  S  S43  1  0.49856500  -0.00005258  0.62688055  1
  S  S44  1  0.87306687  0.87168445  0.87311945  1
  S  S45  1  0.72042167  0.55667500  0.51695296  1
  S  S46  1  0.77957833  0.29653129  0.83625332  1
  S  S47  1  0.92917634  0.64590346  0.94931171  1
  S  S48  1  0.96027797  0.94332500  0.66374668  1
  S  S49  1  0.49994742  0.99856500  0.12688055  1
  S  S50  1  0.62693313  0.50005258  0.99861758  1
  S  S51  1  0.82691111  0.77789170  0.30141072  1
  S  S52  1  0.70346871  0.03972203  0.48304704  1
  S  S53  1  0.79653129  0.27957833  0.33625332  1
  S  S54  1  0.97648098  0.52550040  0.19858928  1
  S  S55  1  1.00005258  0.12693313  0.49861758  1
