# generated using pymatgen
data_Li7Mn2(CoO4)3
_symmetry_space_group_name_H-M   'P 1'
_cell_length_a   2.90535563
_cell_length_b   5.14910198
_cell_length_c   14.55986166
_cell_angle_alpha   90.05228027
_cell_angle_beta   90.00000000
_cell_angle_gamma   90.00000000
_symmetry_Int_Tables_number   1
_chemical_formula_structural   Li7Mn2(CoO4)3
_chemical_formula_sum   'Li7 Mn2 Co3 O12'
_cell_volume   217.81503833
_cell_formula_units_Z   1
loop_
 _symmetry_equiv_pos_site_id
 _symmetry_equiv_pos_as_xyz
  1  'x, y, z'
loop_
 _atom_site_type_symbol
 _atom_site_label
 _atom_site_symmetry_multiplicity
 _atom_site_fract_x
 _atom_site_fract_y
 _atom_site_fract_z
 _atom_site_occupancy
  Li  Li0  1  0.50000000  0.17305086  0.17543770  1
  Li  Li1  1  0.50000000  0.49148191  0.49470672  1
  Li  Li2  1  0.50000000  0.83378031  0.82850157  1
  Li  Li3  1  0.00000000  0.69469836  0.18651438  1
  Li  Li4  1  0.00000000  0.97608942  0.48952013  1
  Li  Li5  1  0.00000000  0.33431576  0.82726413  1
  Li  Li6  1  0.50000000  0.83488248  0.33450391  1
  Mn  Mn7  1  0.00000000  0.00259539  -0.00004154  1
  Mn  Mn8  1  0.00000000  0.33273547  0.33395463  1
  Co  Co9  1  -0.00000000  0.66428088  0.66540509  1
  Co  Co10  1  0.50000000  0.50312421  0.00036831  1
  Co  Co11  1  0.50000000  0.16348412  0.66523608  1
  O  O12  1  0.50000000  0.86354314  0.07502566  1
  O  O13  1  0.50000000  0.18212538  0.40622158  1
  O  O14  1  0.50000000  0.50481401  0.74479933  1
  O  O15  1  0.00000000  0.32400476  0.06956862  1
  O  O16  1  0.00000000  0.63495455  0.41134106  1
  O  O17  1  0.00000000  0.00436814  0.74369089  1
  O  O18  1  0.50000000  0.48705379  0.25892641  1
  O  O19  1  0.50000000  0.82146900  0.59037776  1
  O  O20  1  0.50000000  0.14109647  0.92393974  1
  O  O21  1  0.00000000  0.03058982  0.25523998  1
  O  O22  1  -0.00000000  0.32075233  0.59193277  1
  O  O23  1  -0.00000000  0.68070945  0.92756507  1
