# generated using pymatgen
data_CeH14Cl3O7
_symmetry_space_group_name_H-M   'P 1'
_cell_length_a   7.95464415
_cell_length_b   8.26213792
_cell_length_c   9.36182553
_cell_angle_alpha   69.73603413
_cell_angle_beta   73.52816433
_cell_angle_gamma   81.44288253
_symmetry_Int_Tables_number   1
_chemical_formula_structural   CeH14Cl3O7
_chemical_formula_sum   'Ce2 H28 Cl6 O14'
_cell_volume   552.63501529
_cell_formula_units_Z   2
loop_
 _symmetry_equiv_pos_site_id
 _symmetry_equiv_pos_as_xyz
  1  'x, y, z'
loop_
 _atom_site_type_symbol
 _atom_site_label
 _atom_site_symmetry_multiplicity
 _atom_site_fract_x
 _atom_site_fract_y
 _atom_site_fract_z
 _atom_site_occupancy
  Ce  Ce0  1  0.21668725  0.18347086  0.82392955  1
  Ce  Ce1  1  0.78331275  0.81652914  0.17607045  1
  Cl  Cl2  1  0.14348850  0.82052821  0.98702186  1
  Cl  Cl3  1  0.85651150  0.17947179  0.01297814  1
  Cl  Cl4  1  0.78764720  0.22276871  0.46059896  1
  Cl  Cl5  1  0.21235280  0.77723129  0.53940104  1
  Cl  Cl6  1  0.33664988  0.38534252  0.21190503  1
  Cl  Cl7  1  0.66335012  0.61465748  0.78809497  1
  O  O8  1  0.06100459  0.07412373  0.66894893  1
  O  O9  1  0.93899541  0.92587627  0.33105107  1
  O  O10  1  0.03151421  0.42367778  0.67572018  1
  O  O11  1  0.96848579  0.57632222  0.32427982  1
  O  O12  1  0.23461907  0.08593883  0.11595827  1
  O  O13  1  0.76538093  0.91406117  0.88404173  1
  O  O14  1  0.52181510  0.22373470  0.83718601  1
  O  O15  1  0.47818490  0.77626530  0.16281399  1
  O  O16  1  0.44761553  0.98888045  0.69657252  1
  O  O17  1  0.55238447  0.01111955  0.30342748  1
  O  O18  1  0.38314286  0.35163186  0.54803262  1
  O  O19  1  0.61685714  0.64836814  0.45196738  1
  O  O20  1  0.22025321  0.45571870  0.88699795  1
  O  O21  1  0.77974679  0.54428130  0.11300205  1
  H  H22  1  -0.00402857  0.15028841  0.59214638  1
  H  H23  1  1.00402857  0.84971159  0.40785362  1
  H  H24  1  0.12222320  0.97995298  0.62564910  1
  H  H25  1  0.87777680  0.02004702  0.37435090  1
  H  H26  1  0.91448199  0.46376635  0.72789035  1
  H  H27  1  0.08551801  0.53623365  0.27210965  1
  H  H28  1  0.09228637  0.53088144  0.60999220  1
  H  H29  1  0.90771363  0.46911856  0.39000780  1
  H  H30  1  0.26393766  0.17531539  0.15220545  1
  H  H31  1  0.73606234  0.82468461  0.84779455  1
  H  H32  1  0.12261649  0.03859610  0.19024471  1
  H  H33  1  0.87738351  0.96140390  0.80975529  1
  H  H34  1  0.61429135  0.12998821  0.85008511  1
  H  H35  1  0.38570865  0.87001179  0.14991489  1
  H  H36  1  0.56335052  0.32460441  0.84692656  1
  H  H37  1  0.43664948  0.67539559  0.15307344  1
  H  H38  1  0.47901201  0.86491428  0.73942677  1
  H  H39  1  0.52098799  0.13508572  0.26057323  1
  H  H40  1  0.55367874  0.04161532  0.61947875  1
  H  H41  1  0.44632126  0.95838468  0.38052125  1
  H  H42  1  0.35446265  0.36244365  0.44867933  1
  H  H43  1  0.64553735  0.63755635  0.55132067  1
  H  H44  1  0.51269242  0.34106802  0.52412563  1
  H  H45  1  0.48730758  0.65893198  0.47587437  1
  H  H46  1  0.20306690  0.57174014  0.81456964  1
  H  H47  1  0.79693310  0.42825986  0.18543036  1
  H  H48  1  0.25692291  0.46988155  0.97378571  1
  H  H49  1  0.74307709  0.53011845  0.02621429  1
