# generated using pymatgen
data_Na2SiH16O11
_symmetry_space_group_name_H-M   'P 1'
_cell_length_a   8.98122595
_cell_length_b   9.68219550
_cell_length_c   13.61267879
_cell_angle_alpha   90.00000000
_cell_angle_beta   90.00000000
_cell_angle_gamma   114.52469439
_symmetry_Int_Tables_number   1
_chemical_formula_structural   Na2SiH16O11
_chemical_formula_sum   'Na8 Si4 H64 O44'
_cell_volume   1076.93780688
_cell_formula_units_Z   4
loop_
 _symmetry_equiv_pos_site_id
 _symmetry_equiv_pos_as_xyz
  1  'x, y, z'
loop_
 _atom_site_type_symbol
 _atom_site_label
 _atom_site_symmetry_multiplicity
 _atom_site_fract_x
 _atom_site_fract_y
 _atom_site_fract_z
 _atom_site_occupancy
  Na  Na0  1  0.91785521  0.25624396  0.23407105  1
  Na  Na1  1  0.58214479  0.24375604  0.73407105  1
  Na  Na2  1  0.08214479  0.74375604  0.76592895  1
  Na  Na3  1  0.41785521  0.75624396  0.26592895  1
  Na  Na4  1  0.63954589  0.98738643  0.07549258  1
  Na  Na5  1  0.86045411  0.51261357  0.57549258  1
  Na  Na6  1  0.36045411  0.01261357  0.92450742  1
  Na  Na7  1  0.13954589  0.48738643  0.42450742  1
  Si  Si8  1  0.79395177  0.50538651  0.07857874  1
  Si  Si9  1  0.70604823  0.99461349  0.57857874  1
  Si  Si10  1  0.20604823  0.49461349  0.92142126  1
  Si  Si11  1  0.29395177  0.00538651  0.42142126  1
  H  H12  1  0.76441985  0.72198199  0.03040822  1
  H  H13  1  0.73558015  0.77801801  0.53040822  1
  H  H14  1  0.23558015  0.27801801  0.96959178  1
  H  H15  1  0.26441985  0.22198199  0.46959178  1
  H  H16  1  0.05281356  0.51832890  0.09549595  1
  H  H17  1  0.44718644  0.98167110  0.59549595  1
  H  H18  1  0.94718644  0.48167110  0.90450405  1
  H  H19  1  0.55281356  0.01832890  0.40450405  1
  H  H20  1  0.72450645  0.77422940  0.18107000  1
  H  H21  1  0.77549355  0.72577060  0.68107000  1
  H  H22  1  0.27549355  0.22577060  0.81893000  1
  H  H23  1  0.22450645  0.27422940  0.31893000  1
  H  H24  1  0.77290633  0.91532664  0.25478799  1
  H  H25  1  0.72709367  0.58467336  0.75478799  1
  H  H26  1  0.22709367  0.08467336  0.74521201  1
  H  H27  1  0.27290633  0.41532664  0.24521201  1
  H  H28  1  0.29272444  0.74457162  0.05492048  1
  H  H29  1  0.20727556  0.75542838  0.55492048  1
  H  H30  1  0.70727556  0.25542838  0.94507952  1
  H  H31  1  0.79272444  0.24457162  0.44507952  1
  H  H32  1  0.26559094  0.88103160  0.10749327  1
  H  H33  1  0.23440906  0.61896840  0.60749327  1
  H  H34  1  0.73440906  0.11896840  0.89250673  1
  H  H35  1  0.76559094  0.38103160  0.39250673  1
  H  H36  1  0.00486646  0.19226486  0.03201194  1
  H  H37  1  0.49513354  0.30773514  0.53201194  1
  H  H38  1  0.99513354  0.80773514  0.96798806  1
  H  H39  1  0.50486646  0.69226486  0.46798806  1
  H  H40  1  0.00055493  0.07025784  0.10965436  1
  H  H41  1  0.49944507  0.42974216  0.60965436  1
  H  H42  1  0.99944507  0.92974216  0.89034564  1
  H  H43  1  0.50055493  0.57025784  0.39034564  1
  H  H44  1  0.33195880  0.53911331  0.11150306  1
  H  H45  1  0.16804120  0.96088669  0.61150306  1
  H  H46  1  0.66804120  0.46088669  0.88849694  1
  H  H47  1  0.83195880  0.03911331  0.38849694  1
  H  H48  1  0.48415818  0.50296141  0.15273269  1
  H  H49  1  0.01584182  0.99703859  0.65273269  1
  H  H50  1  0.51584182  0.49703859  0.84726731  1
  H  H51  1  0.98415818  0.00296141  0.34726731  1
  H  H52  1  0.61815166  0.25008597  0.18216503  1
  H  H53  1  0.88184834  0.24991403  0.68216503  1
  H  H54  1  0.38184834  0.74991403  0.81783497  1
  H  H55  1  0.11815166  0.75008597  0.31783497  1
  H  H56  1  0.55772809  0.10771395  0.25737561  1
  H  H57  1  0.94227191  0.39228605  0.75737561  1
  H  H58  1  0.44227191  0.89228605  0.74262439  1
  H  H59  1  0.05772809  0.60771395  0.24262439  1
  H  H60  1  0.44878835  0.28515078  0.07669027  1
  H  H61  1  0.05121165  0.21484922  0.57669027  1
  H  H62  1  0.55121165  0.71484922  0.92330973  1
  H  H63  1  0.94878835  0.78515078  0.42330973  1
  H  H64  1  0.28139014  0.13967712  0.09356043  1
  H  H65  1  0.21860986  0.36032288  0.59356043  1
  H  H66  1  0.71860986  0.86032288  0.90643957  1
  H  H67  1  0.78139014  0.63967712  0.40643957  1
  H  H68  1  0.11613928  0.94219017  0.23315920  1
  H  H69  1  0.38386072  0.55780983  0.73315920  1
  H  H70  1  0.88386072  0.05780983  0.76684080  1
  H  H71  1  0.61613928  0.44219017  0.26684080  1
  H  H72  1  0.01587684  0.85735658  0.13665058  1
  H  H73  1  0.48412316  0.64264342  0.63665058  1
  H  H74  1  0.98412316  0.14264342  0.86334942  1
  H  H75  1  0.51587684  0.35735658  0.36334942  1
  O  O76  1  0.78806387  0.44056484  0.96825868  1
  O  O77  1  0.71193613  0.05943516  0.46825868  1
  O  O78  1  0.21193613  0.55943516  0.03174132  1
  O  O79  1  0.28806387  0.94056484  0.53174132  1
  O  O80  1  0.62593974  0.42118802  0.14191025  1
  O  O81  1  0.87406026  0.07881198  0.64191025  1
  O  O82  1  0.37406026  0.57881198  0.85808975  1
  O  O83  1  0.12593974  0.92118802  0.35808975  1
  O  O84  1  0.84030251  0.69589741  0.07284157  1
  O  O85  1  0.65969749  0.80410259  0.57284157  1
  O  O86  1  0.15969749  0.30410359  0.92715843  1
  O  O87  1  0.34030251  0.19589641  0.42715843  1
  O  O88  1  0.95241420  0.49813328  0.14000238  1
  O  O89  1  0.54758580  0.00186672  0.64000238  1
  O  O90  1  0.04758580  0.50186672  0.85999762  1
  O  O91  1  0.45241420  0.99813328  0.35999762  1
  O  O92  1  0.68532416  0.84605954  0.20843426  1
  O  O93  1  0.81467584  0.65394046  0.70843426  1
  O  O94  1  0.31467684  0.15394046  0.79156574  1
  O  O95  1  0.18532316  0.34605954  0.29156574  1
  O  O96  1  0.34831212  0.85560014  0.07422329  1
  O  O97  1  0.15168788  0.64439986  0.57422329  1
  O  O98  1  0.65168788  0.14439986  0.92577671  1
  O  O99  1  0.84831212  0.35560014  0.42577671  1
  O  O100  1  0.93795196  0.12575868  0.08454620  1
  O  O101  1  0.56204804  0.37424132  0.58454620  1
  O  O102  1  0.06204804  0.87424132  0.91545380  1
  O  O103  1  0.43795196  0.62575868  0.41545380  1
  O  O104  1  0.39827955  0.53776724  0.17183327  1
  O  O105  1  0.10172045  0.96223276  0.67183327  1
  O  O106  1  0.60172045  0.46223276  0.82816673  1
  O  O107  1  0.89827955  0.03776724  0.32816673  1
  O  O108  1  0.63252471  0.15670109  0.20175567  1
  O  O109  1  0.86747529  0.34329891  0.70175567  1
  O  O110  1  0.36747529  0.84329891  0.79824433  1
  O  O111  1  0.13252471  0.65670109  0.29824433  1
  O  O112  1  0.34937612  0.20910135  0.04289067  1
  O  O113  1  0.15062388  0.29089865  0.54289067  1
  O  O114  1  0.65062388  0.79089865  0.95710933  1
  O  O115  1  0.84937612  0.70910135  0.45710933  1
  O  O116  1  0.11018721  0.94931873  0.15915760  1
  O  O117  1  0.38981279  0.55068127  0.65915760  1
  O  O118  1  0.88981279  0.05068127  0.84084240  1
  O  O119  1  0.61018721  0.44931873  0.34084240  1
