# generated using pymatgen
data_P4N6O
_symmetry_space_group_name_H-M   'P 1'
_cell_length_a   6.13371322
_cell_length_b   20.56395634
_cell_length_c   9.75466975
_cell_angle_alpha   45.32009646
_cell_angle_beta   90.00000000
_cell_angle_gamma   90.00000000
_symmetry_Int_Tables_number   1
_chemical_formula_structural   P4N6O
_chemical_formula_sum   'P24 N36 O6'
_cell_volume   874.86390133
_cell_formula_units_Z   6
loop_
 _symmetry_equiv_pos_site_id
 _symmetry_equiv_pos_as_xyz
  1  'x, y, z'
loop_
 _atom_site_type_symbol
 _atom_site_label
 _atom_site_symmetry_multiplicity
 _atom_site_fract_x
 _atom_site_fract_y
 _atom_site_fract_z
 _atom_site_occupancy
  N  N0  1  0.00972600  0.98983763  0.00634625  1
  N  N1  1  0.11499624  0.12126962  0.62942520  1
  N  N2  1  0.10016379  0.45469735  0.63710762  1
  N  N3  1  0.11032354  0.78995540  0.63536336  1
  N  N4  1  0.14712643  0.10305838  0.37239447  1
  N  N5  1  0.17594983  0.30804702  0.37355786  1
  N  N6  1  0.18315178  0.43961610  0.38338363  1
  N  N7  1  0.17912260  0.63916773  0.38293644  1
  N  N8  1  0.17008847  0.77471229  0.37973484  1
  N  N9  1  0.35287357  0.10305838  0.87239447  1
  N  N10  1  0.32405017  0.30804702  0.87355786  1
  N  N11  1  0.31684822  0.43961610  0.88338363  1
  N  N12  1  0.32087740  0.63916773  0.88293644  1
  N  N13  1  0.32991153  0.77471229  0.87973484  1
  N  N14  1  0.38500376  0.12126962  0.12942520  1
  N  N15  1  0.39983621  0.45469735  0.13710762  1
  N  N16  1  0.38967646  0.78995540  0.13536336  1
  N  N17  1  0.49027400  0.98983763  0.50634625  1
  N  N18  1  0.60267450  0.21265304  0.86145500  1
  N  N19  1  0.59816621  0.54645822  0.86104402  1
  N  N20  1  0.60937763  0.87794753  0.87019059  1
  N  N21  1  0.68856053  0.02879878  0.12697367  1
  N  N22  1  0.66399951  0.22376221  0.12547293  1
  N  N23  1  0.67552644  0.36127131  0.11675109  1
  N  N24  1  0.67733609  0.56114377  0.11742829  1
  N  N25  1  0.67256137  0.69220210  0.12891079  1
  N  N26  1  0.64432608  0.89672778  0.13020490  1
  N  N27  1  0.81143947  0.02879878  0.62697367  1
  N  N28  1  0.83600049  0.22376221  0.62547293  1
  N  N29  1  0.82447356  0.36127131  0.61675109  1
  N  N30  1  0.82266391  0.56114377  0.61742829  1
  N  N31  1  0.82743863  0.69220210  0.62891079  1
  N  N32  1  0.85567392  0.89672778  0.63020490  1
  N  N33  1  0.89732550  0.21265304  0.36145500  1
  N  N34  1  0.90183379  0.54645822  0.36104402  1
  N  N35  1  0.89062237  0.87794753  0.37019059  1
  O  O36  1  0.99429194  0.33035955  -0.00195249  1
  O  O37  1  0.99551339  0.67200815  0.99455723  1
  O  O38  1  0.16464136  0.97570566  0.36417655  1
  O  O39  1  0.33535864  0.97570566  0.86417655  1
  O  O40  1  0.50570806  0.33035955  0.49804751  1
  O  O41  1  0.50448661  0.67200815  0.49455723  1
  P  P42  1  0.99145805  0.10369040  0.49935164  1
  P  P43  1  0.00257311  0.43792537  0.49958928  1
  P  P44  1  1.00029460  0.56239808  0.50001341  1
  P  P45  1  -0.00113192  0.77153217  0.50286625  1
  P  P46  1  0.99496049  0.89385677  0.50414894  1
  P  P47  1  0.19727274  0.04640896  0.86135446  1
  P  P48  1  0.20203173  0.37954574  0.85998706  1
  P  P49  1  0.20717292  0.71421645  0.86154806  1
  P  P50  1  0.30272726  0.04640896  0.36135446  1
  P  P51  1  0.29796827  0.37954574  0.35998706  1
  P  P52  1  0.29282708  0.71421645  0.36154806  1
  P  P53  1  0.50854195  0.10369040  -0.00064836  1
  P  P54  1  0.49416382  0.22822082  0.99825814  1
  P  P55  1  0.49742689  0.43792537  -0.00041072  1
  P  P56  1  0.49970540  0.56239808  1.00001341  1
  P  P57  1  0.50113192  0.77153217  1.00286625  1
  P  P58  1  0.50503951  0.89385677  0.00414894  1
  P  P59  1  0.71048833  0.28543352  0.64027686  1
  P  P60  1  0.70609415  0.62083200  0.64082627  1
  P  P61  1  0.69650155  0.95654011  0.63631739  1
  P  P62  1  0.78951167  0.28543352  0.14027686  1
  P  P63  1  0.79390585  0.62083200  0.14082627  1
  P  P64  1  0.80349845  0.95654011  0.13631739  1
  P  P65  1  0.00583618  0.22822082  0.49825814  1
