# generated using pymatgen
data_Al22PbO34
_symmetry_space_group_name_H-M   'P 1'
_cell_length_a   11.89227646
_cell_length_b   47.63986089
_cell_length_c   23.13931493
_cell_angle_alpha   13.72959967
_cell_angle_beta   24.01383708
_cell_angle_gamma   27.45826464
_symmetry_Int_Tables_number   1
_chemical_formula_structural   Al22PbO34
_chemical_formula_sum   'Al44 Pb2 O68'
_cell_volume   1266.21006903
_cell_formula_units_Z   2
loop_
 _symmetry_equiv_pos_site_id
 _symmetry_equiv_pos_as_xyz
  1  'x, y, z'
loop_
 _atom_site_type_symbol
 _atom_site_label
 _atom_site_symmetry_multiplicity
 _atom_site_fract_x
 _atom_site_fract_y
 _atom_site_fract_z
 _atom_site_occupancy
  Al  Al0  1  0.00000000  0.00000000  0.00000000  1
  Al  Al1  1  0.09708784  0.12443956  0.09478289  1
  Al  Al2  1  0.59099340  1.00004199  0.09640688  1
  Al  Al3  1  0.34864192  0.00067614  0.34879894  1
  Al  Al4  1  0.45038661  0.00120344  0.44772922  1
  Al  Al5  1  0.54961339  0.99879656  0.55227078  1
  Al  Al6  1  0.09850780  0.37619198  0.09564738  1
  Al  Al7  1  0.09850780  0.12380802  0.60041531  1
  Al  Al8  1  0.59696594  0.25000000  0.09678196  1
  Al  Al9  1  0.65135808  0.99932386  0.65120106  1
  Al  Al10  1  0.35015894  0.25000000  0.35131212  1
  Al  Al11  1  0.99912939  0.25000000  -0.00019942  1
  Al  Al12  1  0.40900660  -0.00004199  0.90359312  1
  Al  Al13  1  0.90264534  0.12344963  0.40716730  1
  Al  Al14  1  0.46105847  0.25000000  0.44555071  1
  Al  Al15  1  0.54749873  0.25000000  0.55017476  1
  Al  Al16  1  0.09708784  0.37556044  0.59254112  1
  Al  Al17  1  0.09735466  0.62344963  0.09903417  1
  Al  Al18  1  0.59099340  0.49995801  0.09657482  1
  Al  Al19  1  0.64881373  0.25000000  0.65139179  1
  Al  Al20  1  0.34864192  0.49932386  0.35150350  1
  Al  Al21  1  0.00000000  0.50000000  0.00000000  1
  Al  Al22  1  0.40903530  0.25000000  0.90126590  1
  Al  Al23  1  0.90926146  0.37313992  0.40760854  1
  Al  Al24  1  0.90926146  0.12686008  0.90016821  1
  Al  Al25  1  0.45038661  0.49879656  0.45254297  1
  Al  Al26  1  0.54961339  0.50120344  0.54745703  1
  Al  Al27  1  0.09073854  0.87313992  0.09983179  1
  Al  Al28  1  0.09073854  0.62686008  0.59239146  1
  Al  Al29  1  0.59096470  0.75000000  0.09873410  1
  Al  Al30  1  0.65135808  0.50067614  0.64849650  1
  Al  Al31  1  0.35118627  0.75000000  0.34860821  1
  Al  Al32  1  0.00087061  0.75000000  1.00019942  1
  Al  Al33  1  0.40900660  0.50004199  0.90342518  1
  Al  Al34  1  0.90264534  0.37655037  0.90096583  1
  Al  Al35  1  0.90291216  0.62443956  0.40745888  1
  Al  Al36  1  0.45250127  0.75000000  0.44982524  1
  Al  Al37  1  0.53894153  0.75000000  0.55444929  1
  Al  Al38  1  0.09735466  0.87655037  0.59283270  1
  Al  Al39  1  0.64984106  0.75000000  0.64868788  1
  Al  Al40  1  0.40303406  0.75000000  0.90321804  1
  Al  Al41  1  0.90149220  0.62380802  0.90435262  1
  Al  Al42  1  0.90149220  0.87619198  0.39958469  1
  Al  Al43  1  0.90291216  0.87556044  0.90521711  1
  O  O44  1  0.09300846  0.99799033  0.09822938  1
  O  O45  1  0.18805539  0.13278212  0.18935697  1
  O  O46  1  0.71747922  0.99762265  0.19516170  1
  O  O47  1  0.09568003  0.25000000  0.09358424  1
  O  O48  1  0.59664904  0.12511593  0.09481928  1
  O  O49  1  0.50000000  0.00000000  0.50000000  1
  O  O50  1  0.39195356  0.12938525  0.39808950  1
  O  O51  1  0.90331490  0.99952575  0.40580163  1
  O  O52  1  0.29780324  0.25000000  0.29651392  1
  O  O53  1  0.28252078  0.00237735  0.80483830  1
  O  O54  1  0.80404769  0.13248430  0.28310480  1
  O  O55  1  0.18818260  0.38248368  0.19091868  1
  O  O56  1  0.18818260  0.11751632  0.72085339  1
  O  O57  1  0.72093727  0.25000000  0.18878139  1
  O  O58  1  0.70341259  0.99863362  0.70633786  1
  O  O59  1  0.09300846  0.50200967  0.09019071  1
  O  O60  1  0.10149085  0.25000000  0.59613308  1
  O  O61  1  0.60044265  0.12441809  0.59455338  1
  O  O62  1  0.60044265  0.37558191  0.09222575  1
  O  O63  1  0.59215052  0.25000000  0.45456311  1
  O  O64  1  0.40258543  0.37472591  0.40409387  1
  O  O65  1  0.40258543  0.12527409  0.90299752  1
  O  O66  1  0.91444233  0.25000000  0.39814385  1
  O  O67  1  0.29658741  0.49863362  0.29912765  1
  O  O68  1  0.27993598  0.25000000  0.81048673  1
  O  O69  1  0.81175655  0.38099358  0.28283694  1
  O  O70  1  0.81175655  0.11900642  0.80681126  1
  O  O71  1  0.19595231  0.63248430  0.18695799  1
  O  O72  1  0.18805539  0.36721788  0.72048544  1
  O  O73  1  0.71747922  0.50237735  0.18565230  1
  O  O74  1  0.70646544  0.25000000  0.70255203  1
  O  O75  1  0.09768750  0.75000000  0.09197138  1
  O  O76  1  0.09668510  0.49952575  0.59609539  1
  O  O77  1  0.60804644  0.62938525  0.08436949  1
  O  O78  1  0.59664904  0.37488407  0.59528298  1
  O  O79  1  0.50000000  0.50000000  0.50000000  1
  O  O80  1  0.39195356  0.37061475  0.91563051  1
  O  O81  1  0.40335096  0.62511593  0.40471702  1
  O  O82  1  0.90331490  0.50047425  0.40390461  1
  O  O83  1  0.90231250  0.25000000  0.90802862  1
  O  O84  1  0.29353456  0.75000000  0.29744797  1
  O  O85  1  0.28252078  0.49762265  0.81434770  1
  O  O86  1  0.80404769  0.36751570  0.81304201  1
  O  O87  1  0.81194461  0.63278212  0.27951456  1
  O  O88  1  0.18824345  0.88099358  0.19318874  1
  O  O89  1  0.18824345  0.61900642  0.71716306  1
  O  O90  1  0.72006402  0.75000000  0.18951327  1
  O  O91  1  0.70341259  0.50136638  0.70087235  1
  O  O92  1  0.08555767  0.75000000  0.60185615  1
  O  O93  1  0.59741457  0.62527409  0.59590613  1
  O  O94  1  0.59741457  0.87472591  0.09700248  1
  O  O95  1  0.40784948  0.75000000  0.54543689  1
  O  O96  1  0.39955735  0.62441809  0.90777425  1
  O  O97  1  0.39955735  0.87558191  0.40544662  1
  O  O98  1  0.89850915  0.75000000  0.40386692  1
  O  O99  1  0.90699154  0.49799033  0.90980929  1
  O  O100  1  0.29658741  0.00136638  0.29366214  1
  O  O101  1  0.27906273  0.75000000  0.81121861  1
  O  O102  1  0.81181740  0.61751632  0.80908132  1
  O  O103  1  0.81181740  0.88248368  0.27914661  1
  O  O104  1  0.19595231  0.86751570  0.71689520  1
  O  O105  1  0.70219676  0.75000000  0.70348608  1
  O  O106  1  0.09668510  0.00047425  0.59419837  1
  O  O107  1  0.60804644  0.87061475  0.60191050  1
  O  O108  1  0.40335096  0.87488407  0.90518072  1
  O  O109  1  0.90431997  0.75000000  0.90641576  1
  O  O110  1  0.81194461  0.86721788  0.81064303  1
  O  O111  1  0.90699154  0.00200967  0.90177062  1
  Pb  Pb112  1  0.12556251  0.25000000  0.20246876  1
  Pb  Pb113  1  0.87443749  0.75000000  0.79753124  1
