# generated using pymatgen
data_BaEu2NiO5
_symmetry_space_group_name_H-M   'P 1'
_cell_length_a   3.84137210
_cell_length_b   5.90570009
_cell_length_c   6.79625724
_cell_angle_alpha   115.75422895
_cell_angle_beta   106.41659832
_cell_angle_gamma   90.00256645
_symmetry_Int_Tables_number   1
_chemical_formula_structural   BaEu2NiO5
_chemical_formula_sum   'Ba1 Eu2 Ni1 O5'
_cell_volume   131.84988945
_cell_formula_units_Z   1
loop_
 _symmetry_equiv_pos_site_id
 _symmetry_equiv_pos_as_xyz
  1  'x, y, z'
loop_
 _atom_site_type_symbol
 _atom_site_label
 _atom_site_symmetry_multiplicity
 _atom_site_fract_x
 _atom_site_fract_y
 _atom_site_fract_z
 _atom_site_occupancy
  O  O0  1  1.00002766  0.50001262  1.00003601  1
  O  O1  1  0.35917650  0.59948766  0.71832502  1
  O  O2  1  0.64082344  0.40052085  0.28167761  1
  O  O3  1  0.64078771  0.88109484  0.28165559  1
  O  O4  1  0.35920881  0.11889406  0.71833007  1
  Ni  Ni5  1  0.49998530  0.49999706  0.99999407  1
  Ba  Ba6  1  0.00000542  -0.00000263  -0.00000085  1
  Eu  Eu7  1  0.79520525  0.29518378  0.59034736  1
  Eu  Eu8  1  0.20478290  0.70480876  0.40963512  1
