# generated using pymatgen
data_Na2ZnP4(H4O5)4
_symmetry_space_group_name_H-M   'P 1'
_cell_length_a   7.39556523
_cell_length_b   10.98040557
_cell_length_c   10.98889622
_cell_angle_alpha   90.00000000
_cell_angle_beta   102.04961879
_cell_angle_gamma   90.00000000
_symmetry_Int_Tables_number   1
_chemical_formula_structural   Na2ZnP4(H4O5)4
_chemical_formula_sum   'Na4 Zn2 P8 H32 O40'
_cell_volume   872.70628865
_cell_formula_units_Z   2
loop_
 _symmetry_equiv_pos_site_id
 _symmetry_equiv_pos_as_xyz
  1  'x, y, z'
loop_
 _atom_site_type_symbol
 _atom_site_label
 _atom_site_symmetry_multiplicity
 _atom_site_fract_x
 _atom_site_fract_y
 _atom_site_fract_z
 _atom_site_occupancy
  Na  Na0  1  0.73256908  0.17196301  0.45354873  1
  Na  Na1  1  0.76743092  0.67196301  0.04645127  1
  Na  Na2  1  0.26743092  0.82803699  0.54645127  1
  Na  Na3  1  0.23256908  0.32803699  0.95354873  1
  Zn  Zn4  1  0.50000000  0.50000000  0.50000000  1
  Zn  Zn5  1  0.00000000  -0.00000000  0.00000000  1
  P  P6  1  0.24944529  0.24120050  0.41549012  1
  P  P7  1  0.25055471  0.74120050  0.08450988  1
  P  P8  1  0.75055471  0.75879950  0.58450988  1
  P  P9  1  0.74944529  0.25879950  0.91549012  1
  P  P10  1  0.72888516  0.45856390  0.27613442  1
  P  P11  1  0.77111484  0.95856290  0.22386558  1
  P  P12  1  0.27111484  0.54143710  0.72386558  1
  P  P13  1  0.22888516  0.04143610  0.77613442  1
  H  H14  1  0.33396113  0.01190748  0.36772857  1
  H  H15  1  0.16603787  0.51190748  0.13227143  1
  H  H16  1  0.66603787  0.98809252  0.63227143  1
  H  H17  1  0.83396213  0.48809252  0.86772857  1
  H  H18  1  0.15377993  0.11069755  0.54316601  1
  H  H19  1  0.34622007  0.61069755  0.95683399  1
  H  H20  1  0.84622007  0.88930245  0.45683399  1
  H  H21  1  0.65377993  0.38930245  0.04316601  1
  H  H22  1  0.82342388  0.58710305  0.42590852  1
  H  H23  1  0.67657612  0.08710305  0.07409148  1
  H  H24  1  0.17657612  0.41289695  0.57409148  1
  H  H25  1  0.32342388  0.91289695  0.92590852  1
  H  H26  1  0.91486826  0.29989780  0.28664015  1
  H  H27  1  0.58513174  0.79989780  0.21335985  1
  H  H28  1  0.08513174  0.70010220  0.71335985  1
  H  H29  1  0.41486826  0.20010220  0.78664015  1
  H  H30  1  0.69005315  0.33550835  0.65946471  1
  H  H31  1  0.80994685  0.83550835  0.84053529  1
  H  H32  1  0.30994685  0.66449165  0.34053529  1
  H  H33  1  0.19005315  0.16449165  0.15946471  1
  H  H34  1  0.84716779  0.40617770  0.61090953  1
  H  H35  1  0.65283221  0.90617770  0.88909047  1
  H  H36  1  0.15283221  0.59382230  0.38909047  1
  H  H37  1  0.34716779  0.09382230  0.11090953  1
  H  H38  1  0.67074179  0.15451889  0.72886647  1
  H  H39  1  0.82925821  0.65451889  0.77113353  1
  H  H40  1  0.32925821  0.84548111  0.27113353  1
  H  H41  1  0.17074179  0.34548111  0.22886647  1
  H  H42  1  0.85756485  0.04409386  0.70902230  1
  H  H43  1  0.64243515  0.54409386  0.79097770  1
  H  H44  1  0.14243515  0.95590614  0.29097770  1
  H  H45  1  0.35756485  0.45590614  0.20902230  1
  O  O46  1  0.40899848  0.15818752  0.40670878  1
  O  O47  1  0.09100152  0.65818752  0.09329122  1
  O  O48  1  0.59100152  0.84181248  0.59329122  1
  O  O49  1  0.90899848  0.34181248  0.90670878  1
  O  O50  1  0.12838332  0.26867661  0.27749474  1
  O  O51  1  0.37161668  0.76867661  0.22250526  1
  O  O52  1  0.87161668  0.73132339  0.72250526  1
  O  O53  1  0.62838332  0.23132339  0.77749474  1
  O  O54  1  0.09953421  0.17536784  0.47610229  1
  O  O55  1  0.40046579  0.67536784  0.02389771  1
  O  O56  1  0.90046579  0.82463216  0.52389771  1
  O  O57  1  0.59953421  0.32463216  0.97610229  1
  O  O58  1  0.29881513  0.36386701  0.48112465  1
  O  O59  1  0.20118487  0.86386701  0.01887535  1
  O  O60  1  0.70118487  0.63613299  0.51887535  1
  O  O61  1  0.79881513  0.13613299  0.98112465  1
  O  O62  1  0.87976281  0.54448280  0.35989704  1
  O  O63  1  0.62023719  0.04448280  0.14010296  1
  O  O64  1  0.12023719  0.45551720  0.64010296  1
  O  O65  1  0.37976281  0.95551720  0.85989704  1
  O  O66  1  0.72499454  0.48425121  0.14033294  1
  O  O67  1  0.77500546  0.98425121  0.35966706  1
  O  O68  1  0.27500546  0.51574879  0.85966706  1
  O  O69  1  0.22499454  0.01574879  0.64033294  1
  O  O70  1  0.79250494  0.32120940  0.30768637  1
  O  O71  1  0.70749506  0.82120940  0.19231363  1
  O  O72  1  0.20749506  0.67879060  0.69231363  1
  O  O73  1  0.29250494  0.17879060  0.80768637  1
  O  O74  1  0.54560449  0.47217135  0.31870415  1
  O  O75  1  0.95439551  0.97217135  0.18129585  1
  O  O76  1  0.45439551  0.52782865  0.68129585  1
  O  O77  1  0.04560449  0.02782865  0.81870415  1
  O  O78  1  0.72330408  0.37003891  0.58384477  1
  O  O79  1  0.77669592  0.87003891  0.91615523  1
  O  O80  1  0.27669592  0.62996109  0.41615523  1
  O  O81  1  0.22330408  0.12996109  0.08384477  1
  O  O82  1  0.73508545  0.06665294  0.65443598  1
  O  O83  1  0.76491455  0.56665294  0.84556402  1
  O  O84  1  0.26491455  0.93334706  0.34556402  1
  O  O85  1  0.23508545  0.43334706  0.15443598  1
