# generated using pymatgen
data_TiIn2O5
_symmetry_space_group_name_H-M   'P 1'
_cell_length_a   3.53644895
_cell_length_b   7.38241333
_cell_length_c   15.16067002
_cell_angle_alpha   90.00000000
_cell_angle_beta   90.00000000
_cell_angle_gamma   90.00000000
_symmetry_Int_Tables_number   1
_chemical_formula_structural   TiIn2O5
_chemical_formula_sum   'Ti4 In8 O20'
_cell_volume   395.80761507
_cell_formula_units_Z   4
loop_
 _symmetry_equiv_pos_site_id
 _symmetry_equiv_pos_as_xyz
  1  'x, y, z'
loop_
 _atom_site_type_symbol
 _atom_site_label
 _atom_site_symmetry_multiplicity
 _atom_site_fract_x
 _atom_site_fract_y
 _atom_site_fract_z
 _atom_site_occupancy
  In  In0  1  0.75000000  0.90137072  0.91650097  1
  In  In1  1  0.25000000  0.09862928  0.08349903  1
  In  In2  1  0.75000000  0.40137072  0.58349903  1
  In  In3  1  0.25000000  0.59862928  0.41650097  1
  In  In4  1  0.25000000  0.67534681  0.76075601  1
  In  In5  1  0.75000000  0.32465319  0.23924399  1
  In  In6  1  0.25000000  0.17534681  0.73924399  1
  In  In7  1  0.75000000  0.82465319  0.26075601  1
  Ti  Ti8  1  0.75000000  0.89221938  0.57803025  1
  Ti  Ti9  1  0.25000000  0.10778062  0.42196975  1
  Ti  Ti10  1  0.75000000  0.39221938  0.92196975  1
  Ti  Ti11  1  0.25000000  0.60778062  0.07803025  1
  O  O12  1  0.75000000  0.76340226  0.68049104  1
  O  O13  1  0.25000000  0.23659774  0.31950896  1
  O  O14  1  0.75000000  0.26340226  0.81950896  1
  O  O15  1  0.25000000  0.73659774  0.18049104  1
  O  O16  1  0.75000000  0.65455449  0.50486970  1
  O  O17  1  0.25000000  0.34544551  0.49513030  1
  O  O18  1  0.75000000  0.15455449  0.99513030  1
  O  O19  1  0.25000000  0.84544551  0.00486970  1
  O  O20  1  0.75000000  0.63097040  0.85137704  1
  O  O21  1  0.25000000  0.36902960  0.14862296  1
  O  O22  1  0.75000000  0.13097040  0.64862296  1
  O  O23  1  0.25000000  0.86902960  0.35137704  1
  O  O24  1  0.25000000  0.94235357  0.82449840  1
  O  O25  1  0.75000000  0.05764643  0.17550160  1
  O  O26  1  0.25000000  0.44235357  0.67550160  1
  O  O27  1  0.75000000  0.55764643  0.32449840  1
  O  O28  1  0.25000000  0.92895872  0.54652222  1
  O  O29  1  0.75000000  0.07104128  0.45347778  1
  O  O30  1  0.25000000  0.42895872  0.95347778  1
  O  O31  1  0.75000000  0.57104128  0.04652222  1
