# generated using pymatgen
data_LiFePO4
_symmetry_space_group_name_H-M   'P 1'
_cell_length_a   5.11038153
_cell_length_b   10.25194076
_cell_length_c   6.89566192
_cell_angle_alpha   90.00000000
_cell_angle_beta   89.82512237
_cell_angle_gamma   90.00000000
_symmetry_Int_Tables_number   1
_chemical_formula_structural   LiFePO4
_chemical_formula_sum   'Li4 Fe4 P4 O16'
_cell_volume   361.27120758
_cell_formula_units_Z   4
loop_
 _symmetry_equiv_pos_site_id
 _symmetry_equiv_pos_as_xyz
  1  'x, y, z'
loop_
 _atom_site_type_symbol
 _atom_site_label
 _atom_site_symmetry_multiplicity
 _atom_site_fract_x
 _atom_site_fract_y
 _atom_site_fract_z
 _atom_site_occupancy
  Fe  Fe0  1  0.20601125  0.15632822  0.00073452  1
  Fe  Fe1  1  0.29398875  0.65632822  0.49926548  1
  Fe  Fe2  1  0.70601125  0.34367178  0.50073452  1
  Fe  Fe3  1  0.79398875  0.84367178  0.99926548  1
  Li  Li4  1  0.20303990  0.15090187  0.50087921  1
  Li  Li5  1  0.29696010  0.65090187  0.99912079  1
  Li  Li6  1  0.70303990  0.34909813  0.00087921  1
  Li  Li7  1  0.79696010  0.84909813  0.49912079  1
  O  O8  1  0.09932517  0.62384996  0.75211030  1
  O  O9  1  0.17511269  0.84281064  0.43432136  1
  O  O10  1  0.18533391  0.83957092  0.06325654  1
  O  O11  1  0.24202992  0.05274979  0.24936695  1
  O  O12  1  0.25797008  0.55274979  0.25063305  1
  O  O13  1  0.31466609  0.33957092  0.43674346  1
  O  O14  1  0.32488731  0.34281064  0.06567864  1
  O  O15  1  0.40067483  0.12384896  0.74788970  1
  O  O16  1  0.59932517  0.87615004  0.25211030  1
  O  O17  1  0.67511269  0.65718936  0.93432136  1
  O  O18  1  0.68533391  0.66042908  0.56325654  1
  O  O19  1  0.74202992  0.44725021  0.74936695  1
  O  O20  1  0.75797008  0.94725021  0.75063305  1
  O  O21  1  0.81466609  0.16042908  0.93674346  1
  O  O22  1  0.82488731  0.15718936  0.56567864  1
  O  O23  1  0.90067483  0.37615004  0.24788970  1
  P  P24  1  0.20073068  0.40386157  0.25015723  1
  P  P25  1  0.29926932  0.90386157  0.24984277  1
  P  P26  1  0.70073068  0.09613843  0.75015723  1
  P  P27  1  0.79926932  0.59613843  0.74984277  1
