# generated using pymatgen
data_Sr2NdGaCu2O7
_symmetry_space_group_name_H-M   'P 1'
_cell_length_a   5.46934845
_cell_length_b   5.58918874
_cell_length_c   12.28317209
_cell_angle_alpha   103.16193183
_cell_angle_beta   102.86859457
_cell_angle_gamma   90.00015914
_symmetry_Int_Tables_number   1
_chemical_formula_structural   Sr2NdGaCu2O7
_chemical_formula_sum   'Sr4 Nd2 Ga2 Cu4 O14'
_cell_volume   355.93083947
_cell_formula_units_Z   2
loop_
 _symmetry_equiv_pos_site_id
 _symmetry_equiv_pos_as_xyz
  1  'x, y, z'
loop_
 _atom_site_type_symbol
 _atom_site_label
 _atom_site_symmetry_multiplicity
 _atom_site_fract_x
 _atom_site_fract_y
 _atom_site_fract_z
 _atom_site_occupancy
  Nd  Nd0  1  0.50080200  0.49996104  -0.00000685  1
  Nd  Nd1  1  0.00080352  -0.00003425  -0.00000594  1
  Sr  Sr2  1  0.34696722  0.36642569  0.69475534  1
  Sr  Sr3  1  0.65225499  0.63358662  0.30525501  1
  Sr  Sr4  1  0.84695783  0.82828961  0.69475842  1
  Sr  Sr5  1  0.15225438  0.17171799  0.30524854  1
  Cu  Cu6  1  0.92641272  0.42344993  0.84958405  1
  Cu  Cu7  1  0.07689752  0.57656017  0.15046821  1
  Cu  Cu8  1  0.42638777  0.92583622  0.84954360  1
  Cu  Cu9  1  0.57682208  0.07412021  0.15039535  1
  Ga  Ga10  1  0.71746617  0.17914665  0.50000372  1
  Ga  Ga11  1  0.21748019  0.82084325  0.49999333  1
  O  O12  1  0.86901050  0.86992071  0.50001730  1
  O  O13  1  0.36898905  0.13011125  0.50000484  1
  O  O14  1  0.18368041  0.18195225  0.86479941  1
  O  O15  1  0.31897302  0.81808536  0.13520252  1
  O  O16  1  0.68385204  0.18281160  0.86479146  1
  O  O17  1  0.81906922  0.81724715  0.13520182  1
  O  O18  1  0.68523859  0.68284123  0.86931276  1
  O  O19  1  0.81596223  0.31711026  0.13067852  1
  O  O20  1  0.18505207  0.68608894  0.86931779  1
  O  O21  1  0.31584665  0.31389360  0.13067779  1
  O  O22  1  0.35626044  0.77567964  0.64508053  1
  O  O23  1  0.71116351  0.22431624  0.35491751  1
  O  O24  1  0.85625239  0.36935834  0.64511966  1
  O  O25  1  0.21114348  0.63068031  0.35488533  1
