# generated using pymatgen
data_LiV3O8
_symmetry_space_group_name_H-M   'P 1'
_cell_length_a   3.62926472
_cell_length_b   6.83738348
_cell_length_c   11.94051479
_cell_angle_alpha   104.67690032
_cell_angle_beta   90.00000000
_cell_angle_gamma   90.00000000
_symmetry_Int_Tables_number   1
_chemical_formula_structural   LiV3O8
_chemical_formula_sum   'Li2 V6 O16'
_cell_volume   286.63171513
_cell_formula_units_Z   2
loop_
 _symmetry_equiv_pos_site_id
 _symmetry_equiv_pos_as_xyz
  1  'x, y, z'
loop_
 _atom_site_type_symbol
 _atom_site_label
 _atom_site_symmetry_multiplicity
 _atom_site_fract_x
 _atom_site_fract_y
 _atom_site_fract_z
 _atom_site_occupancy
  Li  Li0  1  0.25000000  0.18558123  0.68681386  1
  Li  Li1  1  0.75000000  0.81441877  0.31318614  1
  V  V2  1  0.25000000  0.69291199  0.53767351  1
  V  V3  1  0.75000000  0.30708801  0.46232649  1
  V  V4  1  0.25000000  0.87451151  0.08082961  1
  V  V5  1  0.75000000  0.12548849  0.91917039  1
  V  V6  1  0.25000000  0.73391582  0.80719041  1
  V  V7  1  0.75000000  0.26608418  0.19280959  1
  O  O8  1  0.25000000  0.39347169  0.45991963  1
  O  O9  1  0.75000000  0.60652831  0.54008037  1
  O  O10  1  0.25000000  0.04961143  0.92798270  1
  O  O11  1  0.75000000  0.95038857  0.07201730  1
  O  O12  1  0.25000000  0.87066999  0.67361783  1
  O  O13  1  0.75000000  0.12933001  0.32638217  1
  O  O14  1  0.25000000  0.76788684  0.18934062  1
  O  O15  1  0.75000000  0.23211316  0.81065938  1
  O  O16  1  0.25000000  0.82026753  0.43780496  1
  O  O17  1  0.75000000  0.17973247  0.56219504  1
  O  O18  1  0.25000000  0.67378826  0.95160426  1
  O  O19  1  0.75000000  0.32621174  0.04839574  1
  O  O20  1  0.25000000  0.50422006  0.72253521  1
  O  O21  1  0.75000000  0.49577994  0.27746479  1
  O  O22  1  0.25000000  0.18031069  0.17464293  1
  O  O23  1  0.75000000  0.81968931  0.82535707  1
