# generated using pymatgen
data_LiMnPO4
_symmetry_space_group_name_H-M   'P 1'
_cell_length_a   8.72185724
_cell_length_b   8.72185808
_cell_length_c   8.72185661
_cell_angle_alpha   107.75587343
_cell_angle_beta   107.75587520
_cell_angle_gamma   107.75587175
_symmetry_Int_Tables_number   1
_chemical_formula_structural   LiMnPO4
_chemical_formula_sum   'Li6 Mn6 P6 O24'
_cell_volume   540.75366106
_cell_formula_units_Z   6
loop_
 _symmetry_equiv_pos_site_id
 _symmetry_equiv_pos_as_xyz
  1  'x, y, z'
loop_
 _atom_site_type_symbol
 _atom_site_label
 _atom_site_symmetry_multiplicity
 _atom_site_fract_x
 _atom_site_fract_y
 _atom_site_fract_z
 _atom_site_occupancy
  Li  Li0  1  0.12914122  0.89098436  0.72147023  1
  Li  Li1  1  0.21282511  0.42781006  0.61019926  1
  Li  Li2  1  0.42781006  0.61019926  0.21282511  1
  Li  Li3  1  0.72147023  0.12914122  0.89098436  1
  Li  Li4  1  0.61019926  0.21282511  0.42781006  1
  Li  Li5  1  0.89098436  0.72147023  0.12914122  1
  Mn  Mn6  1  0.05432129  0.45516298  0.22974332  1
  Mn  Mn7  1  0.53831493  0.76958087  0.94427014  1
  Mn  Mn8  1  0.22974332  0.05432129  0.45516298  1
  Mn  Mn9  1  0.76958087  0.94427014  0.53831493  1
  Mn  Mn10  1  0.45516298  0.22974332  0.05432129  1
  Mn  Mn11  1  0.94427014  0.53831493  0.76958087  1
  O  O12  1  0.29434456  0.96093105  0.96918875  1
  O  O13  1  0.09476536  0.39397569  0.76471040  1
  O  O14  1  0.03382222  0.08115546  0.74338639  1
  O  O15  1  0.27271265  0.89780451  0.58378735  1
  O  O16  1  0.02342796  0.28995212  0.35698963  1
  O  O17  1  0.08115546  0.74338639  0.03382222  1
  O  O18  1  0.36238253  0.68344502  0.68315972  1
  O  O19  1  0.31566266  0.65468005  0.37381722  1
  O  O20  1  0.37381722  0.31566266  0.65468005  1
  O  O21  1  0.58650451  0.92144879  0.64828196  1
  O  O22  1  0.39397569  0.76471040  0.09476536  1
  O  O23  1  0.28995212  0.35698963  0.02342796  1
  O  O24  1  0.64828196  0.58650451  0.92144879  1
  O  O25  1  0.58378735  0.27271265  0.89780451  1
  O  O26  1  0.35698963  0.02342796  0.28995212  1
  O  O27  1  0.68315972  0.36238253  0.68344502  1
  O  O28  1  0.68344502  0.68315972  0.36238253  1
  O  O29  1  0.65468005  0.37381722  0.31566266  1
  O  O30  1  0.92144879  0.64828196  0.58650451  1
  O  O31  1  0.96093105  0.96918875  0.29434456  1
  O  O32  1  0.96918875  0.29434456  0.96093105  1
  O  O33  1  0.76471040  0.09476536  0.39397569  1
  O  O34  1  0.89780451  0.58378735  0.27271265  1
  O  O35  1  0.74338639  0.03382222  0.08115546  1
  P  P36  1  0.09862466  0.28109919  0.87223227  1
  P  P37  1  0.38498403  0.79020573  0.57111077  1
  P  P38  1  0.28109919  0.87223227  0.09862466  1
  P  P39  1  0.57111077  0.38498403  0.79020573  1
  P  P40  1  0.79020573  0.57111077  0.38498403  1
  P  P41  1  0.87223227  0.09862466  0.28109919  1
