# generated using pymatgen
data_V2Cu3H24(OF)12
_symmetry_space_group_name_H-M   'P 1'
_cell_length_a   7.60920337
_cell_length_b   7.61330412
_cell_length_c   8.29588482
_cell_angle_alpha   88.22885868
_cell_angle_beta   90.09822950
_cell_angle_gamma   85.79518136
_symmetry_Int_Tables_number   1
_chemical_formula_structural   V2Cu3H24(OF)12
_chemical_formula_sum   'V2 Cu3 H24 O12 F12'
_cell_volume   479.06399143
_cell_formula_units_Z   1
loop_
 _symmetry_equiv_pos_site_id
 _symmetry_equiv_pos_as_xyz
  1  'x, y, z'
loop_
 _atom_site_type_symbol
 _atom_site_label
 _atom_site_symmetry_multiplicity
 _atom_site_fract_x
 _atom_site_fract_y
 _atom_site_fract_z
 _atom_site_occupancy
  V  V0  1  0.00000000  0.50000000  0.00000000  1
  V  V1  1  0.50000000  0.00000000  0.50000000  1
  Cu  Cu2  1  0.00000000  0.00000000  0.00000000  1
  Cu  Cu3  1  0.00000000  0.50000000  0.50000000  1
  Cu  Cu4  1  0.50000000  0.50000000  0.00000000  1
  F  F5  1  0.89836002  0.27941652  0.03042700  1
  F  F6  1  0.10163998  0.72058348  0.96957300  1
  F  F7  1  0.89240132  0.58135110  0.21162132  1
  F  F8  1  0.10759868  0.41864890  0.78837868  1
  F  F9  1  0.78153922  0.59623158  0.88750602  1
  F  F10  1  0.21846078  0.40376842  0.11249398  1
  F  F11  1  0.59359535  0.09317142  0.29436766  1
  F  F12  1  0.40640465  0.90682858  0.70563234  1
  F  F13  1  0.75021676  0.99163154  0.58898049  1
  F  F14  1  0.24978324  0.00836846  0.41101951  1
  F  F15  1  0.55024889  0.76486902  0.41649021  1
  F  F16  1  0.44975111  0.23513098  0.58350979  1
  O  O17  1  0.90237453  0.92562279  0.21121139  1
  O  O18  1  0.09762547  0.07437721  0.78878861  1
  O  O19  1  0.76041748  0.97153236  0.89790778  1
  O  O20  1  0.23958252  0.02846764  0.10209222  1
  O  O21  1  0.96655863  0.24647087  0.45109073  1
  O  O22  1  0.03344137  0.75352913  0.54890927  1
  O  O23  1  0.75589845  0.52107366  0.58162464  1
  O  O24  1  0.24410155  0.47892634  0.41837536  1
  O  O25  1  0.50822515  0.25824375  0.90667753  1
  O  O26  1  0.49177485  0.74175625  0.09332247  1
  O  O27  1  0.59606569  0.42179610  0.21096392  1
  O  O28  1  0.40393431  0.57820390  0.78903608  1
  H  H29  1  0.78677730  0.98769152  0.23843401  1
  H  H30  1  0.21322270  0.01230848  0.76156599  1
  H  H31  1  0.88891910  0.79548165  0.21609890  1
  H  H32  1  0.11108090  0.20451835  0.78390110  1
  H  H33  1  0.76518060  0.97664041  0.77600218  1
  H  H34  1  0.23481940  0.02335959  0.22399782  1
  H  H35  1  0.72128781  0.85394508  0.92672340  1
  H  H36  1  0.27871219  0.14605492  0.07327660  1
  H  H37  1  0.87934853  0.18348619  0.51348082  1
  H  H38  1  0.12065147  0.81651381  0.48651918  1
  H  H39  1  0.07311092  0.16410546  0.44366557  1
  H  H40  1  0.92688908  0.83589454  0.55633443  1
  H  H41  1  0.75543497  0.55186747  0.69803494  1
  H  H42  1  0.24456503  0.44813253  0.30196506  1
  H  H43  1  0.67324553  0.60804613  0.52214652  1
  H  H44  1  0.32675447  0.39195387  0.47785348  1
  H  H45  1  0.49177786  0.26340948  0.78718383  1
  H  H46  1  0.50822214  0.73659052  0.21281617  1
  H  H47  1  0.60925873  0.17081121  0.92831973  1
  H  H48  1  0.39074127  0.82918879  0.07168027  1
  H  H49  1  0.71694681  0.46302212  0.22139174  1
  H  H50  1  0.28305319  0.53697788  0.77860826  1
  H  H51  1  0.60171797  0.29248576  0.23899563  1
  H  H52  1  0.39828203  0.70751424  0.76100437  1
