# generated using pymatgen
data_Li7Mn2(CoO4)3
_symmetry_space_group_name_H-M   'P 1'
_cell_length_a   2.95810475
_cell_length_b   5.09392870
_cell_length_c   14.42132824
_cell_angle_alpha   88.02815646
_cell_angle_beta   90.00000000
_cell_angle_gamma   90.00000000
_symmetry_Int_Tables_number   1
_chemical_formula_structural   Li7Mn2(CoO4)3
_chemical_formula_sum   'Li7 Mn2 Co3 O12'
_cell_volume   217.17730118
_cell_formula_units_Z   1
loop_
 _symmetry_equiv_pos_site_id
 _symmetry_equiv_pos_as_xyz
  1  'x, y, z'
loop_
 _atom_site_type_symbol
 _atom_site_label
 _atom_site_symmetry_multiplicity
 _atom_site_fract_x
 _atom_site_fract_y
 _atom_site_fract_z
 _atom_site_occupancy
  Li  Li0  1  0.00000000  0.34468032  0.17617050  1
  Li  Li1  1  0.50000000  0.18023423  0.34143846  1
  Li  Li2  1  0.00000000  0.99565491  0.50090833  1
  Li  Li3  1  0.50000000  0.83393218  0.66499130  1
  Li  Li4  1  0.00000000  0.66454479  0.82191175  1
  Li  Li5  1  0.50000000  0.49136167  0.99476297  1
  Li  Li6  1  -0.00000000  0.65320534  0.33586752  1
  Mn  Mn7  1  0.00000000  0.00399955  0.00026532  1
  Mn  Mn8  1  0.50000000  0.82440143  0.17290698  1
  Co  Co9  1  0.50000000  0.50216154  0.49395642  1
  Co  Co10  1  0.00000000  0.33922353  0.66664539  1
  Co  Co11  1  0.50000000  0.17057834  0.82838632  1
  O  O12  1  -0.00000000  0.97888138  0.23859003  1
  O  O13  1  0.50000000  0.79291461  0.42660958  1
  O  O14  1  -0.00000000  0.64472659  0.58106042  1
  O  O15  1  0.50000000  0.49970016  0.74728956  1
  O  O16  1  0.00000000  0.30932345  0.92438555  1
  O  O17  1  0.50000000  0.13710458  0.07769925  1
  O  O18  1  0.00000000  0.69926507  0.08965918  1
  O  O19  1  0.50000000  0.52055783  0.24161427  1
  O  O20  1  -0.00000000  0.33472732  0.42209187  1
  O  O21  1  0.50000000  0.20636385  0.57892418  1
  O  O22  1  0.00000000  0.02114038  0.74412759  1
  O  O23  1  0.50000000  0.85131694  0.92973728  1
