# generated using pymatgen
data_VP2H4O9
_symmetry_space_group_name_H-M   'P 1'
_cell_length_a   7.88660852
_cell_length_b   9.16932777
_cell_length_c   9.16932777
_cell_angle_alpha   90.00000000
_cell_angle_beta   90.00000000
_cell_angle_gamma   90.00000000
_symmetry_Int_Tables_number   1
_chemical_formula_structural   VP2H4O9
_chemical_formula_sum   'V4 P8 H16 O36'
_cell_volume   663.07900713
_cell_formula_units_Z   4
loop_
 _symmetry_equiv_pos_site_id
 _symmetry_equiv_pos_as_xyz
  1  'x, y, z'
loop_
 _atom_site_type_symbol
 _atom_site_label
 _atom_site_symmetry_multiplicity
 _atom_site_fract_x
 _atom_site_fract_y
 _atom_site_fract_z
 _atom_site_occupancy
  V  V0  1  0.20437829  0.25000000  0.25000000  1
  V  V1  1  0.29562171  0.75000000  0.75000000  1
  V  V2  1  0.79562171  0.75000000  0.75000000  1
  V  V3  1  0.70437829  0.25000000  0.25000000  1
  P  P4  1  0.25000000  0.95430688  0.04569312  1
  P  P5  1  0.25000000  0.45430688  0.95430688  1
  P  P6  1  0.25000000  0.04569312  0.54569312  1
  P  P7  1  0.25000000  0.54569312  0.45430688  1
  P  P8  1  0.75000000  0.04569312  0.95430688  1
  P  P9  1  0.75000000  0.54569312  0.04569312  1
  P  P10  1  0.75000000  0.95430688  0.45430688  1
  P  P11  1  0.75000000  0.45430688  0.54569312  1
  O  O12  1  0.24331925  0.11581419  0.07919599  1
  O  O13  1  0.24331925  0.42080401  0.11581419  1
  O  O14  1  0.24331925  0.07919599  0.38418581  1
  O  O15  1  0.24331925  0.38418581  0.42080401  1
  O  O16  1  0.25668075  0.61581419  0.92080401  1
  O  O17  1  0.25668075  0.88418581  0.57919599  1
  O  O18  1  0.25668075  0.57919599  0.61581419  1
  O  O19  1  0.25668075  0.92080401  0.88418581  1
  O  O20  1  0.75668075  0.88418581  0.92080401  1
  O  O21  1  0.75668075  0.57919599  0.88418581  1
  O  O22  1  0.75668075  0.92080401  0.61581419  1
  O  O23  1  0.75668075  0.61581419  0.57919599  1
  O  O24  1  0.74331925  0.38418581  0.07919599  1
  O  O25  1  0.74331925  0.11581419  0.42080401  1
  O  O26  1  0.74331925  0.42080401  0.38418581  1
  O  O27  1  0.74331925  0.07919599  0.11581419  1
  O  O28  1  0.08694067  0.88236303  0.11963637  1
  O  O29  1  0.08694067  0.38036363  0.88236303  1
  O  O30  1  0.08694067  0.11963637  0.61763697  1
  O  O31  1  0.08694067  0.61763697  0.38036363  1
  O  O32  1  0.41305933  0.38236303  0.88036363  1
  O  O33  1  0.41305933  0.11763697  0.61963637  1
  O  O34  1  0.41305933  0.61963637  0.38236303  1
  O  O35  1  0.41305933  0.88036363  0.11763697  1
  O  O36  1  0.91305933  0.11763697  0.88036363  1
  O  O37  1  0.91305933  0.61963637  0.11763697  1
  O  O38  1  0.91305933  0.88036363  0.38236303  1
  O  O39  1  0.91305933  0.38236303  0.61963637  1
  O  O40  1  0.58694067  0.61763697  0.11963637  1
  O  O41  1  0.58694067  0.88236303  0.38036363  1
  O  O42  1  0.58694067  0.38036363  0.61763697  1
  O  O43  1  0.58694067  0.11963637  0.88236303  1
  O  O44  1  0.99359869  0.25000000  0.25000000  1
  O  O45  1  0.50640131  0.75000000  0.75000000  1
  O  O46  1  0.00640131  0.75000000  0.75000000  1
  O  O47  1  0.49359869  0.25000000  0.25000000  1
  H  H48  1  0.44812311  0.21505960  0.58411133  1
  H  H49  1  0.44812311  0.91588867  0.21505960  1
  H  H50  1  0.44812311  0.58411133  0.28494040  1
  H  H51  1  0.44812311  0.28494040  0.91588867  1
  H  H52  1  0.05187689  0.71505960  0.41588867  1
  H  H53  1  0.05187689  0.78494040  0.08411133  1
  H  H54  1  0.05187689  0.08411133  0.71505960  1
  H  H55  1  0.05187689  0.41588867  0.78494040  1
  H  H56  1  0.55187689  0.78494040  0.41588867  1
  H  H57  1  0.55187689  0.08411133  0.78494040  1
  H  H58  1  0.55187689  0.41588867  0.71505960  1
  H  H59  1  0.55187689  0.71505960  0.08411133  1
  H  H60  1  0.94812311  0.28494040  0.58411133  1
  H  H61  1  0.94812311  0.21505960  0.91588867  1
  H  H62  1  0.94812311  0.91588867  0.28494040  1
  H  H63  1  0.94812311  0.58411133  0.21505960  1
