# generated using pymatgen
data_MnP2O7
_symmetry_space_group_name_H-M   'P 1'
_cell_length_a   7.18511421
_cell_length_b   7.96487352
_cell_length_c   9.54996365
_cell_angle_alpha   90.00000000
_cell_angle_beta   65.45274144
_cell_angle_gamma   90.00000000
_symmetry_Int_Tables_number   1
_chemical_formula_structural   MnP2O7
_chemical_formula_sum   'Mn4 P8 O28'
_cell_volume   497.13433702
_cell_formula_units_Z   4
loop_
 _symmetry_equiv_pos_site_id
 _symmetry_equiv_pos_as_xyz
  1  'x, y, z'
loop_
 _atom_site_type_symbol
 _atom_site_label
 _atom_site_symmetry_multiplicity
 _atom_site_fract_x
 _atom_site_fract_y
 _atom_site_fract_z
 _atom_site_occupancy
  Mn  Mn0  1  0.02107199  0.00509640  0.24624997  1
  Mn  Mn1  1  0.47892801  0.50509640  0.25375003  1
  Mn  Mn2  1  0.52107199  0.49490360  0.74624997  1
  Mn  Mn3  1  0.97892801  0.99490360  0.75375003  1
  O  O4  1  0.05372632  0.64716974  0.05559664  1
  O  O5  1  0.08398011  0.19496116  0.11219661  1
  O  O6  1  0.25347302  0.88603583  0.09971012  1
  O  O7  1  0.20820818  0.07730654  0.33057072  1
  O  O8  1  0.06229327  0.18416123  0.61128778  1
  O  O9  1  0.29179182  0.57730654  0.16942928  1
  O  O10  1  0.24652698  0.38603583  0.40028988  1
  O  O11  1  0.18566869  0.85663050  0.60723390  1
  O  O12  1  0.15556521  0.08495814  0.84151445  1
  O  O13  1  0.41601989  0.69496116  0.38780339  1
  O  O14  1  0.56229327  0.31583877  0.11128778  1
  O  O15  1  0.44627368  0.14716974  0.44440336  1
  O  O16  1  0.34443479  0.58495814  0.65848555  1
  O  O17  1  0.68566869  0.64336950  0.10723390  1
  O  O18  1  0.31433131  0.35663050  0.89276610  1
  O  O19  1  0.65556521  0.41504186  0.34151445  1
  O  O20  1  0.55372632  0.85283026  0.55559664  1
  O  O21  1  0.43770673  0.68416123  0.88871222  1
  O  O22  1  0.58398011  0.30503884  0.61219661  1
  O  O23  1  0.84443479  0.91504186  0.15848555  1
  O  O24  1  0.81433131  0.14336950  0.39276610  1
  O  O25  1  0.75347302  0.61396417  0.59971012  1
  O  O26  1  0.70820818  0.42269346  0.83057072  1
  O  O27  1  0.93770673  0.81583877  0.38871222  1
  O  O28  1  0.79179182  0.92269346  0.66942928  1
  O  O29  1  0.74652698  0.11396417  0.90028988  1
  O  O30  1  0.91601989  0.80503884  0.88780339  1
  O  O31  1  0.94627368  0.35283026  0.94440336  1
  P  P32  1  0.27154786  0.69928719  0.05382224  1
  P  P33  1  0.22845214  0.19928719  0.44617776  1
  P  P34  1  0.13097181  0.23950534  0.94492660  1
  P  P35  1  0.36902819  0.73950534  0.55507340  1
  P  P36  1  0.63097181  0.26049466  0.44492660  1
  P  P37  1  0.86902819  0.76049466  0.05507340  1
  P  P38  1  0.77154786  0.80071281  0.55382224  1
  P  P39  1  0.72845214  0.30071281  0.94617776  1
