# generated using pymatgen
data_LiFePO4
_symmetry_space_group_name_H-M   'P 1'
_cell_length_a   10.23476576
_cell_length_b   6.83897625
_cell_length_c   5.05467605
_cell_angle_alpha   90.00000000
_cell_angle_beta   90.00000000
_cell_angle_gamma   90.00000000
_symmetry_Int_Tables_number   1
_chemical_formula_structural   LiFePO4
_chemical_formula_sum   'Li4 Fe4 P4 O16'
_cell_volume   353.80366740
_cell_formula_units_Z   4
loop_
 _symmetry_equiv_pos_site_id
 _symmetry_equiv_pos_as_xyz
  1  'x, y, z'
loop_
 _atom_site_type_symbol
 _atom_site_label
 _atom_site_symmetry_multiplicity
 _atom_site_fract_x
 _atom_site_fract_y
 _atom_site_fract_z
 _atom_site_occupancy
  Li  Li0  1  0.15222455  0.21494099  0.68909626  1
  Li  Li1  1  0.65222455  0.21494099  0.81090374  1
  Li  Li2  1  0.84777545  0.71494099  0.31090374  1
  Li  Li3  1  0.34777545  0.71494099  0.18909626  1
  Fe  Fe4  1  0.65421625  0.71248811  0.81241397  1
  Fe  Fe5  1  0.15421625  0.71248811  0.68758603  1
  Fe  Fe6  1  0.34578375  0.21248811  0.18758603  1
  Fe  Fe7  1  0.84578375  0.21248811  0.31241397  1
  P  P8  1  0.40596557  0.46329261  0.68350728  1
  P  P9  1  0.09403443  0.96329261  0.18350728  1
  P  P10  1  0.59403443  0.96329261  0.31649272  1
  P  P11  1  0.90596557  0.46329261  0.81649272  1
  O  O12  1  0.61569906  0.96839159  0.62159917  1
  O  O13  1  0.65688652  0.14934922  0.19323953  1
  O  O14  1  0.84311348  0.64934922  0.69323953  1
  O  O15  1  0.34311348  0.64934922  0.80676047  1
  O  O16  1  0.05411039  0.45996334  0.74374202  1
  O  O17  1  0.11569906  0.96839159  0.87840083  1
  O  O18  1  0.66000356  0.77339915  0.21004531  1
  O  O19  1  0.55411039  0.45996334  0.75625798  1
  O  O20  1  0.38430094  0.46839159  0.37840083  1
  O  O21  1  0.33999644  0.27339915  0.78995469  1
  O  O22  1  0.15688652  0.14934922  0.30676047  1
  O  O23  1  0.94588961  0.95996334  0.25625798  1
  O  O24  1  0.88430094  0.46839159  0.12159917  1
  O  O25  1  0.16000356  0.77339915  0.28995469  1
  O  O26  1  0.44588961  0.95996334  0.24374202  1
  O  O27  1  0.83999644  0.27339915  0.71004531  1
