# generated using pymatgen
data_Ti9ZnS16
_symmetry_space_group_name_H-M   'P 1'
_cell_length_a   7.03717021
_cell_length_b   27.83842804
_cell_length_c   12.05418943
_cell_angle_alpha   30.00167537
_cell_angle_beta   55.13655528
_cell_angle_gamma   60.32818952
_symmetry_Int_Tables_number   1
_chemical_formula_structural   Ti9ZnS16
_chemical_formula_sum   'Ti18 Zn2 S32'
_cell_volume   968.85820772
_cell_formula_units_Z   2
loop_
 _symmetry_equiv_pos_site_id
 _symmetry_equiv_pos_as_xyz
  1  'x, y, z'
loop_
 _atom_site_type_symbol
 _atom_site_label
 _atom_site_symmetry_multiplicity
 _atom_site_fract_x
 _atom_site_fract_y
 _atom_site_fract_z
 _atom_site_occupancy
  Ti  Ti0  1  0.50780976  0.00031645  0.99038822  1
  Ti  Ti1  1  0.50005888  0.12917122  0.99184418  1
  Ti  Ti2  1  0.50780976  0.24968355  0.99165402  1
  Ti  Ti3  1  0.48649354  0.00493822  0.49285044  1
  Ti  Ti4  1  0.49686192  0.36297682  0.02755876  1
  Ti  Ti5  1  0.50005888  0.12082878  0.50852905  1
  Ti  Ti6  1  0.48649354  0.24506178  0.51260334  1
  Ti  Ti7  1  0.48790040  0.61171305  0.03700832  1
  Ti  Ti8  1  0.49137982  0.37171332  0.51449394  1
  Ti  Ti9  1  0.01109849  0.24542284  0.51036056  1
  Ti  Ti10  1  0.49712267  0.49406065  0.50472045  1
  Ti  Ti11  1  0.48790040  0.63828695  0.48386051  1
  Ti  Ti12  1  0.49137982  0.87828668  0.00134721  1
  Ti  Ti13  1  0.02603713  0.49229615  0.50452019  1
  Ti  Ti14  1  0.49712267  0.75593935  0.48096304  1
  Ti  Ti15  1  0.49686192  0.88702318  0.47946605  1
  Ti  Ti16  1  0.02603713  0.75770385  0.47370479  1
  Ti  Ti17  1  0.01109849  0.00457716  0.49205191  1
  Zn  Zn18  1  0.87676286  0.50075148  0.87220091  1
  Zn  Zn19  1  0.87676286  0.74924852  0.87520681  1
  S  S20  1  0.24712143  0.00337459  0.24334563  1
  S  S21  1  0.24336088  0.13094785  0.24091233  1
  S  S22  1  0.73834040  0.00414062  0.24759530  1
  S  S23  1  0.24712143  0.24662541  0.25684397  1
  S  S24  1  0.25380338  0.37039342  0.25541991  1
  S  S25  1  0.74997427  0.12503824  0.24892773  1
  S  S26  1  0.24336088  0.11905215  0.76470373  1
  S  S27  1  0.73834040  0.24585938  0.26415779  1
  S  S28  1  0.25681958  0.24829281  0.75149500  1
  S  S29  1  0.25593201  0.49751751  0.25201670  1
  S  S30  1  0.24792004  0.61922575  0.26218011  1
  S  S31  1  0.74627135  0.36423453  0.27839881  1
  S  S32  1  0.74997427  0.12496176  0.74908071  1
  S  S33  1  0.24050952  0.36864742  0.77015552  1
  S  S34  1  0.74354267  0.49539229  0.26042781  1
  S  S35  1  0.76012436  0.24909852  0.74921483  1
  S  S36  1  0.27512693  0.49901864  0.74416285  1
  S  S37  1  0.25593201  0.75248249  0.24208676  1
  S  S38  1  0.24050952  0.88135258  0.24474518  1
  S  S39  1  0.74641586  0.61383019  0.27929749  1
  S  S40  1  0.24792004  0.63077425  0.73908312  1
  S  S41  1  0.74932446  0.37187572  0.75562245  1
  S  S42  1  0.73888737  0.49986546  0.74137403  1
  S  S43  1  0.74354267  0.75460771  0.24199699  1
  S  S44  1  0.27512693  0.75098136  0.74023740  1
  S  S45  1  0.74932446  0.87812428  0.24312532  1
  S  S46  1  0.25380338  0.87960658  0.73699361  1
  S  S47  1  0.74641586  0.63616981  0.73461826  1
  S  S48  1  0.73888737  0.75013454  0.74083585  1
  S  S49  1  0.25681958  0.00170719  0.74466626  1
  S  S50  1  0.74627135  0.88576547  0.73533695  1
  S  S51  1  0.76012436  0.00090148  0.74560890  1
