# generated using pymatgen
data_Sr2SmGaCu2O7
_symmetry_space_group_name_H-M   'P 1'
_cell_length_a   5.45263640
_cell_length_b   5.57180813
_cell_length_c   12.24403868
_cell_angle_alpha   103.15402622
_cell_angle_beta   102.86698522
_cell_angle_gamma   89.99636405
_symmetry_Int_Tables_number   1
_chemical_formula_structural   Sr2SmGaCu2O7
_chemical_formula_sum   'Sr4 Sm2 Ga2 Cu4 O14'
_cell_volume   352.62853172
_cell_formula_units_Z   2
loop_
 _symmetry_equiv_pos_site_id
 _symmetry_equiv_pos_as_xyz
  1  'x, y, z'
loop_
 _atom_site_type_symbol
 _atom_site_label
 _atom_site_symmetry_multiplicity
 _atom_site_fract_x
 _atom_site_fract_y
 _atom_site_fract_z
 _atom_site_occupancy
  Sm  Sm0  1  0.50067633  0.49998816  0.99998508  1
  Sm  Sm1  1  0.00071497  0.99997236  0.99998319  1
  Sr  Sr2  1  0.34616882  0.36549111  0.69550491  1
  Sr  Sr3  1  0.65065526  0.63455917  0.30452910  1
  Sr  Sr4  1  0.84617510  0.82993444  0.69549860  1
  Sr  Sr5  1  0.15068941  0.17007608  0.30451884  1
  Cu  Cu6  1  0.92738847  0.42505056  0.85229297  1
  Cu  Cu7  1  0.07493013  0.57488100  0.14772563  1
  Cu  Cu8  1  0.42744277  0.92692307  0.85232957  1
  Cu  Cu9  1  0.57492998  0.07309721  0.14765011  1
  Ga  Ga10  1  0.71609240  0.18163940  0.49997937  1
  Ga  Ga11  1  0.21615162  0.81838335  0.49999903  1
  O  O12  1  0.86732867  0.87135279  0.50000343  1
  O  O13  1  0.36730089  0.12868591  0.50001303  1
  O  O14  1  0.18443884  0.18292400  0.86672060  1
  O  O15  1  0.31771175  0.81708604  0.13329651  1
  O  O16  1  0.68444260  0.18354436  0.86671969  1
  O  O17  1  0.81763358  0.81651446  0.13328177  1
  O  O18  1  0.68662835  0.68487174  0.87285114  1
  O  O19  1  0.81371449  0.31503907  0.12715806  1
  O  O20  1  0.18659534  0.68773016  0.87285865  1
  O  O21  1  0.31375149  0.31226247  0.12713250  1
  O  O22  1  0.35393895  0.77343531  0.64562012  1
  O  O23  1  0.70825608  0.22656638  0.35436271  1
  O  O24  1  0.85393014  0.37211140  0.64562609  1
  O  O25  1  0.20831359  0.62787998  0.35435931  1
