# generated using pymatgen
data_Li7Mn2(CoO4)3
_symmetry_space_group_name_H-M   'P 1'
_cell_length_a   2.96335391
_cell_length_b   9.92051790
_cell_length_c   7.71098757
_cell_angle_alpha   78.26650819
_cell_angle_beta   101.07837445
_cell_angle_gamma   90.00000480
_symmetry_Int_Tables_number   1
_chemical_formula_structural   Li7Mn2(CoO4)3
_chemical_formula_sum   'Li7 Mn2 Co3 O12'
_cell_volume   217.63462648
_cell_formula_units_Z   1
loop_
 _symmetry_equiv_pos_site_id
 _symmetry_equiv_pos_as_xyz
  1  'x, y, z'
loop_
 _atom_site_type_symbol
 _atom_site_label
 _atom_site_symmetry_multiplicity
 _atom_site_fract_x
 _atom_site_fract_y
 _atom_site_fract_z
 _atom_site_occupancy
  Li  Li0  1  0.07967105  0.27150445  0.15934310  1
  Li  Li1  1  0.25361857  0.73716946  0.50723713  1
  Li  Li2  1  0.41377115  0.26143256  0.82754131  1
  Li  Li3  1  0.58792978  0.72181490  0.17586056  1
  Li  Li4  1  0.74769158  0.27401353  0.49538315  1
  Li  Li5  1  0.91499440  0.73181188  0.82998780  1
  Li  Li6  1  0.16694322  0.50244688  0.33388543  1
  Mn  Mn7  1  0.99969077  0.99703495  0.99938154  1
  Mn  Mn8  1  0.66882474  0.00058235  0.33764849  1
  Co  Co9  1  0.33377799  0.00251701  0.66755698  1
  Co  Co10  1  0.50335857  0.50159918  0.00671713  1
  Co  Co11  1  0.82510528  0.49682696  0.65021156  1
  O  O12  1  0.12754947  0.89461613  0.25509794  1
  O  O13  1  0.29310441  0.37657187  0.58620982  1
  O  O14  1  0.47032031  0.88674562  0.94064063  1
  O  O15  1  0.60991735  0.38563199  0.21983371  1
  O  O16  1  0.78531918  0.89003216  0.57063936  1
  O  O17  1  0.95376934  0.38844970  0.90753869  1
  O  O18  1  0.03758546  0.61932936  0.07517091  1
  O  O19  1  0.19696401  0.11431153  0.39392702  1
  O  O20  1  0.38515325  0.61032869  0.77030750  1
  O  O21  1  0.54116450  0.10209663  0.08232900  1
  O  O22  1  0.71918674  0.62174636  0.43837247  1
  O  O23  1  0.88458887  0.11138585  0.76917874  1
