# generated using pymatgen
data_BaCu2Ge2O7
_symmetry_space_group_name_H-M   'P 1'
_cell_length_a   7.16232644
_cell_length_b   7.20812405
_cell_length_c   13.36557486
_cell_angle_alpha   90.00000000
_cell_angle_beta   90.00000000
_cell_angle_gamma   90.00000000
_symmetry_Int_Tables_number   1
_chemical_formula_structural   BaCu2Ge2O7
_chemical_formula_sum   'Ba4 Cu8 Ge8 O28'
_cell_volume   690.02369750
_cell_formula_units_Z   4
loop_
 _symmetry_equiv_pos_site_id
 _symmetry_equiv_pos_as_xyz
  1  'x, y, z'
loop_
 _atom_site_type_symbol
 _atom_site_label
 _atom_site_symmetry_multiplicity
 _atom_site_fract_x
 _atom_site_fract_y
 _atom_site_fract_z
 _atom_site_occupancy
  Ba  Ba0  1  0.02400599  0.04972806  0.75000000  1
  Ba  Ba1  1  0.52400599  0.45027194  0.75000000  1
  Ba  Ba2  1  0.47599401  0.54972806  0.25000000  1
  Ba  Ba3  1  0.97599401  0.95027194  0.25000000  1
  Cu  Cu4  1  0.78553040  0.20177052  0.99422214  1
  Cu  Cu5  1  0.28553040  0.29822948  0.50577786  1
  Cu  Cu6  1  0.71446960  0.70177052  0.00577786  1
  Cu  Cu7  1  0.21446960  0.79822948  0.49422214  1
  Cu  Cu8  1  0.21446960  0.79822948  0.00577786  1
  Cu  Cu9  1  0.71446960  0.70177052  0.49422214  1
  Cu  Cu10  1  0.28553040  0.29822948  0.99422214  1
  Cu  Cu11  1  0.78553040  0.20177052  0.50577786  1
  Ge  Ge12  1  0.01176168  0.52747311  0.87159911  1
  Ge  Ge13  1  0.51176168  0.97252689  0.62840089  1
  Ge  Ge14  1  0.48823832  0.02747311  0.12840089  1
  Ge  Ge15  1  0.98823832  0.47252689  0.37159911  1
  Ge  Ge16  1  0.98823832  0.47252689  0.12840089  1
  Ge  Ge17  1  0.48823832  0.02747311  0.37159911  1
  Ge  Ge18  1  0.51176168  0.97252689  0.87159911  1
  Ge  Ge19  1  0.01176168  0.52747311  0.62840089  1
  O  O20  1  0.89896941  0.50618575  0.75000000  1
  O  O21  1  0.39896941  0.99381425  0.75000000  1
  O  O22  1  0.60103059  0.00618575  0.25000000  1
  O  O23  1  0.10103059  0.49381425  0.25000000  1
  O  O24  1  0.18906469  0.35549753  0.86414772  1
  O  O25  1  0.68906469  0.14450247  0.63585228  1
  O  O26  1  0.31093531  0.85549753  0.13585228  1
  O  O27  1  0.81093531  0.64450247  0.36414772  1
  O  O28  1  0.81093531  0.64450247  0.13585228  1
  O  O29  1  0.31093531  0.85549753  0.36414772  1
  O  O30  1  0.68906469  0.14450247  0.86414772  1
  O  O31  1  0.18906469  0.35549753  0.63585228  1
  O  O32  1  0.07788246  0.76159136  0.88455689  1
  O  O33  1  0.57788246  0.73840864  0.61544311  1
  O  O34  1  0.42211754  0.26159136  0.11544311  1
  O  O35  1  0.92211754  0.23840864  0.38455689  1
  O  O36  1  0.92211754  0.23840864  0.11544311  1
  O  O37  1  0.42211754  0.26159136  0.38455689  1
  O  O38  1  0.57788246  0.73840864  0.88455689  1
  O  O39  1  0.07788246  0.76159136  0.61544311  1
  O  O40  1  0.82184371  0.46502287  0.95479234  1
  O  O41  1  0.32184371  0.03497713  0.54520766  1
  O  O42  1  0.67815629  0.96502287  0.04520766  1
  O  O43  1  0.17815629  0.53497713  0.45479234  1
  O  O44  1  0.17815629  0.53497713  0.04520766  1
  O  O45  1  0.67815629  0.96502287  0.45479234  1
  O  O46  1  0.32184371  0.03497713  0.95479234  1
  O  O47  1  0.82184371  0.46502287  0.54520766  1
