# generated using pymatgen
data_Gd2Si2O7
_symmetry_space_group_name_H-M   'P 1'
_cell_length_a   6.72439293
_cell_length_b   6.77456841
_cell_length_c   12.27907830
_cell_angle_alpha   94.38158084
_cell_angle_beta   90.86874064
_cell_angle_gamma   91.50687144
_symmetry_Int_Tables_number   1
_chemical_formula_structural   Gd2Si2O7
_chemical_formula_sum   'Gd8 Si8 O28'
_cell_volume   557.46123575
_cell_formula_units_Z   4
loop_
 _symmetry_equiv_pos_site_id
 _symmetry_equiv_pos_as_xyz
  1  'x, y, z'
loop_
 _atom_site_type_symbol
 _atom_site_label
 _atom_site_symmetry_multiplicity
 _atom_site_fract_x
 _atom_site_fract_y
 _atom_site_fract_z
 _atom_site_occupancy
  Gd  Gd0  1  0.05406703  0.32954432  0.11609026  1
  Gd  Gd1  1  0.94593297  0.67045568  0.88390974  1
  Gd  Gd2  1  0.11666836  0.09067292  0.35803167  1
  Gd  Gd3  1  0.88333164  0.90932708  0.64196833  1
  Gd  Gd4  1  0.63269162  0.77414918  0.36869372  1
  Gd  Gd5  1  0.36730838  0.22585082  0.63130628  1
  Gd  Gd6  1  0.33318850  0.82767149  0.10601089  1
  Gd  Gd7  1  0.66681150  0.17232851  0.89398911  1
  Si  Si8  1  0.84700491  0.85098895  0.11645588  1
  Si  Si9  1  0.15299509  0.14901105  0.88354412  1
  Si  Si10  1  0.51315318  0.33292558  0.17586251  1
  Si  Si11  1  0.48684682  0.66707442  0.82413749  1
  Si  Si12  1  0.62329179  0.27073746  0.40472390  1
  Si  Si13  1  0.37670821  0.72926254  0.59527610  1
  Si  Si14  1  0.85326184  0.37231950  0.61688413  1
  Si  Si15  1  0.14673816  0.62768050  0.38311587  1
  O  O16  1  0.35984550  0.49011932  0.12843766  1
  O  O17  1  0.64015450  0.50988068  0.87156234  1
  O  O18  1  0.37915141  0.13992841  0.20830534  1
  O  O19  1  0.62084859  0.86007159  0.79169466  1
  O  O20  1  0.69948735  0.29344434  0.09506532  1
  O  O21  1  0.30051265  0.70655566  0.90493468  1
  O  O22  1  0.60027911  0.42322354  0.30469787  1
  O  O23  1  0.39972089  0.57677646  0.69530213  1
  O  O24  1  0.41527629  0.17297801  0.44491145  1
  O  O25  1  0.58472371  0.82702199  0.55508855  1
  O  O26  1  0.77192139  0.09200939  0.37674416  1
  O  O27  1  0.22807861  0.90799061  0.62325584  1
  O  O28  1  0.71112416  0.42199791  0.50867369  1
  O  O29  1  0.28887584  0.57800209  0.49132631  1
  O  O30  1  0.71210042  0.21961557  0.68450317  1
  O  O31  1  0.28789958  0.78038443  0.31549683  1
  O  O32  1  0.03496439  0.22972525  0.57291646  1
  O  O33  1  0.96503561  0.77027475  0.42708354  1
  O  O34  1  0.92246305  0.57878441  0.68473755  1
  O  O35  1  0.07753695  0.42121559  0.31526245  1
  O  O36  1  0.76125778  0.91123043  0.99890453  1
  O  O37  1  0.23874222  0.08876957  0.00109547  1
  O  O38  1  0.65855856  0.78759756  0.18840925  1
  O  O39  1  0.34144144  0.21240244  0.81159075  1
  O  O40  1  0.00232652  0.66947303  0.08091577  1
  O  O41  1  0.99767348  0.33052697  0.91908423  1
  O  O42  1  0.99877498  0.01373506  0.18334509  1
  O  O43  1  0.00122502  0.98626494  0.81665491  1
