# generated using pymatgen
data_Lu2Te4O11
_symmetry_space_group_name_H-M   'P 1'
_cell_length_a   5.10394765
_cell_length_b   6.68129238
_cell_length_c   15.88682998
_cell_angle_alpha   80.17743717
_cell_angle_beta   80.75377882
_cell_angle_gamma   67.54564359
_symmetry_Int_Tables_number   1
_chemical_formula_structural   Lu2Te4O11
_chemical_formula_sum   'Lu4 Te8 O22'
_cell_volume   490.62145734
_cell_formula_units_Z   2
loop_
 _symmetry_equiv_pos_site_id
 _symmetry_equiv_pos_as_xyz
  1  'x, y, z'
loop_
 _atom_site_type_symbol
 _atom_site_label
 _atom_site_symmetry_multiplicity
 _atom_site_fract_x
 _atom_site_fract_y
 _atom_site_fract_z
 _atom_site_occupancy
  Lu  Lu0  1  0.63109537  0.20326503  0.03662125  1
  Lu  Lu1  1  0.87089418  0.29674449  0.46338954  1
  Lu  Lu2  1  0.36890463  0.79673497  0.96337875  1
  Lu  Lu3  1  0.12910582  0.70325551  0.53661046  1
  Te  Te4  1  0.59042472  0.87807374  0.37549987  1
  Te  Te5  1  0.84372667  0.62206338  0.12455969  1
  Te  Te6  1  0.40957528  0.12192626  0.62450013  1
  Te  Te7  1  0.15627333  0.37793662  0.87544031  1
  Te  Te8  1  0.15725290  0.04806758  0.19712125  1
  Te  Te9  1  0.40226504  0.45224036  0.30292130  1
  Te  Te10  1  0.84274710  0.95193242  0.80287875  1
  Te  Te11  1  0.59773496  0.54775964  0.69707870  1
  O  O12  1  0.68603534  0.13371660  0.37319769  1
  O  O13  1  0.19273598  0.36636867  0.12684301  1
  O  O14  1  0.31396466  0.86628340  0.62680231  1
  O  O15  1  0.80726402  0.63363133  0.87315699  1
  O  O16  1  0.24272340  0.96643427  0.44917253  1
  O  O17  1  0.65829294  0.53361770  0.05082509  1
  O  O18  1  0.75727660  0.03356573  0.55082747  1
  O  O19  1  0.34170706  0.46638230  0.94917491  1
  O  O20  1  0.83004664  0.68069984  0.45655411  1
  O  O21  1  0.96722187  0.81933387  0.04349415  1
  O  O22  1  0.16995336  0.31930016  0.54344589  1
  O  O23  1  0.03277813  0.18066613  0.95650585  1
  O  O24  1  0.45170364  0.54598247  0.40646678  1
  O  O25  1  0.40406761  0.95414694  0.09357095  1
  O  O26  1  0.54829636  0.45401753  0.59353322  1
  O  O27  1  0.59593239  0.04585306  0.90642905  1
  O  O28  1  0.08793277  0.36686646  0.33506814  1
  O  O29  1  0.78974733  0.13320829  0.16494195  1
  O  O30  1  0.91206723  0.63313354  0.66493186  1
  O  O31  1  0.21025267  0.86679171  0.83505805  1
  O  O32  1  0.14332406  0.75011245  0.25002760  1
  O  O33  1  0.85667594  0.24988755  0.74997240  1
