# generated using pymatgen
data_Cu7P12S9Cl7
_symmetry_space_group_name_H-M   'P 1'
_cell_length_a   16.77040998
_cell_length_b   16.77040982
_cell_length_c   6.28894436
_cell_angle_alpha   90.00000000
_cell_angle_beta   90.00000000
_cell_angle_gamma   120.00000032
_symmetry_Int_Tables_number   1
_chemical_formula_structural   Cu7P12S9Cl7
_chemical_formula_sum   'Cu14 P24 S18 Cl14'
_cell_volume   1531.77768405
_cell_formula_units_Z   2
loop_
 _symmetry_equiv_pos_site_id
 _symmetry_equiv_pos_as_xyz
  1  'x, y, z'
loop_
 _atom_site_type_symbol
 _atom_site_label
 _atom_site_symmetry_multiplicity
 _atom_site_fract_x
 _atom_site_fract_y
 _atom_site_fract_z
 _atom_site_occupancy
  Cu  Cu0  1  0.07933792  0.92069945  0.52510819  1
  Cu  Cu1  1  0.15863847  0.07930055  0.02510819  1
  Cu  Cu2  1  0.45592334  0.54414014  0.03708131  1
  Cu  Cu3  1  0.33333300  0.66666700  0.47644367  1
  Cu  Cu4  1  0.07930055  0.15863847  0.52510819  1
  Cu  Cu5  1  0.92069945  0.07933792  0.02510819  1
  Cu  Cu6  1  0.54407666  0.08821681  0.53708131  1
  Cu  Cu7  1  0.66666700  0.33333300  0.97644367  1
  Cu  Cu8  1  0.54414014  0.45592334  0.53708131  1
  Cu  Cu9  1  0.45585986  0.91178319  0.03708131  1
  Cu  Cu10  1  0.92066208  0.84136153  0.02510819  1
  Cu  Cu11  1  0.84136153  0.92066208  0.52510819  1
  Cu  Cu12  1  0.91178319  0.45585986  0.53708131  1
  Cu  Cu13  1  0.08821681  0.54407666  0.03708131  1
  P  P14  1  0.52411427  0.69226820  0.90771394  1
  P  P15  1  0.73927453  0.47854287  0.11839060  1
  P  P16  1  0.85044622  0.14953281  0.14265996  1
  P  P17  1  0.69226820  0.52411427  0.40771394  1
  P  P18  1  0.30773180  0.83184607  0.90771394  1
  P  P19  1  0.83184607  0.30773180  0.40771394  1
  P  P20  1  0.70091341  0.85046719  0.64265996  1
  P  P21  1  0.52410327  0.83184890  0.90773253  1
  P  P22  1  0.52145713  0.26073166  0.11839060  1
  P  P23  1  0.14955378  0.29908659  0.64265996  1
  P  P24  1  0.26073166  0.52145713  0.61839060  1
  P  P25  1  0.29908659  0.14955378  0.14265996  1
  P  P26  1  0.47589673  0.30774563  0.40773253  1
  P  P27  1  0.16815110  0.69225437  0.90773253  1
  P  P28  1  0.73926834  0.26072547  0.11839060  1
  P  P29  1  0.14953281  0.85044622  0.64265996  1
  P  P30  1  0.26072547  0.73926834  0.61839060  1
  P  P31  1  0.16815393  0.47588573  0.90771394  1
  P  P32  1  0.69225437  0.16815110  0.40773253  1
  P  P33  1  0.85046719  0.70091341  0.14265996  1
  P  P34  1  0.47588573  0.16815393  0.40771394  1
  P  P35  1  0.83184890  0.52410327  0.40773253  1
  P  P36  1  0.30774563  0.47589673  0.90773253  1
  P  P37  1  0.47854287  0.73927453  0.61839060  1
  S  S38  1  0.33916175  0.07184104  0.33470834  1
  S  S39  1  0.92815896  0.26732071  0.33470834  1
  S  S40  1  0.33917038  0.26733855  0.33472417  1
  S  S41  1  0.26733855  0.33917038  0.83472417  1
  S  S42  1  0.26732071  0.92815896  0.83470834  1
  S  S43  1  0.07184104  0.33916175  0.83470834  1
  S  S44  1  0.66083825  0.73267929  0.83470834  1
  S  S45  1  0.20374753  0.79623199  0.41644078  1
  S  S46  1  0.20376801  0.40751554  0.41644078  1
  S  S47  1  0.73266145  0.07183183  0.33472417  1
  S  S48  1  0.79625247  0.59248446  0.91644078  1
  S  S49  1  0.40751554  0.20376801  0.91644078  1
  S  S50  1  0.07183183  0.73266145  0.83472417  1
  S  S51  1  0.73267929  0.66083825  0.33470834  1
  S  S52  1  0.79623199  0.20374753  0.91644078  1
  S  S53  1  0.66082962  0.92816817  0.83472417  1
  S  S54  1  0.92816817  0.66082962  0.33472417  1
  S  S55  1  0.59248446  0.79625247  0.41644078  1
  Cl  Cl56  1  0.85324825  0.92662299  0.15221649  1
  Cl  Cl57  1  0.92662526  0.07337701  0.65221649  1
  Cl  Cl58  1  0.66666700  0.33333300  0.61433259  1
  Cl  Cl59  1  0.92662299  0.85324825  0.65221649  1
  Cl  Cl60  1  0.93942065  0.46970017  0.89827161  1
  Cl  Cl61  1  0.06057935  0.53027952  0.39827161  1
  Cl  Cl62  1  0.07337474  0.14675175  0.15221649  1
  Cl  Cl63  1  0.14675175  0.07337474  0.65221649  1
  Cl  Cl64  1  0.33333300  0.66666700  0.11433259  1
  Cl  Cl65  1  0.53027952  0.06057935  0.89827161  1
  Cl  Cl66  1  0.46970017  0.93942065  0.39827161  1
  Cl  Cl67  1  0.07337701  0.92662526  0.15221649  1
  Cl  Cl68  1  0.53029983  0.46972048  0.89827161  1
  Cl  Cl69  1  0.46972048  0.53029983  0.39827161  1
