# generated using pymatgen
data_Li(CuO)2
_symmetry_space_group_name_H-M   'P 1'
_cell_length_a   5.75816207
_cell_length_b   5.75816207
_cell_length_c   12.55863199
_cell_angle_alpha   90.00000000
_cell_angle_beta   90.00000000
_cell_angle_gamma   90.00000000
_symmetry_Int_Tables_number   1
_chemical_formula_structural   Li(CuO)2
_chemical_formula_sum   'Li8 Cu16 O16'
_cell_volume   416.39940780
_cell_formula_units_Z   8
loop_
 _symmetry_equiv_pos_site_id
 _symmetry_equiv_pos_as_xyz
  1  'x, y, z'
loop_
 _atom_site_type_symbol
 _atom_site_label
 _atom_site_symmetry_multiplicity
 _atom_site_fract_x
 _atom_site_fract_y
 _atom_site_fract_z
 _atom_site_occupancy
  Li  Li0  1  0.50648281  0.75000000  0.67771810  1
  Li  Li1  1  0.49351719  0.25000000  0.32228190  1
  Li  Li2  1  0.75000000  0.99351719  0.17771810  1
  Li  Li3  1  0.75000000  0.50648281  0.17771810  1
  Li  Li4  1  0.00648281  0.25000000  0.32228190  1
  Li  Li5  1  0.25000000  0.49351719  0.82228190  1
  Li  Li6  1  0.25000000  0.00648281  0.82228190  1
  Li  Li7  1  0.99351719  0.75000000  0.67771810  1
  Cu  Cu8  1  0.49793830  0.75000000  0.99329430  1
  Cu  Cu9  1  0.50195879  0.25000000  0.65049471  1
  Cu  Cu10  1  0.25000000  0.50206170  0.50670570  1
  Cu  Cu11  1  0.00195879  0.75000000  0.34950529  1
  Cu  Cu12  1  0.75000000  0.49793830  0.49329430  1
  Cu  Cu13  1  0.25000000  0.99804121  0.15049471  1
  Cu  Cu14  1  0.25000000  0.99793830  0.50670570  1
  Cu  Cu15  1  0.99804121  0.25000000  0.65049471  1
  Cu  Cu16  1  0.50206170  0.25000000  0.00670570  1
  Cu  Cu17  1  0.00206170  0.75000000  0.99329430  1
  Cu  Cu18  1  0.49804121  0.75000000  0.34950529  1
  Cu  Cu19  1  0.25000000  0.50195879  0.15049471  1
  Cu  Cu20  1  0.99793830  0.25000000  0.00670570  1
  Cu  Cu21  1  0.75000000  0.00206170  0.49329430  1
  Cu  Cu22  1  0.75000000  0.49804121  0.84950529  1
  Cu  Cu23  1  0.75000000  0.00195879  0.84950529  1
  O  O24  1  0.75000000  0.00938519  0.64145502  1
  O  O25  1  0.25000000  0.99061481  0.35854498  1
  O  O26  1  0.00923676  0.25000000  0.15628745  1
  O  O27  1  0.50938519  0.25000000  0.85854498  1
  O  O28  1  0.75000000  0.50923676  0.34371255  1
  O  O29  1  0.25000000  0.50938519  0.35854498  1
  O  O30  1  0.00938519  0.75000000  0.14145502  1
  O  O31  1  0.49061481  0.75000000  0.14145502  1
  O  O32  1  0.75000000  0.99076324  0.34371255  1
  O  O33  1  0.50923676  0.75000000  0.84371255  1
  O  O34  1  0.99061481  0.25000000  0.85854498  1
  O  O35  1  0.49076324  0.25000000  0.15628745  1
  O  O36  1  0.25000000  0.49076324  0.65628745  1
  O  O37  1  0.25000000  0.00923676  0.65628745  1
  O  O38  1  0.99076324  0.75000000  0.84371255  1
  O  O39  1  0.75000000  0.49061481  0.64145502  1
