# generated using pymatgen
data_SiO2
_symmetry_space_group_name_H-M   'P 1'
_cell_length_a   5.15137374
_cell_length_b   14.04005363
_cell_length_c   25.84398496
_cell_angle_alpha   90.00000000
_cell_angle_beta   90.00000000
_cell_angle_gamma   90.00000000
_symmetry_Int_Tables_number   1
_chemical_formula_structural   SiO2
_chemical_formula_sum   'Si32 O64'
_cell_volume   1869.18077733
_cell_formula_units_Z   32
loop_
 _symmetry_equiv_pos_site_id
 _symmetry_equiv_pos_as_xyz
  1  'x, y, z'
loop_
 _atom_site_type_symbol
 _atom_site_label
 _atom_site_symmetry_multiplicity
 _atom_site_fract_x
 _atom_site_fract_y
 _atom_site_fract_z
 _atom_site_occupancy
  Si  Si0  1  0.23573957  0.50000000  0.29624883  1
  Si  Si1  1  0.75630198  0.80406978  0.85801278  1
  Si  Si2  1  0.20976844  0.20997608  0.69319394  1
  Si  Si3  1  0.19561426  0.11087499  0.03682213  1
  Si  Si4  1  0.29905756  0.80392064  0.14652041  1
  Si  Si5  1  0.24673787  0.50000000  0.77727952  1
  Si  Si6  1  0.20976844  0.79002392  0.69319394  1
  Si  Si7  1  0.30814977  0.38911450  0.46867087  1
  Si  Si8  1  0.70094244  0.30392064  0.64652041  1
  Si  Si9  1  0.26653251  0.00000000  0.72774787  1
  Si  Si10  1  0.29905756  0.19607936  0.14652041  1
  Si  Si11  1  0.80438574  0.38912501  0.53682213  1
  Si  Si12  1  0.24369802  0.30406978  0.35801278  1
  Si  Si13  1  0.26177384  0.70924101  0.81047633  1
  Si  Si14  1  0.80438574  0.61087499  0.53682213  1
  Si  Si15  1  0.74485051  0.50000000  0.70871919  1
  Si  Si16  1  0.79023156  0.70997608  0.19319394  1
  Si  Si17  1  0.76426043  0.00000000  0.79624883  1
  Si  Si18  1  0.73346749  0.50000000  0.22774787  1
  Si  Si19  1  0.79023156  0.29002392  0.19319394  1
  Si  Si20  1  0.70094244  0.69607936  0.64652041  1
  Si  Si21  1  0.30814977  0.61088550  0.46867087  1
  Si  Si22  1  0.19561426  0.88912501  0.03682213  1
  Si  Si23  1  0.73822616  0.79075899  0.31047633  1
  Si  Si24  1  0.25514949  0.00000000  0.20871919  1
  Si  Si25  1  0.24369802  0.69593022  0.35801278  1
  Si  Si26  1  0.73822616  0.20924101  0.31047633  1
  Si  Si27  1  0.69185023  0.11088550  0.96867087  1
  Si  Si28  1  0.75326213  0.00000000  0.27727952  1
  Si  Si29  1  0.75630198  0.19593022  0.85801278  1
  Si  Si30  1  0.26177384  0.29075899  0.81047633  1
  Si  Si31  1  0.69185023  0.88911450  0.96867087  1
  O  O32  1  0.56664151  0.00000000  0.74731569  1
  O  O33  1  0.76442560  0.68206647  0.58553553  1
  O  O34  1  0.04188264  0.23531569  0.84337630  1
  O  O35  1  0.06539822  0.00000000  0.77677653  1
  O  O36  1  0.19916823  0.59539369  0.81175184  1
  O  O37  1  0.70642449  0.09376064  0.83061724  1
  O  O38  1  0.57852750  0.75138372  0.15236002  1
  O  O39  1  0.19916823  0.40460631  0.81175184  1
  O  O40  1  0.43335849  0.50000000  0.24731569  1
  O  O41  1  0.31199502  0.09274295  0.17385896  1
  O  O42  1  0.74303807  0.81811074  0.92030758  1
  O  O43  1  0.76442560  0.31793353  0.58553553  1
  O  O44  1  0.26932782  0.25202534  0.75089687  1
  O  O45  1  0.31199502  0.90725705  0.17385896  1
  O  O46  1  0.07943948  0.26039985  0.17464294  1
  O  O47  1  0.73067218  0.75202534  0.25089687  1
  O  O48  1  0.29573625  0.50000000  0.44924693  1
  O  O49  1  0.70642449  0.90623936  0.83061724  1
  O  O50  1  0.40668945  0.86479566  0.99199180  1
  O  O51  1  0.22852780  0.00000000  0.05549311  1
  O  O52  1  0.77984032  0.59431517  0.19277562  1
  O  O53  1  0.68800498  0.59274295  0.67385896  1
  O  O54  1  0.23557440  0.18206647  0.08553553  1
  O  O55  1  0.40668945  0.13520434  0.99199180  1
  O  O56  1  0.77984032  0.40568483  0.19277562  1
  O  O57  1  0.26932782  0.74797466  0.75089687  1
  O  O58  1  0.70426375  0.00000000  0.94924693  1
  O  O59  1  0.04188264  0.76468431  0.84337630  1
  O  O60  1  0.25696193  0.31811074  0.42030758  1
  O  O61  1  0.54731773  0.50000000  0.75773486  1
  O  O62  1  0.29357551  0.40623936  0.33061724  1
  O  O63  1  0.09334526  0.62853608  0.51372392  1
  O  O64  1  0.93460178  0.50000000  0.27677653  1
  O  O65  1  0.09334526  0.37146392  0.51372392  1
  O  O66  1  0.77147220  0.50000000  0.55549311  1
  O  O67  1  0.68800498  0.40725705  0.67385896  1
  O  O68  1  0.04579043  0.50000000  0.72825703  1
  O  O69  1  0.74303807  0.18188926  0.92030758  1
  O  O70  1  0.95811736  0.73531569  0.34337630  1
  O  O71  1  0.45943322  0.22794676  0.33810514  1
  O  O72  1  0.07943948  0.73960015  0.17464294  1
  O  O73  1  0.22015968  0.90568483  0.69277562  1
  O  O74  1  0.95420957  0.00000000  0.22825703  1
  O  O75  1  0.42147250  0.25138372  0.65236002  1
  O  O76  1  0.59331055  0.36479566  0.49199180  1
  O  O77  1  0.29357551  0.59376064  0.33061724  1
  O  O78  1  0.22015968  0.09431517  0.69277562  1
  O  O79  1  0.92056052  0.76039985  0.67464294  1
  O  O80  1  0.73067218  0.24797466  0.25089687  1
  O  O81  1  0.54056678  0.72794676  0.83810514  1
  O  O82  1  0.25696193  0.68188926  0.42030758  1
  O  O83  1  0.90665474  0.12853608  0.01372392  1
  O  O84  1  0.45943322  0.77205324  0.33810514  1
  O  O85  1  0.80083177  0.90460631  0.31175184  1
  O  O86  1  0.57852750  0.24861628  0.15236002  1
  O  O87  1  0.54056678  0.27205324  0.83810514  1
  O  O88  1  0.45268227  0.00000000  0.25773486  1
  O  O89  1  0.23557440  0.81793353  0.08553553  1
  O  O90  1  0.80083177  0.09539369  0.31175184  1
  O  O91  1  0.95811736  0.26468431  0.34337630  1
  O  O92  1  0.92056052  0.23960015  0.67464294  1
  O  O93  1  0.59331055  0.63520434  0.49199180  1
  O  O94  1  0.42147250  0.74861628  0.65236002  1
  O  O95  1  0.90665474  0.87146392  0.01372392  1
