# generated using pymatgen
data_AlPO4
_symmetry_space_group_name_H-M   'P 1'
_cell_length_a   9.80533008
_cell_length_b   14.13297215
_cell_length_c   18.27797505
_cell_angle_alpha   90.00000000
_cell_angle_beta   90.00000000
_cell_angle_gamma   90.00000000
_symmetry_Int_Tables_number   1
_chemical_formula_structural   AlPO4
_chemical_formula_sum   'Al24 P24 O96'
_cell_volume   2532.93357846
_cell_formula_units_Z   24
loop_
 _symmetry_equiv_pos_site_id
 _symmetry_equiv_pos_as_xyz
  1  'x, y, z'
loop_
 _atom_site_type_symbol
 _atom_site_label
 _atom_site_symmetry_multiplicity
 _atom_site_fract_x
 _atom_site_fract_y
 _atom_site_fract_z
 _atom_site_occupancy
  O  O0  1  0.67657526  0.78335794  0.76479088  1
  O  O1  1  0.17657526  0.21664206  0.73520912  1
  O  O2  1  0.82342474  0.28335794  0.23520912  1
  O  O3  1  0.32342474  0.71664206  0.26479088  1
  O  O4  1  0.32342474  0.21664206  0.23520912  1
  O  O5  1  0.82342474  0.78335794  0.26479088  1
  O  O6  1  0.17657526  0.71664206  0.76479088  1
  O  O7  1  0.67657526  0.28335794  0.73520912  1
  O  O8  1  0.59963656  0.82780430  0.63724910  1
  O  O9  1  0.09963656  0.17219570  0.86275090  1
  O  O10  1  0.90036344  0.32780430  0.36275090  1
  O  O11  1  0.40036344  0.67219570  0.13724910  1
  O  O12  1  0.40036344  0.17219570  0.36275090  1
  O  O13  1  0.90036344  0.82780430  0.13724910  1
  O  O14  1  0.09963656  0.67219570  0.63724910  1
  O  O15  1  0.59963656  0.32780430  0.86275090  1
  O  O16  1  0.44447112  0.73916193  0.72180006  1
  O  O17  1  0.94447112  0.26083807  0.77819994  1
  O  O18  1  0.05552888  0.23916193  0.27819994  1
  O  O19  1  0.55552888  0.76083807  0.22180006  1
  O  O20  1  0.55552888  0.26083807  0.27819994  1
  O  O21  1  0.05552888  0.73916193  0.22180006  1
  O  O22  1  0.94447112  0.76083807  0.72180006  1
  O  O23  1  0.44447112  0.23916193  0.77819994  1
  O  O24  1  0.64880919  0.65941260  0.66515168  1
  O  O25  1  0.14880919  0.34058740  0.83484832  1
  O  O26  1  0.85119081  0.15941260  0.33484832  1
  O  O27  1  0.35119081  0.84058740  0.16515168  1
  O  O28  1  0.35119081  0.34058740  0.33484832  1
  O  O29  1  0.85119081  0.65941260  0.16515168  1
  O  O30  1  0.14880919  0.84058740  0.66515168  1
  O  O31  1  0.64880919  0.15941260  0.83484832  1
  O  O32  1  0.48890065  0.99427012  0.80946952  1
  O  O33  1  0.98890065  0.00572988  0.69053048  1
  O  O34  1  0.01109935  0.49427012  0.19053048  1
  O  O35  1  0.25363785  0.98658360  0.75654763  1
  O  O36  1  0.51109935  0.50572988  0.30946952  1
  O  O37  1  0.01109935  0.99427012  0.30946952  1
  O  O38  1  0.98890065  0.50572988  0.80946952  1
  O  O39  1  0.48890065  0.49427012  0.69053048  1
  O  O40  1  0.33937478  0.85594867  0.83958493  1
  O  O41  1  0.83937478  0.14405133  0.66041507  1
  O  O42  1  0.16062522  0.35594867  0.16041507  1
  O  O43  1  0.66062522  0.64405133  0.33958493  1
  O  O44  1  0.66062522  0.14405133  0.16041507  1
  O  O45  1  0.16062522  0.85594867  0.33958493  1
  O  O46  1  0.83937478  0.64405133  0.83958493  1
  O  O47  1  0.33937478  0.35594867  0.66041507  1
  O  O48  1  0.88397128  0.33879303  0.63400446  1
  O  O49  1  0.38397128  0.66120697  0.86599554  1
  O  O50  1  0.61602872  0.83879303  0.36599554  1
  O  O51  1  0.11602872  0.16120697  0.13400446  1
  O  O52  1  0.11602872  0.66120697  0.36599554  1
  O  O53  1  0.61602872  0.33879303  0.13400446  1
  O  O54  1  0.38397128  0.16120697  0.63400446  1
  O  O55  1  0.88397128  0.83879303  0.86599554  1
  O  O56  1  0.86594709  0.39825306  0.50633545  1
  O  O57  1  0.36594709  0.60174694  0.99366455  1
  O  O58  1  0.63405291  0.89825306  0.49366455  1
  O  O59  1  0.13405291  0.10174694  0.00633545  1
  O  O60  1  0.13405291  0.60174694  0.49366455  1
  O  O61  1  0.63405291  0.39825306  0.00633545  1
  O  O62  1  0.36594709  0.10174694  0.50633545  1
  O  O63  1  0.86594709  0.89825306  0.99366455  1
  O  O64  1  0.73634063  0.48113174  0.60505967  1
  O  O65  1  0.23634063  0.51886826  0.89494033  1
  O  O66  1  0.76365937  0.98113174  0.39494033  1
  O  O67  1  0.26365937  0.01886826  0.10505967  1
  O  O68  1  0.26365937  0.51886826  0.39494033  1
  O  O69  1  0.76365937  0.48113174  0.10505967  1
  O  O70  1  0.23634063  0.01886826  0.60505967  1
  O  O71  1  0.73634063  0.98113174  0.89494033  1
  O  O72  1  0.99319111  0.49203055  0.60212438  1
  O  O73  1  0.49319111  0.50796945  0.89787562  1
  O  O74  1  0.50680889  0.99203055  0.39787562  1
  O  O75  1  0.00680889  0.00796945  0.10212438  1
  O  O76  1  0.00680889  0.50796945  0.39787562  1
  O  O77  1  0.50680889  0.49203055  0.10212438  1
  O  O78  1  0.49319111  0.00796945  0.60212438  1
  O  O79  1  0.99319111  0.99203055  0.89787562  1
  O  O80  1  0.28383436  0.51625056  0.60956401  1
  O  O81  1  0.78383436  0.48374944  0.89043599  1
  O  O82  1  0.21616564  0.01625056  0.39043599  1
  O  O83  1  0.71616564  0.98374944  0.10956401  1
  O  O84  1  0.71616564  0.48374944  0.39043599  1
  O  O85  1  0.21616564  0.51625056  0.10956401  1
  O  O86  1  0.78383436  0.98374944  0.60956401  1
  O  O87  1  0.28383436  0.01625056  0.89043599  1
  O  O88  1  0.25363785  0.48658360  0.74345237  1
  O  O89  1  0.75363785  0.51341640  0.75654763  1
  O  O90  1  0.24636215  0.98658360  0.25654763  1
  O  O91  1  0.74636215  0.01341640  0.24345237  1
  O  O92  1  0.74636215  0.51341640  0.25654763  1
  O  O93  1  0.24636215  0.48658360  0.24345237  1
  O  O94  1  0.75363785  0.01341640  0.74345237  1
  O  O95  1  0.51109935  0.00572988  0.19053048  1
  Al  Al96  1  0.83923122  0.75668796  0.79942816  1
  Al  Al97  1  0.33923122  0.24331204  0.70057184  1
  Al  Al98  1  0.66076878  0.25668796  0.20057184  1
  Al  Al99  1  0.16076878  0.74331204  0.29942816  1
  Al  Al100  1  0.16076878  0.24331204  0.20057184  1
  Al  Al101  1  0.66076878  0.75668796  0.29942816  1
  Al  Al102  1  0.33923122  0.74331204  0.79942816  1
  Al  Al103  1  0.83923122  0.25668796  0.70057184  1
  Al  Al104  1  0.15454302  0.96340712  0.67874068  1
  Al  Al105  1  0.65454302  0.03659288  0.82125932  1
  Al  Al106  1  0.34545698  0.46340712  0.32125932  1
  Al  Al107  1  0.84545698  0.53659288  0.17874068  1
  Al  Al108  1  0.84545698  0.03659288  0.32125932  1
  Al  Al109  1  0.34545698  0.96340712  0.17874068  1
  Al  Al110  1  0.65454302  0.53659288  0.67874068  1
  Al  Al111  1  0.15454302  0.46340712  0.82125932  1
  Al  Al112  1  0.62814952  0.92969182  0.58596948  1
  Al  Al113  1  0.12814952  0.07030818  0.91403052  1
  Al  Al114  1  0.87185048  0.42969182  0.41403052  1
  Al  Al115  1  0.37185048  0.57030818  0.08596948  1
  Al  Al116  1  0.37185048  0.07030818  0.41403052  1
  Al  Al117  1  0.87185048  0.92969182  0.08596948  1
  Al  Al118  1  0.12814952  0.57030818  0.58596948  1
  Al  Al119  1  0.62814952  0.42969182  0.91403052  1
  P  P120  1  0.59314069  0.75259208  0.69704644  1
  P  P121  1  0.09314069  0.24740792  0.80295356  1
  P  P122  1  0.90685931  0.25259208  0.30295356  1
  P  P123  1  0.40685931  0.74740792  0.19704644  1
  P  P124  1  0.40685931  0.24740792  0.30295356  1
  P  P125  1  0.90685931  0.75259208  0.19704644  1
  P  P126  1  0.09314069  0.74740792  0.69704644  1
  P  P127  1  0.59314069  0.25259208  0.80295356  1
  P  P128  1  0.34168152  0.96291653  0.82388191  1
  P  P129  1  0.84168152  0.03708347  0.67611809  1
  P  P130  1  0.15831848  0.46291653  0.17611809  1
  P  P131  1  0.65831848  0.53708347  0.32388191  1
  P  P132  1  0.65831848  0.03708347  0.17611809  1
  P  P133  1  0.15831848  0.96291653  0.32388191  1
  P  P134  1  0.84168152  0.53708347  0.82388191  1
  P  P135  1  0.34168152  0.46291653  0.67611809  1
  P  P136  1  0.86966264  0.92815995  0.91305727  1
  P  P137  1  0.36966264  0.07184005  0.58694273  1
  P  P138  1  0.63033736  0.42815995  0.08694273  1
  P  P139  1  0.13033736  0.57184005  0.41305727  1
  P  P140  1  0.13033736  0.07184005  0.08694273  1
  P  P141  1  0.63033736  0.92815995  0.41305727  1
  P  P142  1  0.36966264  0.57184005  0.91305727  1
  P  P143  1  0.86966264  0.42815995  0.58694273  1
