# generated using pymatgen
data_Ba4B2N4O
_symmetry_space_group_name_H-M   'P 1'
_cell_length_a   7.38519813
_cell_length_b   7.41952413
_cell_length_c   8.76928934
_cell_angle_alpha   90.00000000
_cell_angle_beta   114.90298755
_cell_angle_gamma   90.00000000
_symmetry_Int_Tables_number   1
_chemical_formula_structural   Ba4B2N4O
_chemical_formula_sum   'Ba8 B4 N8 O2'
_cell_volume   435.83334233
_cell_formula_units_Z   2
loop_
 _symmetry_equiv_pos_site_id
 _symmetry_equiv_pos_as_xyz
  1  'x, y, z'
loop_
 _atom_site_type_symbol
 _atom_site_label
 _atom_site_symmetry_multiplicity
 _atom_site_fract_x
 _atom_site_fract_y
 _atom_site_fract_z
 _atom_site_occupancy
  Ba  Ba0  1  0.32573428  0.50000000  0.65146855  1
  Ba  Ba1  1  0.69319449  0.80679133  1.00000000  1
  Ba  Ba2  1  0.30680551  0.19320867  0.00000000  1
  Ba  Ba3  1  0.19319449  0.69320867  1.00000000  1
  Ba  Ba4  1  0.82573428  0.00000000  0.65146855  1
  Ba  Ba5  1  0.67426572  0.50000000  0.34853145  1
  Ba  Ba6  1  0.80680551  0.30679133  0.00000000  1
  Ba  Ba7  1  0.17426572  0.00000000  0.34853145  1
  B  B8  1  0.36267428  0.00000000  0.72534855  1
  B  B9  1  0.63732572  0.00000000  0.27465145  1
  B  B10  1  0.13732572  0.50000000  0.27465145  1
  B  B11  1  0.86267428  0.50000000  0.72534855  1
  N  N12  1  0.99490375  0.37146935  0.73172925  1
  N  N13  1  0.76317450  0.12853065  0.26827075  1
  N  N14  1  0.49490375  0.12853065  0.73172925  1
  N  N15  1  0.50509625  0.87146935  0.26827075  1
  N  N16  1  0.00509625  0.62853065  0.26827075  1
  N  N17  1  0.26317450  0.37146935  0.26827075  1
  N  N18  1  0.73682550  0.62853065  0.73172925  1
  N  N19  1  0.23682550  0.87146935  0.73172925  1
  O  O20  1  0.50000000  0.50000000  0.00000000  1
  O  O21  1  0.00000000  0.00000000  0.00000000  1
