# generated using pymatgen
data_Li7Mn2(CoO4)3
_symmetry_space_group_name_H-M   'P 1'
_cell_length_a   2.87710084
_cell_length_b   13.16233975
_cell_length_c   5.82801453
_cell_angle_alpha   102.59141261
_cell_angle_beta   90.00000000
_cell_angle_gamma   90.00000000
_symmetry_Int_Tables_number   1
_chemical_formula_structural   Li7Mn2(CoO4)3
_chemical_formula_sum   'Li7 Mn2 Co3 O12'
_cell_volume   215.39525314
_cell_formula_units_Z   1
loop_
 _symmetry_equiv_pos_site_id
 _symmetry_equiv_pos_as_xyz
  1  'x, y, z'
loop_
 _atom_site_type_symbol
 _atom_site_label
 _atom_site_symmetry_multiplicity
 _atom_site_fract_x
 _atom_site_fract_y
 _atom_site_fract_z
 _atom_site_occupancy
  Li  Li0  1  0.00000000  0.31304900  0.15516944  1
  Li  Li1  1  0.50000000  0.48866409  0.98970862  1
  Li  Li2  1  0.00000000  0.66428553  0.82930417  1
  Li  Li3  1  0.50000000  0.83963852  0.67040468  1
  Li  Li4  1  0.00000000  0.01973183  0.51661877  1
  Li  Li5  1  0.50000000  0.16895100  0.33262973  1
  Li  Li6  1  0.50000000  0.16759044  0.84236079  1
  Mn  Mn7  1  0.00000000  0.00789491  0.00023715  1
  Mn  Mn8  1  -0.00000000  0.67065914  0.33757316  1
  Co  Co9  1  0.00000000  0.31302092  0.66271669  1
  Co  Co10  1  0.50000000  0.49451648  0.49949132  1
  Co  Co11  1  0.50000000  0.83715283  0.15994877  1
  O  O12  1  0.00000000  0.50326098  0.72031145  1
  O  O13  1  0.50000000  0.67371977  0.56159287  1
  O  O14  1  0.00000000  0.82072256  0.39728346  1
  O  O15  1  0.50000000  0.99821999  0.22911552  1
  O  O16  1  0.00000000  0.14959472  0.07891763  1
  O  O17  1  0.50000000  0.33532705  0.89983171  1
  O  O18  1  0.00000000  0.17416944  0.58877243  1
  O  O19  1  0.50000000  0.33624347  0.43376210  1
  O  O20  1  0.00000000  0.51536563  0.28232066  1
  O  O21  1  0.50000000  0.66597850  0.10693793  1
  O  O22  1  0.00000000  0.84275688  0.93142760  1
  O  O23  1  0.50000000  -0.00051368  0.77356336  1
