# generated using pymatgen
data_Mg3B(HO2)3
_symmetry_space_group_name_H-M   'P 1'
_cell_length_a   9.11639002
_cell_length_b   9.11638996
_cell_length_c   3.20620853
_cell_angle_alpha   90.00000000
_cell_angle_beta   90.00000000
_cell_angle_gamma   120.00000385
_symmetry_Int_Tables_number   1
_chemical_formula_structural   Mg3B(HO2)3
_chemical_formula_sum   'Mg6 B2 H6 O12'
_cell_volume   230.76406001
_cell_formula_units_Z   2
loop_
 _symmetry_equiv_pos_site_id
 _symmetry_equiv_pos_as_xyz
  1  'x, y, z'
loop_
 _atom_site_type_symbol
 _atom_site_label
 _atom_site_symmetry_multiplicity
 _atom_site_fract_x
 _atom_site_fract_y
 _atom_site_fract_z
 _atom_site_occupancy
  Mg  Mg0  1  0.96731877  0.62397550  0.25000000  1
  Mg  Mg1  1  0.62397550  0.65665674  0.75000000  1
  Mg  Mg2  1  0.37602450  0.34334326  0.25000000  1
  Mg  Mg3  1  0.03268123  0.37602450  0.75000000  1
  Mg  Mg4  1  0.34334326  0.96731877  0.75000000  1
  Mg  Mg5  1  0.65665674  0.03268123  0.25000000  1
  B  B6  1  0.66666700  0.33333300  0.75000000  1
  B  B7  1  0.33333300  0.66666700  0.25000000  1
  H  H8  1  0.99526856  0.16632200  0.25000000  1
  H  H9  1  0.83367800  0.82894656  0.25000000  1
  H  H10  1  0.16632200  0.17105344  0.75000000  1
  H  H11  1  0.82894656  0.99526856  0.75000000  1
  H  H12  1  0.17105344  0.00473144  0.25000000  1
  H  H13  1  0.00473144  0.83367800  0.75000000  1
  O  O14  1  0.55605997  0.39839335  0.75000000  1
  O  O15  1  0.39839335  0.84233438  0.25000000  1
  O  O16  1  0.70793868  0.91397607  0.75000000  1
  O  O17  1  0.91397607  0.20603739  0.25000000  1
  O  O18  1  0.60160665  0.15766562  0.75000000  1
  O  O19  1  0.84233438  0.44394003  0.75000000  1
  O  O20  1  0.20603739  0.29206132  0.75000000  1
  O  O21  1  0.15766562  0.55605997  0.25000000  1
  O  O22  1  0.08602393  0.79396261  0.75000000  1
  O  O23  1  0.29206132  0.08602393  0.25000000  1
  O  O24  1  0.44394003  0.60160665  0.25000000  1
  O  O25  1  0.79396261  0.70793868  0.25000000  1
