# generated using pymatgen
data_BaFeF5
_symmetry_space_group_name_H-M   'P 1'
_cell_length_a   7.78148398
_cell_length_b   11.45790367
_cell_length_c   11.45790348
_cell_angle_alpha   83.37868458
_cell_angle_beta   70.14941845
_cell_angle_gamma   70.14941660
_symmetry_Int_Tables_number   1
_chemical_formula_structural   BaFeF5
_chemical_formula_sum   'Ba8 Fe8 F40'
_cell_volume   903.78573899
_cell_formula_units_Z   8
loop_
 _symmetry_equiv_pos_site_id
 _symmetry_equiv_pos_as_xyz
  1  'x, y, z'
loop_
 _atom_site_type_symbol
 _atom_site_label
 _atom_site_symmetry_multiplicity
 _atom_site_fract_x
 _atom_site_fract_y
 _atom_site_fract_z
 _atom_site_occupancy
  Ba  Ba0  1  0.22708568  0.83175986  0.72717691  1
  Ba  Ba1  1  0.95426258  0.27282309  0.83175986  1
  Ba  Ba2  1  0.05884554  0.72717691  0.16824014  1
  Ba  Ba3  1  0.78602245  0.16824014  0.27282309  1
  Ba  Ba4  1  0.57639696  0.17833908  0.68569775  1
  Ba  Ba5  1  0.26209471  0.31430225  0.17833908  1
  Ba  Ba6  1  0.75473604  0.68569775  0.82166092  1
  Ba  Ba7  1  0.44043379  0.82166092  0.31430225  1
  Fe  Fe8  1  0.26330647  1.00000000  1.00000000  1
  Fe  Fe9  1  0.75941086  0.00000000  0.00000000  1
  Fe  Fe10  1  0.01330062  0.50000000  0.50000000  1
  Fe  Fe11  1  0.51330062  0.50000000  0.50000000  1
  Fe  Fe12  1  0.18996150  0.15032362  0.48387981  1
  Fe  Fe13  1  0.67384131  0.51612019  0.15032362  1
  Fe  Fe14  1  0.34028511  0.48387981  0.84967638  1
  Fe  Fe15  1  0.82416492  0.84967638  0.51612019  1
  F  F16  1  0.01144898  0.00000000  0.00000000  1
  F  F17  1  0.51150165  0.00000000  0.00000000  1
  F  F18  1  0.29542174  0.07533136  0.83666372  1
  F  F19  1  0.13208546  0.16333628  0.07533136  1
  F  F20  1  0.37075310  0.83666372  0.92466864  1
  F  F21  1  0.20741682  0.92466864  0.16333628  1
  F  F22  1  0.81875762  0.07152177  0.83487340  1
  F  F23  1  0.65363102  0.16512660  0.07152177  1
  F  F24  1  0.89027939  0.83487340  0.92847823  1
  F  F25  1  0.72515279  0.92847823  0.16512660  1
  F  F26  1  0.26317790  0.50000000  0.50000000  1
  F  F27  1  0.76317790  0.50000000  0.50000000  1
  F  F28  1  0.13081260  0.33102570  0.43578616  1
  F  F29  1  0.56659875  0.56421384  0.33102570  1
  F  F30  1  0.46183830  0.43578616  0.66897430  1
  F  F31  1  0.89762445  0.66897430  0.56421384  1
  F  F32  1  0.62068537  0.32371914  0.45756429  1
  F  F33  1  0.07824966  0.54243571  0.32371914  1
  F  F34  1  0.94440451  0.45756429  0.67628086  1
  F  F35  1  0.40196880  0.67628086  0.54243571  1
  F  F36  1  0.43227882  0.13667744  0.34734169  1
  F  F37  1  0.77962051  0.65265831  0.13667744  1
  F  F38  1  0.56895626  0.34734169  0.86332256  1
  F  F39  1  0.91629795  0.86332256  0.65265831  1
  F  F40  1  0.08737802  0.14279669  0.35106271  1
  F  F41  1  0.43844073  0.64893729  0.14279669  1
  F  F42  1  0.23017471  0.35106271  0.85720331  1
  F  F43  1  0.58123742  0.85720331  0.64893729  1
  F  F44  1  0.28060149  0.18594717  0.61045837  1
  F  F45  1  0.89105986  0.38954163  0.18594717  1
  F  F46  1  0.46654866  0.61045837  0.81405283  1
  F  F47  1  0.07700703  0.81405283  0.38954163  1
  F  F48  1  0.93755287  0.19033480  0.61200524  1
  F  F49  1  0.54955810  0.38799476  0.19033480  1
  F  F50  1  0.12788767  0.61200524  0.80966520  1
  F  F51  1  0.73989290  0.80966520  0.38799476  1
  F  F52  1  0.26045472  0.97286085  0.51416522  1
  F  F53  1  0.77461994  0.48583478  0.97286085  1
  F  F54  1  0.23331558  0.51416522  0.02713915  1
  F  F55  1  0.74748079  0.02713915  0.48583478  1
