# generated using pymatgen
data_Na3Sc2(PO4)3
_symmetry_space_group_name_H-M   'P 1'
_cell_length_a   9.13408030
_cell_length_b   9.13408034
_cell_length_c   9.13408060
_cell_angle_alpha   60.08276384
_cell_angle_beta   60.08276369
_cell_angle_gamma   60.08276399
_symmetry_Int_Tables_number   1
_chemical_formula_structural   Na3Sc2(PO4)3
_chemical_formula_sum   'Na6 Sc4 P6 O24'
_cell_volume   539.87503164
_cell_formula_units_Z   2
loop_
 _symmetry_equiv_pos_site_id
 _symmetry_equiv_pos_as_xyz
  1  'x, y, z'
loop_
 _atom_site_type_symbol
 _atom_site_label
 _atom_site_symmetry_multiplicity
 _atom_site_fract_x
 _atom_site_fract_y
 _atom_site_fract_z
 _atom_site_occupancy
  Na  Na0  1  0.25000000  0.87720733  0.62279267  1
  Na  Na1  1  0.62279267  0.25000000  0.87720733  1
  Na  Na2  1  0.37720733  0.75000000  0.12279267  1
  Na  Na3  1  0.87720733  0.62279267  0.25000000  1
  Na  Na4  1  0.12279267  0.37720733  0.75000000  1
  Na  Na5  1  0.75000000  0.12279267  0.37720733  1
  Sc  Sc6  1  0.14709887  0.14709887  0.14709887  1
  Sc  Sc7  1  0.35290113  0.35290113  0.35290113  1
  Sc  Sc8  1  0.85290113  0.85290113  0.85290113  1
  Sc  Sc9  1  0.64709887  0.64709887  0.64709887  1
  P  P10  1  0.45816750  0.04183250  0.75000000  1
  P  P11  1  0.75000000  0.45816750  0.04183250  1
  P  P12  1  0.04183250  0.75000000  0.45816750  1
  P  P13  1  0.54183250  0.95816750  0.25000000  1
  P  P14  1  0.95816750  0.25000000  0.54183250  1
  P  P15  1  0.25000000  0.54183250  0.95816750  1
  O  O16  1  0.27628787  0.51476334  0.12602829  1
  O  O17  1  0.78914373  0.41616232  0.56814813  1
  O  O18  1  0.01476334  0.77628787  0.62602829  1
  O  O19  1  0.43185187  0.21085627  0.58383768  1
  O  O20  1  0.71085627  0.93185187  0.08383768  1
  O  O21  1  0.08383768  0.71085627  0.93185187  1
  O  O22  1  0.28914373  0.06814813  0.91616232  1
  O  O23  1  0.72371213  0.48523666  0.87397171  1
  O  O24  1  0.98523666  0.22371213  0.37397171  1
  O  O25  1  0.21085627  0.58383768  0.43185187  1
  O  O26  1  0.37397171  0.98523666  0.22371213  1
  O  O27  1  0.87397171  0.72371213  0.48523666  1
  O  O28  1  0.93185187  0.08383768  0.71085627  1
  O  O29  1  0.48523666  0.87397171  0.72371213  1
  O  O30  1  0.41616232  0.56814813  0.78914373  1
  O  O31  1  0.51476334  0.12602829  0.27628787  1
  O  O32  1  0.06814813  0.91616232  0.28914373  1
  O  O33  1  0.91616232  0.28914373  0.06814813  1
  O  O34  1  0.12602829  0.27628787  0.51476334  1
  O  O35  1  0.22371213  0.37397171  0.98523666  1
  O  O36  1  0.56814813  0.78914373  0.41616232  1
  O  O37  1  0.58383768  0.43185187  0.21085627  1
  O  O38  1  0.62602829  0.01476334  0.77628787  1
  O  O39  1  0.77628787  0.62602829  0.01476334  1
