# generated using pymatgen
data_Zr2Cu3H32(O8F7)2
_symmetry_space_group_name_H-M   'P 1'
_cell_length_a   10.15370196
_cell_length_b   10.55483664
_cell_length_c   11.06621864
_cell_angle_alpha   91.88003714
_cell_angle_beta   90.00000000
_cell_angle_gamma   90.00000000
_symmetry_Int_Tables_number   1
_chemical_formula_structural   Zr2Cu3H32(O8F7)2
_chemical_formula_sum   'Zr4 Cu6 H64 O32 F28'
_cell_volume   1185.33561495
_cell_formula_units_Z   2
loop_
 _symmetry_equiv_pos_site_id
 _symmetry_equiv_pos_as_xyz
  1  'x, y, z'
loop_
 _atom_site_type_symbol
 _atom_site_label
 _atom_site_symmetry_multiplicity
 _atom_site_fract_x
 _atom_site_fract_y
 _atom_site_fract_z
 _atom_site_occupancy
  Zr  Zr0  1  0.98637228  0.82440015  0.01883184  1
  Zr  Zr1  1  0.48637228  0.17559985  0.48116816  1
  Zr  Zr2  1  0.51362772  0.82440015  0.51883184  1
  Zr  Zr3  1  0.01362772  0.17559985  0.98116816  1
  Cu  Cu4  1  0.38207934  0.50939474  0.12100186  1
  Cu  Cu5  1  0.88207934  0.49060526  0.37899814  1
  Cu  Cu6  1  0.11792066  0.50939474  0.62100186  1
  Cu  Cu7  1  0.00000000  0.00000000  0.50000000  1
  Cu  Cu8  1  0.61792066  0.49060526  0.87899814  1
  Cu  Cu9  1  0.50000000  0.00000000  0.00000000  1
  H  H10  1  0.31210866  0.79504973  0.92514744  1
  H  H11  1  0.12349382  0.31101399  0.48820335  1
  H  H12  1  0.86278230  0.94594092  0.30578270  1
  H  H13  1  0.60803861  0.54645055  0.23780325  1
  H  H14  1  0.09752480  0.81760363  0.31102441  1
  H  H15  1  0.40247520  0.81760363  0.81102441  1
  H  H16  1  0.13721770  0.05405908  0.69421730  1
  H  H17  1  0.75234895  0.27446668  0.32420901  1
  H  H18  1  0.29111359  0.31606102  0.29282216  1
  H  H19  1  0.36278230  0.05405908  0.19421730  1
  H  H20  1  0.20888641  0.31606102  0.79282216  1
  H  H21  1  0.72277464  0.69482841  0.33423032  1
  H  H22  1  0.79691289  0.39735365  0.01658777  1
  H  H23  1  0.74765105  0.27446668  0.82420901  1
  H  H24  1  0.29691289  0.60264635  0.48341223  1
  H  H25  1  0.61272281  0.27747719  0.74744007  1
  H  H26  1  0.48939657  0.70135196  0.93979365  1
  H  H27  1  0.01288476  0.55113712  0.18866362  1
  H  H28  1  0.56255227  0.87734806  0.19495081  1
  H  H29  1  0.16776425  0.45403055  0.98998766  1
  H  H30  1  0.79111359  0.68393898  0.20717784  1
  H  H31  1  0.39196139  0.45354945  0.76219675  1
  H  H32  1  0.69746179  0.89395711  0.12254637  1
  H  H33  1  0.19746179  0.10604289  0.37745363  1
  H  H34  1  0.37650618  0.31101399  0.98820335  1
  H  H35  1  0.68789134  0.20495027  0.07485256  1
  H  H36  1  0.93744773  0.87734806  0.69495081  1
  H  H37  1  0.73361064  -0.00199705  0.91179880  1
  H  H38  1  0.76638936  -0.00199705  0.41179880  1
  H  H39  1  0.25234895  0.72553332  0.17579099  1
  H  H40  1  0.33223575  0.45403055  0.48998766  1
  H  H41  1  0.70888641  0.68393898  0.70717784  1
  H  H42  1  0.20308711  0.60264635  0.98341223  1
  H  H43  1  0.66776425  0.54596945  0.51001234  1
  H  H44  1  0.87650618  0.68898601  0.51179665  1
  H  H45  1  0.38727719  0.72252281  0.25255993  1
  H  H46  1  0.26638936  1.00199705  0.08820120  1
  H  H47  1  0.83223575  0.54596945  0.01001234  1
  H  H48  1  0.43744773  0.12265194  0.80504919  1
  H  H49  1  0.18789134  0.79504973  0.42514744  1
  H  H50  1  0.51288476  0.44886288  0.31133638  1
  H  H51  1  0.62349382  0.68898601  0.01179665  1
  H  H52  1  0.11272281  0.72252281  0.75255993  1
  H  H53  1  0.24765105  0.72553332  0.67579099  1
  H  H54  1  0.98939657  0.29864804  0.56020635  1
  H  H55  1  0.81210866  0.20495027  0.57485256  1
  H  H56  1  0.06255227  0.12265194  0.30504919  1
  H  H57  1  0.70308711  0.39735365  0.51658777  1
  H  H58  1  0.51060343  0.29864804  0.06020635  1
  H  H59  1  0.48711524  0.55113712  0.68866362  1
  H  H60  1  0.63721770  0.94594092  0.80578270  1
  H  H61  1  0.22277464  0.30517159  0.16576968  1
  H  H62  1  0.77722536  0.69482841  0.83423032  1
  H  H63  1  0.80253821  0.89395711  0.62254637  1
  H  H64  1  0.30253821  0.10604289  0.87745363  1
  H  H65  1  0.88727719  0.27747719  0.24744007  1
  H  H66  1  0.23361064  1.00199705  0.58820120  1
  H  H67  1  0.10803861  0.45354945  0.26219675  1
  H  H68  1  0.89196139  0.54645055  0.73780325  1
  H  H69  1  0.27722536  0.30517159  0.66576968  1
  H  H70  1  0.98711524  0.44886288  0.81133638  1
  H  H71  1  0.90247520  0.18239637  0.68897559  1
  H  H72  1  0.59752480  0.18239637  0.18897559  1
  H  H73  1  0.01060343  0.70135196  0.43979365  1
  O  O74  1  0.35656606  0.99601264  0.12159603  1
  O  O75  1  0.96906375  0.48683131  0.73220843  1
  O  O76  1  0.05094145  0.36337019  0.52113618  1
  O  O77  1  0.40421840  0.81393821  0.90130759  1
  O  O78  1  0.44905855  0.36337019  0.02113618  1
  O  O79  1  0.33667816  0.67926260  0.18733803  1
  O  O80  1  0.46906375  0.51316869  0.76779157  1
  O  O81  1  0.55094145  0.63662981  0.97886382  1
  O  O82  1  0.83667816  0.32073740  0.31266197  1
  O  O83  1  0.53093625  0.48683131  0.23220843  1
  O  O84  1  0.74232223  0.63392350  0.26534693  1
  O  O85  1  0.24232223  0.36607650  0.23465307  1
  O  O86  1  0.90421840  0.18606179  0.59869241  1
  O  O87  1  0.85656606  0.00398736  0.37840397  1
  O  O88  1  0.25980339  0.51666921  0.49954041  1
  O  O89  1  0.09578160  0.81393821  0.40130759  1
  O  O90  1  0.03093625  0.51316869  0.26779157  1
  O  O91  1  0.25767777  0.36607650  0.73465307  1
  O  O92  1  0.89917427  0.88819886  0.61282732  1
  O  O93  1  0.74019661  0.48333079  0.50045959  1
  O  O94  1  0.75767777  0.63392350  0.76534693  1
  O  O95  1  0.16332184  0.67926260  0.68733803  1
  O  O96  1  0.60082573  0.88819886  0.11282732  1
  O  O97  1  0.14343394  0.99601264  0.62159603  1
  O  O98  1  0.75980339  0.48333079  1.00045959  1
  O  O99  1  0.64343394  0.00398736  0.87840397  1
  O  O100  1  0.24019661  0.51666921  -0.00045959  1
  O  O101  1  0.10082573  0.11180114  0.38717268  1
  O  O102  1  0.59578160  0.18606179  0.09869241  1
  O  O103  1  0.66332184  0.32073740  0.81266197  1
  O  O104  1  0.94905855  0.63662981  0.47886382  1
  O  O105  1  0.39917427  0.11180114  0.88717268  1
  F  F106  1  0.00928702  0.16627148  0.17094175  1
  F  F107  1  0.13599276  0.13943911  0.82547785  1
  F  F108  1  0.70364510  0.76765599  0.46234061  1
  F  F109  1  0.03585948  0.36793979  0.93443206  1
  F  F110  1  0.53585948  0.63206021  0.56556794  1
  F  F111  1  0.29635490  0.23234401  0.53765939  1
  F  F112  1  0.79635490  0.76765599  0.96234061  1
  F  F113  1  0.38267929  0.99158227  0.51185735  1
  F  F114  1  0.99071298  0.83372852  0.82905825  1
  F  F115  1  0.63599276  0.86056089  0.67452215  1
  F  F116  1  0.46414052  0.36793979  0.43443206  1
  F  F117  1  0.36400724  0.13943911  0.32547785  1
  F  F118  1  0.88433675  0.18631246  0.82987919  1
  F  F119  1  0.16418953  0.73824969  0.95388915  1
  F  F120  1  0.20364510  0.23234401  0.03765939  1
  F  F121  1  0.61732071  0.00841773  0.48814265  1
  F  F122  1  0.96414052  0.63206021  0.06556794  1
  F  F123  1  0.11566325  0.81368754  0.17012081  1
  F  F124  1  0.11732071  0.99158227  0.01185735  1
  F  F125  1  0.38433675  0.81368754  0.67012081  1
  F  F126  1  0.86400724  0.86056089  0.17452215  1
  F  F127  1  0.88267929  0.00841773  0.98814265  1
  F  F128  1  0.83581047  0.26175031  0.04611085  1
  F  F129  1  0.33581047  0.73824969  0.45388915  1
  F  F130  1  0.50928702  0.83372852  0.32905825  1
  F  F131  1  0.61566325  0.18631246  0.32987919  1
  F  F132  1  0.66418953  0.26175031  0.54611085  1
  F  F133  1  0.49071298  0.16627148  0.67094175  1
