# generated using pymatgen
data_CaB2(H6O5)2
_symmetry_space_group_name_H-M   'P 1'
_cell_length_a   6.58790683
_cell_length_b   8.02557579
_cell_length_c   8.01053708
_cell_angle_alpha   104.29829237
_cell_angle_beta   90.00000000
_cell_angle_gamma   90.00000000
_symmetry_Int_Tables_number   1
_chemical_formula_structural   CaB2(H6O5)2
_chemical_formula_sum   'Ca2 B4 H24 O20'
_cell_volume   410.41139554
_cell_formula_units_Z   2
loop_
 _symmetry_equiv_pos_site_id
 _symmetry_equiv_pos_as_xyz
  1  'x, y, z'
loop_
 _atom_site_type_symbol
 _atom_site_label
 _atom_site_symmetry_multiplicity
 _atom_site_fract_x
 _atom_site_fract_y
 _atom_site_fract_z
 _atom_site_occupancy
  Ca  Ca0  1  0.03008863  0.75000000  0.00000000  1
  Ca  Ca1  1  0.96991137  0.25000000  0.00000000  1
  B  B2  1  0.72509012  0.93202045  0.81623435  1
  B  B3  1  0.27490988  0.06797955  0.18376565  1
  B  B4  1  0.72509012  0.56797955  0.18376565  1
  B  B5  1  0.27490988  0.43202045  0.81623435  1
  H  H6  1  0.33349151  0.57387839  0.36719806  1
  H  H7  1  0.09576038  0.59584190  0.37811054  1
  H  H8  1  0.09576038  0.90415810  0.62188946  1
  H  H9  1  0.90423962  0.40415810  0.62188946  1
  H  H10  1  0.66650849  0.42612161  0.63280194  1
  H  H11  1  0.76720903  0.41547544  0.35344126  1
  H  H12  1  0.83427910  0.80287593  0.33776698  1
  H  H13  1  0.33349151  0.92612161  0.63280194  1
  H  H14  1  0.90423962  0.09584190  0.37811054  1
  H  H15  1  0.52344234  0.25626950  0.78424741  1
  H  H16  1  0.76720903  0.08452456  0.64655874  1
  H  H17  1  0.16572090  0.19712407  0.66223302  1
  H  H18  1  0.16572090  0.30287593  0.33776698  1
  H  H19  1  0.65946201  0.01336849  0.08250916  1
  H  H20  1  0.23279097  0.58452456  0.64655874  1
  H  H21  1  0.52344234  0.24373050  0.21575259  1
  H  H22  1  0.83427910  0.69712407  0.66223302  1
  H  H23  1  0.47655766  0.74373050  0.21575259  1
  H  H24  1  0.34053799  0.98663151  0.91749084  1
  H  H25  1  0.23279097  0.91547544  0.35344126  1
  H  H26  1  0.34053799  0.51336849  0.08250916  1
  H  H27  1  0.47655766  0.75626950  0.78424741  1
  H  H28  1  0.66650849  0.07387839  0.36719806  1
  H  H29  1  0.65946201  0.48663151  0.91749084  1
  O  O30  1  0.25360557  0.59984750  0.77271381  1
  O  O31  1  0.22549210  0.03420970  0.99545179  1
  O  O32  1  0.78942802  0.03892834  0.42257670  1
  O  O33  1  0.74639443  0.09984750  0.77271381  1
  O  O34  1  0.22549210  0.46579030  0.00454821  1
  O  O35  1  0.25360557  0.90015250  0.22728619  1
  O  O36  1  0.51518282  0.87205343  0.77418986  1
  O  O37  1  0.77450790  0.53420970  0.99545179  1
  O  O38  1  0.88422499  0.80961706  0.73040391  1
  O  O39  1  0.48481718  0.12794657  0.22581014  1
  O  O40  1  0.78942802  0.46107166  0.57742330  1
  O  O41  1  0.21057198  0.96107166  0.57742330  1
  O  O42  1  0.88422499  0.69038294  0.26959609  1
  O  O43  1  0.11577501  0.30961706  0.73040391  1
  O  O44  1  0.51518282  0.62794657  0.22581014  1
  O  O45  1  0.48481718  0.37205343  0.77418986  1
  O  O46  1  0.21057198  0.53892834  0.42257670  1
  O  O47  1  0.74639443  0.40015250  0.22728619  1
  O  O48  1  0.11577501  0.19038294  0.26959609  1
  O  O49  1  0.77450790  0.96579030  0.00454821  1
