# generated using pymatgen
data_Ba6Hf5S16
_symmetry_space_group_name_H-M   'P 1'
_cell_length_a   5.00518293
_cell_length_b   5.00518353
_cell_length_c   28.10822154
_cell_angle_alpha   95.10455190
_cell_angle_beta   95.10454391
_cell_angle_gamma   90.01777832
_symmetry_Int_Tables_number   1
_chemical_formula_structural   Ba6Hf5S16
_chemical_formula_sum   'Ba6 Hf5 S16'
_cell_volume   698.56485047
_cell_formula_units_Z   1
loop_
 _symmetry_equiv_pos_site_id
 _symmetry_equiv_pos_as_xyz
  1  'x, y, z'
loop_
 _atom_site_type_symbol
 _atom_site_label
 _atom_site_symmetry_multiplicity
 _atom_site_fract_x
 _atom_site_fract_y
 _atom_site_fract_z
 _atom_site_occupancy
  Ba  Ba0  1  0.71789548  0.71789551  0.43585026  1
  Ba  Ba1  1  0.36725186  0.36725187  0.73452795  1
  Ba  Ba2  1  0.54448665  0.54448672  0.08907478  1
  Ba  Ba3  1  0.63274814  0.63274813  0.26547205  1
  Ba  Ba4  1  0.45551335  0.45551328  0.91092522  1
  Ba  Ba5  1  0.28210452  0.28210449  0.56414974  1
  Hf  Hf6  1  0.90958902  0.90958913  0.81924516  1
  Hf  Hf7  1  0.00000000  0.00000000  0.00000000  1
  Hf  Hf8  1  0.81872618  0.81872629  0.63734216  1
  Hf  Hf9  1  0.18127382  0.18127371  0.36265784  1
  Hf  Hf10  1  0.09041098  0.09041087  0.18075484  1
  S  S11  1  0.77416568  0.77416570  0.54822278  1
  S  S12  1  0.95494538  0.95494550  0.90995783  1
  S  S13  1  0.67896633  0.17900076  0.35796695  1
  S  S14  1  0.41015686  0.91020336  0.82033221  1
  S  S15  1  0.91020340  0.41015680  0.82033220  1
  S  S16  1  0.32103367  0.82099924  0.64203305  1
  S  S17  1  0.17900092  0.67896640  0.35796694  1
  S  S18  1  0.82099908  0.32103360  0.64203306  1
  S  S19  1  0.58984314  0.08979664  0.17966779  1
  S  S20  1  0.13504449  0.13504448  0.27003924  1
  S  S21  1  0.86495551  0.86495552  0.72996076  1
  S  S22  1  0.22583432  0.22583430  0.45177722  1
  S  S23  1  0.08979660  0.58984320  0.17966780  1
  S  S24  1  0.00000000  0.50000000  0.00000000  1
  S  S25  1  0.04505462  0.04505450  0.09004217  1
  S  S26  1  0.50000000  0.00000000  0.00000000  1
