# generated using pymatgen
data_SnO2
_symmetry_space_group_name_H-M   'P 1'
_cell_length_a   4.80642087
_cell_length_b   5.82370917
_cell_length_c   16.10126713
_cell_angle_alpha   90.00000000
_cell_angle_beta   90.00000000
_cell_angle_gamma   90.00000000
_symmetry_Int_Tables_number   1
_chemical_formula_structural   SnO2
_chemical_formula_sum   'Sn12 O24'
_cell_volume   450.69374494
_cell_formula_units_Z   12
loop_
 _symmetry_equiv_pos_site_id
 _symmetry_equiv_pos_as_xyz
  1  'x, y, z'
loop_
 _atom_site_type_symbol
 _atom_site_label
 _atom_site_symmetry_multiplicity
 _atom_site_fract_x
 _atom_site_fract_y
 _atom_site_fract_z
 _atom_site_occupancy
  Sn  Sn0  1  0.99697613  0.34366438  0.41604390  1
  Sn  Sn1  1  0.50302387  0.15633562  0.91604390  1
  Sn  Sn2  1  0.00302387  0.34366438  0.08395610  1
  Sn  Sn3  1  0.00000000  0.02077184  0.25000000  1
  Sn  Sn4  1  0.99697613  0.65633562  0.91604390  1
  Sn  Sn5  1  0.49697613  0.84366438  0.08395610  1
  Sn  Sn6  1  0.49697613  0.15633562  0.58395610  1
  Sn  Sn7  1  0.50000000  0.47922816  0.75000000  1
  Sn  Sn8  1  0.50302387  0.84366438  0.41604390  1
  Sn  Sn9  1  0.50000000  0.52077184  0.25000000  1
  Sn  Sn10  1  0.00302387  0.65633562  0.58395610  1
  Sn  Sn11  1  0.00000000  0.97922816  0.75000000  1
  O  O12  1  0.21085633  0.93411941  0.86219916  1
  O  O13  1  0.27288621  0.20517414  0.69472971  1
  O  O14  1  0.78914367  0.93411941  0.63780084  1
  O  O15  1  0.70625062  0.12382830  0.47051098  1
  O  O16  1  0.22711379  0.29482586  0.19472971  1
  O  O17  1  0.28914367  0.43411941  0.86219916  1
  O  O18  1  0.71085633  0.56588059  0.13780084  1
  O  O19  1  0.79374938  0.37617170  0.97051098  1
  O  O20  1  0.70625062  0.87617170  0.97051098  1
  O  O21  1  0.20625062  0.62382830  0.02948902  1
  O  O22  1  0.28914367  0.56588059  0.36219916  1
  O  O23  1  0.71085633  0.43411941  0.63780084  1
  O  O24  1  0.29374938  0.12382830  0.02948902  1
  O  O25  1  0.29374938  0.87617170  0.52948902  1
  O  O26  1  0.77288621  0.70517414  0.80527029  1
  O  O27  1  0.21085633  0.06588059  0.36219916  1
  O  O28  1  0.78914367  0.06588059  0.13780084  1
  O  O29  1  0.27288621  0.79482586  0.19472971  1
  O  O30  1  0.72711379  0.20517414  0.80527029  1
  O  O31  1  0.77288621  0.29482586  0.30527029  1
  O  O32  1  0.72711379  0.79482586  0.30527029  1
  O  O33  1  0.20625062  0.37617170  0.52948902  1
  O  O34  1  0.79374938  0.62382830  0.47051098  1
  O  O35  1  0.22711379  0.70517414  0.69472971  1
