# generated using pymatgen
data_BaCa(CO3)2
_symmetry_space_group_name_H-M   'P 1'
_cell_length_a   8.78836128
_cell_length_b   8.78836145
_cell_length_c   6.24329034
_cell_angle_alpha   90.00000000
_cell_angle_beta   90.00000000
_cell_angle_gamma   119.99999937
_symmetry_Int_Tables_number   1
_chemical_formula_structural   BaCa(CO3)2
_chemical_formula_sum   'Ba3 Ca3 C6 O18'
_cell_volume   417.59950837
_cell_formula_units_Z   3
loop_
 _symmetry_equiv_pos_site_id
 _symmetry_equiv_pos_as_xyz
  1  'x, y, z'
loop_
 _atom_site_type_symbol
 _atom_site_label
 _atom_site_symmetry_multiplicity
 _atom_site_fract_x
 _atom_site_fract_y
 _atom_site_fract_z
 _atom_site_occupancy
  Ba  Ba0  1  0.00000000  0.68684202  0.00000000  1
  Ba  Ba1  1  0.68684202  0.00000000  0.00000000  1
  Ba  Ba2  1  0.31315798  0.31315798  0.00000000  1
  Ca  Ca3  1  0.35986842  0.00000000  0.50000000  1
  Ca  Ca4  1  0.64013158  0.64013158  0.50000000  1
  Ca  Ca5  1  0.00000000  0.35986842  0.50000000  1
  C  C6  1  0.66666700  0.33333300  0.64552727  1
  C  C7  1  0.00000000  0.00000000  0.26496201  1
  C  C8  1  0.00000000  0.00000000  0.73503799  1
  C  C9  1  0.66666700  0.33333300  0.18381649  1
  C  C10  1  0.33333300  0.66666700  0.81618351  1
  C  C11  1  0.33333300  0.66666700  0.35447273  1
  O  O12  1  0.00224479  0.14890145  0.74158910  1
  O  O13  1  0.99775521  0.14665666  0.25841090  1
  O  O14  1  0.82028238  0.34491159  0.18088791  1
  O  O15  1  0.19018683  0.67599456  0.35828609  1
  O  O16  1  0.85109855  0.85334334  0.74158910  1
  O  O17  1  0.14890145  0.00224479  0.25841090  1
  O  O18  1  0.80981317  0.48580773  0.64171391  1
  O  O19  1  0.47537079  0.65508841  0.81911209  1
  O  O20  1  0.85334334  0.85109855  0.25841090  1
  O  O21  1  0.65508841  0.47537079  0.18088791  1
  O  O22  1  0.32400544  0.51419227  0.35828609  1
  O  O23  1  0.67599456  0.19018683  0.64171391  1
  O  O24  1  0.34491159  0.82028238  0.81911209  1
  O  O25  1  0.17971762  0.52462921  0.81911209  1
  O  O26  1  0.14665666  0.99775521  0.74158910  1
  O  O27  1  0.51419227  0.32400544  0.64171391  1
  O  O28  1  0.52462921  0.17971762  0.18088791  1
  O  O29  1  0.48580773  0.80981317  0.35828609  1
