# generated using pymatgen
data_NaGaO2
_symmetry_space_group_name_H-M   'P 1'
_cell_length_a   5.39804734
_cell_length_b   10.78252675
_cell_length_c   14.90975663
_cell_angle_alpha   90.00000000
_cell_angle_beta   90.00000000
_cell_angle_gamma   90.00000000
_symmetry_Int_Tables_number   1
_chemical_formula_structural   NaGaO2
_chemical_formula_sum   'Na16 Ga16 O32'
_cell_volume   867.81626928
_cell_formula_units_Z   16
loop_
 _symmetry_equiv_pos_site_id
 _symmetry_equiv_pos_as_xyz
  1  'x, y, z'
loop_
 _atom_site_type_symbol
 _atom_site_label
 _atom_site_symmetry_multiplicity
 _atom_site_fract_x
 _atom_site_fract_y
 _atom_site_fract_z
 _atom_site_occupancy
  Na  Na0  1  0.28014905  0.48422166  0.43693852  1
  Na  Na1  1  0.18537581  0.72684178  0.81045573  1
  Na  Na2  1  0.21985095  0.51577834  0.93693852  1
  Na  Na3  1  0.18537581  0.77315822  0.31045573  1
  Na  Na4  1  0.28014905  0.01577834  0.93693852  1
  Na  Na5  1  0.81462419  0.27315822  0.18954427  1
  Na  Na6  1  0.78014905  0.01577834  0.56306148  1
  Na  Na7  1  0.71985095  0.51577834  0.56306148  1
  Na  Na8  1  0.78014905  0.48422166  0.06306148  1
  Na  Na9  1  0.31462419  0.27315822  0.31045573  1
  Na  Na10  1  0.71985095  0.98422166  0.06306148  1
  Na  Na11  1  0.81462419  0.22684178  0.68954427  1
  Na  Na12  1  0.68537581  0.72684178  0.68954427  1
  Na  Na13  1  0.21985095  0.98422166  0.43693852  1
  Na  Na14  1  0.68537581  0.77315822  0.18954427  1
  Na  Na15  1  0.31462419  0.22684178  0.81045573  1
  Ga  Ga16  1  0.19575810  0.72260321  0.56209147  1
  Ga  Ga17  1  0.19575810  0.77739679  0.06209147  1
  Ga  Ga18  1  0.80330864  0.52459015  0.31289683  1
  Ga  Ga19  1  0.69575810  0.77739679  0.43790853  1
  Ga  Ga20  1  0.69669136  0.02459015  0.31289683  1
  Ga  Ga21  1  0.19669136  0.02459015  0.18710317  1
  Ga  Ga22  1  0.69575810  0.72260321  0.93790853  1
  Ga  Ga23  1  0.80424190  0.27739679  0.43790853  1
  Ga  Ga24  1  0.69669136  0.47540985  0.81289683  1
  Ga  Ga25  1  0.80330864  0.97540985  0.81289683  1
  Ga  Ga26  1  0.19669136  0.47540985  0.68710317  1
  Ga  Ga27  1  0.30330864  0.52459015  0.18710317  1
  Ga  Ga28  1  0.30424190  0.27739679  0.06209147  1
  Ga  Ga29  1  0.30330864  0.97540985  0.68710317  1
  Ga  Ga30  1  0.30424190  0.22260321  0.56209147  1
  Ga  Ga31  1  0.80424190  0.22260321  0.93790853  1
  O  O32  1  0.27687979  0.80468048  0.66831872  1
  O  O33  1  0.13342786  0.02053305  0.79107433  1
  O  O34  1  0.36657214  0.52053305  0.79107433  1
  O  O35  1  0.86657214  0.52053305  0.70892567  1
  O  O36  1  0.79299033  0.94283584  0.41764877  1
  O  O37  1  0.63342786  0.47946695  0.20892567  1
  O  O38  1  0.20700967  0.44283584  0.08235123  1
  O  O39  1  0.35210041  0.72772899  0.95642344  1
  O  O40  1  0.79299033  0.55716416  0.91764877  1
  O  O41  1  0.36657214  0.97946695  0.29107433  1
  O  O42  1  0.85210041  0.77227101  0.04357656  1
  O  O43  1  0.64789959  0.27227101  0.04357656  1
  O  O44  1  0.64789959  0.22772899  0.54357656  1
  O  O45  1  0.22312021  0.19531952  0.16831872  1
  O  O46  1  0.70700967  0.05716416  0.91764877  1
  O  O47  1  0.70700967  0.44283584  0.41764877  1
  O  O48  1  0.85210041  0.72772899  0.54357656  1
  O  O49  1  0.63342786  0.02053305  0.70892567  1
  O  O50  1  0.27687979  0.69531952  0.16831872  1
  O  O51  1  0.77687979  0.80468048  0.83168128  1
  O  O52  1  0.72312021  0.19531952  0.33168128  1
  O  O53  1  0.20700967  0.05716416  0.58235123  1
  O  O54  1  0.35210041  0.77227101  0.45642344  1
  O  O55  1  0.14789959  0.27227101  0.45642344  1
  O  O56  1  0.29299033  0.94283584  0.08235123  1
  O  O57  1  0.14789959  0.22772899  0.95642344  1
  O  O58  1  0.13342786  0.47946695  0.29107433  1
  O  O59  1  0.77687979  0.69531952  0.33168128  1
  O  O60  1  0.86657214  0.97946695  0.20892567  1
  O  O61  1  0.72312021  0.30468048  0.83168128  1
  O  O62  1  0.22312021  0.30468048  0.66831872  1
  O  O63  1  0.29299033  0.55716416  0.58235123  1
