# generated using pymatgen
data_Sn2P2O7
_symmetry_space_group_name_H-M   'P 1'
_cell_length_a   5.47199109
_cell_length_b   7.19654670
_cell_length_c   9.74364193
_cell_angle_alpha   90.00000000
_cell_angle_beta   90.00000000
_cell_angle_gamma   106.57652999
_symmetry_Int_Tables_number   1
_chemical_formula_structural   Sn2P2O7
_chemical_formula_sum   'Sn4 P4 O14'
_cell_volume   367.75243636
_cell_formula_units_Z   2
loop_
 _symmetry_equiv_pos_site_id
 _symmetry_equiv_pos_as_xyz
  1  'x, y, z'
loop_
 _atom_site_type_symbol
 _atom_site_label
 _atom_site_symmetry_multiplicity
 _atom_site_fract_x
 _atom_site_fract_y
 _atom_site_fract_z
 _atom_site_occupancy
  Sn  Sn0  1  0.79599171  0.15155851  0.61921054  1
  Sn  Sn1  1  0.70400829  0.34844149  0.11921054  1
  Sn  Sn2  1  0.20400829  0.84844149  0.38078946  1
  Sn  Sn3  1  0.29599171  0.65155851  0.88078946  1
  P  P4  1  0.71216918  0.61108825  0.60756018  1
  P  P5  1  0.28783082  0.38891175  0.39243982  1
  P  P6  1  0.78783082  0.88891175  0.10756018  1
  P  P7  1  0.21216918  0.11108825  0.89243982  1
  O  O8  1  0.65268398  0.03458408  0.15904108  1
  O  O9  1  0.15268398  0.53458408  0.34095892  1
  O  O10  1  0.10876881  0.21620154  0.46881675  1
  O  O11  1  0.42477465  0.30945457  0.27966650  1
  O  O12  1  0.34731602  0.96541592  0.84095892  1
  O  O13  1  0.57522535  0.69054543  0.72033350  1
  O  O14  1  0.07522535  0.19054543  0.77966650  1
  O  O15  1  0.89123119  0.78379846  0.53118325  1
  O  O16  1  0.00000000  0.00000000  0.00000000  1
  O  O17  1  0.84731602  0.46541592  0.65904108  1
  O  O18  1  0.39123119  0.28379846  0.96881675  1
  O  O19  1  0.50000000  0.50000000  0.50000000  1
  O  O20  1  0.92477465  0.80945457  0.22033350  1
  O  O21  1  0.60876881  0.71620154  0.03118325  1
