# generated using pymatgen
data_Rb5Tl3O
_symmetry_space_group_name_H-M   'P 1'
_cell_length_a   8.89600038
_cell_length_b   9.43854426
_cell_length_c   17.85418151
_cell_angle_alpha   90.00000000
_cell_angle_beta   104.42599677
_cell_angle_gamma   90.00000000
_symmetry_Int_Tables_number   1
_chemical_formula_structural   Rb5Tl3O
_chemical_formula_sum   'Rb20 Tl12 O4'
_cell_volume   1451.86430279
_cell_formula_units_Z   4
loop_
 _symmetry_equiv_pos_site_id
 _symmetry_equiv_pos_as_xyz
  1  'x, y, z'
loop_
 _atom_site_type_symbol
 _atom_site_label
 _atom_site_symmetry_multiplicity
 _atom_site_fract_x
 _atom_site_fract_y
 _atom_site_fract_z
 _atom_site_occupancy
  Rb  Rb0  1  0.44804187  0.53412572  0.89608374  1
  Rb  Rb1  1  0.04182621  0.25000000  0.53359734  1
  Rb  Rb2  1  0.44804187  0.96587428  0.89608374  1
  Rb  Rb3  1  0.12051720  0.25000000  0.74887431  1
  Rb  Rb4  1  0.95817379  0.75000000  0.46640266  1
  Rb  Rb5  1  0.55195813  0.46587428  0.10391626  1
  Rb  Rb6  1  0.20822806  0.75000000  0.01400745  1
  Rb  Rb7  1  0.37164289  0.75000000  0.25112569  1
  Rb  Rb8  1  0.19422060  0.25000000  0.98599255  1
  Rb  Rb9  1  0.55195813  0.03412572  0.10391626  1
  Rb  Rb10  1  0.32011661  0.53351231  0.64023322  1
  Rb  Rb11  1  0.67988339  0.46648769  0.35976678  1
  Rb  Rb12  1  0.62835711  0.25000000  0.74887431  1
  Rb  Rb13  1  0.67988339  0.03351231  0.35976678  1
  Rb  Rb14  1  0.50822888  0.75000000  0.46640266  1
  Rb  Rb15  1  0.87948280  0.75000000  0.25112569  1
  Rb  Rb16  1  0.80577940  0.75000000  0.01400745  1
  Rb  Rb17  1  0.32011661  0.96648769  0.64023322  1
  Rb  Rb18  1  0.79177194  0.25000000  0.98599255  1
  Rb  Rb19  1  0.49177112  0.25000000  0.53359734  1
  Tl  Tl20  1  0.07663895  0.75000000  0.74513492  1
  Tl  Tl21  1  0.81622783  0.56260475  0.63245566  1
  Tl  Tl22  1  0.92336105  0.25000000  0.25486508  1
  Tl  Tl23  1  0.07836377  0.45139895  0.15672754  1
  Tl  Tl24  1  0.33150403  0.25000000  0.25486508  1
  Tl  Tl25  1  0.18377217  0.06260475  0.36754434  1
  Tl  Tl26  1  0.18377217  0.43739525  0.36754434  1
  Tl  Tl27  1  0.92163623  0.95139895  0.84327246  1
  Tl  Tl28  1  0.07836377  0.04860105  0.15672754  1
  Tl  Tl29  1  0.92163623  0.54860105  0.84327246  1
  Tl  Tl30  1  0.81622783  0.93739525  0.63245566  1
  Tl  Tl31  1  0.66849597  0.75000000  0.74513492  1
  O  O32  1  0.67396545  0.75000000  0.34793091  1
  O  O33  1  0.48628823  0.25000000  0.97257646  1
  O  O34  1  0.32603455  0.25000000  0.65206909  1
  O  O35  1  0.51371177  0.75000000  0.02742354  1
