# generated using pymatgen
data_Na2TiSi4O11
_symmetry_space_group_name_H-M   'P 1'
_cell_length_a   7.89997515
_cell_length_b   8.65156174
_cell_length_c   8.65156206
_cell_angle_alpha   77.96845571
_cell_angle_beta   62.83442281
_cell_angle_gamma   62.83442535
_symmetry_Int_Tables_number   1
_chemical_formula_structural   Na2TiSi4O11
_chemical_formula_sum   'Na4 Ti2 Si8 O22'
_cell_volume   468.05081474
_cell_formula_units_Z   2
loop_
 _symmetry_equiv_pos_site_id
 _symmetry_equiv_pos_as_xyz
  1  'x, y, z'
loop_
 _atom_site_type_symbol
 _atom_site_label
 _atom_site_symmetry_multiplicity
 _atom_site_fract_x
 _atom_site_fract_y
 _atom_site_fract_z
 _atom_site_occupancy
  Na  Na0  1  0.36560200  0.31716253  0.95163347  1
  Na  Na1  1  0.31723547  0.04836653  0.31716253  1
  Na  Na2  1  0.63439800  0.68283747  0.04836653  1
  Na  Na3  1  0.68276453  0.95163347  0.68283747  1
  Ti  Ti4  1  0.24395227  1.00000000  1.00000000  1
  Ti  Ti5  1  0.75604773  0.00000000  0.00000000  1
  Si  Si6  1  0.88398353  0.32072421  0.29634307  1
  Si  Si7  1  0.11601647  0.67927579  0.70365693  1
  Si  Si8  1  0.81967341  0.29634307  0.67927579  1
  Si  Si9  1  0.49894920  0.32072421  0.29634307  1
  Si  Si10  1  0.79529227  0.70365693  0.32072421  1
  Si  Si11  1  0.20470773  0.29634307  0.67927579  1
  Si  Si12  1  0.50105080  0.67927579  0.70365693  1
  Si  Si13  1  0.18032659  0.70365693  0.32072421  1
  O  O14  1  0.09114901  0.22707237  0.12780082  1
  O  O15  1  0.78902901  0.53372652  0.26924598  1
  O  O16  1  0.90885099  0.77292763  0.87219918  1
  O  O17  1  0.67724447  0.73075402  0.53372652  1
  O  O18  1  0.68177862  0.87219918  0.22707237  1
  O  O19  1  0.30385935  0.73799557  0.65428573  1
  O  O20  1  0.31822138  0.12780082  0.77292763  1
  O  O21  1  0.78105017  0.12780082  0.77292763  1
  O  O22  1  0.05827499  0.73075402  0.53372652  1
  O  O23  1  0.94172501  0.26924598  0.46627348  1
  O  O24  1  0.69614065  0.26200443  0.34571427  1
  O  O25  1  0.04185492  0.65428573  0.26200443  1
  O  O26  1  0.50000000  0.00000000  0.00000000  1
  O  O27  1  0.40799849  0.53372652  0.26924598  1
  O  O28  1  0.59200151  0.46627348  0.73075402  1
  O  O29  1  0.44602220  0.77292763  0.87219918  1
  O  O30  1  0.55397780  0.22707237  0.12780082  1
  O  O31  1  0.95814508  0.34571427  0.73799557  1
  O  O32  1  0.21894983  0.87219918  0.22707237  1
  O  O33  1  0.21097099  0.46627348  0.73075402  1
  O  O34  1  0.00000000  0.00000000  0.00000000  1
  O  O35  1  0.32275553  0.26924598  0.46627348  1
