# generated using pymatgen
data_In6S7
_symmetry_space_group_name_H-M   'P 1'
_cell_length_a   3.94589103
_cell_length_b   9.24381451
_cell_length_c   17.51002537
_cell_angle_alpha   102.01151500
_cell_angle_beta   90.00000000
_cell_angle_gamma   90.00000000
_symmetry_Int_Tables_number   1
_chemical_formula_structural   In6S7
_chemical_formula_sum   'In12 S14'
_cell_volume   624.69627683
_cell_formula_units_Z   2
loop_
 _symmetry_equiv_pos_site_id
 _symmetry_equiv_pos_as_xyz
  1  'x, y, z'
loop_
 _atom_site_type_symbol
 _atom_site_label
 _atom_site_symmetry_multiplicity
 _atom_site_fract_x
 _atom_site_fract_y
 _atom_site_fract_z
 _atom_site_occupancy
  In  In0  1  0.25000000  0.81690373  0.18865577  1
  In  In1  1  0.75000000  0.93221632  0.87878506  1
  In  In2  1  0.25000000  0.02212299  0.60357245  1
  In  In3  1  0.25000000  0.32713883  0.46843393  1
  In  In4  1  0.75000000  0.97787701  0.39642755  1
  In  In5  1  0.75000000  0.35492119  0.04618442  1
  In  In6  1  0.75000000  0.18309627  0.81134423  1
  In  In7  1  0.25000000  0.06778368  0.12121494  1
  In  In8  1  0.75000000  0.67286117  0.53156607  1
  In  In9  1  0.25000000  0.46937135  0.27503015  1
  In  In10  1  0.25000000  0.64507881  0.95381558  1
  In  In11  1  0.75000000  0.53062865  0.72496985  1
  S  S12  1  0.75000000  0.24560040  0.17418551  1
  S  S13  1  0.75000000  0.46353235  0.41038654  1
  S  S14  1  0.75000000  0.44343900  0.91007994  1
  S  S15  1  0.25000000  0.55656100  0.08992006  1
  S  S16  1  0.75000000  0.75954427  0.27227601  1
  S  S17  1  0.25000000  0.24045573  0.72772399  1
  S  S18  1  0.75000000  0.83403148  0.00495314  1
  S  S19  1  0.75000000  0.88418029  0.65265992  1
  S  S20  1  0.25000000  0.75439960  0.82581449  1
  S  S21  1  0.25000000  0.83204583  0.46840251  1
  S  S22  1  0.25000000  0.11581971  0.34734008  1
  S  S23  1  0.25000000  0.53646765  0.58961346  1
  S  S24  1  0.75000000  0.16795417  0.53159749  1
  S  S25  1  0.25000000  0.16596852  0.99504686  1
