# generated using pymatgen
data_ZnS
_symmetry_space_group_name_H-M   'P 1'
_cell_length_a   25.25140536
_cell_length_b   25.25140529
_cell_length_c   25.25140591
_cell_angle_alpha   8.75590357
_cell_angle_beta   8.75590463
_cell_angle_gamma   8.75590375
_symmetry_Int_Tables_number   1
_chemical_formula_structural   ZnS
_chemical_formula_sum   'Zn8 S8'
_cell_volume   323.74640180
_cell_formula_units_Z   8
loop_
 _symmetry_equiv_pos_site_id
 _symmetry_equiv_pos_as_xyz
  1  'x, y, z'
loop_
 _atom_site_type_symbol
 _atom_site_label
 _atom_site_symmetry_multiplicity
 _atom_site_fract_x
 _atom_site_fract_y
 _atom_site_fract_z
 _atom_site_occupancy
  Zn  Zn0  1  0.29167869  0.29167869  0.29167869  1
  Zn  Zn1  1  0.70834518  0.70834518  0.70834518  1
  Zn  Zn2  1  0.41667374  0.41667374  0.41667374  1
  Zn  Zn3  1  0.54167203  0.54167203  0.54167203  1
  Zn  Zn4  1  0.00002305  0.00002305  0.00002305  1
  Zn  Zn5  1  0.83334154  0.83334154  0.83334154  1
  Zn  Zn6  1  0.91668526  0.91668526  0.91668526  1
  Zn  Zn7  1  0.12500967  0.12500967  0.12500967  1
  S  S8  1  0.57292469  0.57292469  0.57292469  1
  S  S9  1  0.15623903  0.15623903  0.15623903  1
  S  S10  1  0.73957417  0.73957417  0.73957417  1
  S  S11  1  0.86455148  0.86455148  0.86455148  1
  S  S12  1  0.44790344  0.44790344  0.44790344  1
  S  S13  1  0.32292907  0.32292907  0.32292907  1
  S  S14  1  0.03123951  0.03123951  0.03123951  1
  S  S15  1  0.94788344  0.94788344  0.94788344  1
