# generated using pymatgen
data_Na4Zr2(GeO4)3
_symmetry_space_group_name_H-M   'P 1'
_cell_length_a   9.38760150
_cell_length_b   9.38760146
_cell_length_c   9.38760162
_cell_angle_alpha   61.54124878
_cell_angle_beta   61.54124895
_cell_angle_gamma   61.54124878
_symmetry_Int_Tables_number   1
_chemical_formula_structural   Na4Zr2(GeO4)3
_chemical_formula_sum   'Na8 Zr4 Ge6 O24'
_cell_volume   605.22378808
_cell_formula_units_Z   2
loop_
 _symmetry_equiv_pos_site_id
 _symmetry_equiv_pos_as_xyz
  1  'x, y, z'
loop_
 _atom_site_type_symbol
 _atom_site_label
 _atom_site_symmetry_multiplicity
 _atom_site_fract_x
 _atom_site_fract_y
 _atom_site_fract_z
 _atom_site_occupancy
  Na  Na0  1  0.63139567  0.24982806  0.87547335  1
  Na  Na1  1  0.36860433  0.75017194  0.12452665  1
  Na  Na2  1  0.75017194  0.12452665  0.36860433  1
  Na  Na3  1  0.87547335  0.63139567  0.24982806  1
  Na  Na4  1  0.00000000  0.00000000  0.00000000  1
  Na  Na5  1  0.12452665  0.36860433  0.75017194  1
  Na  Na6  1  0.24982806  0.87547335  0.63139567  1
  Na  Na7  1  0.50000000  0.50000000  0.50000000  1
  Zr  Zr8  1  0.14424359  0.14424359  0.14424359  1
  Zr  Zr9  1  0.35554523  0.35554523  0.35554523  1
  Zr  Zr10  1  0.85575641  0.85575641  0.85575641  1
  Zr  Zr11  1  0.64445477  0.64445477  0.64445477  1
  Ge  Ge12  1  0.54461940  0.95490221  0.24964384  1
  Ge  Ge13  1  0.04509779  0.75035616  0.45538060  1
  Ge  Ge14  1  0.95490221  0.24964384  0.54461940  1
  Ge  Ge15  1  0.45538060  0.04509779  0.75035616  1
  Ge  Ge16  1  0.75035616  0.45538060  0.04509779  1
  Ge  Ge17  1  0.24964384  0.54461940  0.95490221  1
  O  O18  1  0.36938258  0.99131020  0.19861149  1
  O  O19  1  0.19861149  0.36938258  0.99131020  1
  O  O20  1  0.00868980  0.80138851  0.63061742  1
  O  O21  1  0.55555629  0.76404411  0.42590255  1
  O  O22  1  0.08198452  0.74220182  0.93242514  1
  O  O23  1  0.23595589  0.57409745  0.44444371  1
  O  O24  1  0.74220182  0.93242514  0.08198452  1
  O  O25  1  0.70871550  0.48869814  0.86473787  1
  O  O26  1  0.57409745  0.44444371  0.23595589  1
  O  O27  1  0.13526213  0.29128450  0.51130186  1
  O  O28  1  0.91801548  0.25779818  0.06757486  1
  O  O29  1  0.06757486  0.91801548  0.25779818  1
  O  O30  1  0.29128450  0.51130186  0.13526213  1
  O  O31  1  0.80138851  0.63061742  0.00868980  1
  O  O32  1  0.48869814  0.86473787  0.70871550  1
  O  O33  1  0.93242514  0.08198452  0.74220182  1
  O  O34  1  0.25779818  0.06757486  0.91801548  1
  O  O35  1  0.63061742  0.00868980  0.80138851  1
  O  O36  1  0.99131020  0.19861149  0.36938258  1
  O  O37  1  0.51130186  0.13526213  0.29128450  1
  O  O38  1  0.76404411  0.42590255  0.55555629  1
  O  O39  1  0.42590255  0.55555629  0.76404411  1
  O  O40  1  0.86473787  0.70871550  0.48869814  1
  O  O41  1  0.44444371  0.23595589  0.57409745  1
