# generated using pymatgen
data_SiO2
_symmetry_space_group_name_H-M   'P 1'
_cell_length_a   5.12672172
_cell_length_b   12.94688981
_cell_length_c   14.97058444
_cell_angle_alpha   103.37014769
_cell_angle_beta   90.46161872
_cell_angle_gamma   100.75122186
_symmetry_Int_Tables_number   1
_chemical_formula_structural   SiO2
_chemical_formula_sum   'Si16 O32'
_cell_volume   948.40895463
_cell_formula_units_Z   16
loop_
 _symmetry_equiv_pos_site_id
 _symmetry_equiv_pos_as_xyz
  1  'x, y, z'
loop_
 _atom_site_type_symbol
 _atom_site_label
 _atom_site_symmetry_multiplicity
 _atom_site_fract_x
 _atom_site_fract_y
 _atom_site_fract_z
 _atom_site_occupancy
  Si  Si0  1  0.88755539  0.89822022  0.35702830  1
  Si  Si1  1  0.69513775  0.27735862  0.42228152  1
  Si  Si2  1  0.67807132  0.44360698  0.30542430  1
  Si  Si3  1  0.66843046  0.38763464  0.90587220  1
  Si  Si4  1  0.33156954  0.61236536  0.09412780  1
  Si  Si5  1  0.23226600  0.52614059  0.89077576  1
  Si  Si6  1  0.11244461  0.10177978  0.64297170  1
  Si  Si7  1  0.76773400  0.47385941  0.10922424  1
  Si  Si8  1  0.66554964  0.22091353  0.72896429  1
  Si  Si9  1  0.30486225  0.72264138  0.57771848  1
  Si  Si10  1  0.86440570  0.85722531  0.56161797  1
  Si  Si11  1  0.75353660  0.41600398  0.62602150  1
  Si  Si12  1  0.13559430  0.14277469  0.43838203  1
  Si  Si13  1  0.24646340  0.58399602  0.37397850  1
  Si  Si14  1  0.33445036  0.77908647  0.27103571  1
  Si  Si15  1  0.32192868  0.55639302  0.69457570  1
  O  O16  1  0.08352821  0.52719549  0.11996374  1
  O  O17  1  0.34982356  0.73242313  0.16061068  1
  O  O18  1  0.59252446  0.51262848  0.66358514  1
  O  O19  1  0.33700882  0.68200167  0.32318298  1
  O  O20  1  0.69023306  0.41759334  0.19395825  1
  O  O21  1  0.92976166  0.53670641  0.35441787  1
  O  O22  1  0.67664410  0.33057833  0.33490751  1
  O  O23  1  0.65017644  0.26757687  0.83938932  1
  O  O24  1  0.97094066  0.23227155  0.42004513  1
  O  O25  1  0.40747554  0.48737152  0.33641486  1
  O  O26  1  0.07023834  0.46329359  0.64558213  1
  O  O27  1  0.93712850  0.17371699  0.71237117  1
  O  O28  1  0.70248033  0.38125138  0.01290252  1
  O  O29  1  0.98649042  0.97426995  0.62871193  1
  O  O30  1  0.29751967  0.61874862  0.98709748  1
  O  O31  1  0.39565956  0.42956359  0.89007372  1
  O  O32  1  0.69048909  0.37070424  0.51592187  1
  O  O33  1  0.01350958  0.02573005  0.37128807  1
  O  O34  1  0.11644767  0.13638233  0.54529326  1
  O  O35  1  0.32335590  0.66942167  0.66509249  1
  O  O36  1  0.55475274  0.82269639  0.58381117  1
  O  O37  1  0.44524726  0.17730361  0.41618883  1
  O  O38  1  0.91647179  0.47280451  0.88003626  1
  O  O39  1  0.88355233  0.86361767  0.45470674  1
  O  O40  1  0.41247451  0.12417376  0.68880500  1
  O  O41  1  0.60434044  0.57043641  0.10992628  1
  O  O42  1  0.06287150  0.82628301  0.28762883  1
  O  O43  1  0.02905934  0.76772845  0.57995487  1
  O  O44  1  0.30951091  0.62929576  0.48407813  1
  O  O45  1  0.66299118  0.31799833  0.67681702  1
  O  O46  1  0.58752549  0.87582624  0.31119500  1
  O  O47  1  0.30976694  0.58240666  0.80604175  1
