# generated using pymatgen
data_Li7Mn2(CoO4)3
_symmetry_space_group_name_H-M   'P 1'
_cell_length_a   2.95619071
_cell_length_b   7.71405601
_cell_length_c   10.16629313
_cell_angle_alpha   72.95086258
_cell_angle_beta   90.00000006
_cell_angle_gamma   101.04679056
_symmetry_Int_Tables_number   1
_chemical_formula_structural   Li7Mn2(CoO4)3
_chemical_formula_sum   'Li7 Mn2 Co3 O12'
_cell_volume   217.14901679
_cell_formula_units_Z   1
loop_
 _symmetry_equiv_pos_site_id
 _symmetry_equiv_pos_as_xyz
  1  'x, y, z'
loop_
 _atom_site_type_symbol
 _atom_site_label
 _atom_site_symmetry_multiplicity
 _atom_site_fract_x
 _atom_site_fract_y
 _atom_site_fract_z
 _atom_site_occupancy
  Li  Li0  1  0.83274390  0.66548880  0.73004690  1
  Li  Li1  1  0.15994781  0.31989462  0.26748765  1
  Li  Li2  1  0.50664825  0.01329650  0.72808196  1
  Li  Li3  1  0.82560576  0.65121253  0.27717038  1
  Li  Li4  1  0.17202441  0.34404781  0.73464070  1
  Li  Li5  1  0.50195550  0.00391099  0.26219913  1
  Li  Li6  1  0.33228664  0.66457429  0.50407357  1
  Mn  Mn7  1  0.00156950  0.00313899  0.00056935  1
  Mn  Mn8  1  0.33173574  0.66347248  0.00065988  1
  Co  Co9  1  0.66752983  0.33505867  0.99807529  1
  Co  Co10  1  0.99483516  0.98967033  0.49966528  1
  Co  Co11  1  0.67445971  0.34891842  0.49770404  1
  O  O12  1  0.76527548  0.53054995  0.11160797  1
  O  O13  1  0.07797924  0.15595848  0.60755799  1
  O  O14  1  0.42481300  0.84962701  0.10613790  1
  O  O15  1  0.73819534  0.47638968  0.62376824  1
  O  O16  1  0.08090465  0.16180930  0.11168337  1
  O  O17  1  0.42223390  0.84446879  0.61699044  1
  O  O18  1  0.92759175  0.85518349  0.38551122  1
  O  O19  1  0.25448117  0.50896333  0.88641816  1
  O  O20  1  0.58338813  0.16677526  0.38649192  1
  O  O21  1  0.90933710  0.81867421  0.89683954  1
  O  O22  1  0.24673492  0.49347084  0.37912757  1
  O  O23  1  0.56772311  0.13544522  0.88749155  1
