# generated using pymatgen
data_ZnS
_symmetry_space_group_name_H-M   'P 1'
_cell_length_a   25.25338366
_cell_length_b   25.25338365
_cell_length_c   25.25338351
_cell_angle_alpha   8.75481654
_cell_angle_beta   8.75481666
_cell_angle_gamma   8.75481671
_symmetry_Int_Tables_number   1
_chemical_formula_structural   ZnS
_chemical_formula_sum   'Zn8 S8'
_cell_volume   323.74253842
_cell_formula_units_Z   8
loop_
 _symmetry_equiv_pos_site_id
 _symmetry_equiv_pos_as_xyz
  1  'x, y, z'
loop_
 _atom_site_type_symbol
 _atom_site_label
 _atom_site_symmetry_multiplicity
 _atom_site_fract_x
 _atom_site_fract_y
 _atom_site_fract_z
 _atom_site_occupancy
  Zn  Zn0  1  0.29167622  0.29167622  0.29167622  1
  Zn  Zn1  1  0.58335755  0.58335755  0.58335755  1
  Zn  Zn2  1  0.00001046  0.00001046  0.00001046  1
  Zn  Zn3  1  0.87500820  0.87500820  0.87500820  1
  Zn  Zn4  1  0.75001206  0.75001206  0.75001206  1
  Zn  Zn5  1  0.50001073  0.50001073  0.50001073  1
  Zn  Zn6  1  0.12501327  0.12501327  0.12501327  1
  Zn  Zn7  1  0.37502559  0.37502559  0.37502559  1
  S  S8  1  0.15623678  0.15623678  0.15623678  1
  S  S9  1  0.61456936  0.61456936  0.61456936  1
  S  S10  1  0.90625625  0.90625625  0.90625625  1
  S  S11  1  0.78123476  0.78123476  0.78123476  1
  S  S12  1  0.53121580  0.53121580  0.53121580  1
  S  S13  1  0.32288274  0.32288274  0.32288274  1
  S  S14  1  0.40623715  0.40623715  0.40623715  1
  S  S15  1  0.03125907  0.03125907  0.03125907  1
