# generated using pymatgen
data_LaH4C4NO8
_symmetry_space_group_name_H-M   'P 1'
_cell_length_a   5.88515371
_cell_length_b   8.89035232
_cell_length_c   15.95645564
_cell_angle_alpha   90.00000000
_cell_angle_beta   90.00000000
_cell_angle_gamma   92.09279397
_symmetry_Int_Tables_number   1
_chemical_formula_structural   LaH4C4NO8
_chemical_formula_sum   'La4 H16 C16 N4 O32'
_cell_volume   834.30229589
_cell_formula_units_Z   4
loop_
 _symmetry_equiv_pos_site_id
 _symmetry_equiv_pos_as_xyz
  1  'x, y, z'
loop_
 _atom_site_type_symbol
 _atom_site_label
 _atom_site_symmetry_multiplicity
 _atom_site_fract_x
 _atom_site_fract_y
 _atom_site_fract_z
 _atom_site_occupancy
  La  La0  1  0.07569222  0.82136417  0.59962089  1
  La  La1  1  0.07569222  0.32136417  0.90037911  1
  La  La2  1  0.92430778  0.17863583  0.40037911  1
  La  La3  1  0.92430778  0.67863583  0.09962089  1
  H  H4  1  0.31706060  0.17374374  0.09102789  1
  H  H5  1  0.44948957  0.92407773  0.88886648  1
  H  H6  1  0.54655772  0.76119556  0.36322236  1
  H  H7  1  0.55051043  0.07592227  0.11113352  1
  H  H8  1  0.62068676  0.36530178  0.69111526  1
  H  H9  1  0.68293940  0.32625626  0.59102789  1
  H  H10  1  0.68293940  0.82625626  0.90897211  1
  H  H11  1  0.62068676  0.86530178  0.80888474  1
  H  H12  1  0.31706060  0.67374374  0.40897211  1
  H  H13  1  0.54655772  0.26119556  0.13677764  1
  H  H14  1  0.45344228  0.23880444  0.63677764  1
  H  H15  1  0.55051043  0.57592227  0.38886648  1
  H  H16  1  0.45344228  0.73880444  0.86322236  1
  H  H17  1  0.37931324  0.63469822  0.30888474  1
  H  H18  1  0.44948957  0.42407773  0.61113352  1
  H  H19  1  0.37931324  0.13469822  0.19111526  1
  C  C20  1  0.90479676  0.53866173  0.47491562  1
  C  C21  1  0.16312887  0.12213647  0.72706841  1
  C  C22  1  0.16312887  0.62213647  0.77293159  1
  C  C23  1  0.09520324  0.96133827  0.97491562  1
  C  C24  1  0.83687113  0.87786353  0.27293159  1
  C  C25  1  0.58071973  0.45547098  0.97170378  1
  C  C26  1  0.41928027  0.04452902  0.47170378  1
  C  C27  1  0.05936064  0.95277243  0.23732497  1
  C  C28  1  0.94063936  0.54722757  0.73732497  1
  C  C29  1  0.41928027  0.54452902  0.02829622  1
  C  C30  1  0.09520324  0.46133827  0.52508438  1
  C  C31  1  0.83687113  0.37786353  0.22706841  1
  C  C32  1  0.05936064  0.45277243  0.26267503  1
  C  C33  1  0.90479676  0.03866173  0.02508438  1
  C  C34  1  0.94063936  0.04722757  0.76267503  1
  C  C35  1  0.58071973  0.95547098  0.52829622  1
  N  N36  1  0.44782215  0.66187109  0.36726758  1
  N  N37  1  0.55217785  0.83812891  0.86726758  1
  N  N38  1  0.55217785  0.33812891  0.63273242  1
  N  N39  1  0.44782215  0.16187109  0.13273242  1
  O  O40  1  0.24242383  0.06972900  0.65942236  1
  O  O41  1  0.49957989  0.15725095  0.43267098  1
  O  O42  1  0.08905217  0.81861683  0.97428376  1
  O  O43  1  0.75757617  0.93027100  0.34057764  1
  O  O44  1  0.85575318  0.93345274  0.72419118  1
  O  O45  1  0.24242383  0.56972900  0.84057764  1
  O  O46  1  0.86101936  0.10492134  0.82844907  1
  O  O47  1  0.78747380  0.50429100  0.96970149  1
  O  O48  1  0.24095766  0.54720977  0.56155931  1
  O  O49  1  0.74912042  0.26870247  0.26791486  1
  O  O50  1  0.14424682  0.06654726  0.27580882  1
  O  O51  1  0.50042011  0.34274905  0.93267098  1
  O  O52  1  0.24095766  0.04720977  0.93844069  1
  O  O53  1  0.91094783  0.68138317  0.47428376  1
  O  O54  1  0.75757617  0.43027100  0.15942236  1
  O  O55  1  0.21252620  0.49570900  0.03029851  1
  O  O56  1  0.49957989  0.65725095  0.06732902  1
  O  O57  1  0.08905217  0.31861683  0.52571624  1
  O  O58  1  0.85575318  0.43345274  0.77580882  1
  O  O59  1  0.13898064  0.39507866  0.32844907  1
  O  O60  1  0.25087958  0.73129753  0.73208514  1
  O  O61  1  0.91094783  0.18138317  0.02571624  1
  O  O62  1  0.75904234  0.95279023  0.06155931  1
  O  O63  1  0.21252620  0.99570900  0.46970149  1
  O  O64  1  0.75904234  0.45279023  0.43844069  1
  O  O65  1  0.14424682  0.56654726  0.22419118  1
  O  O66  1  0.86101936  0.60492134  0.67155093  1
  O  O67  1  0.50042011  0.84274905  0.56732902  1
  O  O68  1  0.78747380  0.00429100  0.53029851  1
  O  O69  1  0.74912042  0.76870247  0.23208514  1
  O  O70  1  0.25087958  0.23129753  0.76791486  1
  O  O71  1  0.13898064  0.89507866  0.17155093  1
