# generated using pymatgen
data_SiO2
_symmetry_space_group_name_H-M   'P 1'
_cell_length_a   7.51545389
_cell_length_b   14.27745220
_cell_length_c   18.92163542
_cell_angle_alpha   90.00000000
_cell_angle_beta   90.00000000
_cell_angle_gamma   90.00000000
_symmetry_Int_Tables_number   1
_chemical_formula_structural   SiO2
_chemical_formula_sum   'Si36 O72'
_cell_volume   2030.32050022
_cell_formula_units_Z   36
loop_
 _symmetry_equiv_pos_site_id
 _symmetry_equiv_pos_as_xyz
  1  'x, y, z'
loop_
 _atom_site_type_symbol
 _atom_site_label
 _atom_site_symmetry_multiplicity
 _atom_site_fract_x
 _atom_site_fract_y
 _atom_site_fract_z
 _atom_site_occupancy
  Si  Si0  1  0.22182883  0.69735433  0.66690131  1
  Si  Si1  1  0.72182883  0.80264567  0.16690131  1
  Si  Si2  1  0.20797222  0.99950159  0.77331939  1
  Si  Si3  1  0.00000000  0.50000000  0.84760803  1
  Si  Si4  1  0.51127760  0.79943473  0.58310382  1
  Si  Si5  1  0.00000000  0.50000000  0.15239197  1
  Si  Si6  1  0.98872240  0.29943473  0.08310382  1
  Si  Si7  1  0.51127760  0.79943473  0.41689618  1
  Si  Si8  1  0.19041632  0.29228848  0.31732211  1
  Si  Si9  1  0.98872240  0.29943473  0.91689618  1
  Si  Si10  1  0.80958368  0.70771152  0.31732211  1
  Si  Si11  1  0.77817117  0.30264567  0.66690131  1
  Si  Si12  1  0.27817117  0.19735433  0.16690131  1
  Si  Si13  1  0.30958368  0.79228848  0.81732211  1
  Si  Si14  1  0.69041632  0.20771152  0.18267789  1
  Si  Si15  1  0.01127760  0.70056527  0.08310382  1
  Si  Si16  1  0.30958368  0.79228848  0.18267789  1
  Si  Si17  1  0.48872240  0.20056527  0.58310382  1
  Si  Si18  1  0.70797222  0.50049841  0.27331939  1
  Si  Si19  1  0.69041632  0.20771152  0.81732211  1
  Si  Si20  1  0.29202778  0.49950159  0.27331939  1
  Si  Si21  1  0.48872240  0.20056527  0.41689618  1
  Si  Si22  1  0.29202778  0.49950159  0.72668061  1
  Si  Si23  1  0.79202778  0.00049841  0.77331939  1
  Si  Si24  1  0.22182883  0.69735433  0.33309869  1
  Si  Si25  1  0.50000000  0.00000000  0.34760803  1
  Si  Si26  1  0.19041632  0.29228848  0.68267789  1
  Si  Si27  1  0.27817117  0.19735433  0.83309869  1
  Si  Si28  1  0.80958368  0.70771152  0.68267789  1
  Si  Si29  1  0.70797222  0.50049841  0.72668061  1
  Si  Si30  1  0.20797222  0.99950159  0.22668061  1
  Si  Si31  1  0.72182883  0.80264567  0.83309869  1
  Si  Si32  1  0.01127760  0.70056527  0.91689618  1
  Si  Si33  1  0.79202778  0.00049841  0.22668061  1
  Si  Si34  1  0.77817117  0.30264567  0.33309869  1
  Si  Si35  1  0.50000000  0.00000000  0.65239197  1
  O  O36  1  0.83301900  0.76154922  0.89979724  1
  O  O37  1  0.75776585  0.59735618  0.68645193  1
  O  O38  1  0.17938139  0.73912811  0.87188177  1
  O  O39  1  0.79502069  0.75323181  0.76117775  1
  O  O40  1  0.82061861  0.26087189  0.87188177  1
  O  O41  1  0.98749071  0.27994671  0.65469573  1
  O  O42  1  0.44291741  0.21033011  0.50000000  1
  O  O43  1  0.70497931  0.25323181  0.26117775  1
  O  O44  1  0.29502069  0.74676819  0.73882225  1
  O  O45  1  0.51250929  0.77994671  0.84530427  1
  O  O46  1  0.83301900  0.76154922  0.10020276  1
  O  O47  1  0.47676791  0.90880656  0.39760956  1
  O  O48  1  0.75153422  0.91542868  0.17176026  1
  O  O49  1  0.79502069  0.75323181  0.23882225  1
  O  O50  1  0.66698100  0.26154922  0.39979724  1
  O  O51  1  0.20497931  0.24676819  0.76117775  1
  O  O52  1  0.24846578  0.08457132  0.82823974  1
  O  O53  1  0.29502069  0.74676819  0.26117775  1
  O  O54  1  0.24223415  0.40264382  0.31354807  1
  O  O55  1  0.50000000  0.50000000  0.24995641  1
  O  O56  1  0.67938139  0.76087189  0.37188177  1
  O  O57  1  0.74846578  0.41542868  0.67176026  1
  O  O58  1  0.17569307  0.51290033  0.20166896  1
  O  O59  1  0.00000000  0.00000000  0.25004359  1
  O  O60  1  0.20497931  0.24676819  0.23882225  1
  O  O61  1  0.97676791  0.59119344  0.89760956  1
  O  O62  1  0.48749071  0.22005329  0.84530427  1
  O  O63  1  0.74846578  0.41542868  0.32823974  1
  O  O64  1  0.25153422  0.58457132  0.67176026  1
  O  O65  1  0.17938139  0.73912811  0.12811823  1
  O  O66  1  0.70497931  0.25323181  0.73882225  1
  O  O67  1  0.02323209  0.40880656  0.10239044  1
  O  O68  1  0.33301900  0.73845078  0.60020276  1
  O  O69  1  0.32430693  0.01290033  0.29833104  1
  O  O70  1  0.24223415  0.40264382  0.68645193  1
  O  O71  1  0.98749071  0.27994671  0.34530427  1
  O  O72  1  0.01250929  0.72005329  0.34530427  1
  O  O73  1  0.25776585  0.90264382  0.18645193  1
  O  O74  1  0.82061861  0.26087189  0.12811823  1
  O  O75  1  0.67938139  0.76087189  0.62811823  1
  O  O76  1  0.50000000  0.50000000  0.75004359  1
  O  O77  1  0.94291741  0.28966989  0.00000000  1
  O  O78  1  0.16698100  0.23845078  0.10020276  1
  O  O79  1  0.05708259  0.71033011  0.00000000  1
  O  O80  1  0.67569307  0.98709967  0.70166896  1
  O  O81  1  0.32061861  0.23912811  0.62811823  1
  O  O82  1  0.01250929  0.72005329  0.65469573  1
  O  O83  1  0.51250929  0.77994671  0.15469573  1
  O  O84  1  0.75153422  0.91542868  0.82823974  1
  O  O85  1  0.33301900  0.73845078  0.39979724  1
  O  O86  1  0.82430693  0.48709967  0.20166896  1
  O  O87  1  0.25776585  0.90264382  0.81354807  1
  O  O88  1  0.47676791  0.90880656  0.60239044  1
  O  O89  1  0.67569307  0.98709967  0.29833104  1
  O  O90  1  0.32061861  0.23912811  0.37188177  1
  O  O91  1  0.75776585  0.59735618  0.31354807  1
  O  O92  1  0.55708259  0.78966989  0.50000000  1
  O  O93  1  0.25153422  0.58457132  0.32823974  1
  O  O94  1  0.97676791  0.59119344  0.10239044  1
  O  O95  1  0.32430693  0.01290033  0.70166896  1
  O  O96  1  0.24846578  0.08457132  0.17176026  1
  O  O97  1  0.52323209  0.09119344  0.39760956  1
  O  O98  1  0.16698100  0.23845078  0.89979724  1
  O  O99  1  0.48749071  0.22005329  0.15469573  1
  O  O100  1  0.74223415  0.09735618  0.18645193  1
  O  O101  1  0.74223415  0.09735618  0.81354807  1
  O  O102  1  0.00000000  0.00000000  0.74995641  1
  O  O103  1  0.52323209  0.09119344  0.60239044  1
  O  O104  1  0.82430693  0.48709967  0.79833104  1
  O  O105  1  0.02323209  0.40880656  0.89760956  1
  O  O106  1  0.66698100  0.26154922  0.60020276  1
  O  O107  1  0.17569307  0.51290033  0.79833104  1
