# generated using pymatgen
data_Ag2Hg(SeO3)2
_symmetry_space_group_name_H-M   'P 1'
_cell_length_a   7.05709569
_cell_length_b   11.41040024
_cell_length_c   17.26006793
_cell_angle_alpha   90.00000000
_cell_angle_beta   90.00000000
_cell_angle_gamma   90.00000000
_symmetry_Int_Tables_number   1
_chemical_formula_structural   Ag2Hg(SeO3)2
_chemical_formula_sum   'Ag16 Hg8 Se16 O48'
_cell_volume   1389.85465250
_cell_formula_units_Z   8
loop_
 _symmetry_equiv_pos_site_id
 _symmetry_equiv_pos_as_xyz
  1  'x, y, z'
loop_
 _atom_site_type_symbol
 _atom_site_label
 _atom_site_symmetry_multiplicity
 _atom_site_fract_x
 _atom_site_fract_y
 _atom_site_fract_z
 _atom_site_occupancy
  Ag  Ag0  1  0.88424950  0.90567197  0.24242318  1
  Ag  Ag1  1  0.35214206  0.11940829  0.95555999  1
  Ag  Ag2  1  0.61575050  0.09432803  0.74242318  1
  Ag  Ag3  1  0.85214206  0.11940829  0.54444001  1
  Ag  Ag4  1  0.38424950  0.59432803  0.75757682  1
  Ag  Ag5  1  0.85214206  0.38059171  0.04444001  1
  Ag  Ag6  1  0.88424950  0.59432803  0.74242318  1
  Ag  Ag7  1  0.14785794  0.61940829  0.95555999  1
  Ag  Ag8  1  0.11575050  0.40567197  0.25757682  1
  Ag  Ag9  1  0.38424950  0.90567197  0.25757682  1
  Ag  Ag10  1  0.11575050  0.09432803  0.75757682  1
  Ag  Ag11  1  0.61575050  0.40567197  0.24242318  1
  Ag  Ag12  1  0.14785794  0.88059171  0.45555999  1
  Ag  Ag13  1  0.35214206  0.38059171  0.45555999  1
  Ag  Ag14  1  0.64785794  0.61940829  0.54444001  1
  Ag  Ag15  1  0.64785794  0.88059171  0.04444001  1
  Hg  Hg16  1  0.12464405  0.16134458  0.14924444  1
  Hg  Hg17  1  0.87535595  0.83865542  0.85075556  1
  Hg  Hg18  1  0.87535595  0.66134458  0.35075556  1
  Hg  Hg19  1  0.12464405  0.33865542  0.64924444  1
  Hg  Hg20  1  0.62464405  0.16134458  0.35075556  1
  Hg  Hg21  1  0.62464405  0.33865542  0.85075556  1
  Hg  Hg22  1  0.37535595  0.66134458  0.14924444  1
  Hg  Hg23  1  0.37535595  0.83865542  0.64924444  1
  Se  Se24  1  0.16332281  0.36778340  0.85499252  1
  Se  Se25  1  0.83470892  0.38182929  0.43139656  1
  Se  Se26  1  0.66332281  0.36778340  0.64500748  1
  Se  Se27  1  0.66332281  0.13221660  0.14500748  1
  Se  Se28  1  0.16529108  0.61817071  0.56860344  1
  Se  Se29  1  0.33667719  0.63221660  0.35499252  1
  Se  Se30  1  0.33667719  0.86778340  0.85499252  1
  Se  Se31  1  0.33470892  0.38182929  0.06860344  1
  Se  Se32  1  0.83470892  0.11817071  0.93139656  1
  Se  Se33  1  0.66529108  0.61817071  0.93139656  1
  Se  Se34  1  0.83667719  0.63221660  0.14500748  1
  Se  Se35  1  0.33470892  0.11817071  0.56860344  1
  Se  Se36  1  0.83667719  0.86778340  0.64500748  1
  Se  Se37  1  0.66529108  0.88182929  0.43139656  1
  Se  Se38  1  0.16332281  0.13221660  0.35499252  1
  Se  Se39  1  0.16529108  0.88182929  0.06860344  1
  O  O40  1  0.83424244  0.78066929  0.46519028  1
  O  O41  1  0.17162617  0.53887002  0.39590937  1
  O  O42  1  0.14142779  0.06289693  0.26352327  1
  O  O43  1  0.30858515  0.24801644  0.83652110  1
  O  O44  1  0.14142779  0.43710307  0.76352327  1
  O  O45  1  0.35857221  0.93710307  0.76352327  1
  O  O46  1  0.30360093  0.00633944  0.08005026  1
  O  O47  1  0.66575756  0.21933071  0.96519028  1
  O  O48  1  0.33424244  0.71933071  0.53480972  1
  O  O49  1  0.15041938  0.67214387  0.66339971  1
  O  O50  1  0.30360093  0.49366056  0.58005026  1
  O  O51  1  0.30858515  0.25198356  0.33652110  1
  O  O52  1  0.84958062  0.17214387  0.83660029  1
  O  O53  1  0.84958062  0.32785613  0.33660029  1
  O  O54  1  0.34958062  0.32785613  0.16339971  1
  O  O55  1  0.85857221  0.56289693  0.23647673  1
  O  O56  1  0.69141485  0.75198356  0.16347890  1
  O  O57  1  0.16575756  0.21933071  0.53480972  1
  O  O58  1  0.65041938  0.67214387  0.83660029  1
  O  O59  1  0.19639907  0.99366056  0.58005026  1
  O  O60  1  0.15041938  0.82785613  0.16339971  1
  O  O61  1  0.80360093  0.49366056  0.91994974  1
  O  O62  1  0.66575756  0.28066929  0.46519028  1
  O  O63  1  0.16575756  0.28066929  0.03480972  1
  O  O64  1  0.85857221  0.93710307  0.73647673  1
  O  O65  1  0.19141485  0.75198356  0.33652110  1
  O  O66  1  0.80858515  0.24801644  0.66347890  1
  O  O67  1  0.35857221  0.56289693  0.26352327  1
  O  O68  1  0.67162617  0.96112998  0.60409063  1
  O  O69  1  0.69639907  0.50633944  0.41994974  1
  O  O70  1  0.17162617  0.96112998  0.89590937  1
  O  O71  1  0.19141485  0.74801644  0.83652110  1
  O  O72  1  0.80858515  0.25198356  0.16347890  1
  O  O73  1  0.82837383  0.46112998  0.60409063  1
  O  O74  1  0.33424244  0.78066929  0.03480972  1
  O  O75  1  0.82837383  0.03887002  0.10409063  1
  O  O76  1  0.69141485  0.74801644  0.66347890  1
  O  O77  1  0.32837383  0.03887002  0.39590937  1
  O  O78  1  0.83424244  0.71933071  0.96519028  1
  O  O79  1  0.80360093  0.00633944  0.41994974  1
  O  O80  1  0.69639907  0.99366056  0.91994974  1
  O  O81  1  0.64142779  0.43710307  0.73647673  1
  O  O82  1  0.64142779  0.06289693  0.23647673  1
  O  O83  1  0.34958062  0.17214387  0.66339971  1
  O  O84  1  0.19639907  0.50633944  0.08005026  1
  O  O85  1  0.65041938  0.82785613  0.33660029  1
  O  O86  1  0.32837383  0.46112998  0.89590937  1
  O  O87  1  0.67162617  0.53887002  0.10409063  1
