# generated using pymatgen
data_SiO2
_symmetry_space_group_name_H-M   'P 1'
_cell_length_a   13.77955768
_cell_length_b   13.77955765
_cell_length_c   9.03787307
_cell_angle_alpha   90.00000000
_cell_angle_beta   90.00000000
_cell_angle_gamma   120.00000007
_symmetry_Int_Tables_number   1
_chemical_formula_structural   SiO2
_chemical_formula_sum   'Si24 O48'
_cell_volume   1486.16634512
_cell_formula_units_Z   24
loop_
 _symmetry_equiv_pos_site_id
 _symmetry_equiv_pos_as_xyz
  1  'x, y, z'
loop_
 _atom_site_type_symbol
 _atom_site_label
 _atom_site_symmetry_multiplicity
 _atom_site_fract_x
 _atom_site_fract_y
 _atom_site_fract_z
 _atom_site_occupancy
  Si  Si0  1  0.33059948  0.86943857  0.07359635  1
  Si  Si1  1  0.53883909  0.86943857  0.92640365  1
  Si  Si2  1  0.13056143  0.46116091  0.42640365  1
  Si  Si3  1  0.86943857  0.53883909  0.92640365  1
  Si  Si4  1  0.46116091  0.13056143  0.07359635  1
  Si  Si5  1  0.46116091  0.33059948  0.57359635  1
  Si  Si6  1  0.13056143  0.66940052  0.92640365  1
  Si  Si7  1  0.46116091  0.33059948  0.92640365  1
  Si  Si8  1  0.66940052  0.13056143  0.57359635  1
  Si  Si9  1  0.46116091  0.13056143  0.42640365  1
  Si  Si10  1  0.33059948  0.46116091  0.57359635  1
  Si  Si11  1  0.86943857  0.33059948  0.42640365  1
  Si  Si12  1  0.53883909  0.66940052  0.42640365  1
  Si  Si13  1  0.33059948  0.46116091  0.92640365  1
  Si  Si14  1  0.33059948  0.86943857  0.42640365  1
  Si  Si15  1  0.66940052  0.13056143  0.92640365  1
  Si  Si16  1  0.53883909  0.66940052  0.07359635  1
  Si  Si17  1  0.13056143  0.66940052  0.57359635  1
  Si  Si18  1  0.13056143  0.46116091  0.07359635  1
  Si  Si19  1  0.86943857  0.33059948  0.07359635  1
  Si  Si20  1  0.66940052  0.53883909  0.42640365  1
  Si  Si21  1  0.86943857  0.53883909  0.57359635  1
  Si  Si22  1  0.53883909  0.86943857  0.57359635  1
  Si  Si23  1  0.66940052  0.53883909  0.07359635  1
  O  O24  1  0.58439211  0.79219606  0.50000000  1
  O  O25  1  0.41560789  0.20780394  0.00000000  1
  O  O26  1  0.79219606  0.20780394  0.00000000  1
  O  O27  1  0.63099285  0.63099285  0.04172724  1
  O  O28  1  0.20780394  0.79219606  0.00000000  1
  O  O29  1  0.15428468  0.67565750  0.75000000  1
  O  O30  1  0.20780394  0.41560789  0.00000000  1
  O  O31  1  0.84571532  0.52137282  0.75000000  1
  O  O32  1  0.20780394  0.79219606  0.50000000  1
  O  O33  1  0.79219606  0.58439211  0.00000000  1
  O  O34  1  0.41890730  0.83781459  0.00000000  1
  O  O35  1  0.47862718  0.15428468  0.25000000  1
  O  O36  1  0.00000000  0.36900715  0.04172724  1
  O  O37  1  0.63099285  0.00000000  0.95827276  1
  O  O38  1  0.67565750  0.15428468  0.75000000  1
  O  O39  1  0.41890730  0.58109270  0.50000000  1
  O  O40  1  0.52137282  0.84571532  0.75000000  1
  O  O41  1  0.58439211  0.79219606  0.00000000  1
  O  O42  1  0.84571532  0.32434250  0.25000000  1
  O  O43  1  0.58109270  0.41890730  0.50000000  1
  O  O44  1  0.41560789  0.20780394  0.50000000  1
  O  O45  1  0.83781459  0.41890730  0.50000000  1
  O  O46  1  0.20780394  0.41560789  0.50000000  1
  O  O47  1  1.00000000  0.63099285  0.54172724  1
  O  O48  1  1.00000000  0.63099285  0.95827276  1
  O  O49  1  0.63099285  0.00000000  0.54172724  1
  O  O50  1  0.00000000  0.36900715  0.45827276  1
  O  O51  1  0.41890730  0.83781459  0.50000000  1
  O  O52  1  0.36900715  0.00000000  0.04172724  1
  O  O53  1  0.32434250  0.84571532  0.25000000  1
  O  O54  1  0.67565750  0.52137282  0.25000000  1
  O  O55  1  0.47862718  0.32434250  0.75000000  1
  O  O56  1  0.58109270  0.41890730  0.00000000  1
  O  O57  1  0.15428468  0.47862718  0.25000000  1
  O  O58  1  0.36900715  0.36900715  0.54172724  1
  O  O59  1  0.83781459  0.41890730  0.00000000  1
  O  O60  1  0.52137282  0.67565750  0.25000000  1
  O  O61  1  0.36900715  0.36900715  0.95827276  1
  O  O62  1  0.63099285  0.63099285  0.45827276  1
  O  O63  1  0.58109270  0.16218541  0.00000000  1
  O  O64  1  0.16218541  0.58109270  0.00000000  1
  O  O65  1  0.41890730  0.58109270  0.00000000  1
  O  O66  1  0.36900715  0.00000000  0.45827276  1
  O  O67  1  0.79219606  0.20780394  0.50000000  1
  O  O68  1  0.79219606  0.58439211  0.50000000  1
  O  O69  1  0.32434250  0.47862718  0.75000000  1
  O  O70  1  0.58109270  0.16218541  0.50000000  1
  O  O71  1  0.16218541  0.58109270  0.50000000  1
