# generated using pymatgen
data_Li7Mn2(CoO4)3
_symmetry_space_group_name_H-M   'P 1'
_cell_length_a   2.93193500
_cell_length_b   12.91039315
_cell_length_c   5.95283307
_cell_angle_alpha   102.55481465
_cell_angle_beta   90.00000000
_cell_angle_gamma   90.00000000
_symmetry_Int_Tables_number   1
_chemical_formula_structural   Li7Mn2(CoO4)3
_chemical_formula_sum   'Li7 Mn2 Co3 O12'
_cell_volume   219.94125722
_cell_formula_units_Z   1
loop_
 _symmetry_equiv_pos_site_id
 _symmetry_equiv_pos_as_xyz
  1  'x, y, z'
loop_
 _atom_site_type_symbol
 _atom_site_label
 _atom_site_symmetry_multiplicity
 _atom_site_fract_x
 _atom_site_fract_y
 _atom_site_fract_z
 _atom_site_occupancy
  Li  Li0  1  0.00000000  0.35035316  0.18694598  1
  Li  Li1  1  0.50000000  0.50681572  0.00429986  1
  Li  Li2  1  0.00000000  0.65394259  0.81553896  1
  Li  Li3  1  0.50000000  0.82443713  0.65868753  1
  Li  Li4  1  0.00000000  0.99185414  0.49480281  1
  Li  Li5  1  0.50000000  0.17436137  0.34087245  1
  Li  Li6  1  0.50000000  0.50320265  0.49979055  1
  Mn  Mn7  1  -0.00000000  0.99758337  0.00214554  1
  Mn  Mn8  1  0.50000000  0.16906930  0.83142345  1
  Co  Co9  1  0.00000000  0.35161448  0.66178072  1
  Co  Co10  1  0.00000000  0.65383308  0.34486602  1
  Co  Co11  1  0.50000000  0.81901018  0.16741173  1
  O  O12  1  0.00000000  0.49126354  0.75099399  1
  O  O13  1  0.50000000  0.66979088  0.57132875  1
  O  O14  1  0.00000000  0.83341677  0.39942670  1
  O  O15  1  0.50000000  0.00140545  0.22466555  1
  O  O16  1  0.00000000  0.15742851  0.05211715  1
  O  O17  1  0.50000000  0.31671133  0.89696574  1
  O  O18  1  0.00000000  0.16242054  0.61427182  1
  O  O19  1  0.50000000  0.32803775  0.43148604  1
  O  O20  1  0.00000000  0.51188700  0.25033342  1
  O  O21  1  0.50000000  0.67515353  0.08701045  1
  O  O22  1  0.00000000  0.84895325  0.93559990  1
  O  O23  1  0.50000000  0.00745426  0.77723489  1
