# generated using pymatgen
data_Nb2Tl5S4Br9
_symmetry_space_group_name_H-M   'P 1'
_cell_length_a   7.45033658
_cell_length_b   10.39105726
_cell_length_c   10.34635551
_cell_angle_alpha   120.14308872
_cell_angle_beta   111.11222945
_cell_angle_gamma   89.99993505
_symmetry_Int_Tables_number   1
_chemical_formula_structural   Nb2Tl5S4Br9
_chemical_formula_sum   'Nb2 Tl5 S4 Br9'
_cell_volume   629.72376461
_cell_formula_units_Z   1
loop_
 _symmetry_equiv_pos_site_id
 _symmetry_equiv_pos_as_xyz
  1  'x, y, z'
loop_
 _atom_site_type_symbol
 _atom_site_label
 _atom_site_symmetry_multiplicity
 _atom_site_fract_x
 _atom_site_fract_y
 _atom_site_fract_z
 _atom_site_occupancy
  Nb  Nb0  1  0.41047879  0.91049751  0.82099491  1
  Nb  Nb1  1  0.58952121  0.08950249  0.17900509  1
  Tl  Tl2  1  0.16554532  0.88330597  0.33122514  1
  Tl  Tl3  1  0.50000000  0.50000000  0.00000000  1
  Tl  Tl4  1  0.83445419  0.55208047  0.66877510  1
  Tl  Tl5  1  0.83445468  0.11669403  0.66877486  1
  Tl  Tl6  1  0.16554581  0.44791953  0.33122490  1
  S  S7  1  0.73918553  0.09715570  1.00002496  1
  S  S8  1  0.26081447  0.90284430  -0.00002496  1
  S  S9  1  0.26081321  0.09713087  -0.00002500  1
  S  S10  1  0.73918679  0.90286913  1.00002500  1
  Br  Br11  1  0.53275647  0.78753603  0.57507207  1
  Br  Br12  1  0.46724353  0.21246397  0.42492793  1
  Br  Br13  1  0.36626651  0.12708459  0.73249630  1
  Br  Br14  1  0.63373387  0.39458847  0.26750430  1
  Br  Br15  1  0.04216567  0.78743499  0.57487023  1
  Br  Br16  1  0.95783433  0.21256501  0.42512977  1
  Br  Br17  1  0.36626613  0.60541153  0.73249570  1
  Br  Br18  1  0.00000000  0.50000000  0.00000000  1
  Br  Br19  1  0.63373349  0.87291541  0.26750370  1
