# generated using pymatgen
data_Si3Bi2O9
_symmetry_space_group_name_H-M   'P 1'
_cell_length_a   6.89853998
_cell_length_b   6.89854027
_cell_length_c   9.75470595
_cell_angle_alpha   90.00000000
_cell_angle_beta   90.00000000
_cell_angle_gamma   119.99999861
_symmetry_Int_Tables_number   1
_chemical_formula_structural   Si3Bi2O9
_chemical_formula_sum   'Si6 Bi4 O18'
_cell_volume   402.03069231
_cell_formula_units_Z   2
loop_
 _symmetry_equiv_pos_site_id
 _symmetry_equiv_pos_as_xyz
  1  'x, y, z'
loop_
 _atom_site_type_symbol
 _atom_site_label
 _atom_site_symmetry_multiplicity
 _atom_site_fract_x
 _atom_site_fract_y
 _atom_site_fract_z
 _atom_site_occupancy
  Si  Si0  1  0.21686801  0.27775421  0.75000000  1
  Si  Si1  1  0.72224579  0.93911380  0.75000000  1
  Si  Si2  1  0.78313199  0.72224579  0.25000000  1
  Si  Si3  1  0.93911380  0.21686801  0.25000000  1
  Si  Si4  1  0.06088620  0.78313199  0.75000000  1
  Si  Si5  1  0.27775421  0.06088620  0.25000000  1
  Bi  Bi6  1  0.66666700  0.33333300  0.52055062  1
  Bi  Bi7  1  0.66666700  0.33333300  0.97944938  1
  Bi  Bi8  1  0.33333300  0.66666700  0.02055062  1
  Bi  Bi9  1  0.33333300  0.66666700  0.47944938  1
  O  O10  1  0.19291943  0.24581879  0.25000000  1
  O  O11  1  0.58713776  0.92832319  0.61038092  1
  O  O12  1  0.34118543  0.41286224  0.88961908  1
  O  O13  1  0.94710064  0.19291943  0.75000000  1
  O  O14  1  0.05289936  0.80708057  0.25000000  1
  O  O15  1  0.92832319  0.34118543  0.38961908  1
  O  O16  1  0.92832319  0.34118543  0.11038092  1
  O  O17  1  0.24581879  0.05289936  0.75000000  1
  O  O18  1  0.80708057  0.75418121  0.75000000  1
  O  O19  1  0.07167681  0.65881457  0.61038092  1
  O  O20  1  0.41286224  0.07167681  0.38961908  1
  O  O21  1  0.07167681  0.65881457  0.88961908  1
  O  O22  1  0.65881457  0.58713776  0.11038092  1
  O  O23  1  0.65881457  0.58713776  0.38961908  1
  O  O24  1  0.75418121  0.94710064  0.25000000  1
  O  O25  1  0.41286224  0.07167681  0.11038092  1
  O  O26  1  0.34118543  0.41286224  0.61038092  1
  O  O27  1  0.58713776  0.92832319  0.88961908  1
