# generated using pymatgen
data_Pr4B10O21
_symmetry_space_group_name_H-M   'P 1'
_cell_length_a   7.22232148
_cell_length_b   9.61511111
_cell_length_c   19.68642468
_cell_angle_alpha   90.00000000
_cell_angle_beta   90.00000000
_cell_angle_gamma   93.38952717
_symmetry_Int_Tables_number   1
_chemical_formula_structural   Pr4B10O21
_chemical_formula_sum   'Pr16 B40 O84'
_cell_volume   1364.70120469
_cell_formula_units_Z   4
loop_
 _symmetry_equiv_pos_site_id
 _symmetry_equiv_pos_as_xyz
  1  'x, y, z'
loop_
 _atom_site_type_symbol
 _atom_site_label
 _atom_site_symmetry_multiplicity
 _atom_site_fract_x
 _atom_site_fract_y
 _atom_site_fract_z
 _atom_site_occupancy
  Pr  Pr0  1  0.86377759  0.33358423  0.08282697  1
  Pr  Pr1  1  0.89762195  0.82324418  0.29344207  1
  Pr  Pr2  1  0.84506101  0.84034916  0.08064864  1
  Pr  Pr3  1  0.87324036  0.33864635  0.29984427  1
  Pr  Pr4  1  0.34506101  0.34034916  0.41935136  1
  Pr  Pr5  1  0.37324036  0.83864635  0.20015573  1
  Pr  Pr6  1  0.62675964  0.16135365  0.79984427  1
  Pr  Pr7  1  0.12675964  0.66135365  0.70015573  1
  Pr  Pr8  1  0.65493899  0.65965084  0.58064864  1
  Pr  Pr9  1  0.63622241  0.16641577  0.58282697  1
  Pr  Pr10  1  0.13622241  0.66641577  0.91717303  1
  Pr  Pr11  1  0.39762195  0.32324418  0.20655793  1
  Pr  Pr12  1  0.36377759  0.83358423  0.41717303  1
  Pr  Pr13  1  0.15493899  0.15965084  0.91935136  1
  Pr  Pr14  1  0.10237805  0.17675582  0.70655793  1
  Pr  Pr15  1  0.60237805  0.67675582  0.79344207  1
  B  B16  1  0.95425559  0.95461418  0.81267926  1
  B  B17  1  0.43450759  0.95475746  0.67717675  1
  B  B18  1  0.20249002  0.13925524  0.07688162  1
  B  B19  1  0.04574441  0.04538582  0.18732074  1
  B  B20  1  0.02530954  0.55640845  0.40509655  1
  B  B21  1  0.30646416  0.39764649  0.02109112  1
  B  B22  1  0.80646416  0.89764649  0.47890888  1
  B  B23  1  0.32163859  0.38016663  0.79694506  1
  B  B24  1  0.70249002  0.63925524  0.42311838  1
  B  B25  1  0.70297386  0.10041856  0.97632093  1
  B  B26  1  0.47469046  0.94359155  0.90509655  1
  B  B27  1  0.69567739  0.13387335  0.42879272  1
  B  B28  1  0.45425559  0.45461418  0.68732074  1
  B  B29  1  0.70914368  0.12137490  0.20682527  1
  B  B30  1  0.79085632  0.37862510  0.70682527  1
  B  B31  1  0.93450759  0.45475746  0.82282325  1
  B  B32  1  0.79750998  0.86074476  0.92311838  1
  B  B33  1  0.56549241  0.04524254  0.32282325  1
  B  B34  1  0.98562584  0.94485008  0.59394881  1
  B  B35  1  0.20914368  0.62137490  0.29317473  1
  B  B36  1  0.80432261  0.36612665  0.92879272  1
  B  B37  1  0.51437416  0.55514992  0.09394881  1
  B  B38  1  0.17836141  0.11983337  0.29694506  1
  B  B39  1  0.52530954  0.05640845  0.09490345  1
  B  B40  1  0.01437416  0.05514992  0.40605119  1
  B  B41  1  0.82163859  0.88016663  0.70305494  1
  B  B42  1  0.67836141  0.61983337  0.20305494  1
  B  B43  1  0.29085632  0.87862510  0.79317473  1
  B  B44  1  0.20297386  0.60041856  0.52367907  1
  B  B45  1  0.29702614  0.89958144  0.02367907  1
  B  B46  1  0.30432261  0.86612665  0.57120728  1
  B  B47  1  0.48562584  0.44485008  0.90605119  1
  B  B48  1  0.79702614  0.39958144  0.47632093  1
  B  B49  1  0.19567739  0.63387335  0.07120728  1
  B  B50  1  0.54574441  0.54538582  0.31267926  1
  B  B51  1  0.06549241  0.54524254  0.17717675  1
  B  B52  1  0.97469046  0.44359155  0.59490345  1
  B  B53  1  0.69353584  0.60235351  0.97890888  1
  B  B54  1  0.29750998  0.36074476  0.57688162  1
  B  B55  1  0.19353584  0.10235351  0.52109112  1
  O  O56  1  0.40991436  0.86144521  0.72975508  1
  O  O57  1  0.45840930  0.37389281  0.62476703  1
  O  O58  1  0.04930985  0.89697835  0.17754700  1
  O  O59  1  0.48268662  0.90224983  0.61311616  1
  O  O60  1  0.10983691  0.92037772  0.76641908  1
  O  O61  1  0.54658795  0.58389421  0.92864993  1
  O  O62  1  0.80579438  0.74284266  0.68780578  1
  O  O63  1  0.79606407  0.47121200  0.98225605  1
  O  O64  1  0.71688174  0.26402247  0.18390824  1
  O  O65  1  0.17097360  0.27546328  0.03949099  1
  O  O66  1  0.31130212  0.47322372  0.52563923  1
  O  O67  1  0.66430996  0.27365545  0.45848801  1
  O  O68  1  0.30579438  0.24284266  0.81219422  1
  O  O69  1  0.51731338  0.09775017  0.38688384  1
  O  O70  1  0.19420562  0.25715734  0.31219422  1
  O  O71  1  0.28311826  0.73597753  0.81609176  1
  O  O72  1  0.95217764  0.41581957  0.42784290  1
  O  O73  1  0.37290198  0.98094361  0.84117795  1
  O  O74  1  0.36518606  0.36182200  0.95174582  1
  O  O75  1  0.20393593  0.52878800  0.01774395  1
  O  O76  1  0.86518606  0.86182200  0.54825418  1
  O  O77  1  0.60983691  0.42037772  0.73358092  1
  O  O78  1  0.68869788  0.52677628  0.47436077  1
  O  O79  1  0.15742569  0.62710379  0.45209899  1
  O  O80  1  0.21688174  0.76402247  0.31609176  1
  O  O81  1  0.72423938  0.58181273  0.26939618  1
  O  O82  1  0.95069015  0.10302165  0.82245300  1
  O  O83  1  0.35377014  0.63472234  0.11759622  1
  O  O84  1  0.16430996  0.77365545  0.04151199  1
  O  O85  1  0.57140820  0.90566956  0.31264342  1
  O  O86  1  0.65742569  0.12710379  0.04790101  1
  O  O87  1  0.62709802  0.01905639  0.15882205  1
  O  O88  1  0.90991436  0.36144521  0.77024492  1
  O  O89  1  0.62311650  0.51896217  0.15703851  1
  O  O90  1  0.89016309  0.07962228  0.23358092  1
  O  O91  1  0.77576062  0.91818727  0.76939618  1
  O  O92  1  0.98268662  0.40224983  0.88688384  1
  O  O93  1  0.87526064  0.64435850  0.38651210  1
  O  O94  1  0.54159070  0.62610719  0.37523297  1
  O  O95  1  0.87688350  0.98103783  0.65703851  1
  O  O96  1  0.92859180  0.59433044  0.81264342  1
  O  O97  1  0.81130212  0.97322372  0.97436077  1
  O  O98  1  0.04159070  0.12610719  0.12476703  1
  O  O99  1  0.45069015  0.60302165  0.67754700  1
  O  O100  1  0.42859180  0.09433044  0.68735658  1
  O  O101  1  0.14622986  0.86527766  0.61759622  1
  O  O102  1  0.67097360  0.77546328  0.46050901  1
  O  O103  1  0.85377014  0.13472234  0.38240378  1
  O  O104  1  0.33569004  0.72634455  0.54151199  1
  O  O105  1  0.70393593  0.02878800  0.48225605  1
  O  O106  1  0.37526064  0.14435850  0.11348790  1
  O  O107  1  0.82902640  0.72453672  0.96050901  1
  O  O108  1  0.22423938  0.08181273  0.23060382  1
  O  O109  1  0.29606407  0.97121200  0.51774395  1
  O  O110  1  0.95341205  0.91610579  0.42864993  1
  O  O111  1  0.12473936  0.35564150  0.61348790  1
  O  O112  1  0.04658795  0.08389421  0.57135007  1
  O  O113  1  0.12311650  0.01896217  0.34296149  1
  O  O114  1  0.62473936  0.85564150  0.88651210  1
  O  O115  1  0.83569004  0.22634455  0.95848801  1
  O  O116  1  0.95840930  0.87389281  0.87523297  1
  O  O117  1  0.13481394  0.13817800  0.45174582  1
  O  O118  1  0.07140820  0.40566956  0.18735658  1
  O  O119  1  0.18869788  0.02677628  0.02563923  1
  O  O120  1  0.45217764  0.91581957  0.07215710  1
  O  O121  1  0.37688350  0.48103783  0.84296149  1
  O  O122  1  0.39016309  0.57962228  0.26641908  1
  O  O123  1  0.63481394  0.63817800  0.04825418  1
  O  O124  1  0.64622986  0.36527766  0.88240378  1
  O  O125  1  0.59008564  0.13855479  0.27024492  1
  O  O126  1  0.04782236  0.58418043  0.57215710  1
  O  O127  1  0.27576062  0.41818727  0.73060382  1
  O  O128  1  0.12709802  0.51905639  0.34117795  1
  O  O129  1  0.34257431  0.87289621  0.95209899  1
  O  O130  1  0.87290198  0.48094361  0.65882205  1
  O  O131  1  0.01731338  0.59775017  0.11311616  1
  O  O132  1  0.32902640  0.22453672  0.53949099  1
  O  O133  1  0.78311826  0.23597753  0.68390824  1
  O  O134  1  0.45341205  0.41610579  0.07135007  1
  O  O135  1  0.54782236  0.08418043  0.92784290  1
  O  O136  1  0.69420562  0.75715734  0.18780578  1
  O  O137  1  0.84257431  0.37289621  0.54790101  1
  O  O138  1  0.09008564  0.63855479  0.22975508  1
  O  O139  1  0.54930985  0.39697835  0.32245300  1
