# generated using pymatgen
data_Ho2Sn3(PbS4)3
_symmetry_space_group_name_H-M   'P 1'
_cell_length_a   3.93968634
_cell_length_b   11.65239267
_cell_length_c   20.42475221
_cell_angle_alpha   90.00000000
_cell_angle_beta   90.00000000
_cell_angle_gamma   90.00000000
_symmetry_Int_Tables_number   1
_chemical_formula_structural   Ho2Sn3(PbS4)3
_chemical_formula_sum   'Ho4 Sn6 Pb6 S24'
_cell_volume   937.63444757
_cell_formula_units_Z   2
loop_
 _symmetry_equiv_pos_site_id
 _symmetry_equiv_pos_as_xyz
  1  'x, y, z'
loop_
 _atom_site_type_symbol
 _atom_site_label
 _atom_site_symmetry_multiplicity
 _atom_site_fract_x
 _atom_site_fract_y
 _atom_site_fract_z
 _atom_site_occupancy
  Ho  Ho0  1  0.00000000  0.86947794  0.10655087  1
  Ho  Ho1  1  0.00000000  0.36947794  0.89344913  1
  Ho  Ho2  1  0.00000000  0.54838892  0.41210984  1
  Ho  Ho3  1  0.00000000  0.04838892  0.58789016  1
  Sn  Sn4  1  0.50000000  0.67680548  0.91131859  1
  Sn  Sn5  1  0.50000000  0.69271795  0.24985201  1
  Sn  Sn6  1  0.50000000  0.20019125  0.42834292  1
  Sn  Sn7  1  0.50000000  0.19271795  0.75014799  1
  Sn  Sn8  1  0.50000000  0.70019125  0.57165708  1
  Sn  Sn9  1  0.50000000  0.17680548  0.08868141  1
  Pb  Pb10  1  0.00000000  0.29013578  0.26031481  1
  Pb  Pb11  1  0.00000000  0.99202586  0.91558208  1
  Pb  Pb12  1  0.00000000  0.49202586  0.08441792  1
  Pb  Pb13  1  0.00000000  0.79013578  0.73968519  1
  Pb  Pb14  1  0.00000000  0.92194386  0.37876506  1
  Pb  Pb15  1  0.00000000  0.42194386  0.62123494  1
  S  S16  1  0.50000000  0.88942911  0.63725525  1
  S  S17  1  0.50000000  0.09448965  0.32458861  1
  S  S18  1  0.50000000  0.38942911  0.36274475  1
  S  S19  1  0.50000000  0.21053755  0.62631653  1
  S  S20  1  0.00000000  0.59344937  0.84139080  1
  S  S21  1  0.50000000  0.70482935  0.12461006  1
  S  S22  1  0.00000000  0.26071247  0.01766004  1
  S  S23  1  0.50000000  0.85767736  0.84168241  1
  S  S24  1  0.00000000  0.76071247  0.98233996  1
  S  S25  1  0.00000000  0.75279761  0.50387045  1
  S  S26  1  0.50000000  0.20482935  0.87538994  1
  S  S27  1  0.50000000  0.71053755  0.37368347  1
  S  S28  1  0.50000000  0.98139470  0.03209106  1
  S  S29  1  0.50000000  0.00984469  0.49143211  1
  S  S30  1  0.00000000  0.84441448  0.24321719  1
  S  S31  1  0.50000000  0.50984469  0.50856789  1
  S  S32  1  0.50000000  0.59448965  0.67541139  1
  S  S33  1  0.00000000  0.09344937  0.15860920  1
  S  S34  1  0.00000000  0.54793662  0.26130373  1
  S  S35  1  0.50000000  0.35767736  0.15831759  1
  S  S36  1  0.00000000  0.34441448  0.75678281  1
  S  S37  1  0.00000000  0.25279761  0.49612955  1
  S  S38  1  0.50000000  0.48139470  0.96790894  1
  S  S39  1  0.00000000  0.04793662  0.73869627  1
