# generated using pymatgen
data_CdBiS2Cl
_symmetry_space_group_name_H-M   'P 1'
_cell_length_a   4.00969240
_cell_length_b   9.67063512
_cell_length_c   12.79138899
_cell_angle_alpha   90.00000000
_cell_angle_beta   90.00000000
_cell_angle_gamma   90.00000000
_symmetry_Int_Tables_number   1
_chemical_formula_structural   CdBiS2Cl
_chemical_formula_sum   'Cd4 Bi4 S8 Cl4'
_cell_volume   496.00238057
_cell_formula_units_Z   4
loop_
 _symmetry_equiv_pos_site_id
 _symmetry_equiv_pos_as_xyz
  1  'x, y, z'
loop_
 _atom_site_type_symbol
 _atom_site_label
 _atom_site_symmetry_multiplicity
 _atom_site_fract_x
 _atom_site_fract_y
 _atom_site_fract_z
 _atom_site_occupancy
  Cd  Cd0  1  0.75000000  0.49609017  0.26365893  1
  Cd  Cd1  1  0.25000000  0.50390983  0.73634107  1
  Cd  Cd2  1  0.75000000  0.99609017  0.23634107  1
  Cd  Cd3  1  0.25000000  0.00390983  0.76365893  1
  Bi  Bi4  1  0.25000000  0.30644740  0.02729966  1
  Bi  Bi5  1  0.25000000  0.80644740  0.47270034  1
  Bi  Bi6  1  0.75000000  0.19355260  0.52729966  1
  Bi  Bi7  1  0.75000000  0.69355260  0.97270034  1
  S  S8  1  0.75000000  0.25280274  0.16762753  1
  S  S9  1  0.25000000  0.24719726  0.66762753  1
  S  S10  1  0.75000000  0.94729945  0.61190108  1
  S  S11  1  0.25000000  0.05270055  0.38809892  1
  S  S12  1  0.75000000  0.75280274  0.33237247  1
  S  S13  1  0.75000000  0.44729945  0.88809892  1
  S  S14  1  0.25000000  0.55270055  0.11190108  1
  S  S15  1  0.25000000  0.74719726  0.83237247  1
  Cl  Cl16  1  0.75000000  0.57376117  0.60622586  1
  Cl  Cl17  1  0.75000000  0.07376117  0.89377414  1
  Cl  Cl18  1  0.25000000  0.42623883  0.39377414  1
  Cl  Cl19  1  0.25000000  0.92623883  0.10622586  1
