# generated using pymatgen
data_Na3NO4
_symmetry_space_group_name_H-M   'P 1'
_cell_length_a   8.71854665
_cell_length_b   9.14427002
_cell_length_c   9.82544878
_cell_angle_alpha   90.00000000
_cell_angle_beta   90.00000000
_cell_angle_gamma   90.00000000
_symmetry_Int_Tables_number   1
_chemical_formula_structural   Na3NO4
_chemical_formula_sum   'Na24 N8 O32'
_cell_volume   783.33139604
_cell_formula_units_Z   8
loop_
 _symmetry_equiv_pos_site_id
 _symmetry_equiv_pos_as_xyz
  1  'x, y, z'
loop_
 _atom_site_type_symbol
 _atom_site_label
 _atom_site_symmetry_multiplicity
 _atom_site_fract_x
 _atom_site_fract_y
 _atom_site_fract_z
 _atom_site_occupancy
  Na  Na0  1  0.61744042  0.96047437  0.14563298  1
  Na  Na1  1  0.20289836  0.24091784  0.61533484  1
  Na  Na2  1  0.38255958  0.53952563  0.64563298  1
  Na  Na3  1  0.29710164  0.74091784  0.38466516  1
  Na  Na4  1  0.29710164  0.24091784  0.11533484  1
  Na  Na5  1  0.54726276  0.87685616  0.60664740  1
  Na  Na6  1  0.88255958  0.46047437  0.85436702  1
  Na  Na7  1  0.45273724  0.12314384  0.39335260  1
  Na  Na8  1  0.95273724  0.37685616  0.39335260  1
  Na  Na9  1  0.20289836  0.74091784  0.88466516  1
  Na  Na10  1  0.70289836  0.75908216  0.88466516  1
  Na  Na11  1  0.11744042  0.03952563  0.35436702  1
  Na  Na12  1  0.61744042  0.46047437  0.35436702  1
  Na  Na13  1  0.79710164  0.25908216  0.11533484  1
  Na  Na14  1  0.95273724  0.87685616  0.10664740  1
  Na  Na15  1  0.88255958  0.96047437  0.64563298  1
  Na  Na16  1  0.11744042  0.53952563  0.14563298  1
  Na  Na17  1  0.54726276  0.37685616  0.89335260  1
  Na  Na18  1  0.04726276  0.62314384  0.60664740  1
  Na  Na19  1  0.79710164  0.75908216  0.38466516  1
  Na  Na20  1  0.70289836  0.25908216  0.61533484  1
  Na  Na21  1  0.04726276  0.12314384  0.89335260  1
  Na  Na22  1  0.45273724  0.62314384  0.10664740  1
  Na  Na23  1  0.38255958  0.03952563  0.85436702  1
  N  N24  1  0.71169601  0.09823474  0.88051681  1
  N  N25  1  0.78830399  0.09823474  0.38051681  1
  N  N26  1  0.71169601  0.59823474  0.61948319  1
  N  N27  1  0.21169601  0.90176526  0.61948319  1
  N  N28  1  0.78830399  0.59823474  0.11948319  1
  N  N29  1  0.28830399  0.40176526  0.38051681  1
  N  N30  1  0.28830399  0.90176526  0.11948319  1
  N  N31  1  0.21169601  0.40176526  0.88051681  1
  O  O32  1  0.60554031  0.14382661  0.97816360  1
  O  O33  1  0.20094889  0.28112312  0.33856942  1
  O  O34  1  0.89445969  0.64382661  0.02183640  1
  O  O35  1  0.19068020  0.50717102  0.43606673  1
  O  O36  1  0.20094889  0.78112312  0.16143058  1
  O  O37  1  0.30931980  0.00717102  0.56393327  1
  O  O38  1  0.63616796  0.54006727  0.73277056  1
  O  O39  1  0.10554031  0.85617339  0.52183640  1
  O  O40  1  0.70094889  0.21887688  0.33856942  1
  O  O41  1  0.39445969  0.35617339  0.47816360  1
  O  O42  1  0.13616796  0.95993273  0.73277056  1
  O  O43  1  0.79905111  0.71887688  0.66143058  1
  O  O44  1  0.29905111  0.78112312  0.66143058  1
  O  O45  1  0.13616796  0.45993273  0.76722944  1
  O  O46  1  0.39445969  0.85617339  0.02183640  1
  O  O47  1  0.80931980  0.99282898  0.93606673  1
  O  O48  1  0.19068020  0.00717102  0.06393327  1
  O  O49  1  0.36383204  0.95993273  0.23277056  1
  O  O50  1  0.36383204  0.45993273  0.26722944  1
  O  O51  1  0.86383204  0.54006727  0.23277056  1
  O  O52  1  0.79905111  0.21887688  0.83856942  1
  O  O53  1  0.60554031  0.64382661  0.52183640  1
  O  O54  1  0.10554031  0.35617339  0.97816360  1
  O  O55  1  0.80931980  0.49282898  0.56393327  1
  O  O56  1  0.29905111  0.28112312  0.83856942  1
  O  O57  1  0.89445969  0.14382661  0.47816360  1
  O  O58  1  0.86383204  0.04006727  0.26722944  1
  O  O59  1  0.70094889  0.71887688  0.16143058  1
  O  O60  1  0.63616796  0.04006727  0.76722944  1
  O  O61  1  0.30931980  0.50717102  0.93606673  1
  O  O62  1  0.69068020  0.99282898  0.43606673  1
  O  O63  1  0.69068020  0.49282898  0.06393327  1
