# generated using pymatgen
data_Li7Mn2(CoO4)3
_symmetry_space_group_name_H-M   'P 1'
_cell_length_a   2.95025213
_cell_length_b   6.55075032
_cell_length_c   12.09349442
_cell_angle_alpha   75.99977325
_cell_angle_beta   90.00000000
_cell_angle_gamma   103.01370983
_symmetry_Int_Tables_number   1
_chemical_formula_structural   Li7Mn2(CoO4)3
_chemical_formula_sum   'Li7 Mn2 Co3 O12'
_cell_volume   220.58872980
_cell_formula_units_Z   1
loop_
 _symmetry_equiv_pos_site_id
 _symmetry_equiv_pos_as_xyz
  1  'x, y, z'
loop_
 _atom_site_type_symbol
 _atom_site_label
 _atom_site_symmetry_multiplicity
 _atom_site_fract_x
 _atom_site_fract_y
 _atom_site_fract_z
 _atom_site_occupancy
  Li  Li0  1  0.33433878  0.66867855  0.43605337  1
  Li  Li1  1  0.66497773  0.32995445  0.57525689  1
  Li  Li2  1  0.00180247  0.00360493  0.73363488  1
  Li  Li3  1  0.33446172  0.66892444  0.89978732  1
  Li  Li4  1  0.66614484  0.33228868  0.08605060  1
  Li  Li5  1  0.99874349  0.99748698  0.26522118  1
  Li  Li6  1  0.99978805  0.99957609  0.50296525  1
  Mn  Mn7  1  0.00024371  0.00048742  0.99885613  1
  Mn  Mn8  1  0.32967047  0.65934194  0.16902445  1
  Co  Co9  1  0.65168380  0.30336661  0.34734951  1
  Co  Co10  1  0.34827986  0.69656072  0.65572972  1
  Co  Co11  1  0.67347138  0.34694177  0.82492880  1
  O  O12  1  0.49458162  0.98916223  0.62915461  1
  O  O13  1  0.82885497  0.65770994  0.79078294  1
  O  O14  1  0.15397741  0.30795582  0.95623696  1
  O  O15  1  0.49333400  0.98666701  0.11078868  1
  O  O16  1  0.83410444  0.66820888  0.26939859  1
  O  O17  1  0.17174514  0.34349128  0.44590260  1
  O  O18  1  0.17983934  0.35967867  0.20630236  1
  O  O19  1  0.50677235  0.01354570  0.36706678  1
  O  O20  1  0.83020812  0.66041525  0.55357570  1
  O  O21  1  0.16637867  0.33275735  0.72606857  1
  O  O22  1  0.49701003  0.99402106  0.89559611  1
  O  O23  1  0.83958761  0.67917422  0.05426798  1
