# generated using pymatgen
data_Dy2CuTe5Br2O13
_symmetry_space_group_name_H-M   'P 1'
_cell_length_a   5.50708377
_cell_length_b   15.64849488
_cell_length_c   18.01788680
_cell_angle_alpha   104.18344800
_cell_angle_beta   90.00000000
_cell_angle_gamma   90.00000000
_symmetry_Int_Tables_number   1
_chemical_formula_structural   Dy2CuTe5Br2O13
_chemical_formula_sum   'Dy8 Cu4 Te20 Br8 O52'
_cell_volume   1505.40435481
_cell_formula_units_Z   4
loop_
 _symmetry_equiv_pos_site_id
 _symmetry_equiv_pos_as_xyz
  1  'x, y, z'
loop_
 _atom_site_type_symbol
 _atom_site_label
 _atom_site_symmetry_multiplicity
 _atom_site_fract_x
 _atom_site_fract_y
 _atom_site_fract_z
 _atom_site_occupancy
  Dy  Dy0  1  0.74210131  0.44742486  0.21933501  1
  Dy  Dy1  1  0.22994610  0.47875169  0.07455407  1
  Dy  Dy2  1  0.72994610  0.02124831  0.42544593  1
  Dy  Dy3  1  0.25789869  0.55257514  0.78066499  1
  Dy  Dy4  1  0.77005390  0.52124831  0.92544593  1
  Dy  Dy5  1  0.27005390  0.97875169  0.57455407  1
  Dy  Dy6  1  0.75789869  0.94742486  0.71933501  1
  Dy  Dy7  1  0.24210131  0.05257514  0.28066499  1
  Cu  Cu8  1  0.33453951  0.40646193  0.34739251  1
  Cu  Cu9  1  0.66546049  0.59353807  0.65260749  1
  Cu  Cu10  1  0.83453951  0.09353807  0.15260749  1
  Cu  Cu11  1  0.16546049  0.90646193  0.84739251  1
  Te  Te12  1  0.20106667  0.19271325  0.45945321  1
  Te  Te13  1  0.40392698  0.23265333  0.17507703  1
  Te  Te14  1  0.79893333  0.80728675  0.54054679  1
  Te  Te15  1  0.69663039  0.90079525  0.21216741  1
  Te  Te16  1  0.67776638  0.03613039  0.94042802  1
  Te  Te17  1  0.90392698  0.26734667  0.32492297  1
  Te  Te18  1  0.31451018  0.36237636  0.88559436  1
  Te  Te19  1  0.59607302  0.76734667  0.82492297  1
  Te  Te20  1  0.19663039  0.59920475  0.28783259  1
  Te  Te21  1  0.82223362  0.53613039  0.44042802  1
  Te  Te22  1  0.70106667  0.30728675  0.04054679  1
  Te  Te23  1  0.32223362  0.96386961  0.05957198  1
  Te  Te24  1  0.30336961  0.09920475  0.78783259  1
  Te  Te25  1  0.81451018  0.13762364  0.61440564  1
  Te  Te26  1  0.80336961  0.40079525  0.71216741  1
  Te  Te27  1  0.29893333  0.69271325  0.95945321  1
  Te  Te28  1  0.18548982  0.86237636  0.38559436  1
  Te  Te29  1  0.09607302  0.73265333  0.67507703  1
  Te  Te30  1  0.68548982  0.63762364  0.11440564  1
  Te  Te31  1  0.17776638  0.46386961  0.55957198  1
  Br  Br32  1  0.26322769  0.70105414  0.46698084  1
  Br  Br33  1  0.23653461  0.75545019  0.18032615  1
  Br  Br34  1  0.73677231  0.29894586  0.53301916  1
  Br  Br35  1  0.76322769  0.79894586  0.03301916  1
  Br  Br36  1  0.23677231  0.20105414  0.96698084  1
  Br  Br37  1  0.76346539  0.24454981  0.81967385  1
  Br  Br38  1  0.73653461  0.74454981  0.31967385  1
  Br  Br39  1  0.26346539  0.25545019  0.68032615  1
  O  O40  1  0.05340924  0.17575629  0.24574507  1
  O  O41  1  0.92730387  0.54253384  0.33007372  1
  O  O42  1  0.45891503  0.36687560  0.11211673  1
  O  O43  1  0.14502270  0.06933228  0.09569930  1
  O  O44  1  0.03648746  0.09549856  0.52676222  1
  O  O45  1  0.13633756  0.47882761  0.44243446  1
  O  O46  1  0.79953577  0.71964997  0.60962642  1
  O  O47  1  0.44459814  0.45463497  0.84471671  1
  O  O48  1  0.63633756  0.02117239  0.05756554  1
  O  O49  1  0.36366244  0.97882761  0.94243446  1
  O  O50  1  0.05621185  0.53743518  0.19299469  1
  O  O51  1  0.42730387  0.95746616  0.16992628  1
  O  O52  1  0.93292724  0.38480268  0.10124981  1
  O  O53  1  0.46351254  0.59549856  0.02676222  1
  O  O54  1  0.54108497  0.63312440  0.88788327  1
  O  O55  1  0.85497730  0.93066772  0.90430070  1
  O  O56  1  0.07654385  0.01088310  0.79528230  1
  O  O57  1  0.44659076  0.67575629  0.74574507  1
  O  O58  1  0.57654385  0.48911690  0.70471770  1
  O  O59  1  0.55621185  0.96256482  0.30700531  1
  O  O60  1  0.07132045  0.42836019  0.95133310  1
  O  O61  1  0.57269613  0.04253384  0.83007372  1
  O  O62  1  0.55540186  0.54536503  0.15528329  1
  O  O63  1  0.54075385  0.13943584  0.21547054  1
  O  O64  1  0.29953577  0.78035003  0.89037358  1
  O  O65  1  0.64502270  0.43066772  0.40430070  1
  O  O66  1  0.95924615  0.63943584  0.71547054  1
  O  O67  1  0.55340924  0.32424371  0.25425493  1
  O  O68  1  0.96351254  0.90450144  0.47323778  1
  O  O69  1  0.05540186  0.95463497  0.34471671  1
  O  O70  1  0.92867955  0.57163981  0.04866690  1
  O  O71  1  0.04075385  0.36056416  0.28452946  1
  O  O72  1  0.44378815  0.03743518  0.69299469  1
  O  O73  1  0.04108497  0.86687560  0.61211673  1
  O  O74  1  0.06707276  0.61519732  0.89875019  1
  O  O75  1  0.86366244  0.52117239  0.55756554  1
  O  O76  1  0.35497730  0.56933228  0.59569930  1
  O  O77  1  0.45924615  0.86056416  0.78452946  1
  O  O78  1  0.94659076  0.82424371  0.75425493  1
  O  O79  1  0.94459814  0.04536503  0.65528329  1
  O  O80  1  0.20046423  0.28035003  0.39037358  1
  O  O81  1  0.53648746  0.40450144  0.97323778  1
  O  O82  1  0.43292724  0.11519732  0.39875019  1
  O  O83  1  0.07269613  0.45746616  0.66992628  1
  O  O84  1  0.94378815  0.46256482  0.80700531  1
  O  O85  1  0.70046423  0.21964997  0.10962642  1
  O  O86  1  0.95891503  0.13312440  0.38788327  1
  O  O87  1  0.42345615  0.51088310  0.29528230  1
  O  O88  1  0.56707276  0.88480268  0.60124981  1
  O  O89  1  0.57132045  0.07163981  0.54866690  1
  O  O90  1  0.42867955  0.92836019  0.45133310  1
  O  O91  1  0.92345615  0.98911690  0.20471770  1
