# generated using pymatgen
data_SiO2
_symmetry_space_group_name_H-M   'P 1'
_cell_length_a   5.28555321
_cell_length_b   11.39567636
_cell_length_c   11.39567566
_cell_angle_alpha   103.67206611
_cell_angle_beta   90.00000000
_cell_angle_gamma   90.00000000
_symmetry_Int_Tables_number   1
_chemical_formula_structural   SiO2
_chemical_formula_sum   'Si12 O24'
_cell_volume   666.94029825
_cell_formula_units_Z   12
loop_
 _symmetry_equiv_pos_site_id
 _symmetry_equiv_pos_as_xyz
  1  'x, y, z'
loop_
 _atom_site_type_symbol
 _atom_site_label
 _atom_site_symmetry_multiplicity
 _atom_site_fract_x
 _atom_site_fract_y
 _atom_site_fract_z
 _atom_site_occupancy
  Si  Si0  1  0.75000000  0.75471970  0.65922082  1
  Si  Si1  1  0.25000000  0.65922082  0.75471970  1
  Si  Si2  1  0.75000000  0.41729151  0.99441131  1
  Si  Si3  1  0.75000000  0.27674151  0.72325849  1
  Si  Si4  1  0.75000000  0.61853016  0.38146984  1
  Si  Si5  1  0.25000000  0.72325849  0.27674151  1
  Si  Si6  1  0.25000000  0.58270849  0.00558869  1
  Si  Si7  1  0.25000000  0.38146984  0.61853016  1
  Si  Si8  1  0.25000000  0.24528030  0.34077918  1
  Si  Si9  1  0.25000000  0.99441131  0.41729151  1
  Si  Si10  1  0.75000000  0.00558869  0.58270849  1
  Si  Si11  1  0.75000000  0.34077918  0.24528030  1
  O  O12  1  0.00000000  0.26594395  0.26594395  1
  O  O13  1  0.49925613  0.67056103  0.32943897  1
  O  O14  1  0.00000000  0.73405605  0.73405605  1
  O  O15  1  0.25000000  0.52784200  0.65924356  1
  O  O16  1  0.75000000  0.35294920  0.10651199  1
  O  O17  1  0.25000000  0.64705080  0.89348801  1
  O  O18  1  0.25000000  0.68601034  0.13054445  1
  O  O19  1  0.25000000  0.34075644  0.47215800  1
  O  O20  1  0.75000000  0.89348801  0.64705080  1
  O  O21  1  0.00074387  0.67056103  0.32943897  1
  O  O22  1  0.50074387  0.32943897  0.67056103  1
  O  O23  1  0.50000000  0.00000000  0.50000000  1
  O  O24  1  0.50000000  0.73405605  0.73405605  1
  O  O25  1  0.75000000  0.65924356  0.52784200  1
  O  O26  1  0.25000000  0.10651199  0.35294920  1
  O  O27  1  0.00000000  0.00000000  0.50000000  1
  O  O28  1  0.75000000  0.47215800  0.34075644  1
  O  O29  1  0.75000000  0.31398966  0.86945555  1
  O  O30  1  0.50000000  0.26594395  0.26594395  1
  O  O31  1  0.00000000  0.50000000  0.00000000  1
  O  O32  1  0.99925613  0.32943897  0.67056103  1
  O  O33  1  0.75000000  0.13054445  0.68601034  1
  O  O34  1  0.25000000  0.86945555  0.31398966  1
  O  O35  1  0.50000000  0.50000000  0.00000000  1
