# generated using pymatgen
data_SiO2
_symmetry_space_group_name_H-M   'P 1'
_cell_length_a   8.60862158
_cell_length_b   15.21959319
_cell_length_c   15.21959323
_cell_angle_alpha   101.31730725
_cell_angle_beta   90.00000000
_cell_angle_gamma   90.00000000
_symmetry_Int_Tables_number   1
_chemical_formula_structural   SiO2
_chemical_formula_sum   'Si32 O64'
_cell_volume   1955.29303661
_cell_formula_units_Z   32
loop_
 _symmetry_equiv_pos_site_id
 _symmetry_equiv_pos_as_xyz
  1  'x, y, z'
loop_
 _atom_site_type_symbol
 _atom_site_label
 _atom_site_symmetry_multiplicity
 _atom_site_fract_x
 _atom_site_fract_y
 _atom_site_fract_z
 _atom_site_occupancy
  Si  Si0  1  0.93284044  0.24364615  0.75635385  1
  Si  Si1  1  0.43284044  0.75635385  0.24364615  1
  Si  Si2  1  0.56448420  0.88217200  0.11782800  1
  Si  Si3  1  0.06484564  0.13107503  0.58551726  1
  Si  Si4  1  0.43515436  0.41448274  0.86892497  1
  Si  Si5  1  0.93691294  0.92154060  0.79304397  1
  Si  Si6  1  0.43515436  0.13107503  0.58551726  1
  Si  Si7  1  0.93515436  0.58551726  0.13107503  1
  Si  Si8  1  0.56386122  0.60340923  0.93125037  1
  Si  Si9  1  0.56484564  0.86892497  0.41448274  1
  Si  Si10  1  0.43691294  0.07845940  0.20695603  1
  Si  Si11  1  0.93613878  0.60340923  0.93125037  1
  Si  Si12  1  0.06484564  0.41448274  0.86892497  1
  Si  Si13  1  0.43613878  0.39659077  0.06874963  1
  Si  Si14  1  0.06386122  0.93125037  0.60340923  1
  Si  Si15  1  0.93691294  0.20695603  0.07845940  1
  Si  Si16  1  0.56308706  0.20695603  0.07845940  1
  Si  Si17  1  0.93613878  0.06874963  0.39659077  1
  Si  Si18  1  0.93551580  0.88217200  0.11782800  1
  Si  Si19  1  0.56308706  0.92154060  0.79304397  1
  Si  Si20  1  0.56484564  0.58551726  0.13107503  1
  Si  Si21  1  0.06386122  0.39659077  0.06874963  1
  Si  Si22  1  0.06715956  0.75635385  0.24364615  1
  Si  Si23  1  0.43613878  0.93125037  0.60340923  1
  Si  Si24  1  0.43551580  0.11782800  0.88217200  1
  Si  Si25  1  0.06448420  0.11782800  0.88217200  1
  Si  Si26  1  0.93515436  0.86892497  0.41448274  1
  Si  Si27  1  0.56386122  0.06874963  0.39659077  1
  Si  Si28  1  0.56715956  0.24364615  0.75635385  1
  Si  Si29  1  0.06308706  0.79304397  0.92154060  1
  Si  Si30  1  0.06308706  0.07845940  0.20695603  1
  Si  Si31  1  0.43691294  0.79304397  0.92154060  1
  O  O32  1  0.51144751  0.61094804  0.03582435  1
  O  O33  1  0.52204996  0.86837892  0.51848218  1
  O  O34  1  0.48855249  0.03582435  0.61094804  1
  O  O35  1  0.02204996  0.51848218  0.86837892  1
  O  O36  1  0.98855249  0.61094804  0.03582435  1
  O  O37  1  0.48526656  0.97799459  0.15756221  1
  O  O38  1  0.97795004  0.48151782  0.13162108  1
  O  O39  1  0.48591498  0.30624075  0.10251621  1
  O  O40  1  0.98591498  0.69375925  0.89748379  1
  O  O41  1  0.48855249  0.38905196  0.96417565  1
  O  O42  1  0.01408502  0.30624075  0.10251621  1
  O  O43  1  0.75000000  0.89496426  0.10503574  1
  O  O44  1  0.97292086  0.21219236  0.65021145  1
  O  O45  1  0.48591498  0.89748379  0.69375925  1
  O  O46  1  0.47795004  0.13162108  0.48151782  1
  O  O47  1  0.96211734  0.81386293  0.18613707  1
  O  O48  1  0.00000000  0.84978915  0.84978915  1
  O  O49  1  0.25000000  0.77337694  0.22662306  1
  O  O50  1  0.47292086  0.78780764  0.34978855  1
  O  O51  1  0.75000000  0.58887595  0.92241358  1
  O  O52  1  0.51144751  0.96417565  0.38905196  1
  O  O53  1  0.02707914  0.65021145  0.21219236  1
  O  O54  1  0.01408502  0.89748379  0.69375925  1
  O  O55  1  0.75000000  0.85433664  0.39914115  1
  O  O56  1  0.53788266  0.81386293  0.18613707  1
  O  O57  1  0.03788266  0.18613707  0.81386293  1
  O  O58  1  0.25000000  0.78430103  0.91486309  1
  O  O59  1  0.75000000  0.21569897  0.08513691  1
  O  O60  1  0.25000000  0.10503574  0.89496426  1
  O  O61  1  0.50000000  0.84978915  0.84978915  1
  O  O62  1  0.75000000  0.60085885  0.14566336  1
  O  O63  1  0.98526656  0.02200541  0.84243779  1
  O  O64  1  0.97292086  0.34978855  0.78780764  1
  O  O65  1  0.02204996  0.13162108  0.48151782  1
  O  O66  1  0.01144751  0.38905196  0.96417565  1
  O  O67  1  0.25000000  0.92241358  0.58887595  1
  O  O68  1  0.47795004  0.51848218  0.86837892  1
  O  O69  1  0.52707914  0.21219236  0.65021145  1
  O  O70  1  0.00000000  0.15021085  0.15021085  1
  O  O71  1  0.25000000  0.08513691  0.21569897  1
  O  O72  1  0.75000000  0.22662306  0.77337694  1
  O  O73  1  0.51473344  0.02200541  0.84243779  1
  O  O74  1  0.75000000  0.91486309  0.78430103  1
  O  O75  1  0.98591498  0.10251621  0.30624075  1
  O  O76  1  0.52204996  0.48151782  0.13162108  1
  O  O77  1  0.50000000  0.15021085  0.15021085  1
  O  O78  1  0.01473344  0.84243779  0.02200541  1
  O  O79  1  0.51408502  0.10251621  0.30624075  1
  O  O80  1  0.98855249  0.96417565  0.38905196  1
  O  O81  1  0.51473344  0.15756221  0.97799459  1
  O  O82  1  0.52707914  0.34978855  0.78780764  1
  O  O83  1  0.01473344  0.97799459  0.15756221  1
  O  O84  1  0.98526656  0.15756221  0.97799459  1
  O  O85  1  0.01144751  0.03582435  0.61094804  1
  O  O86  1  0.51408502  0.69375925  0.89748379  1
  O  O87  1  0.25000000  0.14566336  0.60085885  1
  O  O88  1  0.46211734  0.18613707  0.81386293  1
  O  O89  1  0.48526656  0.84243779  0.02200541  1
  O  O90  1  0.75000000  0.07758642  0.41112405  1
  O  O91  1  0.02707914  0.78780764  0.34978855  1
  O  O92  1  0.25000000  0.39914115  0.85433664  1
  O  O93  1  0.97795004  0.86837892  0.51848218  1
  O  O94  1  0.47292086  0.65021145  0.21219236  1
  O  O95  1  0.25000000  0.41112405  0.07758642  1
