# generated using pymatgen
data_SiO2
_symmetry_space_group_name_H-M   'P 1'
_cell_length_a   9.88231439
_cell_length_b   11.50616258
_cell_length_c   19.94488085
_cell_angle_alpha   90.00000000
_cell_angle_beta   90.00000000
_cell_angle_gamma   115.43175477
_symmetry_Int_Tables_number   1
_chemical_formula_structural   SiO2
_chemical_formula_sum   'Si32 O64'
_cell_volume   2048.11917666
_cell_formula_units_Z   32
loop_
 _symmetry_equiv_pos_site_id
 _symmetry_equiv_pos_as_xyz
  1  'x, y, z'
loop_
 _atom_site_type_symbol
 _atom_site_label
 _atom_site_symmetry_multiplicity
 _atom_site_fract_x
 _atom_site_fract_y
 _atom_site_fract_z
 _atom_site_occupancy
  Si  Si0  1  0.49185588  0.53173259  0.89113107  1
  Si  Si1  1  0.36191180  0.64212670  0.17174426  1
  Si  Si2  1  0.47367837  0.15289479  0.94049280  1
  Si  Si3  1  0.69268868  0.69406034  0.49337253  1
  Si  Si4  1  0.63808820  0.35787330  0.82825574  1
  Si  Si5  1  0.00137166  0.69406034  0.99337253  1
  Si  Si6  1  0.03987671  0.53173259  0.39113107  1
  Si  Si7  1  0.99862834  0.30593966  0.49337253  1
  Si  Si8  1  0.50814412  0.46826741  0.39113107  1
  Si  Si9  1  0.28021490  0.64212670  0.67174426  1
  Si  Si10  1  0.28021490  0.64212670  0.82825574  1
  Si  Si11  1  0.49185588  0.53173259  0.60886893  1
  Si  Si12  1  0.52632163  0.84710521  0.44049280  1
  Si  Si13  1  0.36191180  0.64212670  0.32825574  1
  Si  Si14  1  0.63808820  0.35787330  0.67174426  1
  Si  Si15  1  0.50814412  0.46826741  0.10886893  1
  Si  Si16  1  0.52632163  0.84710521  0.05950720  1
  Si  Si17  1  0.30731132  0.30593966  0.50662747  1
  Si  Si18  1  0.32078358  0.84710521  0.94049280  1
  Si  Si19  1  0.99862834  0.30593966  0.00662747  1
  Si  Si20  1  0.69268868  0.69406034  0.00662747  1
  Si  Si21  1  0.71978510  0.35787330  0.32825574  1
  Si  Si22  1  0.96012329  0.46826741  0.60886893  1
  Si  Si23  1  0.67921642  0.15289479  0.44049280  1
  Si  Si24  1  0.96012329  0.46826741  0.89113107  1
  Si  Si25  1  0.47367837  0.15289479  0.55950720  1
  Si  Si26  1  0.67921642  0.15289479  0.05950720  1
  Si  Si27  1  0.00137166  0.69406034  0.50662747  1
  Si  Si28  1  0.71978510  0.35787330  0.17174426  1
  Si  Si29  1  0.32078358  0.84710521  0.55950720  1
  Si  Si30  1  0.03987671  0.53173259  0.10886893  1
  Si  Si31  1  0.30731132  0.30593966  0.99337253  1
  O  O32  1  0.81797910  0.41644640  0.84058819  1
  O  O33  1  0.59125601  0.00000000  0.07316716  1
  O  O34  1  0.62697162  0.57038071  0.44320678  1
  O  O35  1  0.66253640  0.81180717  0.03704252  1
  O  O36  1  0.59846730  0.41644640  0.15941181  1
  O  O37  1  0.94340909  0.57038071  0.94320678  1
  O  O38  1  0.96202251  0.34738549  0.56691150  1
  O  O39  1  0.33746360  0.18819283  0.53704252  1
  O  O40  1  0.88712791  0.46455502  0.34760458  1
  O  O41  1  0.11287209  0.53544498  0.84760458  1
  O  O42  1  0.28445167  0.68059780  0.75000000  1
  O  O43  1  0.71554833  0.31940220  0.25000000  1
  O  O44  1  0.05659091  0.42961929  0.44320678  1
  O  O45  1  0.44871950  0.77220177  0.12790883  1
  O  O46  1  0.33746360  0.18819283  0.96295748  1
  O  O47  1  0.96202251  0.34738549  0.93308850  1
  O  O48  1  0.67651773  0.22779823  0.37209117  1
  O  O49  1  0.05659091  0.42961929  0.05679322  1
  O  O50  1  0.59125601  0.00000000  0.42683284  1
  O  O51  1  0.39614613  0.68059780  0.25000000  1
  O  O52  1  0.85072923  0.18819283  0.46295748  1
  O  O53  1  0.87253179  0.74506359  0.00000000  1
  O  O54  1  0.59869367  0.19738733  0.50000000  1
  O  O55  1  0.61463702  0.65261451  0.93308850  1
  O  O56  1  0.88712791  0.46455502  0.15239542  1
  O  O57  1  0.44871950  0.77220177  0.37209117  1
  O  O58  1  0.81797910  0.41644640  0.65941181  1
  O  O59  1  0.85072923  0.18819283  0.03704252  1
  O  O60  1  0.62697162  0.57038071  0.05679322  1
  O  O61  1  0.12746821  0.25493641  0.50000000  1
  O  O62  1  0.61463702  0.65261451  0.56691150  1
  O  O63  1  0.67651773  0.22779823  0.12790883  1
  O  O64  1  0.11287209  0.53544498  0.65239542  1
  O  O65  1  0.03797749  0.65261451  0.43308850  1
  O  O66  1  0.42257289  0.53544498  0.34760458  1
  O  O67  1  0.14927077  0.81180717  0.96295748  1
  O  O68  1  0.59869367  0.19738733  0.00000000  1
  O  O69  1  0.66253640  0.81180717  0.46295748  1
  O  O70  1  0.55128050  0.22779823  0.62790883  1
  O  O71  1  0.40874399  0.00000000  0.92683284  1
  O  O72  1  0.40153270  0.58355360  0.84058819  1
  O  O73  1  0.87253179  0.74506359  0.50000000  1
  O  O74  1  0.18202090  0.58355360  0.15941181  1
  O  O75  1  0.32348227  0.77220177  0.87209117  1
  O  O76  1  0.57742711  0.46455502  0.84760458  1
  O  O77  1  0.42257289  0.53544498  0.15239542  1
  O  O78  1  0.37302838  0.42961929  0.94320678  1
  O  O79  1  0.37302838  0.42961929  0.55679322  1
  O  O80  1  0.57742711  0.46455502  0.65239542  1
  O  O81  1  0.32348227  0.77220177  0.62790883  1
  O  O82  1  0.38536298  0.34738549  0.06691150  1
  O  O83  1  0.59846730  0.41644640  0.34058819  1
  O  O84  1  0.40130633  0.80261267  0.50000000  1
  O  O85  1  0.38536298  0.34738549  0.43308850  1
  O  O86  1  0.03797749  0.65261451  0.06691150  1
  O  O87  1  0.40874399  0.00000000  0.57316716  1
  O  O88  1  0.18202090  0.58355360  0.34058819  1
  O  O89  1  0.55128050  0.22779823  0.87209117  1
  O  O90  1  0.14927077  0.81180717  0.53704252  1
  O  O91  1  0.60385387  0.31940220  0.75000000  1
  O  O92  1  0.40153270  0.58355360  0.65941181  1
  O  O93  1  0.94340909  0.57038071  0.55679322  1
  O  O94  1  0.12746821  0.25493641  0.00000000  1
  O  O95  1  0.40130633  0.80261267  0.00000000  1
