# generated using pymatgen
data_Ag4GeO4
_symmetry_space_group_name_H-M   'P 1'
_cell_length_a   6.57933833
_cell_length_b   8.60177909
_cell_length_c   10.26374520
_cell_angle_alpha   106.76990146
_cell_angle_beta   93.07084912
_cell_angle_gamma   94.64785115
_symmetry_Int_Tables_number   1
_chemical_formula_structural   Ag4GeO4
_chemical_formula_sum   'Ag16 Ge4 O16'
_cell_volume   552.52905116
_cell_formula_units_Z   4
loop_
 _symmetry_equiv_pos_site_id
 _symmetry_equiv_pos_as_xyz
  1  'x, y, z'
loop_
 _atom_site_type_symbol
 _atom_site_label
 _atom_site_symmetry_multiplicity
 _atom_site_fract_x
 _atom_site_fract_y
 _atom_site_fract_z
 _atom_site_occupancy
  Ag  Ag0  1  0.01644759  0.01577104  0.24733567  1
  Ag  Ag1  1  0.52286882  0.03650058  0.25692566  1
  Ag  Ag2  1  0.44157213  0.65259949  0.16227034  1
  Ag  Ag3  1  0.32175238  0.18178914  0.52588970  1
  Ag  Ag4  1  0.95263093  0.58004879  0.14031041  1
  Ag  Ag5  1  0.08414313  0.36257162  0.36808032  1
  Ag  Ag6  1  0.77075092  0.17604496  0.07757226  1
  Ag  Ag7  1  0.42069236  0.60645692  0.66949703  1
  Ag  Ag8  1  0.47713118  0.96349942  0.74307434  1
  Ag  Ag9  1  0.57930764  0.39354308  0.33050297  1
  Ag  Ag10  1  0.55842787  0.34740051  0.83772966  1
  Ag  Ag11  1  0.22924908  0.82395504  0.92242774  1
  Ag  Ag12  1  0.67824762  0.81821086  0.47411030  1
  Ag  Ag13  1  0.04736907  0.41995121  0.85968959  1
  Ag  Ag14  1  0.98355241  0.98422896  0.75266433  1
  Ag  Ag15  1  0.91585687  0.63742838  0.63191968  1
  Ge  Ge16  1  0.79877181  0.22835676  0.55676441  1
  Ge  Ge17  1  0.72489931  0.75149839  0.93863042  1
  Ge  Ge18  1  0.27510069  0.24850161  0.06136958  1
  Ge  Ge19  1  0.20122819  0.77164324  0.44323559  1
  O  O20  1  0.95734766  0.65585332  0.42548211  1
  O  O21  1  0.22424252  0.22106794  0.88437934  1
  O  O22  1  0.71890216  0.94118219  0.89926078  1
  O  O23  1  0.75849110  0.17487398  0.70899119  1
  O  O24  1  0.92554163  0.64783726  0.84746923  1
  O  O25  1  0.51402001  0.37548377  0.11368454  1
  O  O26  1  0.22083323  0.95314865  0.58675341  1
  O  O27  1  0.77575748  0.77893206  0.11562066  1
  O  O28  1  0.39193262  0.64156829  0.46805652  1
  O  O29  1  0.60806738  0.35843171  0.53194348  1
  O  O30  1  0.07445837  0.35216274  0.15253077  1
  O  O31  1  0.77916677  0.04685135  0.41324659  1
  O  O32  1  0.04265234  0.34414668  0.57451789  1
  O  O33  1  0.24150890  0.82512602  0.29100881  1
  O  O34  1  0.28109784  0.05881781  0.10073922  1
  O  O35  1  0.48597999  0.62451623  0.88631546  1
