# generated using pymatgen
data_AlPO4
_symmetry_space_group_name_H-M   'P 1'
_cell_length_a   9.03571609
_cell_length_b   10.20868722
_cell_length_c   20.05279336
_cell_angle_alpha   90.00000000
_cell_angle_beta   90.00000000
_cell_angle_gamma   90.00000000
_symmetry_Int_Tables_number   1
_chemical_formula_structural   AlPO4
_chemical_formula_sum   'Al16 P16 O64'
_cell_volume   1849.72579475
_cell_formula_units_Z   16
loop_
 _symmetry_equiv_pos_site_id
 _symmetry_equiv_pos_as_xyz
  1  'x, y, z'
loop_
 _atom_site_type_symbol
 _atom_site_label
 _atom_site_symmetry_multiplicity
 _atom_site_fract_x
 _atom_site_fract_y
 _atom_site_fract_z
 _atom_site_occupancy
  Al  Al0  1  0.86149009  0.34674870  0.45250023  1
  Al  Al1  1  0.63850991  0.84674870  0.54749977  1
  Al  Al2  1  0.69569644  0.57997261  0.20507032  1
  Al  Al3  1  0.80430356  0.57997261  0.70507032  1
  Al  Al4  1  0.69569644  0.07997261  0.29492968  1
  Al  Al5  1  0.19569644  0.42002739  0.29492968  1
  Al  Al6  1  0.80430356  0.07997261  0.79492968  1
  Al  Al7  1  0.13850991  0.65325130  0.54749977  1
  Al  Al8  1  0.30430356  0.42002739  0.79492968  1
  Al  Al9  1  0.36149009  0.15325130  0.45250023  1
  Al  Al10  1  0.30430356  0.92002739  0.70507032  1
  Al  Al11  1  0.13850991  0.15325130  0.95250023  1
  Al  Al12  1  0.86149009  0.84674870  0.04749977  1
  Al  Al13  1  0.19569644  0.92002739  0.20507032  1
  Al  Al14  1  0.36149009  0.65325130  0.04749977  1
  Al  Al15  1  0.63850991  0.34674870  0.95250023  1
  P  P16  1  0.84609901  0.35582082  0.29469528  1
  P  P17  1  0.79391708  0.07782205  0.95275856  1
  P  P18  1  0.70608292  0.57782205  0.04724144  1
  P  P19  1  0.70608292  0.07782205  0.45275856  1
  P  P20  1  0.34609901  0.14417918  0.29469528  1
  P  P21  1  0.29391708  0.92217795  0.54724144  1
  P  P22  1  0.79391708  0.57782205  0.54724144  1
  P  P23  1  0.65390099  0.85582082  0.70530472  1
  P  P24  1  0.20608292  0.42217795  0.45275856  1
  P  P25  1  0.84609901  0.85582082  0.20530472  1
  P  P26  1  0.15390099  0.14417918  0.79469528  1
  P  P27  1  0.20608292  0.92217795  0.04724144  1
  P  P28  1  0.65390099  0.35582082  0.79469528  1
  P  P29  1  0.15390099  0.64417918  0.70530472  1
  P  P30  1  0.29391708  0.42217795  0.95275856  1
  P  P31  1  0.34609901  0.64417918  0.20530472  1
  O  O32  1  0.31017757  0.78657869  0.22458030  1
  O  O33  1  0.75308711  0.94755958  0.74576452  1
  O  O34  1  0.68982243  0.21342131  0.77541970  1
  O  O35  1  0.22063703  0.46197921  0.37903660  1
  O  O36  1  0.24691289  0.55244042  0.24576452  1
  O  O37  1  0.55077555  0.13393029  0.46608584  1
  O  O38  1  0.24691289  0.05244042  0.25423548  1
  O  O39  1  0.27936297  0.96197921  0.62096340  1
  O  O40  1  0.68640395  0.87864593  0.63069010  1
  O  O41  1  0.82102756  0.68290914  0.02892760  1
  O  O42  1  0.17897244  0.81709086  0.52892760  1
  O  O43  1  0.81359605  0.37864593  0.36930990  1
  O  O44  1  0.99014877  0.11778301  0.77929958  1
  O  O45  1  0.31359605  0.62135407  0.13069010  1
  O  O46  1  0.44922445  0.86606971  0.53391416  1
  O  O47  1  0.50985123  0.11778301  0.27929958  1
  O  O48  1  0.25308711  0.55244042  0.74576452  1
  O  O49  1  0.26553986  0.54339215  0.99623902  1
  O  O50  1  0.44922445  0.36606971  0.96608584  1
  O  O51  1  0.31359605  0.12135407  0.36930990  1
  O  O52  1  0.55077555  0.63393029  0.03391416  1
  O  O53  1  0.77936297  0.53802079  0.62096340  1
  O  O54  1  0.99014877  0.61778301  0.72070042  1
  O  O55  1  0.23446014  0.04339215  0.00376098  1
  O  O56  1  0.76553986  0.45660785  0.50376098  1
  O  O57  1  0.00985123  0.88221699  0.22070042  1
  O  O58  1  0.27936297  0.46197921  0.87903660  1
  O  O59  1  0.18640395  0.62135407  0.63069010  1
  O  O60  1  0.49014877  0.88221699  0.72070042  1
  O  O61  1  0.05077555  0.36606971  0.46608584  1
  O  O62  1  0.94922445  0.63393029  0.53391416  1
  O  O63  1  0.81017757  0.21342131  0.27541970  1
  O  O64  1  0.82102756  0.18290914  0.47107240  1
  O  O65  1  0.67897244  0.18290914  0.97107240  1
  O  O66  1  0.73446014  0.45660785  0.00376098  1
  O  O67  1  0.18640395  0.12135407  0.86930990  1
  O  O68  1  0.05077555  0.86606971  0.03391416  1
  O  O69  1  0.67897244  0.68290914  0.52892760  1
  O  O70  1  0.68640395  0.37864593  0.86930990  1
  O  O71  1  0.23446014  0.54339215  0.49623902  1
  O  O72  1  0.77936297  0.03802079  0.87903660  1
  O  O73  1  0.32102756  0.81709086  0.02892760  1
  O  O74  1  0.75308711  0.44755958  0.75423548  1
  O  O75  1  0.73446014  0.95660785  0.49623902  1
  O  O76  1  0.18982243  0.28657869  0.77541970  1
  O  O77  1  0.72063703  0.03802079  0.37903660  1
  O  O78  1  0.81017757  0.71342131  0.22458030  1
  O  O79  1  0.76553986  0.95660785  0.99623902  1
  O  O80  1  0.81359605  0.87864593  0.13069010  1
  O  O81  1  0.18982243  0.78657869  0.72458030  1
  O  O82  1  0.50985123  0.61778301  0.22070042  1
  O  O83  1  0.74691289  0.94755958  0.24576452  1
  O  O84  1  0.72063703  0.53802079  0.12096340  1
  O  O85  1  0.00985123  0.38221699  0.27929958  1
  O  O86  1  0.49014877  0.38221699  0.77929958  1
  O  O87  1  0.74691289  0.44755958  0.25423548  1
  O  O88  1  0.25308711  0.05244042  0.75423548  1
  O  O89  1  0.22063703  0.96197921  0.12096340  1
  O  O90  1  0.32102756  0.31709086  0.47107240  1
  O  O91  1  0.68982243  0.71342131  0.72458030  1
  O  O92  1  0.17897244  0.31709086  0.97107240  1
  O  O93  1  0.31017757  0.28657869  0.27541970  1
  O  O94  1  0.26553986  0.04339215  0.50376098  1
  O  O95  1  0.94922445  0.13393029  0.96608584  1
