# generated using pymatgen
data_Ba4Nd2Cu2O9
_symmetry_space_group_name_H-M   'P 1'
_cell_length_a   3.91815952
_cell_length_b   12.11348028
_cell_length_c   12.11348028
_cell_angle_alpha   90.00000000
_cell_angle_beta   90.00000000
_cell_angle_gamma   90.00000000
_symmetry_Int_Tables_number   1
_chemical_formula_structural   Ba4Nd2Cu2O9
_chemical_formula_sum   'Ba8 Nd4 Cu4 O18'
_cell_volume   574.93664020
_cell_formula_units_Z   2
loop_
 _symmetry_equiv_pos_site_id
 _symmetry_equiv_pos_as_xyz
  1  'x, y, z'
loop_
 _atom_site_type_symbol
 _atom_site_label
 _atom_site_symmetry_multiplicity
 _atom_site_fract_x
 _atom_site_fract_y
 _atom_site_fract_z
 _atom_site_occupancy
  Ba  Ba0  1  0.26124545  0.82835156  0.11350445  1
  Ba  Ba1  1  0.76124545  0.67164844  0.61350445  1
  Ba  Ba2  1  0.26124545  0.17164844  0.88649555  1
  Ba  Ba3  1  0.73875455  0.88649555  0.82835156  1
  Ba  Ba4  1  0.23875455  0.61350445  0.32835156  1
  Ba  Ba5  1  0.23875455  0.38649555  0.67164844  1
  Ba  Ba6  1  0.73875455  0.11350445  0.17164844  1
  Ba  Ba7  1  0.76124545  0.32835156  0.38649555  1
  Nd  Nd8  1  0.75000000  0.88975332  0.38975332  1
  Nd  Nd9  1  0.75000000  0.11024668  0.61024668  1
  Nd  Nd10  1  0.25000000  0.38975332  0.11024668  1
  Nd  Nd11  1  0.25000000  0.61024668  0.88975332  1
  Cu  Cu12  1  0.25000000  0.09836532  0.40163468  1
  Cu  Cu13  1  0.75000000  0.40163468  0.90163468  1
  Cu  Cu14  1  0.75000000  0.59836532  0.09836532  1
  Cu  Cu15  1  0.25000000  0.90163468  0.59836532  1
  O  O16  1  0.25000000  0.25634328  0.24365672  1
  O  O17  1  0.25075198  0.20919402  0.52307949  1
  O  O18  1  0.24924802  0.02307949  0.70919402  1
  O  O19  1  0.75000000  0.24365672  0.74365672  1
  O  O20  1  0.25000000  0.59283256  0.09283256  1
  O  O21  1  0.75000000  0.09283256  0.40716744  1
  O  O22  1  0.75075198  0.70919402  0.97692051  1
  O  O23  1  0.24924802  0.97692051  0.29080598  1
  O  O24  1  0.75000000  0.75634328  0.25634328  1
  O  O25  1  0.75000000  0.90716744  0.59283256  1
  O  O26  1  0.74924802  0.47692051  0.20919402  1
  O  O27  1  0.75075198  0.29080598  0.02307949  1
  O  O28  1  0.25075198  0.79080598  0.47692051  1
  O  O29  1  0.25000000  0.74365672  0.75634328  1
  O  O30  1  0.00000000  0.50000000  0.50000000  1
  O  O31  1  0.74924802  0.52307949  0.79080598  1
  O  O32  1  0.25000000  0.40716744  0.90716744  1
  O  O33  1  0.50000000  0.00000000  0.00000000  1
