# generated using pymatgen
data_Dy(IO3)3
_symmetry_space_group_name_H-M   'P 1'
_cell_length_a   7.20898938
_cell_length_b   8.60988796
_cell_length_c   13.55204219
_cell_angle_alpha   90.00000000
_cell_angle_beta   100.30349817
_cell_angle_gamma   90.00000000
_symmetry_Int_Tables_number   1
_chemical_formula_structural   Dy(IO3)3
_chemical_formula_sum   'Dy4 I12 O36'
_cell_volume   827.59177810
_cell_formula_units_Z   4
loop_
 _symmetry_equiv_pos_site_id
 _symmetry_equiv_pos_as_xyz
  1  'x, y, z'
loop_
 _atom_site_type_symbol
 _atom_site_label
 _atom_site_symmetry_multiplicity
 _atom_site_fract_x
 _atom_site_fract_y
 _atom_site_fract_z
 _atom_site_occupancy
  Dy  Dy0  1  0.82815604  0.74577783  0.35373616  1
  Dy  Dy1  1  0.17184396  0.25422217  0.64626384  1
  Dy  Dy2  1  0.17184396  0.24577783  0.14626384  1
  Dy  Dy3  1  0.82815604  0.75422217  0.85373616  1
  I  I4  1  0.33286256  0.95683825  0.35615627  1
  I  I5  1  0.33286256  0.54316175  0.85615627  1
  I  I6  1  0.66713744  0.45683825  0.14384373  1
  I  I7  1  0.83507599  0.20597587  0.39041432  1
  I  I8  1  0.16492401  0.70597587  0.10958568  1
  I  I9  1  0.26684801  0.02038355  0.89013727  1
  I  I10  1  0.66713744  0.04316175  0.64384373  1
  I  I11  1  0.73315199  0.52038355  0.60986273  1
  I  I12  1  0.26684801  0.47961645  0.39013727  1
  I  I13  1  0.73315199  0.97961645  0.10986273  1
  I  I14  1  0.16492401  0.79402413  0.60958568  1
  I  I15  1  0.83507599  0.29402413  0.89041432  1
  O  O16  1  0.15769731  0.97388741  0.68131896  1
  O  O17  1  0.67845646  0.57971884  0.47906480  1
  O  O18  1  0.77363058  0.79172573  0.17641860  1
  O  O19  1  0.14802740  0.69092495  0.82267310  1
  O  O20  1  0.98066548  0.47003358  0.61300824  1
  O  O21  1  0.66165978  0.53360247  0.26953706  1
  O  O22  1  0.22636942  0.29172573  0.32358140  1
  O  O23  1  0.22636942  0.20827427  0.82358140  1
  O  O24  1  0.01933452  0.97003358  0.88699176  1
  O  O25  1  0.53144894  0.82605331  0.36128291  1
  O  O26  1  0.33834022  0.03360247  0.23046294  1
  O  O27  1  0.96467538  0.83174463  0.50914710  1
  O  O28  1  0.77363058  0.70827427  0.67641860  1
  O  O29  1  0.85197260  0.30907505  0.17732690  1
  O  O30  1  0.84230269  0.47388741  0.81868104  1
  O  O31  1  0.32154354  0.42028116  0.52093520  1
  O  O32  1  0.67845646  0.92028116  0.97906480  1
  O  O33  1  0.53144894  0.67394669  0.86128291  1
  O  O34  1  0.96467538  0.66825537  0.00914710  1
  O  O35  1  0.36238758  0.66646590  0.04536271  1
  O  O36  1  0.33834022  0.46639753  0.73046294  1
  O  O37  1  0.03532462  0.33174463  0.99085290  1
  O  O38  1  0.46855106  0.17394669  0.63871709  1
  O  O39  1  0.36238758  0.83353410  0.54536271  1
  O  O40  1  0.63761242  0.33353410  0.95463729  1
  O  O41  1  0.98066548  0.02996642  0.11300824  1
  O  O42  1  0.84230269  0.02611259  0.31868104  1
  O  O43  1  0.15769731  0.52611259  0.18131896  1
  O  O44  1  0.46855106  0.32605331  0.13871709  1
  O  O45  1  0.14802740  0.80907505  0.32267310  1
  O  O46  1  0.01933452  0.52996642  0.38699176  1
  O  O47  1  0.63761242  0.16646590  0.45463729  1
  O  O48  1  0.03532462  0.16825537  0.49085290  1
  O  O49  1  0.85197260  0.19092495  0.67732690  1
  O  O50  1  0.66165978  0.96639753  0.76953706  1
  O  O51  1  0.32154354  0.07971884  0.02093520  1
