# generated using pymatgen
data_AlS2NCl6
_symmetry_space_group_name_H-M   'P 1'
_cell_length_a   6.41149972
_cell_length_b   13.38840015
_cell_length_c   13.79691419
_cell_angle_alpha   90.00000000
_cell_angle_beta   90.00000000
_cell_angle_gamma   95.49403568
_symmetry_Int_Tables_number   1
_chemical_formula_structural   AlS2NCl6
_chemical_formula_sum   'Al4 S8 N4 Cl24'
_cell_volume   1178.88272337
_cell_formula_units_Z   4
loop_
 _symmetry_equiv_pos_site_id
 _symmetry_equiv_pos_as_xyz
  1  'x, y, z'
loop_
 _atom_site_type_symbol
 _atom_site_label
 _atom_site_symmetry_multiplicity
 _atom_site_fract_x
 _atom_site_fract_y
 _atom_site_fract_z
 _atom_site_occupancy
  Al  Al0  1  0.84480751  0.98411005  0.75000000  1
  Al  Al1  1  0.99363322  0.46638414  0.75000000  1
  Al  Al2  1  0.15519249  0.01588995  0.25000000  1
  Al  Al3  1  0.00636678  0.53361586  0.25000000  1
  S  S4  1  0.63273341  0.83590447  0.40686618  1
  S  S5  1  0.25537384  0.34262204  0.47970800  1
  S  S6  1  0.36726659  0.16409553  0.59313382  1
  S  S7  1  0.25537384  0.34262204  0.02029200  1
  S  S8  1  0.36726659  0.16409553  0.90686618  1
  S  S9  1  0.74462616  0.65737796  0.97970800  1
  S  S10  1  0.63273341  0.83590447  0.09313382  1
  S  S11  1  0.74462616  0.65737796  0.52029200  1
  N  N12  1  0.26938694  0.25548129  0.94877432  1
  N  N13  1  0.73061306  0.74451871  0.05122568  1
  N  N14  1  0.26938694  0.25548129  0.55122568  1
  N  N15  1  0.73061306  0.74451871  0.44877432  1
  Cl  Cl16  1  0.29999261  0.41440529  0.75000000  1
  Cl  Cl17  1  0.05383539  0.08785992  0.37893970  1
  Cl  Cl18  1  0.82980055  0.41523200  0.88084030  1
  Cl  Cl19  1  0.97112773  0.37064733  0.25000000  1
  Cl  Cl20  1  0.97597139  0.14025292  0.75000000  1
  Cl  Cl21  1  0.82980055  0.41523200  0.61915970  1
  Cl  Cl22  1  0.02887227  0.62935267  0.75000000  1
  Cl  Cl23  1  0.37514204  0.86366974  0.01627405  1
  Cl  Cl24  1  0.62485796  0.13633026  0.98372595  1
  Cl  Cl25  1  0.02402861  0.85974708  0.25000000  1
  Cl  Cl26  1  0.50118401  0.64790063  0.88586874  1
  Cl  Cl27  1  0.94616461  0.91214008  0.62106030  1
  Cl  Cl28  1  0.50668985  0.98098148  0.75000000  1
  Cl  Cl29  1  0.94616461  0.91214008  0.87893970  1
  Cl  Cl30  1  0.70000739  0.58559471  0.25000000  1
  Cl  Cl31  1  0.50118401  0.64790063  0.61413126  1
  Cl  Cl32  1  0.05383539  0.08785992  0.12106030  1
  Cl  Cl33  1  0.49331015  0.01901852  0.25000000  1
  Cl  Cl34  1  0.62485796  0.13633026  0.51627405  1
  Cl  Cl35  1  0.37514204  0.86366974  0.48372595  1
  Cl  Cl36  1  0.49881599  0.35209937  0.38586874  1
  Cl  Cl37  1  0.17019945  0.58476800  0.38084030  1
  Cl  Cl38  1  0.17019945  0.58476800  0.11915970  1
  Cl  Cl39  1  0.49881599  0.35209937  0.11413126  1
