# generated using pymatgen
data_V8O15
_symmetry_space_group_name_H-M   'P 1'
_cell_length_a   5.54238491
_cell_length_b   7.08985251
_cell_length_c   13.55485545
_cell_angle_alpha   101.54441604
_cell_angle_beta   97.78208927
_cell_angle_gamma   107.57957884
_symmetry_Int_Tables_number   1
_chemical_formula_structural   V8O15
_chemical_formula_sum   'V16 O30'
_cell_volume   486.42711050
_cell_formula_units_Z   2
loop_
 _symmetry_equiv_pos_site_id
 _symmetry_equiv_pos_as_xyz
  1  'x, y, z'
loop_
 _atom_site_type_symbol
 _atom_site_label
 _atom_site_symmetry_multiplicity
 _atom_site_fract_x
 _atom_site_fract_y
 _atom_site_fract_z
 _atom_site_occupancy
  V  V0  1  0.87031604  0.02765879  0.18663162  1
  V  V1  1  0.76865412  0.27145612  0.95247766  1
  V  V2  1  0.82060098  0.88933041  0.56031931  1
  V  V3  1  0.82823132  0.39508299  0.56694757  1
  V  V4  1  0.17939902  0.11066959  0.43968069  1
  V  V5  1  0.22377407  0.22746112  0.05114332  1
  V  V6  1  0.52907148  0.32177229  0.30931218  1
  V  V7  1  0.17176868  0.60491701  0.43305243  1
  V  V8  1  0.48271291  0.18375674  0.69232862  1
  V  V9  1  0.13061244  0.46566884  0.82254108  1
  V  V10  1  0.12968396  0.97234121  0.81336838  1
  V  V11  1  0.47092852  0.67822771  0.69068782  1
  V  V12  1  0.23134588  0.72854388  0.04752234  1
  V  V13  1  0.51728709  0.81624326  0.30767138  1
  V  V14  1  0.86938756  0.53433116  0.17745892  1
  V  V15  1  0.77622593  0.77253888  0.94885668  1
  O  O16  1  0.26740099  0.87057054  0.39120460  1
  O  O17  1  0.58768045  0.44100352  0.65467479  1
  O  O18  1  0.92689818  0.65881059  0.52580656  1
  O  O19  1  0.23629991  0.69017140  0.18262805  1
  O  O20  1  0.73259901  0.12942946  0.60879540  1
  O  O21  1  0.81845235  0.56165267  0.02166901  1
  O  O22  1  0.08483672  0.74061248  0.89404266  1
  O  O23  1  0.07310182  0.34118941  0.47419344  1
  O  O24  1  0.75917404  0.76776034  0.21892037  1
  O  O25  1  0.14471578  0.14315121  0.28917172  1
  O  O26  1  0.08234132  0.94989814  0.08027041  1
  O  O27  1  0.53924465  0.27888822  0.45114825  1
  O  O28  1  0.48195570  0.34761653  0.15619381  1
  O  O29  1  0.85528422  0.85684879  0.71082828  1
  O  O30  1  0.19527455  0.06882196  0.57715105  1
  O  O31  1  0.18154765  0.43834733  0.97833099  1
  O  O32  1  0.10691142  0.50966572  0.68235213  1
  O  O33  1  0.76370009  0.30982860  0.81737195  1
  O  O34  1  0.51804430  0.65238347  0.84380619  1
  O  O35  1  0.39258439  0.93200876  0.74287377  1
  O  O36  1  0.56369811  0.84748386  0.04891778  1
  O  O37  1  0.46075535  0.72111178  0.54885175  1
  O  O38  1  0.41231955  0.55899648  0.34532521  1
  O  O39  1  0.91516328  0.25938752  0.10595734  1
  O  O40  1  0.91765868  0.05010186  0.91972959  1
  O  O41  1  0.89308858  0.49033428  0.31764787  1
  O  O42  1  0.24082596  0.23223966  0.78107963  1
  O  O43  1  0.60741561  0.06799124  0.25712623  1
  O  O44  1  0.43630189  0.15251614  0.95108222  1
  O  O45  1  0.80472545  0.93117804  0.42284895  1
