# generated using pymatgen
data_Pr2Mo4O15
_symmetry_space_group_name_H-M   'P 1'
_cell_length_a   7.52474083
_cell_length_b   7.67424413
_cell_length_c   12.00665385
_cell_angle_alpha   88.69952793
_cell_angle_beta   83.89974285
_cell_angle_gamma   84.42924959
_symmetry_Int_Tables_number   1
_chemical_formula_structural   Pr2Mo4O15
_chemical_formula_sum   'Pr4 Mo8 O30'
_cell_volume   686.10877794
_cell_formula_units_Z   2
loop_
 _symmetry_equiv_pos_site_id
 _symmetry_equiv_pos_as_xyz
  1  'x, y, z'
loop_
 _atom_site_type_symbol
 _atom_site_label
 _atom_site_symmetry_multiplicity
 _atom_site_fract_x
 _atom_site_fract_y
 _atom_site_fract_z
 _atom_site_occupancy
  Pr  Pr0  1  0.24345950  0.41019309  0.22236804  1
  Pr  Pr1  1  0.75654050  0.58980691  0.77763196  1
  Pr  Pr2  1  0.31985037  0.91042286  0.77710021  1
  Pr  Pr3  1  0.68014963  0.08957714  0.22289979  1
  Mo  Mo4  1  0.56336749  0.74986576  0.47448536  1
  Mo  Mo5  1  0.09589665  0.66796326  0.53222420  1
  Mo  Mo6  1  0.77228426  0.07501263  0.87094430  1
  Mo  Mo7  1  0.90410335  0.33203674  0.46777580  1
  Mo  Mo8  1  0.22771574  0.92498737  0.12905570  1
  Mo  Mo9  1  0.72626161  0.57185469  0.12783654  1
  Mo  Mo10  1  0.43663251  0.25013424  0.52551464  1
  Mo  Mo11  1  0.27373839  0.42814531  0.87216346  1
  O  O12  1  0.72298932  0.59654499  0.98047053  1
  O  O13  1  0.37780534  0.05188038  0.59498140  1
  O  O14  1  0.99627462  0.00188247  0.15308119  1
  O  O15  1  0.03448076  0.17137649  0.53106253  1
  O  O16  1  0.33234057  0.71286984  0.44724208  1
  O  O17  1  0.94661839  0.49184809  0.15729482  1
  O  O18  1  0.00372538  0.99811753  0.84691881  1
  O  O19  1  0.70771621  0.09952598  0.01698019  1
  O  O20  1  0.35341511  0.09163607  0.18494228  1
  O  O21  1  0.64658489  0.90836393  0.81505772  1
  O  O22  1  0.41618686  0.26064005  0.37758257  1
  O  O23  1  0.13284440  0.76534536  0.66102151  1
  O  O24  1  0.73462635  0.28518481  0.80470342  1
  O  O25  1  0.29700019  0.42802804  0.58723322  1
  O  O26  1  0.66765943  0.28713016  0.55275792  1
  O  O27  1  0.62219466  0.94811962  0.40501860  1
  O  O28  1  0.05338161  0.50815191  0.84270518  1
  O  O29  1  0.26537365  0.71481519  0.19529658  1
  O  O30  1  0.57325953  0.40729749  0.17973430  1
  O  O31  1  0.27701068  0.40345501  0.01952947  1
  O  O32  1  0.66257997  0.78327786  0.18666896  1
  O  O33  1  0.29228379  0.90047402  0.98301981  1
  O  O34  1  0.70299981  0.57197196  0.41276678  1
  O  O35  1  0.86715560  0.23465464  0.33897849  1
  O  O36  1  0.33742003  0.21672214  0.81333104  1
  O  O37  1  0.91714063  0.52081275  0.59662515  1
  O  O38  1  0.58381314  0.73935995  0.62241743  1
  O  O39  1  0.42674047  0.59270251  0.82026570  1
  O  O40  1  0.08285937  0.47918725  0.40337485  1
  O  O41  1  0.96551924  0.82862351  0.46893747  1
