# generated using pymatgen
data_Na3FeS3
_symmetry_space_group_name_H-M   'P 1'
_cell_length_a   6.91620207
_cell_length_b   7.18380583
_cell_length_c   12.52785332
_cell_angle_alpha   91.37833304
_cell_angle_beta   90.00000000
_cell_angle_gamma   90.00000000
_symmetry_Int_Tables_number   1
_chemical_formula_structural   Na3FeS3
_chemical_formula_sum   'Na12 Fe4 S12'
_cell_volume   622.26194311
_cell_formula_units_Z   4
loop_
 _symmetry_equiv_pos_site_id
 _symmetry_equiv_pos_as_xyz
  1  'x, y, z'
loop_
 _atom_site_type_symbol
 _atom_site_label
 _atom_site_symmetry_multiplicity
 _atom_site_fract_x
 _atom_site_fract_y
 _atom_site_fract_z
 _atom_site_occupancy
  Na  Na0  1  0.48638076  0.34319254  0.38479014  1
  Na  Na1  1  0.01361924  0.84319254  0.88479014  1
  Na  Na2  1  0.51361924  0.65680746  0.61520986  1
  Na  Na3  1  0.51500349  0.72903450  0.21673406  1
  Na  Na4  1  0.98731352  0.28968810  0.40361555  1
  Na  Na5  1  0.98638076  0.15680746  0.11520986  1
  Na  Na6  1  0.01500349  0.77096550  0.28326594  1
  Na  Na7  1  0.48731352  0.21031190  0.09638445  1
  Na  Na8  1  0.98499651  0.22903450  0.71673406  1
  Na  Na9  1  0.51268648  0.78968810  0.90361555  1
  Na  Na10  1  0.48499651  0.27096550  0.78326594  1
  Na  Na11  1  0.01268648  0.71031190  0.59638445  1
  Fe  Fe12  1  0.37432345  0.07495403  0.57368909  1
  Fe  Fe13  1  0.62567655  0.92504597  0.42631091  1
  Fe  Fe14  1  0.87432345  0.42504597  0.92631091  1
  Fe  Fe15  1  0.12567655  0.57495403  0.07368909  1
  S  S16  1  0.24417395  0.86584889  0.07121405  1
  S  S17  1  0.77554972  0.57135928  0.77892317  1
  S  S18  1  0.20097793  0.41353397  0.92393035  1
  S  S19  1  0.27554972  0.92864072  0.72107683  1
  S  S20  1  0.29902207  0.91353397  0.42393035  1
  S  S21  1  0.79902207  0.58646603  0.07606965  1
  S  S22  1  0.75582605  0.13415111  0.92878595  1
  S  S23  1  0.22445028  0.42864072  0.22107683  1
  S  S24  1  0.70097793  0.08646603  0.57606965  1
  S  S25  1  0.72445028  0.07135928  0.27892317  1
  S  S26  1  0.74417395  0.63415111  0.42878595  1
  S  S27  1  0.25582605  0.36584889  0.57121405  1
