# generated using pymatgen
data_CsEr(PO3)4
_symmetry_space_group_name_H-M   'P 1'
_cell_length_a   8.92294883
_cell_length_b   10.37716930
_cell_length_c   11.28069277
_cell_angle_alpha   106.70525819
_cell_angle_beta   90.00000000
_cell_angle_gamma   90.00000000
_symmetry_Int_Tables_number   1
_chemical_formula_structural   CsEr(PO3)4
_chemical_formula_sum   'Cs4 Er4 P16 O48'
_cell_volume   1000.45175203
_cell_formula_units_Z   4
loop_
 _symmetry_equiv_pos_site_id
 _symmetry_equiv_pos_as_xyz
  1  'x, y, z'
loop_
 _atom_site_type_symbol
 _atom_site_label
 _atom_site_symmetry_multiplicity
 _atom_site_fract_x
 _atom_site_fract_y
 _atom_site_fract_z
 _atom_site_occupancy
  Cs  Cs0  1  0.93494902  0.17892808  0.96057097  1
  Cs  Cs1  1  0.43494902  0.32107192  0.53942903  1
  Cs  Cs2  1  0.06505098  0.82107192  0.03942903  1
  Cs  Cs3  1  0.56505098  0.67892808  0.46057097  1
  Er  Er4  1  0.27380146  0.49671535  0.18088488  1
  Er  Er5  1  0.22619854  0.99671535  0.68088488  1
  Er  Er6  1  0.77380146  0.00328465  0.31911512  1
  Er  Er7  1  0.72619854  0.50328465  0.81911512  1
  P  P8  1  0.88821394  0.32668393  0.52747620  1
  P  P9  1  0.32775902  0.54028352  0.87042132  1
  P  P10  1  0.17224098  0.04028352  0.37042132  1
  P  P11  1  0.91051656  0.64769396  0.25624120  1
  P  P12  1  0.02730867  0.25570377  0.28749853  1
  P  P13  1  0.67224098  0.45971648  0.12957868  1
  P  P14  1  0.82775902  0.95971648  0.62957868  1
  P  P15  1  0.38821394  0.17331607  0.97252380  1
  P  P16  1  0.58948344  0.14769396  0.75624120  1
  P  P17  1  0.52730867  0.24429623  0.21250147  1
  P  P18  1  0.08948344  0.35230604  0.74375880  1
  P  P19  1  0.47269133  0.75570377  0.78749853  1
  P  P20  1  0.11178606  0.67331607  0.47252380  1
  P  P21  1  0.97269133  0.74429623  0.71250147  1
  P  P22  1  0.41051656  0.85230604  0.24375880  1
  P  P23  1  0.61178606  0.82668393  0.02747620  1
  O  O24  1  0.78582853  0.43554391  0.60065766  1
  O  O25  1  0.66006016  0.31115301  0.15053674  1
  O  O26  1  0.67279181  0.68641654  0.98280627  1
  O  O27  1  0.16006016  0.18884699  0.34946326  1
  O  O28  1  0.33993984  0.68884699  0.84946326  1
  O  O29  1  0.79170602  0.52484547  0.23997523  1
  O  O30  1  0.25655073  0.55994901  0.99437509  1
  O  O31  1  0.17313444  0.23168240  0.75576858  1
  O  O32  1  0.45540744  0.09852575  0.67568066  1
  O  O33  1  0.04459256  0.59852575  0.17568066  1
  O  O34  1  0.75655073  0.94005099  0.50562491  1
  O  O35  1  0.09599653  0.33295740  0.20793139  1
  O  O36  1  0.54459256  0.90147425  0.32431934  1
  O  O37  1  0.08440202  0.85231907  0.77230803  1
  O  O38  1  0.95428307  0.67088411  0.39952569  1
  O  O39  1  0.17279181  0.81358346  0.51719373  1
  O  O40  1  0.70829398  0.02484547  0.73997523  1
  O  O41  1  0.97293867  0.03399062  0.66189075  1
  O  O42  1  0.04584672  0.63533429  0.59249046  1
  O  O43  1  0.91559798  0.14768093  0.22769197  1
  O  O44  1  0.20829398  0.47515453  0.76002477  1
  O  O45  1  0.32720819  0.31358346  0.01719373  1
  O  O46  1  0.54571693  0.17088411  0.89952569  1
  O  O47  1  0.83993984  0.81115301  0.65053674  1
  O  O48  1  0.32686556  0.73168240  0.25576858  1
  O  O49  1  0.67313444  0.26831760  0.74423142  1
  O  O50  1  0.82686556  0.76831760  0.24423142  1
  O  O51  1  0.45415328  0.13533429  0.09249046  1
  O  O52  1  0.82720819  0.18641654  0.48280627  1
  O  O53  1  0.95540744  0.40147425  0.82431934  1
  O  O54  1  0.02706133  0.96600938  0.33810925  1
  O  O55  1  0.95415328  0.36466571  0.40750954  1
  O  O56  1  0.58440202  0.64768093  0.72769197  1
  O  O57  1  0.24344927  0.05994901  0.49437509  1
  O  O58  1  0.04571693  0.32911589  0.60047431  1
  O  O59  1  0.74344927  0.44005099  0.00562491  1
  O  O60  1  0.71417147  0.93554391  0.10065766  1
  O  O61  1  0.21417147  0.56445609  0.39934234  1
  O  O62  1  0.90400347  0.66704260  0.79206861  1
  O  O63  1  0.47293867  0.46600938  0.83810925  1
  O  O64  1  0.59599653  0.16704260  0.29206861  1
  O  O65  1  0.29170602  0.97515453  0.26002477  1
  O  O66  1  0.28582853  0.06445609  0.89934234  1
  O  O67  1  0.41559798  0.35231907  0.27230803  1
  O  O68  1  0.40400347  0.83295740  0.70793139  1
  O  O69  1  0.52706133  0.53399062  0.16189075  1
  O  O70  1  0.45428307  0.82911589  0.10047431  1
  O  O71  1  0.54584672  0.86466571  0.90750954  1
