# generated using pymatgen
data_Li9Co7O16
_symmetry_space_group_name_H-M   'P 1'
_cell_length_a   2.91909658
_cell_length_b   16.47768068
_cell_length_c   5.90665248
_cell_angle_alpha   88.92180208
_cell_angle_beta   90.00000000
_cell_angle_gamma   90.00000000
_symmetry_Int_Tables_number   1
_chemical_formula_structural   Li9Co7O16
_chemical_formula_sum   'Li9 Co7 O16'
_cell_volume   284.05933453
_cell_formula_units_Z   1
loop_
 _symmetry_equiv_pos_site_id
 _symmetry_equiv_pos_as_xyz
  1  'x, y, z'
loop_
 _atom_site_type_symbol
 _atom_site_label
 _atom_site_symmetry_multiplicity
 _atom_site_fract_x
 _atom_site_fract_y
 _atom_site_fract_z
 _atom_site_occupancy
  Li  Li0  1  0.50000000  0.12188761  0.25128166  1
  Li  Li1  1  0.50000000  0.37500000  0.75000000  1
  Li  Li2  1  0.50000000  0.62811239  0.24871834  1
  Li  Li3  1  0.00000000  0.24964955  0.00084826  1
  Li  Li4  1  0.00000000  0.50035045  0.49915174  1
  Li  Li5  1  0.00000000  0.75323332  0.00563204  1
  Li  Li6  1  0.50000000  0.87500000  0.75000000  1
  Li  Li7  1  0.00000000  0.99676668  0.49436796  1
  Li  Li8  1  0.50000000  0.87500000  0.25000000  1
  Co  Co9  1  0.00000000  0.99419795  0.01027996  1
  Co  Co10  1  0.00000000  0.75580205  0.48972004  1
  Co  Co11  1  0.00000000  0.24773213  0.50107201  1
  Co  Co12  1  0.00000000  0.50226787  -0.00107201  1
  Co  Co13  1  0.50000000  0.37500000  0.25000000  1
  Co  Co14  1  0.50000000  0.62912328  0.75288221  1
  Co  Co15  1  0.50000000  0.12087672  0.74711779  1
  O  O16  1  0.50000000  -0.00026839  0.23188725  1
  O  O17  1  0.50000000  0.24407281  0.72784573  1
  O  O18  1  0.50000000  0.49813881  0.22129393  1
  O  O19  1  0.00000000  0.11849197  0.98788178  1
  O  O20  1  -0.00000000  0.37517547  0.48879325  1
  O  O21  1  0.00000000  0.62617411  0.98605558  1
  O  O22  1  0.50000000  0.74609463  0.73844364  1
  O  O23  1  -0.00000000  0.86243804  0.50254099  1
  O  O24  1  0.50000000  0.25186119  0.27870607  1
  O  O25  1  0.50000000  0.50592719  0.77215427  1
  O  O26  1  0.50000000  0.75026839  0.26811275  1
  O  O27  1  -0.00000000  0.37482453  0.01120675  1
  O  O28  1  0.00000000  0.63150803  0.51211822  1
  O  O29  1  0.00000000  0.88756196  0.99745901  1
  O  O30  1  0.50000000  0.00390537  0.76155636  1
  O  O31  1  -0.00000000  0.12382589  0.51394442  1
