# generated using pymatgen
data_Fe2PO5
_symmetry_space_group_name_H-M   'P 1'
_cell_length_a   5.43632800
_cell_length_b   5.43632837
_cell_length_c   7.36001454
_cell_angle_alpha   68.56301290
_cell_angle_beta   68.56301138
_cell_angle_gamma   90.05835604
_symmetry_Int_Tables_number   1
_chemical_formula_structural   Fe2PO5
_chemical_formula_sum   'Fe4 P2 O10'
_cell_volume   186.17321748
_cell_formula_units_Z   2
loop_
 _symmetry_equiv_pos_site_id
 _symmetry_equiv_pos_as_xyz
  1  'x, y, z'
loop_
 _atom_site_type_symbol
 _atom_site_label
 _atom_site_symmetry_multiplicity
 _atom_site_fract_x
 _atom_site_fract_y
 _atom_site_fract_z
 _atom_site_occupancy
  Fe  Fe0  1  0.00000000  0.00000000  0.50000000  1
  Fe  Fe1  1  0.50000000  0.50000000  0.00000000  1
  Fe  Fe2  1  0.00000000  0.50000000  0.00000000  1
  Fe  Fe3  1  0.00000000  0.50000000  0.50000000  1
  P  P4  1  0.37228879  0.12771121  0.75000000  1
  P  P5  1  0.62771121  0.87228879  0.25000000  1
  O  O6  1  0.32101731  0.80371781  0.37550550  1
  O  O7  1  0.69628219  0.17898269  0.12449450  1
  O  O8  1  0.30371781  0.82101731  0.87550550  1
  O  O9  1  0.89002692  0.60997308  0.75000000  1
  O  O10  1  0.78602398  0.79354446  0.39485556  1
  O  O11  1  0.29354446  0.28602398  0.89485556  1
  O  O12  1  0.21397602  0.20645554  0.60514444  1
  O  O13  1  0.70645554  0.71397602  0.10514444  1
  O  O14  1  0.67898269  0.19628219  0.62449450  1
  O  O15  1  0.10997308  0.39002692  0.25000000  1
