# generated using pymatgen
data_P2W5O19
_symmetry_space_group_name_H-M   'P 1'
_cell_length_a   5.39530311
_cell_length_b   6.70999814
_cell_length_c   20.91602766
_cell_angle_alpha   90.00000000
_cell_angle_beta   90.33905419
_cell_angle_gamma   90.00000000
_symmetry_Int_Tables_number   1
_chemical_formula_structural   P2W5O19
_chemical_formula_sum   'P4 W10 O38'
_cell_volume   757.19868548
_cell_formula_units_Z   2
loop_
 _symmetry_equiv_pos_site_id
 _symmetry_equiv_pos_as_xyz
  1  'x, y, z'
loop_
 _atom_site_type_symbol
 _atom_site_label
 _atom_site_symmetry_multiplicity
 _atom_site_fract_x
 _atom_site_fract_y
 _atom_site_fract_z
 _atom_site_occupancy
  P  P0  1  0.98819294  0.53015718  0.30351673  1
  P  P1  1  0.48819294  0.96984282  0.80351673  1
  P  P2  1  0.51180706  0.03015718  0.19648327  1
  P  P3  1  0.01180706  0.46984282  0.69648327  1
  W  W4  1  0.00294796  0.83013614  0.57403769  1
  W  W5  1  0.49705204  0.33013614  0.92596231  1
  W  W6  1  0.50294796  0.66986386  0.07403769  1
  W  W7  1  0.99705204  0.16986386  0.42596231  1
  W  W8  1  0.99709231  0.66486281  0.85245099  1
  W  W9  1  0.50000000  0.50000000  0.50000000  1
  W  W10  1  0.00290769  0.33513719  0.14754901  1
  W  W11  1  0.50290769  0.16486281  0.64754901  1
  W  W12  1  0.00000000  0.00000000  0.00000000  1
  W  W13  1  0.49709231  0.83513719  0.35245099  1
  O  O14  1  0.73421192  0.48800162  0.12000930  1
  O  O15  1  0.26578808  0.51199838  0.87999070  1
  O  O16  1  0.22705654  0.17999719  0.95730541  1
  O  O17  1  0.27294346  0.67999719  0.54269459  1
  O  O18  1  0.72767795  0.14996299  0.96407246  1
  O  O19  1  0.70684466  0.83034660  0.81921929  1
  O  O20  1  0.49721303  0.15850498  0.84477683  1
  O  O21  1  0.73108580  0.98359947  0.61355756  1
  O  O22  1  0.50278697  0.84149502  0.15522317  1
  O  O23  1  0.72705654  0.32000281  0.45730541  1
  O  O24  1  0.23421192  0.01199838  0.62000930  1
  O  O25  1  0.99721303  0.34149502  0.34477683  1
  O  O26  1  0.26891420  0.01640053  0.38644244  1
  O  O27  1  0.29315534  0.16965340  0.18078071  1
  O  O28  1  0.00278697  0.65850498  0.65522317  1
  O  O29  1  0.01089893  0.47049349  0.23261405  1
  O  O30  1  0.00045069  0.17593619  0.07473989  1
  O  O31  1  0.48910107  0.97049349  0.26738595  1
  O  O32  1  0.76205706  0.13861814  0.18853553  1
  O  O33  1  0.49954931  0.67593619  0.42526011  1
  O  O34  1  0.77294346  0.82000281  0.04269459  1
  O  O35  1  0.99954931  0.82406381  0.92526011  1
  O  O36  1  0.50045069  0.32406381  0.57473989  1
  O  O37  1  0.26205706  0.36138186  0.68853553  1
  O  O38  1  0.76578808  0.98800162  0.37999070  1
  O  O39  1  0.98910107  0.52950651  0.76738595  1
  O  O40  1  0.73794294  0.63861814  0.31146447  1
  O  O41  1  0.22767795  0.35003701  0.46407246  1
  O  O42  1  0.51089893  0.02950651  0.73261405  1
  O  O43  1  0.76891420  0.48359947  0.88644244  1
  O  O44  1  0.20684466  0.66965340  0.31921929  1
  O  O45  1  0.77232205  0.64996299  0.53592754  1
  O  O46  1  0.23794294  0.86138186  0.81146447  1
  O  O47  1  0.23108580  0.51640053  0.11355756  1
  O  O48  1  0.79315534  0.33034660  0.68078071  1
  O  O49  1  0.27232205  0.85003701  0.03592754  1
  O  O50  1  0.50000000  0.50000000  0.00000000  1
  O  O51  1  0.00000000  0.00000000  0.50000000  1
