# generated using pymatgen
data_CaMn3O6
_symmetry_space_group_name_H-M   'P 1'
_cell_length_a   8.72004189
_cell_length_b   9.59913181
_cell_length_c   11.42269455
_cell_angle_alpha   90.00000000
_cell_angle_beta   90.00000000
_cell_angle_gamma   107.27080070
_symmetry_Int_Tables_number   1
_chemical_formula_structural   CaMn3O6
_chemical_formula_sum   'Ca8 Mn24 O48'
_cell_volume   913.02473461
_cell_formula_units_Z   8
loop_
 _symmetry_equiv_pos_site_id
 _symmetry_equiv_pos_as_xyz
  1  'x, y, z'
loop_
 _atom_site_type_symbol
 _atom_site_label
 _atom_site_symmetry_multiplicity
 _atom_site_fract_x
 _atom_site_fract_y
 _atom_site_fract_z
 _atom_site_occupancy
  Ca  Ca0  1  0.19456454  0.74870202  0.83348400  1
  Ca  Ca1  1  0.30543546  0.75129798  0.33348400  1
  Ca  Ca2  1  0.80543546  0.25129798  0.16651600  1
  Ca  Ca3  1  0.69456454  0.24870202  0.66651600  1
  Ca  Ca4  1  0.80062387  0.74273271  0.83439736  1
  Ca  Ca5  1  0.69937613  0.75726729  0.33439736  1
  Ca  Ca6  1  0.19937613  0.25726729  0.16560264  1
  Ca  Ca7  1  0.30062387  0.24273271  0.66560264  1
  Mn  Mn8  1  0.10015588  0.55614039  0.61821444  1
  Mn  Mn9  1  0.39984412  0.94385961  0.11821444  1
  Mn  Mn10  1  0.89984412  0.44385961  0.38178556  1
  Mn  Mn11  1  0.60015588  0.05614039  0.88178556  1
  Mn  Mn12  1  0.05768556  0.92750003  0.11801899  1
  Mn  Mn13  1  0.44231444  0.57249997  0.61801899  1
  Mn  Mn14  1  0.94231444  0.07249997  0.88198101  1
  Mn  Mn15  1  0.55768556  0.42750003  0.38198101  1
  Mn  Mn16  1  0.11102543  0.58160199  0.09502925  1
  Mn  Mn17  1  0.38897457  0.91839801  0.59502925  1
  Mn  Mn18  1  0.88897457  0.41839801  0.90497075  1
  Mn  Mn19  1  0.61102543  0.08160199  0.40497075  1
  Mn  Mn20  1  0.04951916  0.90932497  0.59694392  1
  Mn  Mn21  1  0.45048084  0.59067503  0.09694392  1
  Mn  Mn22  1  0.95048084  0.09067503  0.40305608  1
  Mn  Mn23  1  0.54951916  0.40932497  0.90305608  1
  Mn  Mn24  1  0.77333781  0.56892751  0.60410367  1
  Mn  Mn25  1  0.72666219  0.93107249  0.10410367  1
  Mn  Mn26  1  0.22666219  0.43107249  0.39589633  1
  Mn  Mn27  1  0.27333781  0.06892751  0.89589633  1
  Mn  Mn28  1  0.77707289  0.58300630  0.09614862  1
  Mn  Mn29  1  0.72292711  0.91699370  0.59614862  1
  Mn  Mn30  1  0.22292711  0.41699370  0.90385138  1
  Mn  Mn31  1  0.27707289  0.08300630  0.40385138  1
  O  O32  1  0.18465546  0.78989404  0.14911216  1
  O  O33  1  0.31534454  0.71010596  0.64911216  1
  O  O34  1  0.81534454  0.21010596  0.85088784  1
  O  O35  1  0.68465546  0.28989404  0.35088784  1
  O  O36  1  0.98218968  0.69314713  0.66500152  1
  O  O37  1  0.51781032  0.80685287  0.16500152  1
  O  O38  1  0.01781032  0.30685287  0.33499848  1
  O  O39  1  0.48218968  0.19314713  0.83499848  1
  O  O40  1  0.21682741  0.88743611  0.47814587  1
  O  O41  1  0.28317259  0.61256389  0.97814587  1
  O  O42  1  0.78317259  0.11256389  0.52185413  1
  O  O43  1  0.71682741  0.38743611  0.02185413  1
  O  O44  1  0.95546099  0.61786702  0.97661797  1
  O  O45  1  0.54453901  0.88213298  0.47661797  1
  O  O46  1  0.04453901  0.38213298  0.02338203  1
  O  O47  1  0.45546099  0.11786702  0.52338203  1
  O  O48  1  0.23953777  0.96761509  0.69875722  1
  O  O49  1  0.26046223  0.53238491  0.19875722  1
  O  O50  1  0.76046223  0.03238491  0.30124278  1
  O  O51  1  0.73953777  0.46761509  0.80124278  1
  O  O52  1  0.92549636  0.52265195  0.19566151  1
  O  O53  1  0.57450364  0.97734805  0.69566151  1
  O  O54  1  0.07450364  0.47734805  0.80433849  1
  O  O55  1  0.42549636  0.02265195  0.30433849  1
  O  O56  1  0.11190054  0.57135942  0.42181270  1
  O  O57  1  0.38809946  0.92864058  0.92181270  1
  O  O58  1  0.88809946  0.42864058  0.57818730  1
  O  O59  1  0.61190054  0.07135942  0.07818730  1
  O  O60  1  0.05536819  0.92388316  0.91106601  1
  O  O61  1  0.44463181  0.57611684  0.41106601  1
  O  O62  1  0.94463181  0.07611684  0.08893399  1
  O  O63  1  0.55536819  0.42388316  0.58893399  1
  O  O64  1  0.84413969  0.79168632  0.15061571  1
  O  O65  1  0.65586031  0.70831368  0.65061571  1
  O  O66  1  0.15586031  0.20831368  0.84938429  1
  O  O67  1  0.34413969  0.29168632  0.34938429  1
  O  O68  1  0.87091442  0.87349732  0.48847957  1
  O  O69  1  0.62908558  0.62650268  0.98847957  1
  O  O70  1  0.12908558  0.12650268  0.51152043  1
  O  O71  1  0.37091442  0.37349732  0.01152043  1
  O  O72  1  0.89626871  0.96084955  0.70377047  1
  O  O73  1  0.60373129  0.53915045  0.20377047  1
  O  O74  1  0.10373129  0.03915045  0.29622953  1
  O  O75  1  0.39626871  0.46084955  0.79622953  1
  O  O76  1  0.76415105  0.56678048  0.41668725  1
  O  O77  1  0.73584895  0.93321952  0.91668725  1
  O  O78  1  0.23584895  0.43321952  0.58331275  1
  O  O79  1  0.26415105  0.06678048  0.08331275  1
