# generated using pymatgen
data_Ag9Ge2IO8
_symmetry_space_group_name_H-M   'P 1'
_cell_length_a   5.77899599
_cell_length_b   7.01106909
_cell_length_c   9.64383549
_cell_angle_alpha   111.31530337
_cell_angle_beta   104.66888046
_cell_angle_gamma   90.00000284
_symmetry_Int_Tables_number   1
_chemical_formula_structural   Ag9Ge2IO8
_chemical_formula_sum   'Ag9 Ge2 I1 O8'
_cell_volume   350.30350773
_cell_formula_units_Z   1
loop_
 _symmetry_equiv_pos_site_id
 _symmetry_equiv_pos_as_xyz
  1  'x, y, z'
loop_
 _atom_site_type_symbol
 _atom_site_label
 _atom_site_symmetry_multiplicity
 _atom_site_fract_x
 _atom_site_fract_y
 _atom_site_fract_z
 _atom_site_occupancy
  Ag  Ag0  1  0.28383670  0.82131398  0.64262796  1
  Ag  Ag1  1  0.50000000  0.71900066  0.00000000  1
  Ag  Ag2  1  0.71616330  0.17868602  0.35737204  1
  Ag  Ag3  1  0.29114573  0.40135457  0.35486125  1
  Ag  Ag4  1  0.29114573  0.95350668  0.35486125  1
  Ag  Ag5  1  0.00000000  0.50000000  0.00000000  1
  Ag  Ag6  1  0.70885427  0.04649332  0.64513875  1
  Ag  Ag7  1  0.70885427  0.59864543  0.64513875  1
  Ag  Ag8  1  0.50000000  0.28099934  1.00000000  1
  Ge  Ge9  1  0.21510019  0.34094475  0.68188950  1
  Ge  Ge10  1  0.78489981  0.65905525  0.31811050  1
  I  I11  1  0.00000000  0.00000000  0.00000000  1
  O  O12  1  0.87426164  0.76216175  0.52432350  1
  O  O13  1  0.12573836  0.23783825  0.47567650  1
  O  O14  1  0.39798333  0.58006347  0.75046384  1
  O  O15  1  0.60201667  0.82959963  0.24953616  1
  O  O16  1  0.04852104  0.62603769  0.25207538  1
  O  O17  1  0.39798333  0.17040037  0.75046384  1
  O  O18  1  0.95147896  0.37396231  0.74792462  1
  O  O19  1  0.60201667  0.41993653  0.24953616  1
