# generated using pymatgen
data_Cr2P4O13
_symmetry_space_group_name_H-M   'P 1'
_cell_length_a   8.25857099
_cell_length_b   8.95177590
_cell_length_c   13.32377664
_cell_angle_alpha   90.00000000
_cell_angle_beta   105.80020532
_cell_angle_gamma   90.00000000
_symmetry_Int_Tables_number   1
_chemical_formula_structural   Cr2P4O13
_chemical_formula_sum   'Cr8 P16 O52'
_cell_volume   947.79515685
_cell_formula_units_Z   4
loop_
 _symmetry_equiv_pos_site_id
 _symmetry_equiv_pos_as_xyz
  1  'x, y, z'
loop_
 _atom_site_type_symbol
 _atom_site_label
 _atom_site_symmetry_multiplicity
 _atom_site_fract_x
 _atom_site_fract_y
 _atom_site_fract_z
 _atom_site_occupancy
  Cr  Cr0  1  0.56123482  0.49617156  0.76053192  1
  Cr  Cr1  1  0.43876518  0.99617156  0.73946808  1
  Cr  Cr2  1  0.43876518  0.50382844  0.23946808  1
  Cr  Cr3  1  0.56123482  0.00382844  0.26053192  1
  Cr  Cr4  1  0.95882265  0.50263724  0.77746521  1
  Cr  Cr5  1  0.04117735  0.00263724  0.72253479  1
  Cr  Cr6  1  0.04117735  0.49736276  0.22253479  1
  Cr  Cr7  1  0.95882265  0.99736276  0.27746521  1
  P  P8  1  0.21466879  0.29966775  0.66068686  1
  P  P9  1  0.78533121  0.79966775  0.83931314  1
  P  P10  1  0.78533121  0.70033225  0.33931314  1
  P  P11  1  0.21466879  0.20033225  0.16068686  1
  P  P12  1  0.71329537  0.22266437  0.65809403  1
  P  P13  1  0.28670463  0.72266437  0.84190597  1
  P  P14  1  0.28670463  0.77733563  0.34190597  1
  P  P15  1  0.71329537  0.27733563  0.15809403  1
  P  P16  1  0.13561481  0.25701451  0.43083855  1
  P  P17  1  0.86438519  0.75701451  0.06916145  1
  P  P18  1  0.86438519  0.74298549  0.56916145  1
  P  P19  1  0.13561481  0.24298549  0.93083855  1
  P  P20  1  0.50194408  0.24814351  0.43289440  1
  P  P21  1  0.49805592  0.74814351  0.06710560  1
  P  P22  1  0.49805592  0.75185649  0.56710560  1
  P  P23  1  0.50194408  0.25185649  0.93289440  1
  O  O24  1  0.11317045  0.37734500  0.72288813  1
  O  O25  1  0.88682955  0.87734500  0.77711187  1
  O  O26  1  0.88682955  0.62265500  0.27711187  1
  O  O27  1  0.11317045  0.12265500  0.22288813  1
  O  O28  1  0.39851371  0.61851585  0.80402078  1
  O  O29  1  0.60148629  0.11851585  0.69597922  1
  O  O30  1  0.60148629  0.38148415  0.19597922  1
  O  O31  1  0.39851371  0.88148415  0.30402078  1
  O  O32  1  0.02033427  0.37663912  0.90618595  1
  O  O33  1  0.97966573  0.87663912  0.59381405  1
  O  O34  1  0.97966573  0.62336088  0.09381405  1
  O  O35  1  0.02033427  0.12336088  0.40618595  1
  O  O36  1  0.39134987  0.35877752  0.67860532  1
  O  O37  1  0.60865013  0.85877752  0.82139468  1
  O  O38  1  0.60865013  0.64122248  0.32139468  1
  O  O39  1  0.39134987  0.14122248  0.17860532  1
  O  O40  1  0.89482424  0.61275966  0.64231198  1
  O  O41  1  0.10517576  0.11275966  0.85768802  1
  O  O42  1  0.53059102  0.60988884  0.62847056  1
  O  O43  1  0.10517576  0.38724034  0.35768802  1
  O  O44  1  0.12531546  0.65180625  0.85127368  1
  O  O45  1  0.87468454  0.15180625  0.64872632  1
  O  O46  1  0.87468454  0.34819375  0.14872632  1
  O  O47  1  0.12531546  0.84819375  0.35127368  1
  O  O48  1  0.12020314  0.17594692  0.03917709  1
  O  O49  1  0.87979686  0.67594692  0.46082291  1
  O  O50  1  0.87979686  0.82405308  0.96082291  1
  O  O51  1  0.12020314  0.32405308  0.53917709  1
  O  O52  1  0.32724207  0.30429265  0.95553141  1
  O  O53  1  0.67275793  0.80429265  0.54446859  1
  O  O54  1  0.67275793  0.69570735  0.04446859  1
  O  O55  1  0.32724207  0.19570735  0.45553141  1
  O  O56  1  0.61823196  0.21004728  0.04499671  1
  O  O57  1  0.38176804  0.71004728  0.45500329  1
  O  O58  1  0.38176804  0.78995272  0.95500329  1
  O  O59  1  0.61823196  0.28995272  0.54499671  1
  O  O60  1  0.74798887  0.13058556  0.22499037  1
  O  O61  1  0.25201213  0.63058556  0.27500963  1
  O  O62  1  0.25201213  0.86941444  0.77500963  1
  O  O63  1  0.74798887  0.36941444  0.72499037  1
  O  O64  1  0.77733665  0.87521003  0.32348650  1
  O  O65  1  0.22266335  0.37521003  0.17651350  1
  O  O66  1  0.22266335  0.12478997  0.67651350  1
  O  O67  1  0.77733665  0.62478997  0.82348650  1
  O  O68  1  0.58184509  0.11805919  0.39292256  1
  O  O69  1  0.41815491  0.61805919  0.10707744  1
  O  O70  1  0.41815491  0.88194081  0.60707744  1
  O  O71  1  0.58184509  0.38194081  0.89292256  1
  O  O72  1  0.53059102  0.89011116  0.12847056  1
  O  O73  1  0.46940898  0.39011116  0.37152944  1
  O  O74  1  0.46940898  0.10988884  0.87152944  1
  O  O75  1  0.89482424  0.88724034  0.14231198  1
