# generated using pymatgen
data_B3H5
_symmetry_space_group_name_H-M   'P 1'
_cell_length_a   7.12604602
_cell_length_b   11.46632953
_cell_length_c   11.86778888
_cell_angle_alpha   108.41921833
_cell_angle_beta   90.00000000
_cell_angle_gamma   90.00000000
_symmetry_Int_Tables_number   1
_chemical_formula_structural   B3H5
_chemical_formula_sum   'B36 H60'
_cell_volume   920.03391138
_cell_formula_units_Z   12
loop_
 _symmetry_equiv_pos_site_id
 _symmetry_equiv_pos_as_xyz
  1  'x, y, z'
loop_
 _atom_site_type_symbol
 _atom_site_label
 _atom_site_symmetry_multiplicity
 _atom_site_fract_x
 _atom_site_fract_y
 _atom_site_fract_z
 _atom_site_occupancy
  B  B0  1  0.80152701  0.21414150  0.34137595  1
  B  B1  1  0.12910369  0.81894698  0.53101455  1
  B  B2  1  0.23234046  0.62005639  0.62993013  1
  B  B3  1  0.76765954  0.37994361  0.37006987  1
  B  B4  1  0.49161941  0.22578217  0.54528669  1
  B  B5  1  0.86559613  0.82812711  0.15245801  1
  B  B6  1  0.99161941  0.27421783  0.95471331  1
  B  B7  1  0.20879808  0.32127854  0.91849302  1
  B  B8  1  0.73234046  0.87994361  0.87006987  1
  B  B9  1  0.63440387  0.32812711  0.65245801  1
  B  B10  1  0.12791348  0.69541114  0.39929615  1
  B  B11  1  0.37208652  0.19541114  0.89929615  1
  B  B12  1  0.30152701  0.28585850  0.15862405  1
  B  B13  1  0.69847299  0.71414150  0.84137595  1
  B  B14  1  0.37089631  0.31894698  0.03101455  1
  B  B15  1  0.13992646  0.36259465  0.07293218  1
  B  B16  1  0.62791348  0.80458886  0.10070385  1
  B  B17  1  0.00838059  0.72578217  0.04528669  1
  B  B18  1  0.94418297  0.31873856  0.44967674  1
  B  B19  1  0.36007354  0.86259465  0.57293218  1
  B  B20  1  0.55581703  0.81873856  0.94967674  1
  B  B21  1  0.26765954  0.12005639  0.12993013  1
  B  B22  1  0.13440387  0.17187289  0.84754199  1
  B  B23  1  0.29120192  0.82127854  0.41849302  1
  B  B24  1  0.87208652  0.30458886  0.60070385  1
  B  B25  1  0.36559613  0.67187289  0.34754199  1
  B  B26  1  0.79120192  0.67872146  0.08150698  1
  B  B27  1  0.44418297  0.18126144  0.05032326  1
  B  B28  1  0.63992646  0.13740535  0.42706782  1
  B  B29  1  0.70879808  0.17872146  0.58150698  1
  B  B30  1  0.87089631  0.18105302  0.46898545  1
  B  B31  1  0.05581703  0.68126144  0.55032326  1
  B  B32  1  0.50838059  0.77421783  0.45471331  1
  B  B33  1  0.19847299  0.78585850  0.65862405  1
  B  B34  1  0.62910369  0.68105302  0.96898545  1
  B  B35  1  0.86007354  0.63740535  0.92706782  1
  H  H36  1  0.83339727  0.41831240  0.29589225  1
  H  H37  1  0.63412017  0.65216862  0.74892319  1
  H  H38  1  0.50711372  0.60576710  0.94946707  1
  H  H39  1  0.60692368  0.16919314  0.06797540  1
  H  H40  1  0.27567760  0.89511628  0.36749395  1
  H  H41  1  0.99288628  0.10576710  0.44946707  1
  H  H42  1  0.49029353  0.17112836  0.82452671  1
  H  H43  1  0.24125162  0.59824177  0.37487028  1
  H  H44  1  0.89307632  0.66919314  0.56797540  1
  H  H45  1  0.99968670  0.15042555  0.91833381  1
  H  H46  1  0.49288628  0.39423290  0.05053293  1
  H  H47  1  0.16214056  0.69820634  0.06654087  1
  H  H48  1  0.36282277  0.07689204  0.02123380  1
  H  H49  1  0.63717723  0.92310796  0.97876620  1
  H  H50  1  0.77567760  0.60488372  0.13250605  1
  H  H51  1  0.22432240  0.39511628  0.86749395  1
  H  H52  1  0.72432240  0.10488372  0.63250605  1
  H  H53  1  0.86587983  0.15216862  0.24892319  1
  H  H54  1  0.91666782  0.53756907  0.87343965  1
  H  H55  1  0.13717723  0.57689204  0.52123380  1
  H  H56  1  0.91481199  0.87562688  0.25222072  1
  H  H57  1  0.75874838  0.40175823  0.62512972  1
  H  H58  1  0.13412017  0.84783138  0.75107681  1
  H  H59  1  0.10692368  0.33080686  0.43202460  1
  H  H60  1  0.66660273  0.91831240  0.79589225  1
  H  H61  1  0.66072153  0.27327396  0.32082346  1
  H  H62  1  0.58333218  0.03756907  0.37343965  1
  H  H63  1  0.08518801  0.12437312  0.74777928  1
  H  H64  1  0.50970647  0.82887164  0.17547329  1
  H  H65  1  0.12762303  0.06740921  0.08105356  1
  H  H66  1  0.00031330  0.84957445  0.08166619  1
  H  H67  1  0.83785944  0.30179366  0.93345913  1
  H  H68  1  0.16660273  0.58168760  0.70410775  1
  H  H69  1  0.33339727  0.08168760  0.20410775  1
  H  H70  1  0.50031330  0.65042555  0.41833381  1
  H  H71  1  0.37237697  0.56740921  0.58105356  1
  H  H72  1  0.41481199  0.62437312  0.24777928  1
  H  H73  1  0.83927847  0.77327396  0.82082346  1
  H  H74  1  -0.00045154  0.71587078  0.93036634  1
  H  H75  1  0.74125162  0.90175823  0.12512972  1
  H  H76  1  0.00970647  0.67112836  0.32452671  1
  H  H77  1  0.36587983  0.34783138  0.25107681  1
  H  H78  1  0.66214056  0.80179366  0.43345913  1
  H  H79  1  0.62762303  0.43259079  0.41894644  1
  H  H80  1  0.49954846  0.78412922  0.56963366  1
  H  H81  1  0.87237697  0.93259079  0.91894644  1
  H  H82  1  0.00711372  0.89423290  0.55053293  1
  H  H83  1  0.39307632  0.83080686  0.93202460  1
  H  H84  1  0.86282277  0.42310796  0.47876620  1
  H  H85  1  0.33927847  0.72672604  0.67917654  1
  H  H86  1  0.58518801  0.37562688  0.75222072  1
  H  H87  1  0.16072153  0.22672604  0.17917654  1
  H  H88  1  1.00045154  0.28412922  0.06963366  1
  H  H89  1  0.08333218  0.46243093  0.12656035  1
  H  H90  1  0.99029353  0.32887164  0.67547329  1
  H  H91  1  0.41666782  0.96243093  0.62656035  1
  H  H92  1  0.49968670  0.34957445  0.58166619  1
  H  H93  1  0.50045154  0.21587078  0.43036634  1
  H  H94  1  0.25874838  0.09824177  0.87487028  1
  H  H95  1  0.33785944  0.19820634  0.56654087  1
