# generated using pymatgen
data_Na3MgC2ClO6
_symmetry_space_group_name_H-M   'P 1'
_cell_length_a   10.11759283
_cell_length_b   10.11759293
_cell_length_c   10.11759210
_cell_angle_alpha   59.99999929
_cell_angle_beta   59.99999899
_cell_angle_gamma   59.99999965
_symmetry_Int_Tables_number   1
_chemical_formula_structural   Na3MgC2ClO6
_chemical_formula_sum   'Na12 Mg4 C8 Cl4 O24'
_cell_volume   732.34641755
_cell_formula_units_Z   4
loop_
 _symmetry_equiv_pos_site_id
 _symmetry_equiv_pos_as_xyz
  1  'x, y, z'
loop_
 _atom_site_type_symbol
 _atom_site_label
 _atom_site_symmetry_multiplicity
 _atom_site_fract_x
 _atom_site_fract_y
 _atom_site_fract_z
 _atom_site_occupancy
  Na  Na0  1  0.64035597  0.10964403  0.10964403  1
  Na  Na1  1  0.64035597  0.64035597  0.10964403  1
  Na  Na2  1  0.10964403  0.64035597  0.10964403  1
  Na  Na3  1  0.89035597  0.35964403  0.89035597  1
  Na  Na4  1  0.10964403  0.10964403  0.64035597  1
  Na  Na5  1  0.10964403  0.64035597  0.64035597  1
  Na  Na6  1  0.89035597  0.35964403  0.35964403  1
  Na  Na7  1  0.35964403  0.35964403  0.89035597  1
  Na  Na8  1  0.64035597  0.10964403  0.64035597  1
  Na  Na9  1  0.35964403  0.89035597  0.35964403  1
  Na  Na10  1  0.35964403  0.89035597  0.89035597  1
  Na  Na11  1  0.89035597  0.89035597  0.35964403  1
  Mg  Mg12  1  0.50000000  0.50000000  0.00000000  1
  Mg  Mg13  1  0.50000000  0.00000000  0.50000000  1
  Mg  Mg14  1  0.00000000  0.50000000  0.50000000  1
  Mg  Mg15  1  0.50000000  0.50000000  0.50000000  1
  C  C16  1  0.34708020  0.71763993  0.71763993  1
  C  C17  1  0.71763993  0.34708020  0.71763993  1
  C  C18  1  0.71763993  0.71763993  0.71763993  1
  C  C19  1  0.28236007  0.65291980  0.28236007  1
  C  C20  1  0.28236007  0.28236007  0.65291980  1
  C  C21  1  0.28236007  0.28236007  0.28236007  1
  C  C22  1  0.71763993  0.71763993  0.34708020  1
  C  C23  1  0.65291980  0.28236007  0.28236007  1
  Cl  Cl24  1  0.00000000  0.00000000  0.50000000  1
  Cl  Cl25  1  0.50000000  0.00000000  0.00000000  1
  Cl  Cl26  1  0.00000000  0.50000000  0.00000000  1
  Cl  Cl27  1  0.00000000  0.00000000  0.00000000  1
  O  O28  1  0.86608482  0.64439752  0.64439752  1
  O  O29  1  0.34512014  0.64439752  0.86608481  1
  O  O30  1  0.13391518  0.35560248  0.35560248  1
  O  O31  1  0.64439752  0.34512014  0.64439752  1
  O  O32  1  0.13391518  0.65487986  0.35560248  1
  O  O33  1  0.35560248  0.65487986  0.13391519  1
  O  O34  1  0.35560248  0.13391518  0.35560248  1
  O  O35  1  0.35560248  0.65487986  0.35560248  1
  O  O36  1  0.64439752  0.34512014  0.86608481  1
  O  O37  1  0.35560248  0.35560248  0.65487986  1
  O  O38  1  0.35560248  0.35560248  0.13391519  1
  O  O39  1  0.65487986  0.35560248  0.13391519  1
  O  O40  1  0.65487986  0.35560248  0.35560248  1
  O  O41  1  0.86608482  0.34512014  0.64439752  1
  O  O42  1  0.64439752  0.64439752  0.86608481  1
  O  O43  1  0.65487986  0.13391518  0.35560248  1
  O  O44  1  0.35560248  0.13391518  0.65487986  1
  O  O45  1  0.64439752  0.64439752  0.34512014  1
  O  O46  1  0.86608482  0.64439752  0.34512014  1
  O  O47  1  0.34512014  0.64439752  0.64439752  1
  O  O48  1  0.34512014  0.86608482  0.64439752  1
  O  O49  1  0.13391518  0.35560248  0.65487986  1
  O  O50  1  0.64439752  0.86608482  0.64439752  1
  O  O51  1  0.64439752  0.86608482  0.34512014  1
