# generated using pymatgen
data_RbV2CrO7
_symmetry_space_group_name_H-M   'P 1'
_cell_length_a   4.95567085
_cell_length_b   6.98556988
_cell_length_c   8.67038625
_cell_angle_alpha   101.24543423
_cell_angle_beta   90.00000000
_cell_angle_gamma   90.00000000
_symmetry_Int_Tables_number   1
_chemical_formula_structural   RbV2CrO7
_chemical_formula_sum   'Rb2 V4 Cr2 O14'
_cell_volume   294.39034433
_cell_formula_units_Z   2
loop_
 _symmetry_equiv_pos_site_id
 _symmetry_equiv_pos_as_xyz
  1  'x, y, z'
loop_
 _atom_site_type_symbol
 _atom_site_label
 _atom_site_symmetry_multiplicity
 _atom_site_fract_x
 _atom_site_fract_y
 _atom_site_fract_z
 _atom_site_occupancy
  Rb  Rb0  1  0.61044732  0.75000000  0.50000000  1
  Rb  Rb1  1  0.38955268  0.25000000  0.50000000  1
  V  V2  1  0.99661323  0.62496648  0.83321023  1
  V  V3  1  0.00338677  0.37503352  0.16678977  1
  V  V4  1  0.00338677  0.12496648  0.83321023  1
  V  V5  1  0.99661323  0.87503352  0.16678977  1
  Cr  Cr6  1  0.50000000  0.50000000  0.00000000  1
  Cr  Cr7  1  0.50000000  0.00000000  0.00000000  1
  O  O8  1  0.67823313  0.97840551  0.20100946  1
  O  O9  1  0.84172111  0.61139578  0.11069786  1
  O  O10  1  0.15827889  0.11139578  0.11069786  1
  O  O11  1  0.87680690  0.37977338  0.34270183  1
  O  O12  1  0.84172111  0.88860422  0.88930214  1
  O  O13  1  0.67823313  0.52159449  0.79899054  1
  O  O14  1  0.32176687  0.02159449  0.79899054  1
  O  O15  1  0.32176687  0.47840551  0.20100946  1
  O  O16  1  0.12319310  0.62022662  0.65729817  1
  O  O17  1  0.15827889  0.38860422  0.88930214  1
  O  O18  1  0.87680690  0.12022662  0.65729817  1
  O  O19  1  0.12319310  0.87977338  0.34270183  1
  O  O20  1  0.71655822  0.25000000  0.00000000  1
  O  O21  1  0.28344178  0.75000000  0.00000000  1
