# generated using pymatgen
data_ErB2Rh3
_symmetry_space_group_name_H-M   'P 1'
_cell_length_a   3.12158489
_cell_length_b   5.42583475
_cell_length_c   5.42585180
_cell_angle_alpha   119.97912595
_cell_angle_beta   89.99177914
_cell_angle_gamma   90.00837835
_symmetry_Int_Tables_number   1
_chemical_formula_structural   ErB2Rh3
_chemical_formula_sum   'Er1 B2 Rh3'
_cell_volume   79.60339261
_cell_formula_units_Z   1
loop_
 _symmetry_equiv_pos_site_id
 _symmetry_equiv_pos_as_xyz
  1  'x, y, z'
loop_
 _atom_site_type_symbol
 _atom_site_label
 _atom_site_symmetry_multiplicity
 _atom_site_fract_x
 _atom_site_fract_y
 _atom_site_fract_z
 _atom_site_occupancy
  B  B0  1  0.00001011  0.33330270  0.66670776  1
  B  B1  1  -0.00001011  0.66669730  0.33329224  1
  Rh  Rh2  1  0.50000000  0.50000000  0.50000000  1
  Rh  Rh3  1  0.50000000  0.00000000  0.50000000  1
  Rh  Rh4  1  0.50000000  0.50000000  0.00000000  1
  Er  Er5  1  0.00000000  0.00000000  0.00000000  1
