# generated using pymatgen
data_Li9Mn2Co5O16
_symmetry_space_group_name_H-M   'P 1'
_cell_length_a   3.01932906
_cell_length_b   8.04844183
_cell_length_c   12.11534204
_cell_angle_alpha   91.00238297
_cell_angle_beta   99.27404990
_cell_angle_gamma   88.98281254
_symmetry_Int_Tables_number   1
_chemical_formula_structural   Li9Mn2Co5O16
_chemical_formula_sum   'Li9 Mn2 Co5 O16'
_cell_volume   290.48757536
_cell_formula_units_Z   1
loop_
 _symmetry_equiv_pos_site_id
 _symmetry_equiv_pos_as_xyz
  1  'x, y, z'
loop_
 _atom_site_type_symbol
 _atom_site_label
 _atom_site_symmetry_multiplicity
 _atom_site_fract_x
 _atom_site_fract_y
 _atom_site_fract_z
 _atom_site_occupancy
  Li  Li0  1  0.74625575  0.00426905  0.74622522  1
  Li  Li1  1  0.88082596  0.24614573  0.37676657  1
  Li  Li2  1  0.99748829  0.49973783  0.99908506  1
  Li  Li3  1  0.12500000  0.75000000  0.62500000  1
  Li  Li4  1  0.25251171  0.00026217  0.25091494  1
  Li  Li5  1  0.36917404  0.25385427  0.87323343  1
  Li  Li6  1  0.50374425  0.49573095  0.50377478  1
  Li  Li7  1  0.62500000  0.75000000  0.12500000  1
  Li  Li8  1  0.12500000  0.25000000  0.62500000  1
  Mn  Mn9  1  0.99949192  0.99889560  0.99893426  1
  Mn  Mn10  1  0.25050808  0.50110440  0.25106574  1
  Co  Co11  1  0.37176524  0.74635384  0.87310366  1
  Co  Co12  1  0.50739809  0.00961720  0.50529752  1
  Co  Co13  1  0.62500000  0.25000000  0.12500000  1
  Co  Co14  1  0.74260191  0.49038280  0.74470248  1
  Co  Co15  1  0.87823476  0.75364616  0.37689634  1
  O  O16  1  0.35275160  0.98734319  0.87579539  1
  O  O17  1  0.49099885  0.22525024  0.49708771  1
  O  O18  1  0.60411022  0.48905583  0.12872934  1
  O  O19  1  0.73454836  0.73014152  0.75740631  1
  O  O20  1  0.86076316  0.98734666  0.38308452  1
  O  O21  1  0.98266264  0.24222485  0.00666624  1
  O  O22  1  0.11206240  0.50113696  0.63429052  1
  O  O23  1  0.23133598  0.74288800  0.25677900  1
  O  O24  1  0.13793860  0.99886304  0.61571048  1
  O  O25  1  0.26733836  0.25777515  0.24333476  1
  O  O26  1  0.38923784  0.51265334  0.86691548  1
  O  O27  1  0.51545264  0.76985848  0.49259469  1
  O  O28  1  0.64588978  0.01094417  0.12127066  1
  O  O29  1  0.75900215  0.27474976  0.75291329  1
  O  O30  1  0.89724940  0.51265681  0.37420461  1
  O  O31  1  0.01866502  0.75711200  0.99322100  1
