# generated using pymatgen
data_La5C2I9
_symmetry_space_group_name_H-M   'P 1'
_cell_length_a   8.15459133
_cell_length_b   10.27477164
_cell_length_c   14.62886722
_cell_angle_alpha   79.45143599
_cell_angle_beta   80.79367722
_cell_angle_gamma   85.29255612
_symmetry_Int_Tables_number   1
_chemical_formula_structural   La5C2I9
_chemical_formula_sum   'La10 C4 I18'
_cell_volume   1187.70586963
_cell_formula_units_Z   2
loop_
 _symmetry_equiv_pos_site_id
 _symmetry_equiv_pos_as_xyz
  1  'x, y, z'
loop_
 _atom_site_type_symbol
 _atom_site_label
 _atom_site_symmetry_multiplicity
 _atom_site_fract_x
 _atom_site_fract_y
 _atom_site_fract_z
 _atom_site_occupancy
  La  La0  1  0.77821649  0.36338359  0.26322521  1
  La  La1  1  0.15897585  0.53079816  0.30131626  1
  La  La2  1  0.23558479  0.33938335  0.08129244  1
  La  La3  1  0.95059317  0.03604141  0.17545936  1
  La  La4  1  0.82387641  0.85351363  0.63997561  1
  La  La5  1  0.22178351  0.63661641  0.73677479  1
  La  La6  1  0.76441521  0.66061665  0.91870756  1
  La  La7  1  0.17612359  0.14648637  0.36002439  1
  La  La8  1  0.84102415  0.46920184  0.69868374  1
  La  La9  1  0.04940683  0.96395859  0.82454064  1
  C  C10  1  0.95920623  0.77560897  0.78282781  1
  C  C11  1  0.09262835  0.34546522  0.24203065  1
  C  C12  1  0.90737165  0.65453478  0.75796935  1
  C  C13  1  0.04079377  0.22439103  0.21717219  1
  I  I14  1  0.24942342  0.86255679  0.27344672  1
  I  I15  1  0.80211513  0.00687256  0.41163644  1
  I  I16  1  0.90789502  0.34939068  0.47250049  1
  I  I17  1  0.45923690  0.84551501  0.80074156  1
  I  I18  1  0.57660587  0.64976692  0.57714701  1
  I  I19  1  0.50658229  0.44808612  0.86458195  1
  I  I20  1  0.19788487  0.99312744  0.58836356  1
  I  I21  1  0.75216800  0.94073843  0.00111871  1
  I  I22  1  0.19362391  0.32029045  0.72556843  1
  I  I23  1  0.09210498  0.65060932  0.52749951  1
  I  I24  1  0.80637609  0.67970955  0.27443157  1
  I  I25  1  0.42339413  0.35023308  0.42285299  1
  I  I26  1  0.24783200  0.05926157  0.99888129  1
  I  I27  1  0.49341771  0.55191388  0.13541805  1
  I  I28  1  0.11704708  0.65723470  0.00172098  1
  I  I29  1  0.88295292  0.34276530  0.99827902  1
  I  I30  1  0.54076310  0.15448499  0.19925844  1
  I  I31  1  0.75057658  0.13744321  0.72655328  1
