# generated using pymatgen
data_K(WCl3)3
_symmetry_space_group_name_H-M   'P 1'
_cell_length_a   9.53789538
_cell_length_b   9.53789573
_cell_length_c   8.55695492
_cell_angle_alpha   90.00000000
_cell_angle_beta   90.00000000
_cell_angle_gamma   119.99999879
_symmetry_Int_Tables_number   1
_chemical_formula_structural   K(WCl3)3
_chemical_formula_sum   'K2 W6 Cl18'
_cell_volume   674.14762008
_cell_formula_units_Z   2
loop_
 _symmetry_equiv_pos_site_id
 _symmetry_equiv_pos_as_xyz
  1  'x, y, z'
loop_
 _atom_site_type_symbol
 _atom_site_label
 _atom_site_symmetry_multiplicity
 _atom_site_fract_x
 _atom_site_fract_y
 _atom_site_fract_z
 _atom_site_occupancy
  K  K0  1  0.33333300  0.66666700  0.50000000  1
  K  K1  1  0.66666700  0.33333300  0.50000000  1
  W  W2  1  0.82048432  0.82048432  0.87193080  1
  W  W3  1  0.17951568  0.00000000  0.87193080  1
  W  W4  1  0.82048432  0.00000000  0.12806920  1
  W  W5  1  0.17951568  0.17951568  0.12806920  1
  W  W6  1  0.00000000  0.17951568  0.87193080  1
  W  W7  1  1.00000000  0.82048432  0.12806920  1
  Cl  Cl8  1  0.39017754  0.00000000  0.69595796  1
  Cl  Cl9  1  0.60982246  0.60982246  0.69595796  1
  Cl  Cl10  1  0.41758519  0.20879260  0.00000000  1
  Cl  Cl11  1  0.79120740  0.58241481  0.00000000  1
  Cl  Cl12  1  0.20879260  0.79120740  0.00000000  1
  Cl  Cl13  1  0.58241481  0.79120740  0.00000000  1
  Cl  Cl14  1  0.79761376  0.00000000  0.68673689  1
  Cl  Cl15  1  0.20238624  0.00000000  0.31326311  1
  Cl  Cl16  1  1.00000000  0.60982246  0.30404204  1
  Cl  Cl17  1  0.60982246  0.00000000  0.30404204  1
  Cl  Cl18  1  0.00000000  0.39017754  0.69595796  1
  Cl  Cl19  1  0.39017754  0.39017754  0.30404204  1
  Cl  Cl20  1  1.00000000  0.79761376  0.68673689  1
  Cl  Cl21  1  0.20879260  0.41758519  0.00000000  1
  Cl  Cl22  1  0.79120740  0.20879260  0.00000000  1
  Cl  Cl23  1  0.20238624  0.20238624  0.68673689  1
  Cl  Cl24  1  0.00000000  0.20238624  0.31326311  1
  Cl  Cl25  1  0.79761376  0.79761376  0.31326311  1
