# generated using pymatgen
data_Y3Ni13B2
_symmetry_space_group_name_H-M   'P 1'
_cell_length_a   4.93346535
_cell_length_b   4.93260688
_cell_length_c   10.85195772
_cell_angle_alpha   89.99992603
_cell_angle_beta   90.00014807
_cell_angle_gamma   120.00576115
_symmetry_Int_Tables_number   1
_chemical_formula_structural   Y3Ni13B2
_chemical_formula_sum   'Y3 Ni13 B2'
_cell_volume   228.68732572
_cell_formula_units_Z   1
loop_
 _symmetry_equiv_pos_site_id
 _symmetry_equiv_pos_as_xyz
  1  'x, y, z'
loop_
 _atom_site_type_symbol
 _atom_site_label
 _atom_site_symmetry_multiplicity
 _atom_site_fract_x
 _atom_site_fract_y
 _atom_site_fract_z
 _atom_site_occupancy
  Y  Y0  1  0.99999831  1.00000000  0.32830231  1
  Y  Y1  1  0.00000174  0.00000000  0.67169996  1
  Y  Y2  1  0.99999915  1.00000000  0.99999603  1
  Ni  Ni3  1  0.49999902  1.00000000  0.13377946  1
  Ni  Ni4  1  0.49999889  0.50000002  0.13378445  1
  Ni  Ni5  1  0.99999887  0.49999998  0.13378445  1
  Ni  Ni6  1  0.49999981  1.00000000  0.86621089  1
  Ni  Ni7  1  0.49999951  0.50000035  0.86621570  1
  Ni  Ni8  1  0.99999915  0.49999965  0.86621570  1
  Ni  Ni9  1  0.33329978  0.66669449  0.31827308  1
  Ni  Ni10  1  0.66660529  0.33330551  0.31827308  1
  Ni  Ni11  1  0.66670036  0.33330611  0.68172957  1
  Ni  Ni12  1  0.33339424  0.66669389  0.68172957  1
  Ni  Ni13  1  0.50000017  0.00000000  0.50000230  1
  Ni  Ni14  1  0.49999998  0.50000005  0.50000185  1
  Ni  Ni15  1  -0.00000006  0.49999995  0.50000185  1
  B  B16  1  0.33330259  0.66669940  -0.00000012  1
  B  B17  1  0.66660320  0.33330060  -0.00000012  1
