# generated using pymatgen
data_Li2Mo4O13
_symmetry_space_group_name_H-M   'P 1'
_cell_length_a   8.40000628
_cell_length_b   8.73455798
_cell_length_c   11.73208216
_cell_angle_alpha   95.88310257
_cell_angle_beta   109.13960584
_cell_angle_gamma   95.83433889
_symmetry_Int_Tables_number   1
_chemical_formula_structural   Li2Mo4O13
_chemical_formula_sum   'Li6 Mo12 O39'
_cell_volume   800.49889308
_cell_formula_units_Z   3
loop_
 _symmetry_equiv_pos_site_id
 _symmetry_equiv_pos_as_xyz
  1  'x, y, z'
loop_
 _atom_site_type_symbol
 _atom_site_label
 _atom_site_symmetry_multiplicity
 _atom_site_fract_x
 _atom_site_fract_y
 _atom_site_fract_z
 _atom_site_occupancy
  Li  Li0  1  0.18613905  0.07890242  0.63471538  1
  Li  Li1  1  0.29777132  0.51655321  0.99792947  1
  Li  Li2  1  0.77748604  0.12284221  0.62739684  1
  Li  Li3  1  0.81386095  0.92109758  0.36528462  1
  Li  Li4  1  0.22251396  0.87715779  0.37260316  1
  Li  Li5  1  0.70222868  0.48344679  0.00207053  1
  Mo  Mo6  1  0.11449709  0.43756627  0.63599506  1
  Mo  Mo7  1  0.49433913  0.58098600  0.36495294  1
  Mo  Mo8  1  0.04190137  0.82388729  0.03580206  1
  Mo  Mo9  1  0.88550291  0.56243373  0.36400494  1
  Mo  Mo10  1  0.85661075  0.76946988  0.63323514  1
  Mo  Mo11  1  0.14338925  0.23053012  0.36676486  1
  Mo  Mo12  1  0.64562015  0.84182715  0.02934781  1
  Mo  Mo13  1  0.35437985  0.15817285  0.97065219  1
  Mo  Mo14  1  0.46856499  0.78982429  0.63971887  1
  Mo  Mo15  1  0.53143501  0.21017571  0.36028113  1
  Mo  Mo16  1  0.50566087  0.41901400  0.63504706  1
  Mo  Mo17  1  0.95809863  0.17611271  0.96419794  1
  O  O18  1  0.93241702  0.77573522  0.78895207  1
  O  O19  1  0.85690418  0.32747963  0.00206324  1
  O  O20  1  0.33156051  0.10775743  0.38688770  1
  O  O21  1  0.87753853  0.14366128  0.80551641  1
  O  O22  1  0.66843949  0.89224257  0.61311230  1
  O  O23  1  0.39728464  0.72923179  0.42298171  1
  O  O24  1  0.67628990  0.07886135  0.40453134  1
  O  O25  1  0.33156484  0.58695179  0.61649331  1
  O  O26  1  0.72143263  0.87362846  0.18797871  1
  O  O27  1  0.18446281  0.28977356  0.99886817  1
  O  O28  1  0.96757021  0.27168494  0.61330430  1
  O  O29  1  0.72444001  0.70196854  0.40838619  1
  O  O30  1  0.14309582  0.67252037  0.99793676  1
  O  O31  1  0.12246147  0.85633872  0.19448359  1
  O  O32  1  0.03242979  0.72831506  0.38669570  1
  O  O33  1  0.14955292  0.00492152  0.99382347  1
  O  O34  1  0.03630795  0.40847175  0.41662005  1
  O  O35  1  0.27555999  0.29803146  0.59161381  1
  O  O36  1  0.37557727  0.39847132  0.40074991  1
  O  O37  1  0.80348489  0.51624587  0.20801514  1
  O  O38  1  0.66843516  0.41304821  0.38350669  1
  O  O39  1  0.19651511  0.48375413  0.79198486  1
  O  O40  1  0.41129091  0.56822266  0.20951044  1
  O  O41  1  0.02020359  0.07815325  0.39873754  1
  O  O42  1  0.45344402  0.17688132  0.20164775  1
  O  O43  1  0.50310772  0.32682708  0.00539482  1
  O  O44  1  0.60271536  0.27076821  0.57701829  1
  O  O45  1  0.50000000  0.00000000  0.00000000  1
  O  O46  1  0.81553719  0.71022644  0.00113183  1
  O  O47  1  0.85044708  0.99507848  0.00617653  1
  O  O48  1  0.06758298  0.22426478  0.21104793  1
  O  O49  1  0.27856737  0.12637154  0.81202129  1
  O  O50  1  0.62442273  0.60152868  0.59925009  1
  O  O51  1  0.58870909  0.43177734  0.79048956  1
  O  O52  1  0.54655598  0.82311868  0.79835225  1
  O  O53  1  0.49689228  0.67317292  0.99460518  1
  O  O54  1  0.96369205  0.59152825  0.58337995  1
  O  O55  1  0.32371010  0.92113865  0.59546866  1
  O  O56  1  0.97979641  0.92184675  0.60126246  1
