# generated using pymatgen
data_Pr5B2C5
_symmetry_space_group_name_H-M   'P 1'
_cell_length_a   8.68167179
_cell_length_b   8.68167179
_cell_length_c   11.08934136
_cell_angle_alpha   90.00000000
_cell_angle_beta   90.00000000
_cell_angle_gamma   90.00000000
_symmetry_Int_Tables_number   1
_chemical_formula_structural   Pr5B2C5
_chemical_formula_sum   'Pr20 B8 C20'
_cell_volume   835.81946138
_cell_formula_units_Z   4
loop_
 _symmetry_equiv_pos_site_id
 _symmetry_equiv_pos_as_xyz
  1  'x, y, z'
loop_
 _atom_site_type_symbol
 _atom_site_label
 _atom_site_symmetry_multiplicity
 _atom_site_fract_x
 _atom_site_fract_y
 _atom_site_fract_z
 _atom_site_occupancy
  Pr  Pr0  1  0.34330655  0.96345926  0.89829423  1
  Pr  Pr1  1  0.15669345  0.53654074  0.89829423  1
  Pr  Pr2  1  0.25000000  0.25000000  0.64316424  1
  Pr  Pr3  1  0.25000000  0.25000000  0.14316424  1
  Pr  Pr4  1  0.46345926  0.84330655  0.60170577  1
  Pr  Pr5  1  0.65669345  0.46345926  0.60170577  1
  Pr  Pr6  1  0.84330655  0.46345926  0.10170577  1
  Pr  Pr7  1  0.53654074  0.15669345  0.39829423  1
  Pr  Pr8  1  0.96345926  0.15669345  0.89829423  1
  Pr  Pr9  1  0.15669345  0.96345926  0.39829423  1
  Pr  Pr10  1  0.96345926  0.34330655  0.39829423  1
  Pr  Pr11  1  0.03654074  0.65669345  0.60170577  1
  Pr  Pr12  1  0.46345926  0.65669345  0.10170577  1
  Pr  Pr13  1  0.53654074  0.34330655  0.89829423  1
  Pr  Pr14  1  0.03654074  0.84330655  0.10170577  1
  Pr  Pr15  1  0.34330655  0.53654074  0.39829423  1
  Pr  Pr16  1  0.84330655  0.03654074  0.60170577  1
  Pr  Pr17  1  0.75000000  0.75000000  0.35683576  1
  Pr  Pr18  1  0.75000000  0.75000000  0.85683576  1
  Pr  Pr19  1  0.65669345  0.03654074  0.10170577  1
  B  B20  1  0.59415236  0.40584764  0.25000000  1
  B  B21  1  0.40584764  0.90584764  0.25000000  1
  B  B22  1  0.09415236  0.59415236  0.25000000  1
  B  B23  1  0.90584764  0.09415236  0.25000000  1
  B  B24  1  0.59415236  0.09415236  0.75000000  1
  B  B25  1  0.90584764  0.40584764  0.75000000  1
  B  B26  1  0.40584764  0.59415236  0.75000000  1
  B  B27  1  0.09415236  0.90584764  0.75000000  1
  C  C28  1  0.85396042  0.05085352  0.37132146  1
  C  C29  1  0.75000000  0.75000000  0.09572439  1
  C  C30  1  0.75000000  0.75000000  0.59572439  1
  C  C31  1  0.25000000  0.25000000  0.90427561  1
  C  C32  1  0.35396042  0.94914648  0.12867854  1
  C  C33  1  0.85396042  0.44914648  0.87132146  1
  C  C34  1  0.14603958  0.55085352  0.12867854  1
  C  C35  1  0.64603958  0.44914648  0.37132146  1
  C  C36  1  0.55085352  0.35396042  0.12867854  1
  C  C37  1  0.55085352  0.14603958  0.62867854  1
  C  C38  1  0.05085352  0.85396042  0.87132146  1
  C  C39  1  0.44914648  0.64603958  0.87132146  1
  C  C40  1  0.94914648  0.14603958  0.12867854  1
  C  C41  1  0.25000000  0.25000000  0.40427561  1
  C  C42  1  0.35396042  0.55085352  0.62867854  1
  C  C43  1  0.64603958  0.05085352  0.87132146  1
  C  C44  1  0.14603958  0.94914648  0.62867854  1
  C  C45  1  0.05085352  0.64603958  0.37132146  1
  C  C46  1  0.94914648  0.35396042  0.62867854  1
  C  C47  1  0.44914648  0.85396042  0.37132146  1
