# generated using pymatgen
data_AgCl
_symmetry_space_group_name_H-M   'P 1'
_cell_length_a   3.92687939
_cell_length_b   4.00304724
_cell_length_c   5.59941886
_cell_angle_alpha   90.00000000
_cell_angle_beta   95.62824698
_cell_angle_gamma   90.00000000
_symmetry_Int_Tables_number   1
_chemical_formula_structural   AgCl
_chemical_formula_sum   'Ag2 Cl2'
_cell_volume   87.59564440
_cell_formula_units_Z   2
loop_
 _symmetry_equiv_pos_site_id
 _symmetry_equiv_pos_as_xyz
  1  'x, y, z'
loop_
 _atom_site_type_symbol
 _atom_site_label
 _atom_site_symmetry_multiplicity
 _atom_site_fract_x
 _atom_site_fract_y
 _atom_site_fract_z
 _atom_site_occupancy
  Ag  Ag0  1  0.81598067  0.75000000  0.78191874  1
  Ag  Ag1  1  0.18401933  0.25000000  0.21808126  1
  Cl  Cl2  1  0.29234227  0.25000000  0.73743627  1
  Cl  Cl3  1  0.70765773  0.75000000  0.26256373  1
