# generated using pymatgen
data_Ca3(AlN2)2
_symmetry_space_group_name_H-M   'P 1'
_cell_length_a   5.53712327
_cell_length_b   6.74038470
_cell_length_c   6.74038487
_cell_angle_alpha   75.89123754
_cell_angle_beta   88.39479615
_cell_angle_gamma   88.39479698
_symmetry_Int_Tables_number   1
_chemical_formula_structural   Ca3(AlN2)2
_chemical_formula_sum   'Ca6 Al4 N8'
_cell_volume   243.82438684
_cell_formula_units_Z   2
loop_
 _symmetry_equiv_pos_site_id
 _symmetry_equiv_pos_as_xyz
  1  'x, y, z'
loop_
 _atom_site_type_symbol
 _atom_site_label
 _atom_site_symmetry_multiplicity
 _atom_site_fract_x
 _atom_site_fract_y
 _atom_site_fract_z
 _atom_site_occupancy
  Ca  Ca0  1  0.45521759  0.25358978  0.97837553  1
  Ca  Ca1  1  0.54478241  0.74641022  0.02162447  1
  Ca  Ca2  1  0.25000000  0.60066321  0.39933679  1
  Ca  Ca3  1  0.75000000  0.39933679  0.60066321  1
  Ca  Ca4  1  0.95521759  0.97837553  0.25358978  1
  Ca  Ca5  1  0.04478241  0.02162447  0.74641022  1
  Al  Al6  1  0.08780235  0.58549967  0.82328484  1
  Al  Al7  1  0.91219765  0.41450033  0.17671516  1
  Al  Al8  1  0.41219765  0.17671516  0.41450033  1
  Al  Al9  1  0.58780235  0.82328484  0.58549967  1
  N  N10  1  0.97921172  0.30262327  0.94157281  1
  N  N11  1  0.91820382  0.73631101  0.58885649  1
  N  N12  1  0.52078828  0.05842719  0.69737673  1
  N  N13  1  0.41820382  0.58885649  0.73631101  1
  N  N14  1  0.47921172  0.94157281  0.30262327  1
  N  N15  1  0.58179618  0.41114351  0.26368899  1
  N  N16  1  0.02078828  0.69737673  0.05842719  1
  N  N17  1  0.08179618  0.26368899  0.41114351  1
