# generated using pymatgen
data_CsNb6I11
_symmetry_space_group_name_H-M   'P 1'
_cell_length_a   11.27850486
_cell_length_b   11.27850425
_cell_length_c   12.14987508
_cell_angle_alpha   90.00000000
_cell_angle_beta   90.00000000
_cell_angle_gamma   120.00000179
_symmetry_Int_Tables_number   1
_chemical_formula_structural   CsNb6I11
_chemical_formula_sum   'Cs2 Nb12 I22'
_cell_volume   1338.46024134
_cell_formula_units_Z   2
loop_
 _symmetry_equiv_pos_site_id
 _symmetry_equiv_pos_as_xyz
  1  'x, y, z'
loop_
 _atom_site_type_symbol
 _atom_site_label
 _atom_site_symmetry_multiplicity
 _atom_site_fract_x
 _atom_site_fract_y
 _atom_site_fract_z
 _atom_site_occupancy
  Cs  Cs0  1  0.00000000  -0.00000000  0.25000000  1
  Cs  Cs1  1  0.00000000  -0.00000000  0.75000000  1
  Nb  Nb2  1  0.48217092  0.67716261  0.34717898  1
  Nb  Nb3  1  0.51782908  0.19499169  0.65282102  1
  Nb  Nb4  1  0.19499169  0.51782908  0.34717898  1
  Nb  Nb5  1  0.48217092  0.80500831  0.15282102  1
  Nb  Nb6  1  0.80500831  0.48217092  0.84717898  1
  Nb  Nb7  1  0.32283739  0.80500831  0.34717898  1
  Nb  Nb8  1  0.80500831  0.32283739  0.65282102  1
  Nb  Nb9  1  0.67716261  0.19499169  0.84717898  1
  Nb  Nb10  1  0.67716261  0.48217092  0.65282102  1
  Nb  Nb11  1  0.32283739  0.51782908  0.15282102  1
  Nb  Nb12  1  0.51782908  0.32283739  0.84717898  1
  Nb  Nb13  1  0.19499169  0.67716261  0.15282102  1
  I  I14  1  0.97377910  0.62277347  0.65860490  1
  I  I15  1  0.62277347  0.97377910  0.34139510  1
  I  I16  1  0.35100563  0.37722653  0.34139510  1
  I  I17  1  0.37722653  0.35100563  0.65860490  1
  I  I18  1  0.64899437  0.62277347  0.84139510  1
  I  I19  1  0.28410210  -0.00000000  0.50000000  1
  I  I20  1  0.71589790  0.71589790  0.50000000  1
  I  I21  1  0.97377910  0.35100563  0.84139510  1
  I  I22  1  0.37722653  0.02622090  0.84139510  1
  I  I23  1  0.35100563  0.97377910  0.15860490  1
  I  I24  1  0.71589790  -0.00000000  0.00000000  1
  I  I25  1  0.33333300  0.66666700  0.95791177  1
  I  I26  1  0.33333300  0.66666700  0.54208823  1
  I  I27  1  0.66666700  0.33333300  0.04208823  1
  I  I28  1  0.02622090  0.37722653  0.15860490  1
  I  I29  1  0.28410210  0.28410210  0.00000000  1
  I  I30  1  0.64899437  0.02622090  0.65860490  1
  I  I31  1  0.02622090  0.64899437  0.34139510  1
  I  I32  1  0.62277347  0.64899437  0.15860490  1
  I  I33  1  1.00000000  0.71589790  0.00000000  1
  I  I34  1  0.00000000  0.28410210  0.50000000  1
  I  I35  1  0.66666700  0.33333300  0.45791177  1
