# generated using pymatgen
data_YbCu9Sn4
_symmetry_space_group_name_H-M   'P 1'
_cell_length_a   8.63639948
_cell_length_b   8.63639995
_cell_length_c   8.70368628
_cell_angle_alpha   119.74459310
_cell_angle_beta   119.74459488
_cell_angle_gamma   89.99999860
_symmetry_Int_Tables_number   1
_chemical_formula_structural   YbCu9Sn4
_chemical_formula_sum   'Yb2 Cu18 Sn8'
_cell_volume   462.56491584
_cell_formula_units_Z   2
loop_
 _symmetry_equiv_pos_site_id
 _symmetry_equiv_pos_as_xyz
  1  'x, y, z'
loop_
 _atom_site_type_symbol
 _atom_site_label
 _atom_site_symmetry_multiplicity
 _atom_site_fract_x
 _atom_site_fract_y
 _atom_site_fract_z
 _atom_site_occupancy
  Yb  Yb0  1  0.75000000  0.75000000  0.50000000  1
  Yb  Yb1  1  0.25000000  0.25000000  0.50000000  1
  Cu  Cu2  1  0.43403563  0.93403563  0.65171222  1
  Cu  Cu3  1  0.94526759  0.79939315  1.00000000  1
  Cu  Cu4  1  0.21767659  0.71767659  0.65171222  1
  Cu  Cu5  1  0.28232341  0.56596437  0.34828778  1
  Cu  Cu6  1  0.70060685  0.55473241  0.00000000  1
  Cu  Cu7  1  0.93403563  0.21767659  0.65171222  1
  Cu  Cu8  1  0.29939315  0.44526759  1.00000000  1
  Cu  Cu9  1  0.00000000  0.50000000  0.00000000  1
  Cu  Cu10  1  0.05473241  0.20060685  0.00000000  1
  Cu  Cu11  1  0.79939315  0.05473241  0.00000000  1
  Cu  Cu12  1  0.55473241  0.29939315  1.00000000  1
  Cu  Cu13  1  0.78232341  0.28232341  0.34828778  1
  Cu  Cu14  1  0.71767659  0.43403563  0.65171222  1
  Cu  Cu15  1  0.56596437  0.06596437  0.34828778  1
  Cu  Cu16  1  0.06596437  0.78232341  0.34828778  1
  Cu  Cu17  1  0.44526759  0.70060685  0.00000000  1
  Cu  Cu18  1  0.20060685  0.94526759  1.00000000  1
  Cu  Cu19  1  0.50000000  0.00000000  0.00000000  1
  Sn  Sn20  1  0.55924756  0.68701820  0.74626575  1
  Sn  Sn21  1  0.94075244  0.44075244  0.25373425  1
  Sn  Sn22  1  0.44075244  0.31298180  0.25373425  1
  Sn  Sn23  1  0.18701820  0.05924756  0.74626575  1
  Sn  Sn24  1  0.68701820  0.18701820  0.74626575  1
  Sn  Sn25  1  0.81298180  0.94075244  0.25373425  1
  Sn  Sn26  1  0.05924756  0.55924756  0.74626575  1
  Sn  Sn27  1  0.31298180  0.81298180  0.25373425  1
