# generated using pymatgen
data_Pr2Fe14B
_symmetry_space_group_name_H-M   'P 1'
_cell_length_a   8.78314738
_cell_length_b   8.78314738
_cell_length_c   12.17150349
_cell_angle_alpha   90.00000000
_cell_angle_beta   90.00000000
_cell_angle_gamma   90.00000000
_symmetry_Int_Tables_number   1
_chemical_formula_structural   Pr2Fe14B
_chemical_formula_sum   'Pr8 Fe56 B4'
_cell_volume   938.95454478
_cell_formula_units_Z   4
loop_
 _symmetry_equiv_pos_site_id
 _symmetry_equiv_pos_as_xyz
  1  'x, y, z'
loop_
 _atom_site_type_symbol
 _atom_site_label
 _atom_site_symmetry_multiplicity
 _atom_site_fract_x
 _atom_site_fract_y
 _atom_site_fract_z
 _atom_site_occupancy
  Pr  Pr0  1  0.23110447  0.76889553  0.50000000  1
  Pr  Pr1  1  0.85761517  0.14238483  0.00000000  1
  Pr  Pr2  1  0.64238483  0.64238483  0.50000000  1
  Pr  Pr3  1  0.14238483  0.85761517  0.00000000  1
  Pr  Pr4  1  0.35761517  0.35761517  0.50000000  1
  Pr  Pr5  1  0.73110447  0.73110447  0.00000000  1
  Pr  Pr6  1  0.26889553  0.26889553  0.00000000  1
  Pr  Pr7  1  0.76889553  0.23110447  0.50000000  1
  Fe  Fe8  1  0.18194172  0.81805828  0.74567150  1
  Fe  Fe9  1  0.13960575  0.53695677  0.67660821  1
  Fe  Fe10  1  0.40184568  0.59815432  0.29376892  1
  Fe  Fe11  1  0.46304323  0.86039425  0.67660821  1
  Fe  Fe12  1  0.96304323  0.63960575  0.17660821  1
  Fe  Fe13  1  0.50000000  0.00000000  0.00000000  1
  Fe  Fe14  1  0.50000000  0.50000000  0.88569780  1
  Fe  Fe15  1  0.68194172  0.68194172  0.24567150  1
  Fe  Fe16  1  0.53695677  0.13960575  0.67660821  1
  Fe  Fe17  1  0.77536944  0.43238559  0.87237051  1
  Fe  Fe18  1  0.36039425  0.03695677  0.17660821  1
  Fe  Fe19  1  0.90184568  0.90184568  0.20623108  1
  Fe  Fe20  1  0.00000000  0.00000000  0.61430220  1
  Fe  Fe21  1  0.96304323  0.63960575  0.82339179  1
  Fe  Fe22  1  0.81805828  0.18194172  0.25432850  1
  Fe  Fe23  1  0.00000000  0.00000000  0.38569780  1
  Fe  Fe24  1  0.50000000  0.50000000  0.11430220  1
  Fe  Fe25  1  0.13960575  0.53695677  0.32339179  1
  Fe  Fe26  1  0.31805828  0.31805828  0.24567150  1
  Fe  Fe27  1  0.06761441  0.27536944  0.37237051  1
  Fe  Fe28  1  0.53695677  0.13960575  0.32339179  1
  Fe  Fe29  1  0.03695677  0.36039425  0.82339179  1
  Fe  Fe30  1  0.09815432  0.09815432  0.79376892  1
  Fe  Fe31  1  0.72463056  0.93238559  0.62762949  1
  Fe  Fe32  1  0.43238559  0.77536944  0.12762949  1
  Fe  Fe33  1  0.93238559  0.72463056  0.62762949  1
  Fe  Fe34  1  0.93238559  0.72463056  0.37237051  1
  Fe  Fe35  1  0.68194172  0.68194172  0.75432850  1
  Fe  Fe36  1  0.46304323  0.86039425  0.32339179  1
  Fe  Fe37  1  0.63960575  0.96304323  0.17660821  1
  Fe  Fe38  1  0.09815432  0.09815432  0.20623108  1
  Fe  Fe39  1  0.03695677  0.36039425  0.17660821  1
  Fe  Fe40  1  0.22463056  0.56761441  0.87237051  1
  Fe  Fe41  1  0.56761441  0.22463056  0.12762949  1
  Fe  Fe42  1  0.81805828  0.18194172  0.74567150  1
  Fe  Fe43  1  0.86039425  0.46304323  0.32339179  1
  Fe  Fe44  1  0.06761441  0.27536944  0.62762949  1
  Fe  Fe45  1  0.86039425  0.46304323  0.67660821  1
  Fe  Fe46  1  0.31805828  0.31805828  0.75432850  1
  Fe  Fe47  1  0.36039425  0.03695677  0.82339179  1
  Fe  Fe48  1  0.27536944  0.06761441  0.37237051  1
  Fe  Fe49  1  0.90184568  0.90184568  0.79376892  1
  Fe  Fe50  1  0.63960575  0.96304323  0.82339179  1
  Fe  Fe51  1  0.22463056  0.56761441  0.12762949  1
  Fe  Fe52  1  0.27536944  0.06761441  0.62762949  1
  Fe  Fe53  1  0.77536944  0.43238559  0.12762949  1
  Fe  Fe54  1  0.59815432  0.40184568  0.29376892  1
  Fe  Fe55  1  0.00000000  0.50000000  0.00000000  1
  Fe  Fe56  1  0.72463056  0.93238559  0.37237051  1
  Fe  Fe57  1  0.18194172  0.81805828  0.25432850  1
  Fe  Fe58  1  0.40184568  0.59815432  0.70623108  1
  Fe  Fe59  1  0.56761441  0.22463056  0.87237051  1
  Fe  Fe60  1  0.50000000  0.00000000  0.50000000  1
  Fe  Fe61  1  0.59815432  0.40184568  0.70623108  1
  Fe  Fe62  1  0.00000000  0.50000000  0.50000000  1
  Fe  Fe63  1  0.43238559  0.77536944  0.87237051  1
  B  B64  1  0.87667678  0.87667678  0.50000000  1
  B  B65  1  0.12332322  0.12332322  0.50000000  1
  B  B66  1  0.62332322  0.37667678  0.00000000  1
  B  B67  1  0.37667678  0.62332322  0.00000000  1
