# generated using pymatgen
data_LiMg10AlH24
_symmetry_space_group_name_H-M   'P 1'
_cell_length_a   4.47679383
_cell_length_b   8.98010355
_cell_length_c   8.96724414
_cell_angle_alpha   90.00000000
_cell_angle_beta   90.33199130
_cell_angle_gamma   90.00000000
_symmetry_Int_Tables_number   1
_chemical_formula_structural   LiMg10AlH24
_chemical_formula_sum   'Li1 Mg10 Al1 H24'
_cell_volume   360.49574382
_cell_formula_units_Z   1
loop_
 _symmetry_equiv_pos_site_id
 _symmetry_equiv_pos_as_xyz
  1  'x, y, z'
loop_
 _atom_site_type_symbol
 _atom_site_label
 _atom_site_symmetry_multiplicity
 _atom_site_fract_x
 _atom_site_fract_y
 _atom_site_fract_z
 _atom_site_occupancy
  Li  Li0  1  0.50000000  0.49682057  0.00000000  1
  Mg  Mg1  1  0.50000000  0.50101697  0.50000000  1
  Mg  Mg2  1  0.99440408  0.66562396  0.24561422  1
  Mg  Mg3  1  0.50000000  0.83362808  0.50000000  1
  Mg  Mg4  1  0.50000000  0.17247924  0.00000000  1
  Mg  Mg5  1  0.99904284  0.33702945  0.24201009  1
  Mg  Mg6  1  0.50000000  0.16827988  0.50000000  1
  Mg  Mg7  1  0.00559592  0.66562396  0.75438578  1
  Mg  Mg8  1  0.00281648  0.00068160  0.74829227  1
  Mg  Mg9  1  0.99718352  0.00068160  0.25170773  1
  Mg  Mg10  1  0.00095716  0.33702945  0.75798991  1
  Al  Al11  1  0.50000000  0.83205614  0.00000000  1
  H  H12  1  0.30112581  0.33319474  0.59971785  1
  H  H13  1  0.30514251  0.67066646  0.59912660  1
  H  H14  1  0.19488648  0.50571303  0.85126130  1
  H  H15  1  0.69671556  0.32851617  0.90119487  1
  H  H16  1  0.69887419  0.33319474  0.40028215  1
  H  H17  1  0.80468175  0.16523520  0.65395314  1
  H  H18  1  0.81369278  0.83370593  0.65568358  1
  H  H19  1  0.18630722  0.83370593  0.34431642  1
  H  H20  1  0.30714939  0.99906568  0.59805019  1
  H  H21  1  0.77971290  0.83814286  0.14241013  1
  H  H22  1  0.30898921  0.69552140  0.09310618  1
  H  H23  1  0.22028710  0.83814286  0.85758987  1
  H  H24  1  0.19888907  0.50376655  0.34720471  1
  H  H25  1  0.80111093  0.50376655  0.65279529  1
  H  H26  1  0.80511352  0.50571303  0.14873870  1
  H  H27  1  0.80540683  0.15899033  0.14901485  1
  H  H28  1  0.69485749  0.67066646  0.40087340  1
  H  H29  1  0.69101079  0.69552140  0.90689382  1
  H  H30  1  0.68578423  0.98200620  0.90819184  1
  H  H31  1  0.30328444  0.32851617  0.09880513  1
  H  H32  1  0.19531825  0.16523520  0.34604686  1
  H  H33  1  0.69285061  0.99906568  0.40194981  1
  H  H34  1  0.19459317  0.15899033  0.85098515  1
  H  H35  1  0.31421577  0.98200620  0.09180816  1
