# generated using pymatgen
data_RbCuCl3
_symmetry_space_group_name_H-M   'P 1'
_cell_length_a   6.99746860
_cell_length_b   7.04882816
_cell_length_c   12.58885744
_cell_angle_alpha   90.63402480
_cell_angle_beta   90.00000000
_cell_angle_gamma   119.75926390
_symmetry_Int_Tables_number   1
_chemical_formula_structural   RbCuCl3
_chemical_formula_sum   'Rb4 Cu4 Cl12'
_cell_volume   538.99900103
_cell_formula_units_Z   4
loop_
 _symmetry_equiv_pos_site_id
 _symmetry_equiv_pos_as_xyz
  1  'x, y, z'
loop_
 _atom_site_type_symbol
 _atom_site_label
 _atom_site_symmetry_multiplicity
 _atom_site_fract_x
 _atom_site_fract_y
 _atom_site_fract_z
 _atom_site_occupancy
  Rb  Rb0  1  0.67789798  0.34113855  0.12508504  1
  Rb  Rb1  1  0.70921843  0.32901508  0.62371232  1
  Rb  Rb2  1  0.33675944  0.65886145  0.87491496  1
  Rb  Rb3  1  0.38020335  0.67098492  0.37628768  1
  Cu  Cu4  1  0.98163831  0.00000000  0.00000000  1
  Cu  Cu5  1  0.02940101  0.00641507  0.25033282  1
  Cu  Cu6  1  0.07651474  0.00000000  0.50000000  1
  Cu  Cu7  1  0.02298594  0.99358493  0.74966718  1
  Cl  Cl8  1  0.83676174  0.16910846  0.90001799  1
  Cl  Cl9  1  0.21890969  0.82675855  0.59945846  1
  Cl  Cl10  1  0.91084826  0.14743838  0.38965895  1
  Cl  Cl11  1  0.15418049  0.86635140  0.11337984  1
  Cl  Cl12  1  0.20115690  0.32016441  0.66219222  1
  Cl  Cl13  1  0.84335387  0.66821992  0.83755730  1
  Cl  Cl14  1  0.66765328  0.83089154  0.09998201  1
  Cl  Cl15  1  0.76340987  0.85256162  0.61034105  1
  Cl  Cl16  1  0.39215114  0.17324145  0.40054154  1
  Cl  Cl17  1  0.88099250  0.67983559  0.33780778  1
  Cl  Cl18  1  0.17513395  0.33178008  0.16244270  1
  Cl  Cl19  1  0.28782909  0.13364860  0.88662016  1
