# generated using pymatgen
data_Li9Mn2Co5O16
_symmetry_space_group_name_H-M   'P 1'
_cell_length_a   2.98178529
_cell_length_b   5.96226349
_cell_length_c   16.15044256
_cell_angle_alpha   89.08572490
_cell_angle_beta   89.09745440
_cell_angle_gamma   93.95298595
_symmetry_Int_Tables_number   1
_chemical_formula_structural   Li9Mn2Co5O16
_chemical_formula_sum   'Li9 Mn2 Co5 O16'
_cell_volume   286.36520165
_cell_formula_units_Z   1
loop_
 _symmetry_equiv_pos_site_id
 _symmetry_equiv_pos_as_xyz
  1  'x, y, z'
loop_
 _atom_site_type_symbol
 _atom_site_label
 _atom_site_symmetry_multiplicity
 _atom_site_fract_x
 _atom_site_fract_y
 _atom_site_fract_z
 _atom_site_occupancy
  Li  Li0  1  0.99851068  0.50193405  0.99995227  1
  Li  Li1  1  0.50000000  0.25000000  0.12500000  1
  Li  Li2  1  0.00148932  0.99806595  0.25004773  1
  Li  Li3  1  0.49890765  0.74768858  0.87249910  1
  Li  Li4  1  0.99837949  0.99345593  0.74790838  1
  Li  Li5  1  0.50000000  0.25000000  0.62500000  1
  Li  Li6  1  0.00162051  0.50654407  0.50209162  1
  Li  Li7  1  0.50109235  0.75231142  0.37750090  1
  Li  Li8  1  0.50000000  0.75000000  0.62500000  1
  Mn  Mn9  1  0.00809936  0.99738472  0.99873211  1
  Mn  Mn10  1  0.99190064  0.50261528  0.25126789  1
  Co  Co11  1  0.50000000  0.75000000  0.12500000  1
  Co  Co12  1  0.50184068  0.24881789  0.37714641  1
  Co  Co13  1  0.00409354  0.99039793  0.50571974  1
  Co  Co14  1  0.99590646  0.50960207  0.74428026  1
  Co  Co15  1  0.49815932  0.25118211  0.87285359  1
  O  O16  1  0.47176588  0.24546718  0.99428948  1
  O  O17  1  0.02554091  0.97038649  0.12099912  1
  O  O18  1  0.46367841  0.74361812  0.24518186  1
  O  O19  1  0.97192253  0.48606520  0.86449946  1
  O  O20  1  0.47300235  0.73116103  0.74960164  1
  O  O21  1  0.99754954  0.00445817  0.61272917  1
  O  O22  1  0.47687713  0.23634612  0.49433804  1
  O  O23  1  0.97477164  0.48512963  0.37206908  1
  O  O24  1  0.53632159  0.75638188  0.00481814  1
  O  O25  1  0.97445909  0.52961351  0.12900188  1
  O  O26  1  0.52823412  0.25453282  0.25571152  1
  O  O27  1  0.02522836  0.01487037  0.87792992  1
  O  O28  1  0.52312287  0.26365388  0.75566096  1
  O  O29  1  0.00245046  0.49554183  0.63727083  1
  O  O30  1  0.52699765  0.76883897  0.50039736  1
  O  O31  1  0.02807747  0.01393480  0.38550054  1
