# generated using pymatgen
data_SiO2
_symmetry_space_group_name_H-M   'P 1'
_cell_length_a   13.74389139
_cell_length_b   13.74389139
_cell_length_c   7.69127683
_cell_angle_alpha   90.00000000
_cell_angle_beta   90.00000000
_cell_angle_gamma   90.00000000
_symmetry_Int_Tables_number   1
_chemical_formula_structural   SiO2
_chemical_formula_sum   'Si24 O48'
_cell_volume   1452.84027988
_cell_formula_units_Z   24
loop_
 _symmetry_equiv_pos_site_id
 _symmetry_equiv_pos_as_xyz
  1  'x, y, z'
loop_
 _atom_site_type_symbol
 _atom_site_label
 _atom_site_symmetry_multiplicity
 _atom_site_fract_x
 _atom_site_fract_y
 _atom_site_fract_z
 _atom_site_occupancy
  Si  Si0  1  0.47426628  0.86469553  0.85576522  1
  Si  Si1  1  0.63530447  0.47426628  0.85576522  1
  Si  Si2  1  0.86469553  0.02573372  0.85576522  1
  Si  Si3  1  0.97426628  0.13530447  0.14423478  1
  Si  Si4  1  0.52573372  0.36469553  0.14423478  1
  Si  Si5  1  0.02573372  0.63530447  0.85576522  1
  Si  Si6  1  0.36469553  0.97426628  0.14423478  1
  Si  Si7  1  0.13530447  0.52573372  0.14423478  1
  Si  Si8  1  0.52573372  0.13530447  0.14423478  1
  Si  Si9  1  0.36469553  0.52573372  0.14423478  1
  Si  Si10  1  0.13530447  0.97426628  0.14423478  1
  Si  Si11  1  0.02573372  0.86469553  0.85576522  1
  Si  Si12  1  0.47426628  0.63530447  0.85576522  1
  Si  Si13  1  0.97426628  0.36469553  0.14423478  1
  Si  Si14  1  0.63530447  0.02573372  0.85576522  1
  Si  Si15  1  0.86469553  0.47426628  0.85576522  1
  Si  Si16  1  0.13703900  0.86296100  0.50000000  1
  Si  Si17  1  0.63703900  0.13703900  0.50000000  1
  Si  Si18  1  0.86296100  0.36296100  0.50000000  1
  Si  Si19  1  0.36296100  0.63703900  0.50000000  1
  Si  Si20  1  0.86296100  0.13703900  0.50000000  1
  Si  Si21  1  0.36296100  0.86296100  0.50000000  1
  Si  Si22  1  0.13703900  0.63703900  0.50000000  1
  Si  Si23  1  0.63703900  0.36296100  0.50000000  1
  O  O24  1  0.50090757  0.75000000  0.87058345  1
  O  O25  1  0.75000000  0.50090757  0.87058345  1
  O  O26  1  0.75000000  0.99909243  0.87058345  1
  O  O27  1  0.00090757  0.25000000  0.12941655  1
  O  O28  1  0.49909243  0.25000000  0.12941655  1
  O  O29  1  0.99909243  0.75000000  0.87058345  1
  O  O30  1  0.25000000  0.00090757  0.12941655  1
  O  O31  1  0.25000000  0.49909243  0.12941655  1
  O  O32  1  0.43308555  0.88959205  0.66222597  1
  O  O33  1  0.61040795  0.43308555  0.66222597  1
  O  O34  1  0.88959205  0.06691445  0.66222597  1
  O  O35  1  0.93308555  0.11040795  0.33777403  1
  O  O36  1  0.56691445  0.38959205  0.33777403  1
  O  O37  1  0.06691445  0.61040795  0.66222597  1
  O  O38  1  0.38959205  0.93308555  0.33777403  1
  O  O39  1  0.11040795  0.56691445  0.33777403  1
  O  O40  1  0.56691445  0.11040795  0.33777403  1
  O  O41  1  0.38959205  0.56691445  0.33777403  1
  O  O42  1  0.11040795  0.93308555  0.33777403  1
  O  O43  1  0.06691445  0.88959205  0.66222597  1
  O  O44  1  0.43308555  0.61040795  0.66222597  1
  O  O45  1  0.93308555  0.38959205  0.33777403  1
  O  O46  1  0.61040795  0.06691445  0.66222597  1
  O  O47  1  0.88959205  0.43308555  0.66222597  1
  O  O48  1  0.39175556  0.89175556  0.00000000  1
  O  O49  1  0.60824444  0.39175556  0.00000000  1
  O  O50  1  0.89175556  0.10824444  0.00000000  1
  O  O51  1  0.10824444  0.60824444  0.00000000  1
  O  O52  1  0.60824444  0.10824444  0.00000000  1
  O  O53  1  0.39175556  0.60824444  0.00000000  1
  O  O54  1  0.10824444  0.89175556  0.00000000  1
  O  O55  1  0.89175556  0.39175556  0.00000000  1
  O  O56  1  0.57214354  0.92785646  0.89180329  1
  O  O57  1  0.57214354  0.57214354  0.89180329  1
  O  O58  1  0.92785646  0.92785646  0.89180329  1
  O  O59  1  0.07214354  0.07214354  0.10819671  1
  O  O60  1  0.42785646  0.42785646  0.10819671  1
  O  O61  1  0.92785646  0.57214354  0.89180329  1
  O  O62  1  0.42785646  0.07214354  0.10819671  1
  O  O63  1  0.07214354  0.42785646  0.10819671  1
  O  O64  1  0.12056299  0.75000000  0.44240528  1
  O  O65  1  0.75000000  0.12056299  0.44240528  1
  O  O66  1  0.75000000  0.37943701  0.44240528  1
  O  O67  1  0.62056299  0.25000000  0.55759472  1
  O  O68  1  0.87943701  0.25000000  0.55759472  1
  O  O69  1  0.37943701  0.75000000  0.44240528  1
  O  O70  1  0.25000000  0.62056299  0.55759472  1
  O  O71  1  0.25000000  0.87943701  0.55759472  1
