# generated using pymatgen
data_TaNO
_symmetry_space_group_name_H-M   'P 1'
_cell_length_a   3.88716631
_cell_length_b   6.75747695
_cell_length_c   6.87294219
_cell_angle_alpha   106.75899683
_cell_angle_beta   106.42665088
_cell_angle_gamma   90.00000000
_symmetry_Int_Tables_number   1
_chemical_formula_structural   TaNO
_chemical_formula_sum   'Ta4 N4 O4'
_cell_volume   165.15582394
_cell_formula_units_Z   4
loop_
 _symmetry_equiv_pos_site_id
 _symmetry_equiv_pos_as_xyz
  1  'x, y, z'
loop_
 _atom_site_type_symbol
 _atom_site_label
 _atom_site_symmetry_multiplicity
 _atom_site_fract_x
 _atom_site_fract_y
 _atom_site_fract_z
 _atom_site_occupancy
  Ta  Ta0  1  0.68910124  0.80520751  0.37820249  1
  Ta  Ta1  1  0.31089876  0.19479249  0.62179751  1
  Ta  Ta2  1  0.39821532  0.79329642  0.79643064  1
  Ta  Ta3  1  0.60178468  0.20670358  0.20356936  1
  N  N4  1  0.55450469  0.86330046  0.10900939  1
  N  N5  1  0.44549531  0.13669954  0.89099061  1
  N  N6  1  0.24164411  0.85131336  0.48328821  1
  N  N7  1  0.75835589  0.14868664  0.51671179  1
  O  O8  1  0.63857224  0.50647333  0.27714448  1
  O  O9  1  0.36142776  0.49352667  0.72285552  1
  O  O10  1  0.86527889  0.78892182  0.73055777  1
  O  O11  1  0.13472111  0.21107818  0.26944223  1
