# generated using pymatgen
data_LiW6CCl18
_symmetry_space_group_name_H-M   'P 1'
_cell_length_a   9.22187095
_cell_length_b   9.22187111
_cell_length_c   17.47511838
_cell_angle_alpha   90.00000000
_cell_angle_beta   90.00000000
_cell_angle_gamma   119.99999947
_symmetry_Int_Tables_number   1
_chemical_formula_structural   LiW6CCl18
_chemical_formula_sum   'Li2 W12 C2 Cl36'
_cell_volume   1287.03052880
_cell_formula_units_Z   2
loop_
 _symmetry_equiv_pos_site_id
 _symmetry_equiv_pos_as_xyz
  1  'x, y, z'
loop_
 _atom_site_type_symbol
 _atom_site_label
 _atom_site_symmetry_multiplicity
 _atom_site_fract_x
 _atom_site_fract_y
 _atom_site_fract_z
 _atom_site_occupancy
  Li  Li0  1  0.00000000  0.00000000  0.00000000  1
  Li  Li1  1  0.00000000  0.00000000  0.50000000  1
  W  W2  1  0.52146899  0.70249131  0.16688856  1
  W  W3  1  0.70249131  0.18102232  0.66688856  1
  W  W4  1  0.47853101  0.29750869  0.66688856  1
  W  W5  1  0.47853101  0.29750869  0.83311144  1
  W  W6  1  0.81897768  0.52146899  0.66688856  1
  W  W7  1  0.18102232  0.47853101  0.16688856  1
  W  W8  1  0.29750869  0.81897768  0.33311144  1
  W  W9  1  0.29750869  0.81897768  0.16688856  1
  W  W10  1  0.81897768  0.52146899  0.83311144  1
  W  W11  1  0.18102232  0.47853101  0.33311144  1
  W  W12  1  0.70249131  0.18102232  0.83311144  1
  W  W13  1  0.52146899  0.70249131  0.33311144  1
  C  C14  1  0.66666700  0.33333300  0.75000000  1
  C  C15  1  0.33333300  0.66666700  0.25000000  1
  Cl  Cl16  1  0.37709336  0.47729110  0.42228258  1
  Cl  Cl17  1  0.22591852  0.24944858  0.59769175  1
  Cl  Cl18  1  0.75055142  0.97646994  0.90230825  1
  Cl  Cl19  1  0.20913504  0.28093115  0.25000000  1
  Cl  Cl20  1  0.37709336  0.47729110  0.07771742  1
  Cl  Cl21  1  0.57866374  0.52235655  0.25000000  1
  Cl  Cl22  1  0.52235655  0.94369281  0.75000000  1
  Cl  Cl23  1  0.62290664  0.52270890  0.57771742  1
  Cl  Cl24  1  0.77408148  0.75055142  0.40230825  1
  Cl  Cl25  1  0.89980226  0.37709336  0.92228258  1
  Cl  Cl26  1  0.42133626  0.47764345  0.75000000  1
  Cl  Cl27  1  0.92820389  0.20913504  0.75000000  1
  Cl  Cl28  1  0.10019774  0.62290664  0.42228258  1
  Cl  Cl29  1  0.52270890  0.89980226  0.07771742  1
  Cl  Cl30  1  0.05630719  0.57866374  0.75000000  1
  Cl  Cl31  1  0.24944858  0.02353006  0.40230825  1
  Cl  Cl32  1  0.02353006  0.77408148  0.90230825  1
  Cl  Cl33  1  0.79086496  0.71906885  0.75000000  1
  Cl  Cl34  1  0.24944858  0.02353006  0.09769175  1
  Cl  Cl35  1  0.07179611  0.79086496  0.25000000  1
  Cl  Cl36  1  0.47764345  0.05630719  0.25000000  1
  Cl  Cl37  1  0.89980226  0.37709336  0.57771742  1
  Cl  Cl38  1  0.47729110  0.10019774  0.57771742  1
  Cl  Cl39  1  0.02353006  0.77408148  0.59769175  1
  Cl  Cl40  1  0.71906885  0.92820389  0.25000000  1
  Cl  Cl41  1  0.62290664  0.52270890  0.92228258  1
  Cl  Cl42  1  0.97646994  0.22591852  0.09769175  1
  Cl  Cl43  1  0.47729110  0.10019774  0.92228258  1
  Cl  Cl44  1  0.94369281  0.42133626  0.25000000  1
  Cl  Cl45  1  0.75055142  0.97646994  0.59769175  1
  Cl  Cl46  1  0.22591852  0.24944858  0.90230825  1
  Cl  Cl47  1  0.97646994  0.22591852  0.40230825  1
  Cl  Cl48  1  0.77408148  0.75055142  0.09769175  1
  Cl  Cl49  1  0.28093115  0.07179611  0.75000000  1
  Cl  Cl50  1  0.52270890  0.89980226  0.42228258  1
  Cl  Cl51  1  0.10019774  0.62290664  0.07771742  1
