# generated using pymatgen
data_SiO2
_symmetry_space_group_name_H-M   'P 1'
_cell_length_a   13.27045406
_cell_length_b   21.72111899
_cell_length_c   5.29182837
_cell_angle_alpha   90.00000000
_cell_angle_beta   90.00000000
_cell_angle_gamma   90.00000000
_symmetry_Int_Tables_number   1
_chemical_formula_structural   SiO2
_chemical_formula_sum   'Si24 O48'
_cell_volume   1525.36482686
_cell_formula_units_Z   24
loop_
 _symmetry_equiv_pos_site_id
 _symmetry_equiv_pos_as_xyz
  1  'x, y, z'
loop_
 _atom_site_type_symbol
 _atom_site_label
 _atom_site_symmetry_multiplicity
 _atom_site_fract_x
 _atom_site_fract_y
 _atom_site_fract_z
 _atom_site_occupancy
  Si  Si0  1  0.61788739  0.04042094  0.75000000  1
  Si  Si1  1  0.61788739  0.95957906  0.25000000  1
  Si  Si2  1  0.38211261  0.04042094  0.75000000  1
  Si  Si3  1  0.38211261  0.95957906  0.25000000  1
  Si  Si4  1  0.11788739  0.54042094  0.75000000  1
  Si  Si5  1  0.11788739  0.45957906  0.25000000  1
  Si  Si6  1  0.88211261  0.54042094  0.75000000  1
  Si  Si7  1  0.88211261  0.45957906  0.25000000  1
  Si  Si8  1  0.30805354  0.17571047  0.75000000  1
  Si  Si9  1  0.30805354  0.82428953  0.25000000  1
  Si  Si10  1  0.69194646  0.17571047  0.75000000  1
  Si  Si11  1  0.69194646  0.82428953  0.25000000  1
  Si  Si12  1  0.80805354  0.67571047  0.75000000  1
  Si  Si13  1  0.80805354  0.32428953  0.25000000  1
  Si  Si14  1  0.19194646  0.67571047  0.75000000  1
  Si  Si15  1  0.19194646  0.32428953  0.25000000  1
  Si  Si16  1  0.61586033  0.24283212  0.25000000  1
  Si  Si17  1  0.61586033  0.75716788  0.75000000  1
  Si  Si18  1  0.38413967  0.24283212  0.25000000  1
  Si  Si19  1  0.38413967  0.75716788  0.75000000  1
  Si  Si20  1  0.11586033  0.74283212  0.25000000  1
  Si  Si21  1  0.11586033  0.25716788  0.75000000  1
  Si  Si22  1  0.88413967  0.74283212  0.25000000  1
  Si  Si23  1  0.88413967  0.25716788  0.75000000  1
  O  O24  1  0.68920294  0.10114966  0.75000000  1
  O  O25  1  0.68920294  0.89885034  0.25000000  1
  O  O26  1  0.31079706  0.10114966  0.75000000  1
  O  O27  1  0.31079706  0.89885034  0.25000000  1
  O  O28  1  0.18920294  0.60114966  0.75000000  1
  O  O29  1  0.18920294  0.39885034  0.25000000  1
  O  O30  1  0.81079706  0.60114966  0.75000000  1
  O  O31  1  0.81079706  0.39885034  0.25000000  1
  O  O32  1  0.64202861  0.00000000  0.50000000  1
  O  O33  1  0.35797139  0.00000000  0.00000000  1
  O  O34  1  0.35797139  0.00000000  0.50000000  1
  O  O35  1  0.64202861  0.00000000  0.00000000  1
  O  O36  1  0.14202861  0.50000000  0.50000000  1
  O  O37  1  0.85797139  0.50000000  0.00000000  1
  O  O38  1  0.85797139  0.50000000  0.50000000  1
  O  O39  1  0.14202861  0.50000000  0.00000000  1
  O  O40  1  0.50000000  0.06181159  0.75000000  1
  O  O41  1  0.50000000  0.93818841  0.25000000  1
  O  O42  1  0.00000000  0.56181159  0.75000000  1
  O  O43  1  0.00000000  0.43818841  0.25000000  1
  O  O44  1  0.36504625  0.20124296  0.00019300  1
  O  O45  1  0.36504625  0.79875704  -0.00019300  1
  O  O46  1  0.63495375  0.20124296  0.49980700  1
  O  O47  1  0.63495375  0.79875704  0.50019300  1
  O  O48  1  0.63495375  0.79875704  -0.00019300  1
  O  O49  1  0.63495375  0.20124296  0.00019300  1
  O  O50  1  0.36504625  0.79875704  0.50019300  1
  O  O51  1  0.36504625  0.20124296  0.49980700  1
  O  O52  1  0.86504625  0.70124296  0.00019300  1
  O  O53  1  0.86504625  0.29875704  -0.00019300  1
  O  O54  1  0.13495375  0.70124296  0.49980700  1
  O  O55  1  0.13495375  0.29875704  0.50019300  1
  O  O56  1  0.13495375  0.29875704  -0.00019300  1
  O  O57  1  0.13495375  0.70124296  0.00019300  1
  O  O58  1  0.86504625  0.29875704  0.50019300  1
  O  O59  1  0.86504625  0.70124296  0.49980700  1
  O  O60  1  0.19071611  0.19790121  0.75000000  1
  O  O61  1  0.19071611  0.80209879  0.25000000  1
  O  O62  1  0.80928389  0.19790121  0.75000000  1
  O  O63  1  0.80928389  0.80209879  0.25000000  1
  O  O64  1  0.69071611  0.69790121  0.75000000  1
  O  O65  1  0.69071611  0.30209879  0.25000000  1
  O  O66  1  0.30928389  0.69790121  0.75000000  1
  O  O67  1  0.30928389  0.30209879  0.25000000  1
  O  O68  1  0.50000000  0.26723908  0.25000000  1
  O  O69  1  0.50000000  0.73276092  0.75000000  1
  O  O70  1  0.00000000  0.76723908  0.25000000  1
  O  O71  1  0.00000000  0.23276092  0.75000000  1
