# generated using pymatgen
data_Li9Mn2Co5O16
_symmetry_space_group_name_H-M   'P 1'
_cell_length_a   2.98076468
_cell_length_b   7.77021290
_cell_length_c   12.56294071
_cell_angle_alpha   90.61254256
_cell_angle_beta   90.29605513
_cell_angle_gamma   81.25798133
_symmetry_Int_Tables_number   1
_chemical_formula_structural   Li9Mn2Co5O16
_chemical_formula_sum   'Li9 Mn2 Co5 O16'
_cell_volume   287.57388359
_cell_formula_units_Z   1
loop_
 _symmetry_equiv_pos_site_id
 _symmetry_equiv_pos_as_xyz
  1  'x, y, z'
loop_
 _atom_site_type_symbol
 _atom_site_label
 _atom_site_symmetry_multiplicity
 _atom_site_fract_x
 _atom_site_fract_y
 _atom_site_fract_z
 _atom_site_occupancy
  Li  Li0  1  0.81612859  0.37454201  0.06436336  1
  Li  Li1  1  0.06078505  0.87557600  0.31545927  1
  Li  Li2  1  0.31735636  0.36935482  0.55624494  1
  Li  Li3  1  0.18462301  0.62677773  0.93954311  1
  Li  Li4  1  0.43264364  0.13064518  0.19375506  1
  Li  Li5  1  0.68921495  0.62442400  0.43454073  1
  Li  Li6  1  0.56537699  0.87322227  0.81045689  1
  Li  Li7  1  0.93387141  0.12545799  0.68563664  1
  Li  Li8  1  0.87500000  0.25000000  0.37500000  1
  Mn  Mn9  1  -0.00111497  0.00288143  0.00154778  1
  Mn  Mn10  1  0.75111497  0.49711857  0.74845222  1
  Co  Co11  1  0.25565575  0.48666242  0.25515774  1
  Co  Co12  1  0.49434425  0.01333758  0.49484226  1
  Co  Co13  1  0.37500000  0.25000000  0.87500000  1
  Co  Co14  1  0.63006244  0.74698611  0.13063293  1
  Co  Co15  1  0.11993756  0.75301389  0.61936707  1
  O  O16  1  0.37417187  0.18370619  0.02288841  1
  O  O17  1  0.62807446  0.68043944  0.27310917  1
  O  O18  1  0.89042489  0.17617619  0.52873819  1
  O  O19  1  0.80869256  0.41612470  0.89803285  1
  O  O20  1  0.04667200  0.93237942  0.15020517  1
  O  O21  1  0.27244743  0.44715852  0.39245056  1
  O  O22  1  0.11931755  0.68569778  0.77313623  1
  O  O23  1  0.53934321  0.93319625  0.64397057  1
  O  O24  1  0.21065779  0.56680375  0.10602943  1
  O  O25  1  0.47755257  0.05284148  0.35754844  1
  O  O26  1  0.70332800  0.56762058  0.59979383  1
  O  O27  1  0.63068245  0.81430222  0.97686377  1
  O  O28  1  0.85957511  0.32382381  0.22126181  1
  O  O29  1  0.12192554  0.81956056  0.47689083  1
  O  O30  1  0.94130644  0.08387530  0.85196715  1
  O  O31  1  0.37582813  0.31629381  0.72711159  1
