# generated using pymatgen
data_Li2Mo4O13
_symmetry_space_group_name_H-M   'P 1'
_cell_length_a   8.39816961
_cell_length_b   8.75384037
_cell_length_c   21.91256227
_cell_angle_alpha   90.00000000
_cell_angle_beta   90.00000000
_cell_angle_gamma   95.93027857
_symmetry_Int_Tables_number   1
_chemical_formula_structural   Li2Mo4O13
_chemical_formula_sum   'Li12 Mo24 O78'
_cell_volume   1602.30798450
_cell_formula_units_Z   6
loop_
 _symmetry_equiv_pos_site_id
 _symmetry_equiv_pos_as_xyz
  1  'x, y, z'
loop_
 _atom_site_type_symbol
 _atom_site_label
 _atom_site_symmetry_multiplicity
 _atom_site_fract_x
 _atom_site_fract_y
 _atom_site_fract_z
 _atom_site_occupancy
  Li  Li0  1  0.12505882  0.06110376  0.31575091  1
  Li  Li1  1  0.45793365  0.38044382  0.13131082  1
  Li  Li2  1  0.71828601  0.09629135  0.31289600  1
  Li  Li3  1  0.87494118  0.93889624  0.81575091  1
  Li  Li4  1  0.78467911  0.72676245  0.50207922  1
  Li  Li5  1  0.21532089  0.27323755  0.00207922  1
  Li  Li6  1  0.05164659  0.42796342  0.13165199  1
  Li  Li7  1  0.94835341  0.57203658  0.63165199  1
  Li  Li8  1  0.62098042  0.22876844  0.00376648  1
  Li  Li9  1  0.28171399  0.90370865  0.81289600  1
  Li  Li10  1  0.54206635  0.61955618  0.63131082  1
  Li  Li11  1  0.37901958  0.77123156  0.50376648  1
  Mo  Mo12  1  0.93627382  0.56397112  0.99702280  1
  Mo  Mo13  1  0.05181124  0.41560480  0.30173890  1
  Mo  Mo14  1  0.39788272  0.76103442  0.33463952  1
  Mo  Mo15  1  0.89742369  0.93325817  0.99757064  1
  Mo  Mo16  1  0.45497006  0.41621352  0.50008661  1
  Mo  Mo17  1  0.13059641  0.07345146  0.13376248  1
  Mo  Mo18  1  0.38691768  0.74129606  0.13380000  1
  Mo  Mo19  1  0.06372618  0.43602888  0.49702280  1
  Mo  Mo20  1  0.28804607  0.91496282  0.99787274  1
  Mo  Mo21  1  0.10257631  0.06674183  0.49757064  1
  Mo  Mo22  1  0.20934828  0.25824394  0.83346192  1
  Mo  Mo23  1  0.60211728  0.23896558  0.83463952  1
  Mo  Mo24  1  0.61308232  0.25870394  0.63380000  1
  Mo  Mo25  1  0.44552041  0.39732745  0.29847669  1
  Mo  Mo26  1  0.22287671  0.27576273  0.63385317  1
  Mo  Mo27  1  0.26285370  0.90682949  0.63529978  1
  Mo  Mo28  1  0.55447959  0.60267255  0.79847669  1
  Mo  Mo29  1  0.71195393  0.08503718  0.49787274  1
  Mo  Mo30  1  0.54502994  0.58378648  0.00008661  1
  Mo  Mo31  1  0.73714630  0.09317051  0.13529978  1
  Mo  Mo32  1  0.94818876  0.58439520  0.80173890  1
  Mo  Mo33  1  0.86940359  0.92654854  0.63376248  1
  Mo  Mo34  1  0.79065172  0.74175606  0.33346192  1
  Mo  Mo35  1  0.77712329  0.72423727  0.13385317  1
  O  O36  1  0.57438585  0.58537952  0.32031943  1
  O  O37  1  0.76163839  0.74510749  0.01726237  1
  O  O38  1  0.85689121  0.94185633  0.71160666  1
  O  O39  1  0.28038102  0.90575449  0.31491715  1
  O  O40  1  0.09749733  0.41339485  0.60597567  1
  O  O41  1  0.27658563  0.54242871  0.51007519  1
  O  O42  1  0.06439626  0.44085278  0.41765019  1
  O  O43  1  0.43515869  0.74676846  0.81686258  1
  O  O44  1  0.77897440  0.70735753  0.21211720  1
  O  O45  1  0.72341437  0.45757129  0.01007519  1
  O  O46  1  0.39119048  0.75837146  0.41402375  1
  O  O47  1  0.10595872  0.04546524  0.01935961  1
  O  O48  1  0.42517139  0.07573216  0.00929623  1
  O  O49  1  0.08253560  0.42416673  0.81767780  1
  O  O50  1  0.44969992  0.40271484  0.21896245  1
  O  O51  1  0.07832794  0.74854410  0.81830447  1
  O  O52  1  0.72861720  0.09689102  0.21399754  1
  O  O53  1  0.22558003  0.92877190  0.52646319  1
  O  O54  1  0.77441997  0.07122810  0.02646319  1
  O  O55  1  0.60959519  0.86793544  0.31853368  1
  O  O56  1  0.75070336  0.42018802  0.62490902  1
  O  O57  1  0.24929664  0.57981198  0.12490902  1
  O  O58  1  0.61510990  0.23218492  0.11086780  1
  O  O59  1  0.73359049  0.76896727  0.61369959  1
  O  O60  1  0.71796634  0.10397815  0.41993174  1
  O  O61  1  0.38640950  0.10656716  0.62216759  1
  O  O62  1  0.89404128  0.95453476  0.51935961  1
  O  O63  1  0.93560374  0.55914722  0.91765019  1
  O  O64  1  0.88755852  0.94691251  0.91968888  1
  O  O65  1  0.06205223  0.76223371  0.00828497  1
  O  O66  1  0.11244148  0.05308749  0.41968888  1
  O  O67  1  0.93794777  0.23776629  0.50828497  1
  O  O68  1  0.42561415  0.41462048  0.82031943  1
  O  O69  1  0.57482861  0.92426784  0.50929623  1
  O  O70  1  0.54485677  0.60778700  0.92217099  1
  O  O71  1  0.60880952  0.24162854  0.91402375  1
  O  O72  1  0.23618940  0.28972704  0.31539224  1
  O  O73  1  0.23836161  0.25489251  0.51726237  1
  O  O74  1  0.71961898  0.09424551  0.81491715  1
  O  O75  1  0.73960037  0.09560130  0.60850346  1
  O  O76  1  0.20520283  0.25685606  0.91271391  1
  O  O77  1  0.22102560  0.29264247  0.71211720  1
  O  O78  1  0.58783633  0.24912717  0.52525573  1
  O  O79  1  0.38489010  0.76781508  0.61086780  1
  O  O80  1  0.26640951  0.23103273  0.11369959  1
  O  O81  1  0.76381060  0.71027296  0.81539224  1
  O  O82  1  0.73127940  0.42679188  0.81372859  1
  O  O83  1  0.08475488  0.08745094  0.61779149  1
  O  O84  1  0.28203366  0.89602185  0.91993174  1
  O  O85  1  0.39040481  0.13206456  0.81853368  1
  O  O86  1  0.05093657  0.42236945  0.22249604  1
  O  O87  1  0.43117036  0.39026113  0.61119581  1
  O  O88  1  0.91746440  0.57583327  0.31767780  1
  O  O89  1  0.45514323  0.39221300  0.42217099  1
  O  O90  1  0.27138280  0.90310898  0.71399754  1
  O  O91  1  0.59699338  0.23778546  0.71180729  1
  O  O92  1  0.56882964  0.60973887  0.11119581  1
  O  O93  1  0.55030008  0.59728516  0.71896245  1
  O  O94  1  0.41216367  0.75087283  0.02525573  1
  O  O95  1  0.07436027  0.10093271  0.81271404  1
  O  O96  1  0.26039963  0.90439870  0.10850346  1
  O  O97  1  0.04853189  0.80040783  0.62459156  1
  O  O98  1  0.92167206  0.25145590  0.31830447  1
  O  O99  1  0.40300662  0.76221454  0.21180729  1
  O  O100  1  0.91524512  0.91254906  0.11779149  1
  O  O101  1  0.56484131  0.25323154  0.31686258  1
  O  O102  1  0.61359050  0.89343284  0.12216759  1
  O  O103  1  0.94082953  0.57477709  0.52019217  1
  O  O104  1  0.94906343  0.57763055  0.72249604  1
  O  O105  1  0.59349353  0.57471047  0.51549125  1
  O  O106  1  0.26872060  0.57320812  0.31372859  1
  O  O107  1  0.14310879  0.05814367  0.21160666  1
  O  O108  1  0.95146811  0.19959217  0.12459156  1
  O  O109  1  0.05917047  0.42522291  0.02019217  1
  O  O110  1  0.92563973  0.89906729  0.31271404  1
  O  O111  1  0.40650647  0.42528953  0.01549125  1
  O  O112  1  0.79479717  0.74314394  0.41271391  1
  O  O113  1  0.90250267  0.58660515  0.10597567  1
