# generated using pymatgen
data_BaFe(Si2O5)2
_symmetry_space_group_name_H-M   'P 1'
_cell_length_a   7.70181914
_cell_length_b   7.70182688
_cell_length_c   8.05048329
_cell_angle_alpha   90.00035769
_cell_angle_beta   90.00009865
_cell_angle_gamma   90.00005773
_symmetry_Int_Tables_number   1
_chemical_formula_structural   BaFe(Si2O5)2
_chemical_formula_sum   'Ba2 Fe2 Si8 O20'
_cell_volume   477.53919313
_cell_formula_units_Z   2
loop_
 _symmetry_equiv_pos_site_id
 _symmetry_equiv_pos_as_xyz
  1  'x, y, z'
loop_
 _atom_site_type_symbol
 _atom_site_label
 _atom_site_symmetry_multiplicity
 _atom_site_fract_x
 _atom_site_fract_y
 _atom_site_fract_z
 _atom_site_occupancy
  Ba  Ba0  1  0.24999789  0.74999949  0.00000105  1
  Ba  Ba1  1  0.75000249  0.25000255  0.00000091  1
  Fe  Fe2  1  0.75000188  0.75000385  0.82524793  1
  Fe  Fe3  1  0.24999397  0.24999665  0.17474444  1
  Si  Si4  1  0.54201747  0.54201656  0.30569645  1
  Si  Si5  1  0.45798257  0.45798287  0.69430394  1
  Si  Si6  1  0.95798033  0.95798009  0.30569715  1
  Si  Si7  1  0.95798091  0.54201743  0.30569676  1
  Si  Si8  1  0.04201960  0.45798170  0.69430320  1
  Si  Si9  1  0.45798157  0.04202002  0.69430337  1
  Si  Si10  1  0.04202016  0.04202079  0.69430314  1
  Si  Si11  1  0.54201829  0.95797992  0.30569743  1
  O  O12  1  0.06580791  0.06580722  0.17103198  1
  O  O13  1  0.74999891  0.99774697  0.27166712  1
  O  O14  1  0.93419095  0.56581226  0.82896917  1
  O  O15  1  0.00225363  0.25000081  0.72833357  1
  O  O16  1  0.50225275  0.74999823  0.27166684  1
  O  O17  1  0.06580950  0.43418771  0.17103252  1
  O  O18  1  0.56581273  0.93419140  0.82896750  1
  O  O19  1  0.43419009  0.06580792  0.17103169  1
  O  O20  1  0.25000208  0.00225198  0.72833382  1
  O  O21  1  0.74999977  0.50225230  0.27166684  1
  O  O22  1  0.99774644  0.74999892  0.27166691  1
  O  O23  1  0.43418753  0.43418721  0.17103207  1
  O  O24  1  0.25000126  0.49774774  0.72833445  1
  O  O25  1  0.49999933  -0.00000056  0.49999898  1
  O  O26  1  0.49774730  0.25000129  0.72833520  1
  O  O27  1  0.56581300  0.56581321  0.82896746  1
  O  O28  1  -0.00000004  0.99999984  0.49999928  1
  O  O29  1  0.93419123  0.93419339  0.82896760  1
  O  O30  1  0.99999945  0.49999993  0.50000060  1
  O  O31  1  0.49999903  0.50000030  0.50000063  1
