# generated using pymatgen
data_Pb2Se(NO4)2
_symmetry_space_group_name_H-M   'P 1'
_cell_length_a   5.62790595
_cell_length_b   6.95379219
_cell_length_c   10.50141574
_cell_angle_alpha   89.97466444
_cell_angle_beta   89.99762780
_cell_angle_gamma   89.97247358
_symmetry_Int_Tables_number   1
_chemical_formula_structural   Pb2Se(NO4)2
_chemical_formula_sum   'Pb4 Se2 N4 O16'
_cell_volume   410.97584619
_cell_formula_units_Z   2
loop_
 _symmetry_equiv_pos_site_id
 _symmetry_equiv_pos_as_xyz
  1  'x, y, z'
loop_
 _atom_site_type_symbol
 _atom_site_label
 _atom_site_symmetry_multiplicity
 _atom_site_fract_x
 _atom_site_fract_y
 _atom_site_fract_z
 _atom_site_occupancy
  Pb  Pb0  1  0.99976627  0.76984656  0.48319969  1
  Pb  Pb1  1  0.99984317  0.50191223  0.83098854  1
  Pb  Pb2  1  0.49987407  0.00215054  0.16908317  1
  Pb  Pb3  1  0.49910464  0.27011269  0.51679613  1
  Se  Se4  1  0.49994152  0.79711376  0.68517279  1
  Se  Se5  1  0.99982602  0.29720602  0.31484157  1
  N  N6  1  0.50005019  0.36971235  0.98344560  1
  N  N7  1  0.00012441  0.86965457  0.01654641  1
  N  N8  1  0.50007004  0.59497072  0.31359926  1
  N  N9  1  0.00006982  0.09502050  0.68632925  1
  O  O10  1  0.19007050  0.17670902  0.72274834  1
  O  O11  1  0.50002837  0.47000513  0.88241672  1
  O  O12  1  0.50003643  0.91776936  0.54139943  1
  O  O13  1  0.80998246  0.17655173  0.72277769  1
  O  O14  1  0.69586522  0.31841257  0.03322523  1
  O  O15  1  0.00011777  0.96996088  0.11750088  1
  O  O16  1  0.75887415  0.14429512  0.34380098  1
  O  O17  1  0.30421898  0.31839915  0.03316291  1
  O  O18  1  0.24123034  0.14432823  0.34365738  1
  O  O19  1  0.25897923  0.64413492  0.65630558  1
  O  O20  1  0.00024761  0.41762743  0.45866215  1
  O  O21  1  0.30996522  0.67656772  0.27715045  1
  O  O22  1  0.74133068  0.64429696  0.65637047  1
  O  O23  1  0.69004691  0.67664416  0.27717952  1
  O  O24  1  0.19601588  0.81833617  0.96679732  1
  O  O25  1  0.80432011  0.81838154  0.96684255  1
