# generated using pymatgen
data_SiO2
_symmetry_space_group_name_H-M   'P 1'
_cell_length_a   9.95787591
_cell_length_b   14.16120712
_cell_length_c   28.31547505
_cell_angle_alpha   90.00000000
_cell_angle_beta   90.00000000
_cell_angle_gamma   90.00000000
_symmetry_Int_Tables_number   1
_chemical_formula_structural   SiO2
_chemical_formula_sum   'Si64 O128'
_cell_volume   3992.92209618
_cell_formula_units_Z   64
loop_
 _symmetry_equiv_pos_site_id
 _symmetry_equiv_pos_as_xyz
  1  'x, y, z'
loop_
 _atom_site_type_symbol
 _atom_site_label
 _atom_site_symmetry_multiplicity
 _atom_site_fract_x
 _atom_site_fract_y
 _atom_site_fract_z
 _atom_site_occupancy
  Si  Si0  1  0.15658191  0.13253816  0.36616229  1
  Si  Si1  1  0.15658191  0.86746184  0.63383771  1
  Si  Si2  1  0.84341809  0.13253816  0.13383771  1
  Si  Si3  1  0.84341809  0.86746184  0.86616229  1
  Si  Si4  1  0.84341809  0.86746184  0.63383771  1
  Si  Si5  1  0.84341809  0.13253816  0.36616229  1
  Si  Si6  1  0.15658191  0.86746184  0.86616229  1
  Si  Si7  1  0.15658191  0.13253816  0.13383771  1
  Si  Si8  1  0.65658191  0.63253816  0.36616229  1
  Si  Si9  1  0.65658191  0.36746184  0.63383771  1
  Si  Si10  1  0.34341809  0.63253816  0.13383771  1
  Si  Si11  1  0.34341809  0.36746184  0.86616229  1
  Si  Si12  1  0.34341809  0.36746184  0.63383771  1
  Si  Si13  1  0.34341809  0.63253816  0.36616229  1
  Si  Si14  1  0.65658191  0.36746184  0.86616229  1
  Si  Si15  1  0.65658191  0.63253816  0.13383771  1
  Si  Si16  1  0.65644344  0.00480689  0.30469798  1
  Si  Si17  1  0.65644344  0.99519311  0.69530202  1
  Si  Si18  1  0.34355656  0.00480689  0.19530202  1
  Si  Si19  1  0.34355656  0.99519311  0.80469798  1
  Si  Si20  1  0.34355656  0.99519311  0.69530202  1
  Si  Si21  1  0.34355656  0.00480689  0.30469798  1
  Si  Si22  1  0.65644344  0.99519311  0.80469798  1
  Si  Si23  1  0.65644344  0.00480689  0.19530202  1
  Si  Si24  1  0.15644344  0.50480689  0.30469798  1
  Si  Si25  1  0.15644344  0.49519311  0.69530202  1
  Si  Si26  1  0.84355656  0.50480689  0.19530202  1
  Si  Si27  1  0.84355656  0.49519311  0.80469798  1
  Si  Si28  1  0.84355656  0.49519311  0.69530202  1
  Si  Si29  1  0.84355656  0.50480689  0.30469798  1
  Si  Si30  1  0.15644344  0.49519311  0.80469798  1
  Si  Si31  1  0.15644344  0.50480689  0.19530202  1
  Si  Si32  1  0.84310044  0.97820937  0.44596840  1
  Si  Si33  1  0.84310044  0.02179063  0.55403160  1
  Si  Si34  1  0.15689956  0.97820937  0.05403160  1
  Si  Si35  1  0.15689956  0.02179063  0.94596840  1
  Si  Si36  1  0.15689956  0.02179063  0.55403160  1
  Si  Si37  1  0.15689956  0.97820937  0.44596840  1
  Si  Si38  1  0.84310044  0.02179063  0.94596840  1
  Si  Si39  1  0.84310044  0.97820937  0.05403160  1
  Si  Si40  1  0.34310044  0.47820937  0.44596840  1
  Si  Si41  1  0.34310044  0.52179063  0.55403160  1
  Si  Si42  1  0.65689956  0.47820937  0.05403160  1
  Si  Si43  1  0.65689956  0.52179063  0.94596840  1
  Si  Si44  1  0.65689956  0.52179063  0.55403160  1
  Si  Si45  1  0.65689956  0.47820937  0.44596840  1
  Si  Si46  1  0.34310044  0.52179063  0.94596840  1
  Si  Si47  1  0.34310044  0.47820937  0.05403160  1
  Si  Si48  1  0.34294119  0.85044033  0.38396763  1
  Si  Si49  1  0.34294119  0.14955967  0.61603237  1
  Si  Si50  1  0.65705881  0.85044033  0.11603237  1
  Si  Si51  1  0.65705881  0.14955967  0.88396763  1
  Si  Si52  1  0.65705881  0.14955967  0.61603237  1
  Si  Si53  1  0.65705881  0.85044033  0.38396763  1
  Si  Si54  1  0.34294119  0.14955967  0.88396763  1
  Si  Si55  1  0.34294119  0.85044033  0.11603237  1
  Si  Si56  1  0.84294119  0.35044033  0.38396763  1
  Si  Si57  1  0.84294119  0.64955967  0.61603237  1
  Si  Si58  1  0.15705881  0.35044033  0.11603237  1
  Si  Si59  1  0.15705881  0.64955967  0.88396763  1
  Si  Si60  1  0.15705881  0.64955967  0.61603237  1
  Si  Si61  1  0.15705881  0.35044033  0.38396763  1
  Si  Si62  1  0.84294119  0.64955967  0.88396763  1
  Si  Si63  1  0.84294119  0.35044033  0.11603237  1
  O  O64  1  0.17877609  0.07330886  0.41469814  1
  O  O65  1  0.17877609  0.92669114  0.58530186  1
  O  O66  1  0.82122391  0.07330886  0.08530186  1
  O  O67  1  0.82122391  0.92669114  0.91469814  1
  O  O68  1  0.82122391  0.92669114  0.58530186  1
  O  O69  1  0.82122391  0.07330886  0.41469814  1
  O  O70  1  0.17877609  0.92669114  0.91469814  1
  O  O71  1  0.17877609  0.07330886  0.08530186  1
  O  O72  1  0.67877609  0.57330886  0.41469814  1
  O  O73  1  0.67877609  0.42669114  0.58530186  1
  O  O74  1  0.32122391  0.57330886  0.08530186  1
  O  O75  1  0.32122391  0.42669114  0.91469814  1
  O  O76  1  0.32122391  0.42669114  0.58530186  1
  O  O77  1  0.32122391  0.57330886  0.41469814  1
  O  O78  1  0.67877609  0.42669114  0.91469814  1
  O  O79  1  0.67877609  0.57330886  0.08530186  1
  O  O80  1  0.19946595  0.24137914  0.37521275  1
  O  O81  1  0.19946595  0.75862086  0.62478725  1
  O  O82  1  0.80053405  0.24137914  0.12478725  1
  O  O83  1  0.80053405  0.75862086  0.87521275  1
  O  O84  1  0.80053405  0.75862086  0.62478725  1
  O  O85  1  0.80053405  0.24137914  0.37521275  1
  O  O86  1  0.19946595  0.75862086  0.87521275  1
  O  O87  1  0.19946595  0.24137914  0.12478725  1
  O  O88  1  0.69946595  0.74137914  0.37521275  1
  O  O89  1  0.69946595  0.25862086  0.62478725  1
  O  O90  1  0.30053405  0.74137914  0.12478725  1
  O  O91  1  0.30053405  0.25862086  0.87521275  1
  O  O92  1  0.30053405  0.25862086  0.62478725  1
  O  O93  1  0.30053405  0.74137914  0.37521275  1
  O  O94  1  0.69946595  0.25862086  0.87521275  1
  O  O95  1  0.69946595  0.74137914  0.12478725  1
  O  O96  1  0.00000000  0.12683902  0.34979540  1
  O  O97  1  0.00000000  0.87316098  0.65020460  1
  O  O98  1  0.00000000  0.12683902  0.15020460  1
  O  O99  1  0.00000000  0.87316098  0.84979540  1
  O  O100  1  0.50000000  0.62683902  0.34979540  1
  O  O101  1  0.50000000  0.37316098  0.65020460  1
  O  O102  1  0.50000000  0.62683902  0.15020460  1
  O  O103  1  0.50000000  0.37316098  0.84979540  1
  O  O104  1  0.24928045  0.08935624  0.32431456  1
  O  O105  1  0.24928045  0.91064376  0.67568544  1
  O  O106  1  0.75071955  0.08935624  0.17568544  1
  O  O107  1  0.75071955  0.91064376  0.82431456  1
  O  O108  1  0.75071955  0.91064376  0.67568544  1
  O  O109  1  0.75071955  0.08935624  0.32431456  1
  O  O110  1  0.24928045  0.91064376  0.82431456  1
  O  O111  1  0.24928045  0.08935624  0.17568544  1
  O  O112  1  0.74928045  0.58935624  0.32431456  1
  O  O113  1  0.74928045  0.41064376  0.67568544  1
  O  O114  1  0.25071955  0.58935624  0.17568544  1
  O  O115  1  0.25071955  0.41064376  0.82431456  1
  O  O116  1  0.25071955  0.41064376  0.67568544  1
  O  O117  1  0.25071955  0.58935624  0.32431456  1
  O  O118  1  0.74928045  0.41064376  0.82431456  1
  O  O119  1  0.74928045  0.58935624  0.17568544  1
  O  O120  1  0.68067801  0.90919643  0.33518787  1
  O  O121  1  0.68067801  0.09080357  0.66481213  1
  O  O122  1  0.31932199  0.90919643  0.16481213  1
  O  O123  1  0.31932199  0.09080357  0.83518787  1
  O  O124  1  0.31932199  0.09080357  0.66481213  1
  O  O125  1  0.31932199  0.90919643  0.33518787  1
  O  O126  1  0.68067801  0.09080357  0.83518787  1
  O  O127  1  0.68067801  0.90919643  0.16481213  1
  O  O128  1  0.18067801  0.40919643  0.33518787  1
  O  O129  1  0.18067801  0.59080357  0.66481213  1
  O  O130  1  0.81932199  0.40919643  0.16481213  1
  O  O131  1  0.81932199  0.59080357  0.83518787  1
  O  O132  1  0.81932199  0.59080357  0.66481213  1
  O  O133  1  0.81932199  0.40919643  0.33518787  1
  O  O134  1  0.18067801  0.59080357  0.83518787  1
  O  O135  1  0.18067801  0.40919643  0.16481213  1
  O  O136  1  0.69472326  0.98314259  0.25000000  1
  O  O137  1  0.69472326  0.01685741  0.75000000  1
  O  O138  1  0.30527674  0.98314259  0.25000000  1
  O  O139  1  0.30527674  0.01685741  0.75000000  1
  O  O140  1  0.19472326  0.48314259  0.25000000  1
  O  O141  1  0.19472326  0.51685741  0.75000000  1
  O  O142  1  0.80527674  0.48314259  0.25000000  1
  O  O143  1  0.80527674  0.51685741  0.75000000  1
  O  O144  1  0.50000000  0.03762129  0.30862853  1
  O  O145  1  0.50000000  0.96237871  0.69137147  1
  O  O146  1  0.50000000  0.03762129  0.19137147  1
  O  O147  1  0.50000000  0.96237871  0.80862853  1
  O  O148  1  0.00000000  0.53762129  0.30862853  1
  O  O149  1  0.00000000  0.46237871  0.69137147  1
  O  O150  1  0.00000000  0.53762129  0.19137147  1
  O  O151  1  0.00000000  0.46237871  0.80862853  1
  O  O152  1  0.00000000  0.94557367  0.44399029  1
  O  O153  1  0.00000000  0.05442633  0.55600971  1
  O  O154  1  0.00000000  0.94557367  0.05600971  1
  O  O155  1  0.00000000  0.05442633  0.94399029  1
  O  O156  1  0.50000000  0.44557367  0.44399029  1
  O  O157  1  0.50000000  0.55442633  0.55600971  1
  O  O158  1  0.50000000  0.44557367  0.05600971  1
  O  O159  1  0.50000000  0.55442633  0.94399029  1
  O  O160  1  0.75011029  0.89342283  0.42570218  1
  O  O161  1  0.75011029  0.10657717  0.57429782  1
  O  O162  1  0.24988971  0.89342283  0.07429782  1
  O  O163  1  0.24988971  0.10657717  0.92570218  1
  O  O164  1  0.24988971  0.10657717  0.57429782  1
  O  O165  1  0.24988971  0.89342283  0.42570218  1
  O  O166  1  0.75011029  0.10657717  0.92570218  1
  O  O167  1  0.75011029  0.89342283  0.07429782  1
  O  O168  1  0.25011029  0.39342283  0.42570218  1
  O  O169  1  0.25011029  0.60657717  0.57429782  1
  O  O170  1  0.74988971  0.39342283  0.07429782  1
  O  O171  1  0.74988971  0.60657717  0.92570218  1
  O  O172  1  0.74988971  0.60657717  0.57429782  1
  O  O173  1  0.74988971  0.39342283  0.42570218  1
  O  O174  1  0.25011029  0.60657717  0.92570218  1
  O  O175  1  0.25011029  0.39342283  0.07429782  1
  O  O176  1  0.79916855  0.00000000  0.50000000  1
  O  O177  1  0.20083145  0.00000000  0.00000000  1
  O  O178  1  0.20083145  0.00000000  0.50000000  1
  O  O179  1  0.79916855  0.00000000  0.00000000  1
  O  O180  1  0.29916855  0.50000000  0.50000000  1
  O  O181  1  0.70083145  0.50000000  0.00000000  1
  O  O182  1  0.70083145  0.50000000  0.50000000  1
  O  O183  1  0.29916855  0.50000000  0.00000000  1
  O  O184  1  0.50000000  0.85697262  0.39991037  1
  O  O185  1  0.50000000  0.14302738  0.60008963  1
  O  O186  1  0.50000000  0.85697262  0.10008963  1
  O  O187  1  0.50000000  0.14302738  0.89991037  1
  O  O188  1  0.00000000  0.35697262  0.39991037  1
  O  O189  1  0.00000000  0.64302738  0.60008963  1
  O  O190  1  0.00000000  0.35697262  0.10008963  1
  O  O191  1  0.00000000  0.64302738  0.89991037  1
