# generated using pymatgen
data_Pd7Se2
_symmetry_space_group_name_H-M   'P 1'
_cell_length_a   5.44420503
_cell_length_b   5.62398323
_cell_length_c   9.57741517
_cell_angle_alpha   93.64791400
_cell_angle_beta   90.00000000
_cell_angle_gamma   90.00000000
_symmetry_Int_Tables_number   1
_chemical_formula_structural   Pd7Se2
_chemical_formula_sum   'Pd14 Se4'
_cell_volume   292.64827884
_cell_formula_units_Z   2
loop_
 _symmetry_equiv_pos_site_id
 _symmetry_equiv_pos_as_xyz
  1  'x, y, z'
loop_
 _atom_site_type_symbol
 _atom_site_label
 _atom_site_symmetry_multiplicity
 _atom_site_fract_x
 _atom_site_fract_y
 _atom_site_fract_z
 _atom_site_occupancy
  Se  Se0  1  0.22811651  0.22588760  0.62168196  1
  Se  Se1  1  0.72811651  0.77411240  0.87831804  1
  Se  Se2  1  0.77188349  0.77411240  0.37831804  1
  Se  Se3  1  0.27188349  0.22588760  0.12168196  1
  Pd  Pd4  1  0.08142973  0.79398585  0.57278108  1
  Pd  Pd5  1  0.58142973  0.20601415  0.92721892  1
  Pd  Pd6  1  0.40133185  0.03257899  0.35136907  1
  Pd  Pd7  1  0.90133185  0.96742101  0.14863093  1
  Pd  Pd8  1  0.59866815  0.96742101  0.64863093  1
  Pd  Pd9  1  0.09866815  0.03257899  0.85136907  1
  Pd  Pd10  1  0.65731958  0.42656123  0.20798925  1
  Pd  Pd11  1  0.15731958  0.57343877  0.29201075  1
  Pd  Pd12  1  0.34268042  0.57343877  0.79201075  1
  Pd  Pd13  1  0.84268042  0.42656123  0.70798925  1
  Pd  Pd14  1  0.41857027  0.79398585  0.07278108  1
  Pd  Pd15  1  0.91857027  0.20601415  0.42721892  1
  Pd  Pd16  1  0.50000000  0.50000000  0.50000000  1
  Pd  Pd17  1  0.00000000  0.50000000  0.00000000  1
