# generated using pymatgen
data_Li9Mn2Co5O16
_symmetry_space_group_name_H-M   'P 1'
_cell_length_a   2.98471593
_cell_length_b   10.12606473
_cell_length_c   9.75531752
_cell_angle_alpha   102.51031605
_cell_angle_beta   87.87859119
_cell_angle_gamma   90.92553344
_symmetry_Int_Tables_number   1
_chemical_formula_structural   Li9Mn2Co5O16
_chemical_formula_sum   'Li9 Mn2 Co5 O16'
_cell_volume   287.63149037
_cell_formula_units_Z   1
loop_
 _symmetry_equiv_pos_site_id
 _symmetry_equiv_pos_as_xyz
  1  'x, y, z'
loop_
 _atom_site_type_symbol
 _atom_site_label
 _atom_site_symmetry_multiplicity
 _atom_site_fract_x
 _atom_site_fract_y
 _atom_site_fract_z
 _atom_site_occupancy
  Li  Li0  1  0.99665183  0.13047543  0.74771203  1
  Li  Li1  1  0.50590680  0.49400523  0.49895499  1
  Li  Li2  1  -0.00000000  0.87500000  0.25000000  1
  Li  Li3  1  0.49409320  0.25599477  0.00104501  1
  Li  Li4  1  0.49684872  0.00487234  0.49880319  1
  Li  Li5  1  -0.00000000  0.37500000  0.25000000  1
  Li  Li6  1  0.50315128  0.74512766  0.00119681  1
  Li  Li7  1  0.00334817  0.61952457  0.75228797  1
  Li  Li8  1  0.50000000  0.37500000  0.75000000  1
  Mn  Mn9  1  0.99955218  0.00196444  0.99780979  1
  Mn  Mn10  1  0.00044782  0.74803556  0.50219021  1
  Co  Co11  1  0.50467393  0.12891279  0.25527682  1
  Co  Co12  1  0.99917187  0.49541409  0.98770494  1
  Co  Co13  1  0.50000000  0.87500000  0.75000000  1
  Co  Co14  1  0.00082813  0.25458591  0.51229506  1
  Co  Co15  1  0.49532607  0.62108721  0.24472318  1
  O  O16  1  0.46730471  0.05350832  0.87318074  1
  O  O17  1  0.99658333  0.42132743  0.61085852  1
  O  O18  1  0.46328058  0.80334291  0.37467551  1
  O  O19  1  0.01188029  0.17740442  0.12741709  1
  O  O20  1  0.01632921  0.92293307  0.63667358  1
  O  O21  1  0.47039524  0.30217693  0.37486619  1
  O  O22  1  0.00427591  0.67247757  0.12027220  1
  O  O23  1  0.47821111  0.55865202  0.88222449  1
  O  O24  1  0.52178889  0.19134698  0.61777551  1
  O  O25  1  0.98811971  0.57259458  0.37258291  1
  O  O26  1  0.53671942  0.94665609  0.12532449  1
  O  O27  1  0.00341667  0.32867257  0.88914148  1
  O  O28  1  0.99572409  0.07752143  0.37972780  1
  O  O29  1  0.52960476  0.44782207  0.12513381  1
  O  O30  1  0.98367079  0.82706693  0.86332642  1
  O  O31  1  0.53269529  0.69649168  0.62681926  1
