# generated using pymatgen
data_Na2La2Ti3O10
_symmetry_space_group_name_H-M   'P 1'
_cell_length_a   3.87136221
_cell_length_b   3.87136221
_cell_length_c   14.69641375
_cell_angle_alpha   97.56848247
_cell_angle_beta   97.56848247
_cell_angle_gamma   89.99999997
_symmetry_Int_Tables_number   1
_chemical_formula_structural   Na2La2Ti3O10
_chemical_formula_sum   'Na2 La2 Ti3 O10'
_cell_volume   216.40690644
_cell_formula_units_Z   1
loop_
 _symmetry_equiv_pos_site_id
 _symmetry_equiv_pos_as_xyz
  1  'x, y, z'
loop_
 _atom_site_type_symbol
 _atom_site_label
 _atom_site_symmetry_multiplicity
 _atom_site_fract_x
 _atom_site_fract_y
 _atom_site_fract_z
 _atom_site_occupancy
  O  O0  1  0.86674735  0.36674735  0.73349470  1
  O  O1  1  0.36674735  0.86674735  0.73349470  1
  O  O2  1  0.13325265  0.63325265  0.26650530  1
  O  O3  1  0.63325265  0.13325265  0.26650530  1
  O  O4  1  0.79138069  0.79138069  0.58276138  1
  O  O5  1  0.20861931  0.20861931  0.41723862  1
  O  O6  1  0.00000000  0.50000000  0.00000000  1
  O  O7  1  0.06734301  0.06734301  0.13468601  1
  O  O8  1  0.93265699  0.93265699  0.86531399  1
  O  O9  1  0.50000000  0.00000000  0.00000000  1
  Na  Na10  1  0.71177787  0.71177787  0.42355575  1
  Na  Na11  1  0.28822213  0.28822213  0.57644425  1
  Ti  Ti12  1  0.85219628  0.85219628  0.70439257  1
  Ti  Ti13  1  0.14780372  0.14780372  0.29560743  1
  Ti  Ti14  1  0.00000000  0.00000000  0.00000000  1
  La  La15  1  0.57527702  0.57527702  0.15055404  1
  La  La16  1  0.42472298  0.42472298  0.84944596  1
