# generated using pymatgen
data_Cs2MnV2(BrO3)2
_symmetry_space_group_name_H-M   'P 1'
_cell_length_a   6.03324244
_cell_length_b   5.76299429
_cell_length_c   9.44540867
_cell_angle_alpha   107.76229190
_cell_angle_beta   90.00000000
_cell_angle_gamma   90.00000000
_symmetry_Int_Tables_number   1
_chemical_formula_structural   Cs2MnV2(BrO3)2
_chemical_formula_sum   'Cs2 Mn1 V2 Br2 O6'
_cell_volume   312.75722844
_cell_formula_units_Z   1
loop_
 _symmetry_equiv_pos_site_id
 _symmetry_equiv_pos_as_xyz
  1  'x, y, z'
loop_
 _atom_site_type_symbol
 _atom_site_label
 _atom_site_symmetry_multiplicity
 _atom_site_fract_x
 _atom_site_fract_y
 _atom_site_fract_z
 _atom_site_occupancy
  Cs  Cs0  1  0.05566822  0.63339905  0.26679811  1
  Cs  Cs1  1  0.05566822  0.36660095  0.73320189  1
  Mn  Mn2  1  0.54415472  0.00000000  0.00000000  1
  V  V3  1  0.54831333  0.80034424  0.60068848  1
  V  V4  1  0.54831333  0.19965576  0.39931152  1
  Br  Br5  1  0.52732513  0.50000000  0.00000000  1
  Br  Br6  1  0.97504479  0.00000000  0.00000000  1
  O  O7  1  0.43985842  0.50000000  0.50000000  1
  O  O8  1  0.45416970  0.88966575  0.77933150  1
  O  O9  1  0.82221802  0.79797333  0.59594666  1
  O  O10  1  0.82221802  0.20202667  0.40405334  1
  O  O11  1  0.43985842  0.00000000  0.50000000  1
  O  O12  1  0.45416970  0.11033425  0.22066850  1
