# generated using pymatgen
data_H5BrO2
_symmetry_space_group_name_H-M   'P 1'
_cell_length_a   4.37072592
_cell_length_b   12.34885129
_cell_length_c   6.95888946
_cell_angle_alpha   91.70923208
_cell_angle_beta   104.65499666
_cell_angle_gamma   90.55508150
_symmetry_Int_Tables_number   1
_chemical_formula_structural   H5BrO2
_chemical_formula_sum   'H20 Br4 O8'
_cell_volume   363.15654459
_cell_formula_units_Z   4
loop_
 _symmetry_equiv_pos_site_id
 _symmetry_equiv_pos_as_xyz
  1  'x, y, z'
loop_
 _atom_site_type_symbol
 _atom_site_label
 _atom_site_symmetry_multiplicity
 _atom_site_fract_x
 _atom_site_fract_y
 _atom_site_fract_z
 _atom_site_occupancy
  H  H0  1  0.72264381  0.30491798  0.58486004  1
  H  H1  1  0.48330005  0.39640979  0.66943003  1
  H  H2  1  0.41726553  0.35544858  0.42135517  1
  H  H3  1  0.59345136  0.84128182  0.07668626  1
  H  H4  1  0.53912296  0.89150891  0.84260833  1
  H  H5  1  0.28666036  0.79375156  0.90157600  1
  H  H6  1  0.57638801  0.64130116  0.56189068  1
  H  H7  1  0.27841461  0.69825231  0.40387526  1
  H  H8  1  0.41627473  0.14496767  0.93570157  1
  H  H9  1  0.73860117  0.18418707  0.09681189  1
  H  H10  1  0.25399726  0.38658639  0.89381936  1
  H  H11  1  0.22008367  0.50223364  0.79338528  1
  H  H12  1  0.74381519  0.89397034  0.60225035  1
  H  H13  1  0.76218656  0.00995370  0.70952675  1
  H  H14  1  0.51080736  0.60111314  0.31516018  1
  H  H15  1  0.88284475  0.55516557  0.22221982  1
  H  H16  1  0.57358609  0.51192104  0.06961287  1
  H  H17  1  0.26841698  0.10772154  0.40646817  1
  H  H18  1  0.23545020  0.98896067  0.30335071  1
  H  H19  1  0.46546968  0.09577961  0.17972590  1
  Br  Br20  1  0.04217380  0.16902154  0.65628368  1
  Br  Br21  1  0.97138555  0.65505861  0.80559407  1
  Br  Br22  1  0.97065813  0.83631579  0.34281638  1
  Br  Br23  1  0.06348362  0.32913929  0.15576205  1
  O  O24  1  0.58780289  0.37139964  0.55047301  1
  O  O25  1  0.42527070  0.85989748  0.95317695  1
  O  O26  1  0.39977276  0.62858243  0.43412606  1
  O  O27  1  0.58258771  0.12213696  0.05519323  1
  O  O28  1  0.36456774  0.43894548  0.82712594  1
  O  O29  1  0.67887004  0.93530693  0.70845482  1
  O  O30  1  0.65695949  0.56670763  0.17775184  1
  O  O31  1  0.35179126  0.05959170  0.31551634  1
