# generated using pymatgen
data_Sb8Pb7S19
_symmetry_space_group_name_H-M   'P 1'
_cell_length_a   9.14923725
_cell_length_b   9.14923697
_cell_length_c   22.05846430
_cell_angle_alpha   88.33633037
_cell_angle_beta   88.33633033
_cell_angle_gamma   81.81621046
_symmetry_Int_Tables_number   1
_chemical_formula_structural   Sb8Pb7S19
_chemical_formula_sum   'Sb16 Pb14 S38'
_cell_volume   1826.32921835
_cell_formula_units_Z   2
loop_
 _symmetry_equiv_pos_site_id
 _symmetry_equiv_pos_as_xyz
  1  'x, y, z'
loop_
 _atom_site_type_symbol
 _atom_site_label
 _atom_site_symmetry_multiplicity
 _atom_site_fract_x
 _atom_site_fract_y
 _atom_site_fract_z
 _atom_site_occupancy
  Sb  Sb0  1  0.90394103  0.27472784  0.67770524  1
  Sb  Sb1  1  0.22036568  0.02596652  0.99748549  1
  Sb  Sb2  1  0.53014685  0.76440606  0.89494025  1
  Sb  Sb3  1  0.23559394  0.46985315  0.60505975  1
  Sb  Sb4  1  0.60131147  0.63062639  0.55308240  1
  Sb  Sb5  1  0.72527216  0.09605897  0.82229476  1
  Sb  Sb6  1  0.97403348  0.77963432  0.50251451  1
  Sb  Sb7  1  0.09605897  0.72527216  0.32229476  1
  Sb  Sb8  1  0.63062639  0.60131147  0.05308240  1
  Sb  Sb9  1  0.02596652  0.22036568  0.49748549  1
  Sb  Sb10  1  0.27472784  0.90394103  0.17770524  1
  Sb  Sb11  1  0.46985315  0.23559394  0.10505975  1
  Sb  Sb12  1  0.36937361  0.39868853  0.94691760  1
  Sb  Sb13  1  0.77963432  0.97403348  0.00251451  1
  Sb  Sb14  1  0.39868853  0.36937361  0.44691760  1
  Sb  Sb15  1  0.76440606  0.53014685  0.39494025  1
  Pb  Pb16  1  0.07397023  0.62698124  0.06984624  1
  Pb  Pb17  1  0.92602977  0.37301876  0.93015376  1
  Pb  Pb18  1  0.50390612  0.49609388  0.75000000  1
  Pb  Pb19  1  0.09477731  0.74484958  0.87246783  1
  Pb  Pb20  1  0.74484958  0.09477731  0.37246783  1
  Pb  Pb21  1  0.37301876  0.92602977  0.43015376  1
  Pb  Pb22  1  0.87221617  0.73226501  0.68827352  1
  Pb  Pb23  1  0.49609388  0.50390612  0.25000000  1
  Pb  Pb24  1  0.73226501  0.87221617  0.18827352  1
  Pb  Pb25  1  0.12778383  0.26773499  0.31172648  1
  Pb  Pb26  1  0.25515042  0.90522269  0.62753217  1
  Pb  Pb27  1  0.90522269  0.25515042  0.12753217  1
  Pb  Pb28  1  0.62698124  0.07397023  0.56984624  1
  Pb  Pb29  1  0.26773499  0.12778383  0.81172648  1
  S  S30  1  0.32331428  0.12692788  0.52201702  1
  S  S31  1  0.96437173  0.94969455  0.08216974  1
  S  S32  1  0.17583655  0.25375449  0.67793141  1
  S  S33  1  0.72765487  0.27468825  0.02648015  1
  S  S34  1  0.27468825  0.72765487  0.52648015  1
  S  S35  1  0.40857301  0.50917556  0.11855349  1
  S  S36  1  0.94969455  0.96437173  0.58216974  1
  S  S37  1  0.50917556  0.40857301  0.61855349  1
  S  S38  1  0.87307212  0.67668572  0.97798298  1
  S  S39  1  0.56962781  0.88971608  0.07319979  1
  S  S40  1  0.36104558  0.81050475  0.80999471  1
  S  S41  1  0.53690445  0.17450992  0.74744865  1
  S  S42  1  0.05030545  0.03562827  0.41783026  1
  S  S43  1  0.82549008  0.46309555  0.75255135  1
  S  S44  1  0.94325547  0.05674453  0.75000000  1
  S  S45  1  0.88971608  0.56962781  0.57319979  1
  S  S46  1  0.05674453  0.94325547  0.25000000  1
  S  S47  1  0.67668572  0.87307212  0.47798298  1
  S  S48  1  0.25375449  0.17583655  0.17793141  1
  S  S49  1  0.18949525  0.63895442  0.69000529  1
  S  S50  1  0.11028392  0.43037219  0.42680021  1
  S  S51  1  0.03562827  0.05030545  0.91783026  1
  S  S52  1  0.17450992  0.53690445  0.24744865  1
  S  S53  1  0.59142699  0.49082444  0.88144651  1
  S  S54  1  0.27234513  0.72531175  0.97351985  1
  S  S55  1  0.43373352  0.21219826  0.35880927  1
  S  S56  1  0.78780174  0.56626648  0.14119073  1
  S  S57  1  0.81050475  0.36104558  0.30999471  1
  S  S58  1  0.63895442  0.18949525  0.19000529  1
  S  S59  1  0.49082444  0.59142699  0.38144651  1
  S  S60  1  0.56626648  0.78780174  0.64119073  1
  S  S61  1  0.43037219  0.11028392  0.92680021  1
  S  S62  1  0.72531175  0.27234513  0.47351985  1
  S  S63  1  0.12692788  0.32331428  0.02201702  1
  S  S64  1  0.21219826  0.43373352  0.85880927  1
  S  S65  1  0.46309555  0.82549008  0.25255135  1
  S  S66  1  0.74624551  0.82416345  0.82206859  1
  S  S67  1  0.82416345  0.74624551  0.32206859  1
