# generated using pymatgen
data_SiO2
_symmetry_space_group_name_H-M   'P 1'
_cell_length_a   14.11416182
_cell_length_b   14.11416182
_cell_length_c   10.04278388
_cell_angle_alpha   90.00000000
_cell_angle_beta   90.00000000
_cell_angle_gamma   90.00000000
_symmetry_Int_Tables_number   1
_chemical_formula_structural   SiO2
_chemical_formula_sum   'Si32 O64'
_cell_volume   2000.61859689
_cell_formula_units_Z   32
loop_
 _symmetry_equiv_pos_site_id
 _symmetry_equiv_pos_as_xyz
  1  'x, y, z'
loop_
 _atom_site_type_symbol
 _atom_site_label
 _atom_site_symmetry_multiplicity
 _atom_site_fract_x
 _atom_site_fract_y
 _atom_site_fract_z
 _atom_site_occupancy
  Si  Si0  1  0.11046552  0.26717881  0.15529256  1
  Si  Si1  1  0.73282119  0.11046552  0.15529256  1
  Si  Si2  1  0.26717881  0.88953448  0.15529256  1
  Si  Si3  1  0.11046552  0.73282119  0.84470744  1
  Si  Si4  1  0.88953448  0.26717881  0.84470744  1
  Si  Si5  1  0.88953448  0.73282119  0.15529256  1
  Si  Si6  1  0.26717881  0.11046552  0.84470744  1
  Si  Si7  1  0.73282119  0.88953448  0.84470744  1
  Si  Si8  1  0.88953448  0.73282119  0.84470744  1
  Si  Si9  1  0.26717881  0.88953448  0.84470744  1
  Si  Si10  1  0.73282119  0.11046552  0.84470744  1
  Si  Si11  1  0.88953448  0.26717881  0.15529256  1
  Si  Si12  1  0.11046552  0.73282119  0.15529256  1
  Si  Si13  1  0.11046552  0.26717881  0.84470744  1
  Si  Si14  1  0.73282119  0.88953448  0.15529256  1
  Si  Si15  1  0.26717881  0.11046552  0.15529256  1
  Si  Si16  1  0.61046552  0.76717881  0.65529256  1
  Si  Si17  1  0.23282119  0.61046552  0.65529256  1
  Si  Si18  1  0.76717881  0.38953448  0.65529256  1
  Si  Si19  1  0.61046552  0.23282119  0.34470744  1
  Si  Si20  1  0.38953448  0.76717881  0.34470744  1
  Si  Si21  1  0.38953448  0.23282119  0.65529256  1
  Si  Si22  1  0.76717881  0.61046552  0.34470744  1
  Si  Si23  1  0.23282119  0.38953448  0.34470744  1
  Si  Si24  1  0.38953448  0.23282119  0.34470744  1
  Si  Si25  1  0.76717881  0.38953448  0.34470744  1
  Si  Si26  1  0.23282119  0.61046552  0.34470744  1
  Si  Si27  1  0.38953448  0.76717881  0.65529256  1
  Si  Si28  1  0.61046552  0.23282119  0.65529256  1
  Si  Si29  1  0.61046552  0.76717881  0.34470744  1
  Si  Si30  1  0.23282119  0.38953448  0.65529256  1
  Si  Si31  1  0.76717881  0.61046552  0.65529256  1
  O  O32  1  0.17176326  0.17176326  0.18488317  1
  O  O33  1  0.82823674  0.17176326  0.18488317  1
  O  O34  1  0.17176326  0.82823674  0.18488317  1
  O  O35  1  0.17176326  0.82823674  0.81511683  1
  O  O36  1  0.82823674  0.17176326  0.81511683  1
  O  O37  1  0.82823674  0.82823674  0.18488317  1
  O  O38  1  0.17176326  0.17176326  0.81511683  1
  O  O39  1  0.82823674  0.82823674  0.81511683  1
  O  O40  1  0.67176326  0.67176326  0.68488317  1
  O  O41  1  0.32823674  0.67176326  0.68488317  1
  O  O42  1  0.67176326  0.32823674  0.68488317  1
  O  O43  1  0.67176326  0.32823674  0.31511683  1
  O  O44  1  0.32823674  0.67176326  0.31511683  1
  O  O45  1  0.32823674  0.32823674  0.68488317  1
  O  O46  1  0.67176326  0.67176326  0.31511683  1
  O  O47  1  0.32823674  0.32823674  0.31511683  1
  O  O48  1  0.12270767  0.29875647  0.00000000  1
  O  O49  1  0.70124353  0.12270767  0.00000000  1
  O  O50  1  0.29875647  0.87729233  0.00000000  1
  O  O51  1  0.12270767  0.70124353  0.00000000  1
  O  O52  1  0.87729233  0.29875647  0.00000000  1
  O  O53  1  0.87729233  0.70124353  0.00000000  1
  O  O54  1  0.29875647  0.12270767  0.00000000  1
  O  O55  1  0.70124353  0.87729233  0.00000000  1
  O  O56  1  0.62270767  0.79875647  0.50000000  1
  O  O57  1  0.20124353  0.62270767  0.50000000  1
  O  O58  1  0.79875647  0.37729233  0.50000000  1
  O  O59  1  0.62270767  0.20124353  0.50000000  1
  O  O60  1  0.37729233  0.79875647  0.50000000  1
  O  O61  1  0.37729233  0.20124353  0.50000000  1
  O  O62  1  0.79875647  0.62270767  0.50000000  1
  O  O63  1  0.20124353  0.37729233  0.50000000  1
  O  O64  1  0.00000000  0.24510734  0.18757980  1
  O  O65  1  0.75489266  0.00000000  0.18757980  1
  O  O66  1  0.24510734  0.00000000  0.18757980  1
  O  O67  1  0.00000000  0.75489266  0.81242020  1
  O  O68  1  0.00000000  0.24510734  0.81242020  1
  O  O69  1  0.00000000  0.75489266  0.18757980  1
  O  O70  1  0.24510734  0.00000000  0.81242020  1
  O  O71  1  0.75489266  0.00000000  0.81242020  1
  O  O72  1  0.50000000  0.74510734  0.68757980  1
  O  O73  1  0.25489266  0.50000000  0.68757980  1
  O  O74  1  0.74510734  0.50000000  0.68757980  1
  O  O75  1  0.50000000  0.25489266  0.31242020  1
  O  O76  1  0.50000000  0.74510734  0.31242020  1
  O  O77  1  0.50000000  0.25489266  0.68757980  1
  O  O78  1  0.74510734  0.50000000  0.31242020  1
  O  O79  1  0.25489266  0.50000000  0.31242020  1
  O  O80  1  0.14694020  0.35305980  0.25000000  1
  O  O81  1  0.64694020  0.14694020  0.25000000  1
  O  O82  1  0.35305980  0.85305980  0.25000000  1
  O  O83  1  0.14694020  0.64694020  0.75000000  1
  O  O84  1  0.85305980  0.35305980  0.75000000  1
  O  O85  1  0.85305980  0.64694020  0.25000000  1
  O  O86  1  0.35305980  0.14694020  0.75000000  1
  O  O87  1  0.64694020  0.85305980  0.75000000  1
  O  O88  1  0.85305980  0.64694020  0.75000000  1
  O  O89  1  0.35305980  0.85305980  0.75000000  1
  O  O90  1  0.64694020  0.14694020  0.75000000  1
  O  O91  1  0.85305980  0.35305980  0.25000000  1
  O  O92  1  0.14694020  0.64694020  0.25000000  1
  O  O93  1  0.14694020  0.35305980  0.75000000  1
  O  O94  1  0.64694020  0.85305980  0.25000000  1
  O  O95  1  0.35305980  0.14694020  0.25000000  1
