# generated using pymatgen
data_Na2BeSiO4
_symmetry_space_group_name_H-M   'P 1'
_cell_length_a   4.96259493
_cell_length_b   9.96591059
_cell_length_c   14.00428037
_cell_angle_alpha   90.00000000
_cell_angle_beta   90.00000000
_cell_angle_gamma   90.00000000
_symmetry_Int_Tables_number   1
_chemical_formula_structural   Na2BeSiO4
_chemical_formula_sum   'Na16 Be8 Si8 O32'
_cell_volume   692.60657644
_cell_formula_units_Z   8
loop_
 _symmetry_equiv_pos_site_id
 _symmetry_equiv_pos_as_xyz
  1  'x, y, z'
loop_
 _atom_site_type_symbol
 _atom_site_label
 _atom_site_symmetry_multiplicity
 _atom_site_fract_x
 _atom_site_fract_y
 _atom_site_fract_z
 _atom_site_occupancy
  Be  Be0  1  0.99297510  0.76822150  0.55027568  1
  Be  Be1  1  0.00702490  0.23177850  0.05027568  1
  Be  Be2  1  0.00702490  0.26822150  0.55027568  1
  Be  Be3  1  0.99297510  0.73177850  0.05027568  1
  Be  Be4  1  0.47357747  0.98629768  0.29455919  1
  Be  Be5  1  0.52642253  0.01370232  0.79455919  1
  Be  Be6  1  0.52642253  0.48629768  0.29455919  1
  Be  Be7  1  0.47357747  0.51370232  0.79455919  1
  O  O8  1  0.11976307  0.91384405  0.58784602  1
  O  O9  1  0.70341657  0.51112473  0.19589493  1
  O  O10  1  0.29658343  0.48887527  0.69589493  1
  O  O11  1  0.29658343  0.01112473  0.19589493  1
  O  O12  1  0.70341657  0.98887527  0.69589493  1
  O  O13  1  0.20200781  0.51315996  0.27200320  1
  O  O14  1  0.79799219  0.48684004  0.77200320  1
  O  O15  1  0.79799219  0.01315996  0.27200320  1
  O  O16  1  0.20200781  0.98684004  0.77200320  1
  O  O17  1  0.62048263  0.59295014  0.37906976  1
  O  O18  1  0.37951737  0.40704986  0.87906976  1
  O  O19  1  0.37951737  0.09295014  0.37906976  1
  O  O20  1  0.62048263  0.90704986  0.87906976  1
  O  O21  1  0.11976307  0.58615595  0.08784602  1
  O  O22  1  0.88023693  0.41384405  0.58784602  1
  O  O23  1  0.88023693  0.08615595  0.08784602  1
  O  O24  1  0.22686607  0.69267853  0.48537966  1
  O  O25  1  0.77313393  0.30732147  0.98537966  1
  O  O26  1  0.77313393  0.19267853  0.48537966  1
  O  O27  1  0.22686607  0.80732147  0.98537966  1
  O  O28  1  0.72429212  0.69182104  0.98493793  1
  O  O29  1  0.27570788  0.30817896  0.48493793  1
  O  O30  1  0.27570788  0.19182104  0.98493793  1
  O  O31  1  0.72429212  0.80817896  0.48493793  1
  O  O32  1  0.91454163  0.82614460  0.14289942  1
  O  O33  1  0.08545837  0.17385540  0.64289942  1
  O  O34  1  0.08545837  0.32614460  0.14289942  1
  O  O35  1  0.91454163  0.67385540  0.64289942  1
  O  O36  1  0.40275785  0.66913191  0.83015977  1
  O  O37  1  0.59724215  0.16913191  0.83015977  1
  O  O38  1  0.59724215  0.33086809  0.33015977  1
  O  O39  1  0.40275785  0.83086809  0.33015977  1
  Na  Na40  1  0.97153674  0.72783509  0.30005056  1
  Na  Na41  1  0.02846326  0.27216491  0.80005056  1
  Na  Na42  1  0.02846326  0.22783509  0.30005056  1
  Na  Na43  1  0.97153674  0.77216491  0.80005056  1
  Na  Na44  1  0.46836804  0.73251185  0.16893209  1
  Na  Na45  1  0.53163196  0.26748815  0.66893209  1
  Na  Na46  1  0.53163196  0.23251185  0.16893209  1
  Na  Na47  1  0.46836804  0.76748815  0.66893209  1
  Na  Na48  1  0.47792261  0.99698976  0.04221195  1
  Na  Na49  1  0.00787657  0.01074851  0.92551151  1
  Na  Na50  1  0.99212343  0.98925149  0.42551151  1
  Na  Na51  1  0.99212343  0.51074851  0.92551151  1
  Na  Na52  1  0.52207739  0.00301024  0.54221195  1
  Na  Na53  1  0.47792261  0.50301024  0.54221195  1
  Na  Na54  1  0.52207739  0.49698976  0.04221195  1
  Na  Na55  1  0.00787657  0.48925149  0.42551151  1
  Si  Si56  1  0.97431698  0.98320887  0.17427007  1
  Si  Si57  1  0.49091179  0.76611621  0.91999827  1
  Si  Si58  1  0.50908821  0.23388379  0.41999827  1
  Si  Si59  1  0.50908821  0.26611621  0.91999827  1
  Si  Si60  1  0.49091179  0.73388379  0.41999827  1
  Si  Si61  1  0.97431698  0.51679113  0.67427007  1
  Si  Si62  1  0.02568302  0.48320887  0.17427007  1
  Si  Si63  1  0.02568302  0.01679113  0.67427007  1
