# generated using pymatgen
data_Li9Mn2Co5O16
_symmetry_space_group_name_H-M   'P 1'
_cell_length_a   2.96817783
_cell_length_b   10.76537377
_cell_length_c   9.98258273
_cell_angle_alpha   114.47329572
_cell_angle_beta   90.04362852
_cell_angle_gamma   82.39800450
_symmetry_Int_Tables_number   1
_chemical_formula_structural   Li9Mn2Co5O16
_chemical_formula_sum   'Li9 Mn2 Co5 O16'
_cell_volume   287.25162912
_cell_formula_units_Z   1
loop_
 _symmetry_equiv_pos_site_id
 _symmetry_equiv_pos_as_xyz
  1  'x, y, z'
loop_
 _atom_site_type_symbol
 _atom_site_label
 _atom_site_symmetry_multiplicity
 _atom_site_fract_x
 _atom_site_fract_y
 _atom_site_fract_z
 _atom_site_occupancy
  Li  Li0  1  0.86234897  0.26405346  0.93891938  1
  Li  Li1  1  0.13820769  0.73604078  0.05475720  1
  Li  Li2  1  0.36179231  0.26395922  0.19524280  1
  Li  Li3  1  0.37746321  0.25474352  0.69202548  1
  Li  Li4  1  0.62591727  0.74650954  0.80626852  1
  Li  Li5  1  0.87408273  0.25349046  0.44373148  1
  Li  Li6  1  0.12253679  0.74525648  0.55797452  1
  Li  Li7  1  0.63765103  0.73594654  0.31108062  1
  Li  Li8  1  0.25000000  0.50000000  0.12500000  1
  Mn  Mn9  1  0.98748384  0.00193757  0.99691974  1
  Mn  Mn10  1  0.51251616  0.99806243  0.25308026  1
  Co  Co11  1  0.74623677  0.50102000  0.36586800  1
  Co  Co12  1  0.02743343  -0.00152425  0.51018662  1
  Co  Co13  1  0.25000000  0.50000000  0.62500000  1
  Co  Co14  1  0.47256657  0.00152425  0.73981338  1
  Co  Co15  1  0.75376323  0.49898000  0.88413200  1
  O  O16  1  0.43020848  0.11277762  0.97518621  1
  O  O17  1  0.69024638  0.61900988  0.07237186  1
  O  O18  1  0.95246928  0.10599898  0.21386189  1
  O  O19  1  0.92866038  0.12232134  0.72063912  1
  O  O20  1  0.16834021  0.61654923  0.83193154  1
  O  O21  1  0.46456855  0.11152976  0.45630266  1
  O  O22  1  0.68952188  0.61179311  0.58095747  1
  O  O23  1  0.17263937  0.61558909  0.34442820  1
  O  O24  1  0.32736063  0.38441091  0.90557180  1
  O  O25  1  0.54753072  0.89400102  0.03613811  1
  O  O26  1  0.80975362  0.38099012  0.17762814  1
  O  O27  1  0.81047812  0.38820689  0.66904253  1
  O  O28  1  0.03543145  0.88847024  0.79369734  1
  O  O29  1  0.33165979  0.38345077  0.41806846  1
  O  O30  1  0.57133962  0.87767866  0.52936088  1
  O  O31  1  0.06979152  0.88722238  0.27481379  1
