# generated using pymatgen
data_SiO2
_symmetry_space_group_name_H-M   'P 1'
_cell_length_a   9.97599060
_cell_length_b   14.16164479
_cell_length_c   14.13857702
_cell_angle_alpha   90.00000000
_cell_angle_beta   90.00000000
_cell_angle_gamma   90.00000000
_symmetry_Int_Tables_number   1
_chemical_formula_structural   SiO2
_chemical_formula_sum   'Si32 O64'
_cell_volume   1997.44776168
_cell_formula_units_Z   32
loop_
 _symmetry_equiv_pos_site_id
 _symmetry_equiv_pos_as_xyz
  1  'x, y, z'
loop_
 _atom_site_type_symbol
 _atom_site_label
 _atom_site_symmetry_multiplicity
 _atom_site_fract_x
 _atom_site_fract_y
 _atom_site_fract_z
 _atom_site_occupancy
  Si  Si0  1  0.15728717  0.10836798  0.98153377  1
  Si  Si1  1  0.15728717  0.89163202  0.01846623  1
  Si  Si2  1  0.84271283  0.10836798  0.51846623  1
  Si  Si3  1  0.84271283  0.89163202  0.48153377  1
  Si  Si4  1  0.84271283  0.89163202  0.01846623  1
  Si  Si5  1  0.84271283  0.10836798  0.98153377  1
  Si  Si6  1  0.15728717  0.89163202  0.48153377  1
  Si  Si7  1  0.15728717  0.10836798  0.51846623  1
  Si  Si8  1  0.65728717  0.60836798  0.98153377  1
  Si  Si9  1  0.65728717  0.39163202  0.01846623  1
  Si  Si10  1  0.34271283  0.60836798  0.51846623  1
  Si  Si11  1  0.34271283  0.39163202  0.48153377  1
  Si  Si12  1  0.34271283  0.39163202  0.01846623  1
  Si  Si13  1  0.34271283  0.60836798  0.98153377  1
  Si  Si14  1  0.65728717  0.39163202  0.48153377  1
  Si  Si15  1  0.65728717  0.60836798  0.51846623  1
  Si  Si16  1  0.15562098  0.26374352  0.14026152  1
  Si  Si17  1  0.15562098  0.73625648  0.85973848  1
  Si  Si18  1  0.84437902  0.26374352  0.35973848  1
  Si  Si19  1  0.84437902  0.73625648  0.64026152  1
  Si  Si20  1  0.84437902  0.73625648  0.85973848  1
  Si  Si21  1  0.84437902  0.26374352  0.14026152  1
  Si  Si22  1  0.15562098  0.73625648  0.64026152  1
  Si  Si23  1  0.15562098  0.26374352  0.35973848  1
  Si  Si24  1  0.65562098  0.76374352  0.14026152  1
  Si  Si25  1  0.65562098  0.23625648  0.85973848  1
  Si  Si26  1  0.34437902  0.76374352  0.35973848  1
  Si  Si27  1  0.34437902  0.23625648  0.64026152  1
  Si  Si28  1  0.34437902  0.23625648  0.85973848  1
  Si  Si29  1  0.34437902  0.76374352  0.14026152  1
  Si  Si30  1  0.65562098  0.23625648  0.64026152  1
  Si  Si31  1  0.65562098  0.76374352  0.35973848  1
  O  O32  1  0.00000000  0.11172321  0.95049667  1
  O  O33  1  0.00000000  0.88827679  0.04950333  1
  O  O34  1  0.00000000  0.11172321  0.54950333  1
  O  O35  1  0.00000000  0.88827679  0.45049667  1
  O  O36  1  0.50000000  0.61172321  0.95049667  1
  O  O37  1  0.50000000  0.38827679  0.04950333  1
  O  O38  1  0.50000000  0.61172321  0.54950333  1
  O  O39  1  0.50000000  0.38827679  0.45049667  1
  O  O40  1  0.18026091  0.16869183  0.07815328  1
  O  O41  1  0.18026091  0.83130817  0.92184672  1
  O  O42  1  0.81973909  0.16869183  0.42184672  1
  O  O43  1  0.81973909  0.83130817  0.57815328  1
  O  O44  1  0.81973909  0.83130817  0.92184672  1
  O  O45  1  0.81973909  0.16869183  0.07815328  1
  O  O46  1  0.18026091  0.83130817  0.57815328  1
  O  O47  1  0.18026091  0.16869183  0.42184672  1
  O  O48  1  0.68026091  0.66869183  0.07815328  1
  O  O49  1  0.68026091  0.33130817  0.92184672  1
  O  O50  1  0.31973909  0.66869183  0.42184672  1
  O  O51  1  0.31973909  0.33130817  0.57815328  1
  O  O52  1  0.31973909  0.33130817  0.92184672  1
  O  O53  1  0.31973909  0.66869183  0.07815328  1
  O  O54  1  0.68026091  0.33130817  0.57815328  1
  O  O55  1  0.68026091  0.66869183  0.42184672  1
  O  O56  1  0.20328511  0.00000000  0.00000000  1
  O  O57  1  0.79671489  0.00000000  0.50000000  1
  O  O58  1  0.79671489  0.00000000  0.00000000  1
  O  O59  1  0.20328511  0.00000000  0.50000000  1
  O  O60  1  0.70328511  0.50000000  0.00000000  1
  O  O61  1  0.29671489  0.50000000  0.50000000  1
  O  O62  1  0.29671489  0.50000000  0.00000000  1
  O  O63  1  0.70328511  0.50000000  0.50000000  1
  O  O64  1  0.24717538  0.15196708  0.89659703  1
  O  O65  1  0.24717538  0.84803292  0.10340297  1
  O  O66  1  0.75282462  0.15196708  0.60340297  1
  O  O67  1  0.75282462  0.84803292  0.39659703  1
  O  O68  1  0.75282462  0.84803292  0.10340297  1
  O  O69  1  0.75282462  0.15196708  0.89659703  1
  O  O70  1  0.24717538  0.84803292  0.39659703  1
  O  O71  1  0.24717538  0.15196708  0.60340297  1
  O  O72  1  0.74717538  0.65196708  0.89659703  1
  O  O73  1  0.74717538  0.34803292  0.10340297  1
  O  O74  1  0.25282462  0.65196708  0.60340297  1
  O  O75  1  0.25282462  0.34803292  0.39659703  1
  O  O76  1  0.25282462  0.34803292  0.10340297  1
  O  O77  1  0.25282462  0.65196708  0.89659703  1
  O  O78  1  0.74717538  0.34803292  0.39659703  1
  O  O79  1  0.74717538  0.65196708  0.60340297  1
  O  O80  1  0.19016374  0.24021504  0.25000000  1
  O  O81  1  0.19016374  0.75978496  0.75000000  1
  O  O82  1  0.80983626  0.24021504  0.25000000  1
  O  O83  1  0.80983626  0.75978496  0.75000000  1
  O  O84  1  0.69016374  0.74021504  0.25000000  1
  O  O85  1  0.69016374  0.25978496  0.75000000  1
  O  O86  1  0.30983626  0.74021504  0.25000000  1
  O  O87  1  0.30983626  0.25978496  0.75000000  1
  O  O88  1  0.00000000  0.29777648  0.13042634  1
  O  O89  1  0.00000000  0.70222352  0.86957366  1
  O  O90  1  0.00000000  0.29777648  0.36957366  1
  O  O91  1  0.00000000  0.70222352  0.63042634  1
  O  O92  1  0.50000000  0.79777648  0.13042634  1
  O  O93  1  0.50000000  0.20222352  0.86957366  1
  O  O94  1  0.50000000  0.79777648  0.36957366  1
  O  O95  1  0.50000000  0.20222352  0.63042634  1
