# generated using pymatgen
data_FeSiO3
_symmetry_space_group_name_H-M   'P 1'
_cell_length_a   5.37021203
_cell_length_b   9.22441177
_cell_length_c   18.70150318
_cell_angle_alpha   90.00000000
_cell_angle_beta   90.00000000
_cell_angle_gamma   90.00000000
_symmetry_Int_Tables_number   1
_chemical_formula_structural   FeSiO3
_chemical_formula_sum   'Fe16 Si16 O48'
_cell_volume   926.41724306
_cell_formula_units_Z   16
loop_
 _symmetry_equiv_pos_site_id
 _symmetry_equiv_pos_as_xyz
  1  'x, y, z'
loop_
 _atom_site_type_symbol
 _atom_site_label
 _atom_site_symmetry_multiplicity
 _atom_site_fract_x
 _atom_site_fract_y
 _atom_site_fract_z
 _atom_site_occupancy
  O  O0  1  0.44089680  0.28566953  0.94956899  1
  O  O1  1  0.94089680  0.71433047  0.55043101  1
  O  O2  1  0.05910320  0.78566953  0.05043101  1
  O  O3  1  0.55910320  0.21433047  0.44956899  1
  O  O4  1  0.55910320  0.71433047  0.05043101  1
  O  O5  1  0.05910320  0.28566953  0.44956899  1
  O  O6  1  0.94089680  0.21433047  0.94956899  1
  O  O7  1  0.44089680  0.78566953  0.55043101  1
  O  O8  1  0.29758629  0.01640693  0.93436655  1
  O  O9  1  0.79758629  0.98359307  0.56563345  1
  O  O10  1  0.20241371  0.51640693  0.06563345  1
  O  O11  1  0.70241371  0.48359307  0.43436655  1
  O  O12  1  0.70241371  0.98359307  0.06563345  1
  O  O13  1  0.20241371  0.01640693  0.43436655  1
  O  O14  1  0.79758629  0.48359307  0.93436655  1
  O  O15  1  0.29758629  0.51640693  0.56563345  1
  O  O16  1  0.22913637  0.16371811  0.06326198  1
  O  O17  1  0.72913637  0.83628189  0.43673802  1
  O  O18  1  0.27086363  0.66371811  0.93673802  1
  O  O19  1  0.92593138  0.00683144  0.81399016  1
  O  O20  1  0.77086363  0.33628189  0.56326198  1
  O  O21  1  0.27086363  0.16371811  0.56326198  1
  O  O22  1  0.72913637  0.33628189  0.06326198  1
  O  O23  1  0.22913637  0.66371811  0.43673802  1
  O  O24  1  0.16175320  0.26648040  0.80259495  1
  O  O25  1  0.66175320  0.73351960  0.69740505  1
  O  O26  1  0.33824680  0.76648040  0.19740505  1
  O  O27  1  0.83824680  0.23351960  0.30259495  1
  O  O28  1  0.83824680  0.73351960  0.19740505  1
  O  O29  1  0.33824680  0.26648040  0.30259495  1
  O  O30  1  0.66175320  0.23351960  0.80259495  1
  O  O31  1  0.16175320  0.76648040  0.69740505  1
  O  O32  1  0.94128099  0.66059561  0.81346288  1
  O  O33  1  0.44128099  0.33940439  0.68653712  1
  O  O34  1  0.55871901  0.16059561  0.18653712  1
  O  O35  1  0.05871901  0.83940439  0.31346288  1
  O  O36  1  0.05871901  0.33940439  0.18653712  1
  O  O37  1  0.55871901  0.66059561  0.31346288  1
  O  O38  1  0.44128099  0.83940439  0.81346288  1
  O  O39  1  0.94128099  0.16059561  0.68653712  1
  O  O40  1  0.92593138  0.50683144  0.68600984  1
  O  O41  1  0.42593138  0.49316856  0.81399016  1
  O  O42  1  0.57406862  0.00683144  0.31399016  1
  O  O43  1  0.07406862  0.99316856  0.18600984  1
  O  O44  1  0.07406862  0.49316856  0.31399016  1
  O  O45  1  0.57406862  0.50683144  0.18600984  1
  O  O46  1  0.42593138  0.99316856  0.68600984  1
  O  O47  1  0.77086363  0.83628189  0.93673802  1
  Si  Si48  1  0.22575542  0.16552692  0.97543602  1
  Si  Si49  1  0.72575542  0.83447308  0.52456398  1
  Si  Si50  1  0.27424458  0.66552692  0.02456398  1
  Si  Si51  1  0.77424458  0.33447308  0.47543602  1
  Si  Si52  1  0.77424458  0.83447308  0.02456398  1
  Si  Si53  1  0.27424458  0.16552692  0.47543602  1
  Si  Si54  1  0.72575542  0.33447308  0.97543602  1
  Si  Si55  1  0.22575542  0.66552692  0.52456398  1
  Si  Si56  1  0.93043133  0.16262485  0.77372767  1
  Si  Si57  1  0.43043133  0.83737515  0.72627233  1
  Si  Si58  1  0.56956867  0.66262485  0.22627233  1
  Si  Si59  1  0.06956867  0.33737515  0.27372767  1
  Si  Si60  1  0.06956867  0.83737515  0.22627233  1
  Si  Si61  1  0.56956867  0.16262485  0.27372767  1
  Si  Si62  1  0.43043133  0.33737515  0.77372767  1
  Si  Si63  1  0.93043133  0.66262485  0.72627233  1
  Fe  Fe64  1  0.61083129  0.00889904  0.87548983  1
  Fe  Fe65  1  0.11083129  0.99110096  0.62451017  1
  Fe  Fe66  1  0.88916871  0.50889904  0.12451017  1
  Fe  Fe67  1  0.38916871  0.49110096  0.37548983  1
  Fe  Fe68  1  0.38916871  0.99110096  0.12451017  1
  Fe  Fe69  1  0.88916871  0.00889904  0.37548983  1
  Fe  Fe70  1  0.11083129  0.49110096  0.87548983  1
  Fe  Fe71  1  0.61083129  0.50889904  0.62451017  1
  Fe  Fe72  1  0.10924220  0.84705429  0.87544247  1
  Fe  Fe73  1  0.60924220  0.15294571  0.62455753  1
  Fe  Fe74  1  0.39075780  0.34705429  0.12455753  1
  Fe  Fe75  1  0.89075780  0.65294571  0.37544247  1
  Fe  Fe76  1  0.89075780  0.15294571  0.12455753  1
  Fe  Fe77  1  0.39075780  0.84705429  0.37544247  1
  Fe  Fe78  1  0.60924220  0.65294571  0.87544247  1
  Fe  Fe79  1  0.10924220  0.34705429  0.62455753  1
