# generated using pymatgen
data_Zn2Cr9O13
_symmetry_space_group_name_H-M   'P 1'
_cell_length_a   3.07874373
_cell_length_b   5.81380485
_cell_length_c   16.93665319
_cell_angle_alpha   98.54595546
_cell_angle_beta   87.11130617
_cell_angle_gamma   116.28274331
_symmetry_Int_Tables_number   1
_chemical_formula_structural   Zn2Cr9O13
_chemical_formula_sum   'Zn2 Cr9 O13'
_cell_volume   268.75429899
_cell_formula_units_Z   1
loop_
 _symmetry_equiv_pos_site_id
 _symmetry_equiv_pos_as_xyz
  1  'x, y, z'
loop_
 _atom_site_type_symbol
 _atom_site_label
 _atom_site_symmetry_multiplicity
 _atom_site_fract_x
 _atom_site_fract_y
 _atom_site_fract_z
 _atom_site_occupancy
  Zn  Zn0  1  0.97621274  0.45525363  0.22568255  1
  Zn  Zn1  1  0.02378726  0.54474637  0.77431745  1
  Cr  Cr2  1  0.50000000  0.00000000  0.50000000  1
  Cr  Cr3  1  0.67049445  0.28016871  0.04179045  1
  Cr  Cr4  1  0.32950555  0.71983129  0.95820955  1
  Cr  Cr5  1  0.74111731  0.50550378  0.41596973  1
  Cr  Cr6  1  0.25888269  0.49449622  0.58403027  1
  Cr  Cr7  1  0.87422963  0.86906516  0.12197236  1
  Cr  Cr8  1  0.12577037  0.13093484  0.87802764  1
  Cr  Cr9  1  0.99875139  0.99543959  0.32965804  1
  Cr  Cr10  1  0.00124861  0.00456041  0.67034196  1
  O  O11  1  -0.00000000  0.00000000  -0.00000000  1
  O  O12  1  0.69430857  0.70789118  0.22297513  1
  O  O13  1  0.30569143  0.29210882  0.77702487  1
  O  O14  1  0.20573296  0.63795621  0.07494583  1
  O  O15  1  0.79426704  0.36204379  0.92505417  1
  O  O16  1  0.58306759  0.12916715  0.14603432  1
  O  O17  1  0.41693241  0.87083285  0.85396568  1
  O  O18  1  0.71207985  0.25040089  0.31687866  1
  O  O19  1  0.28792015  0.74959911  0.68312134  1
  O  O20  1  0.34028438  0.81359893  0.38520591  1
  O  O21  1  0.65971562  0.18640107  0.61479409  1
  O  O22  1  0.20147511  0.23863707  0.47776117  1
  O  O23  1  0.79852489  0.76136293  0.52223883  1
