# generated using pymatgen
data_Y7Te2
_symmetry_space_group_name_H-M   'P 1'
_cell_length_a   3.86635317
_cell_length_b   12.17792479
_cell_length_c   23.32796615
_cell_angle_alpha   90.00000000
_cell_angle_beta   90.00000000
_cell_angle_gamma   90.00000000
_symmetry_Int_Tables_number   1
_chemical_formula_structural   Y7Te2
_chemical_formula_sum   'Y28 Te8'
_cell_volume   1098.37764673
_cell_formula_units_Z   4
loop_
 _symmetry_equiv_pos_site_id
 _symmetry_equiv_pos_as_xyz
  1  'x, y, z'
loop_
 _atom_site_type_symbol
 _atom_site_label
 _atom_site_symmetry_multiplicity
 _atom_site_fract_x
 _atom_site_fract_y
 _atom_site_fract_z
 _atom_site_occupancy
  Y  Y0  1  0.25000000  0.63876597  0.42904020  1
  Y  Y1  1  0.75000000  0.98351760  0.83235652  1
  Y  Y2  1  0.75000000  0.85991740  0.04770855  1
  Y  Y3  1  0.75000000  0.26138408  0.72607927  1
  Y  Y4  1  0.25000000  0.86123403  0.92904020  1
  Y  Y5  1  0.75000000  0.51648240  0.33235652  1
  Y  Y6  1  0.75000000  0.65066273  0.89717342  1
  Y  Y7  1  0.75000000  0.23861592  0.22607927  1
  Y  Y8  1  0.75000000  0.36123403  0.57095980  1
  Y  Y9  1  0.25000000  0.76138408  0.77392073  1
  Y  Y10  1  0.25000000  0.14008260  0.95229145  1
  Y  Y11  1  0.25000000  0.61469626  0.02356147  1
  Y  Y12  1  0.75000000  0.38530374  0.97643853  1
  Y  Y13  1  0.25000000  0.35991740  0.45229145  1
  Y  Y14  1  0.75000000  0.84933727  0.39717342  1
  Y  Y15  1  0.25000000  0.07342468  0.34695335  1
  Y  Y16  1  0.75000000  0.11469626  0.47643853  1
  Y  Y17  1  0.25000000  0.34933727  0.10282658  1
  Y  Y18  1  0.75000000  0.13876597  0.07095980  1
  Y  Y19  1  0.25000000  0.73861592  0.27392073  1
  Y  Y20  1  0.75000000  0.64008260  0.54770855  1
  Y  Y21  1  0.25000000  0.01648240  0.16764348  1
  Y  Y22  1  0.75000000  0.57342468  0.15304665  1
  Y  Y23  1  0.25000000  0.42657532  0.84695335  1
  Y  Y24  1  0.75000000  0.92657532  0.65304665  1
  Y  Y25  1  0.25000000  0.88530374  0.52356147  1
  Y  Y26  1  0.25000000  0.48351760  0.66764348  1
  Y  Y27  1  0.25000000  0.15066273  0.60282658  1
  Te  Te28  1  0.25000000  0.73360965  0.64009652  1
  Te  Te29  1  0.75000000  0.23360965  0.85990348  1
  Te  Te30  1  0.75000000  0.94864911  0.26677043  1
  Te  Te31  1  0.75000000  0.26639035  0.35990348  1
  Te  Te32  1  0.25000000  0.76639035  0.14009652  1
  Te  Te33  1  0.75000000  0.55135089  0.76677043  1
  Te  Te34  1  0.25000000  0.05135089  0.73322957  1
  Te  Te35  1  0.25000000  0.44864911  0.23322957  1
