# generated using pymatgen
data_Cs3(FeS2)2
_symmetry_space_group_name_H-M   'P 1'
_cell_length_a   7.62960407
_cell_length_b   11.13846626
_cell_length_c   13.11640526
_cell_angle_alpha   90.00000000
_cell_angle_beta   90.00000000
_cell_angle_gamma   90.00000000
_symmetry_Int_Tables_number   1
_chemical_formula_structural   Cs3(FeS2)2
_chemical_formula_sum   'Cs12 Fe8 S16'
_cell_volume   1114.65949963
_cell_formula_units_Z   4
loop_
 _symmetry_equiv_pos_site_id
 _symmetry_equiv_pos_as_xyz
  1  'x, y, z'
loop_
 _atom_site_type_symbol
 _atom_site_label
 _atom_site_symmetry_multiplicity
 _atom_site_fract_x
 _atom_site_fract_y
 _atom_site_fract_z
 _atom_site_occupancy
  Cs  Cs0  1  0.98840827  0.75000000  0.05316658  1
  Cs  Cs1  1  0.10802654  0.02987072  0.21188503  1
  Cs  Cs2  1  0.51159173  0.25000000  0.55316658  1
  Cs  Cs3  1  0.01159173  0.25000000  0.94683342  1
  Cs  Cs4  1  0.60802654  0.47012928  0.28811497  1
  Cs  Cs5  1  0.89197346  0.52987072  0.78811497  1
  Cs  Cs6  1  0.89197346  0.97012928  0.78811497  1
  Cs  Cs7  1  0.39197346  0.52987072  0.71188503  1
  Cs  Cs8  1  0.39197346  0.97012928  0.71188503  1
  Cs  Cs9  1  0.10802654  0.47012928  0.21188503  1
  Cs  Cs10  1  0.48840827  0.75000000  0.44683342  1
  Cs  Cs11  1  0.60802654  0.02987072  0.28811497  1
  Fe  Fe12  1  0.99053182  0.37237479  0.50686110  1
  Fe  Fe13  1  0.50946818  0.87237479  0.00686110  1
  Fe  Fe14  1  0.49053182  0.12762521  0.99313890  1
  Fe  Fe15  1  0.00946818  0.87237479  0.49313890  1
  Fe  Fe16  1  0.49053182  0.37237479  0.99313890  1
  Fe  Fe17  1  0.00946818  0.62762521  0.49313890  1
  Fe  Fe18  1  0.99053182  0.12762521  0.50686110  1
  Fe  Fe19  1  0.50946818  0.62762521  0.00686110  1
  S  S20  1  0.04452359  0.25000000  0.64265871  1
  S  S21  1  0.59463152  0.75000000  0.87666256  1
  S  S22  1  0.72576477  0.48911851  0.03696031  1
  S  S23  1  0.45547641  0.75000000  0.14265871  1
  S  S24  1  0.72576477  0.01088149  0.03696031  1
  S  S25  1  0.90536848  0.25000000  0.37666256  1
  S  S26  1  0.22576477  0.01088149  0.46303969  1
  S  S27  1  0.54452359  0.25000000  0.85734129  1
  S  S28  1  0.22576477  0.48911851  0.46303969  1
  S  S29  1  0.77423523  0.51088149  0.53696031  1
  S  S30  1  0.95547641  0.75000000  0.35734129  1
  S  S31  1  0.40536848  0.25000000  0.12333744  1
  S  S32  1  0.27423523  0.98911851  0.96303969  1
  S  S33  1  0.77423523  0.98911851  0.53696031  1
  S  S34  1  0.09463152  0.75000000  0.62333744  1
  S  S35  1  0.27423523  0.51088149  0.96303969  1
