# generated using pymatgen
data_Li9Mn2Co5O16
_symmetry_space_group_name_H-M   'P 1'
_cell_length_a   5.01494570
_cell_length_b   9.81949209
_cell_length_c   5.96337077
_cell_angle_alpha   86.10398495
_cell_angle_beta   93.81885351
_cell_angle_gamma   101.10877157
_symmetry_Int_Tables_number   1
_chemical_formula_structural   Li9Mn2Co5O16
_chemical_formula_sum   'Li9 Mn2 Co5 O16'
_cell_volume   287.06354196
_cell_formula_units_Z   1
loop_
 _symmetry_equiv_pos_site_id
 _symmetry_equiv_pos_as_xyz
  1  'x, y, z'
loop_
 _atom_site_type_symbol
 _atom_site_label
 _atom_site_symmetry_multiplicity
 _atom_site_fract_x
 _atom_site_fract_y
 _atom_site_fract_z
 _atom_site_occupancy
  Li  Li0  1  0.74934774  0.25160417  0.99459014  1
  Li  Li1  1  0.75761916  0.74401293  0.24794180  1
  Li  Li2  1  0.75751443  0.25674474  0.49723684  1
  Li  Li3  1  0.24036502  0.25648229  0.25814371  1
  Li  Li4  1  0.25190936  0.74488765  0.49255732  1
  Li  Li5  1  0.25659738  0.25263736  0.75129158  1
  Li  Li6  1  0.74768598  0.74691090  0.74562523  1
  Li  Li7  1  0.24467389  0.74466207  0.01257859  1
  Li  Li8  1  0.00081366  0.50165086  0.25204932  1
  Mn  Mn9  1  0.99926799  0.99852303  0.99611555  1
  Mn  Mn10  1  0.50085718  0.00132766  0.25344611  1
  Co  Co11  1  0.00135091  0.00142895  0.50298079  1
  Co  Co12  1  0.99686729  0.49943677  0.74811611  1
  Co  Co13  1  0.48854114  0.49737660  0.49406908  1
  Co  Co14  1  0.49906143  0.99827562  0.74742875  1
  Co  Co15  1  0.50647294  0.50382060  0.00387164  1
  O  O16  1  0.85906036  0.11522036  0.75851635  1
  O  O17  1  0.85421942  0.61254926  0.99041852  1
  O  O18  1  0.86475966  0.12023894  0.26703983  1
  O  O19  1  0.36380520  0.11831580  0.01235695  1
  O  O20  1  0.39024794  0.62058176  0.27473075  1
  O  O21  1  0.35970291  0.11359408  0.51847740  1
  O  O22  1  0.86426193  0.60666304  0.52392946  1
  O  O23  1  0.37784763  0.60184989  0.73661234  1
  O  O24  1  0.59456633  0.39638145  0.25935616  1
  O  O25  1  0.64448245  0.88643517  0.49266697  1
  O  O26  1  0.63664636  0.38147583  0.73078439  1
  O  O27  1  0.15250896  0.38595921  0.50631922  1
  O  O28  1  0.14112531  0.88320085  0.73143551  1
  O  O29  1  0.13008615  0.39348897  0.97942128  1
  O  O30  1  0.63214150  0.88249693  0.98183889  1
  O  O31  1  0.13559236  0.88176630  0.23805342  1
