# generated using pymatgen
data_MoPb5O8
_symmetry_space_group_name_H-M   'P 1'
_cell_length_a   12.01436156
_cell_length_b   12.11645039
_cell_length_c   15.91856259
_cell_angle_alpha   90.00000000
_cell_angle_beta   90.52013920
_cell_angle_gamma   90.00000000
_symmetry_Int_Tables_number   1
_chemical_formula_structural   MoPb5O8
_chemical_formula_sum   'Mo8 Pb40 O64'
_cell_volume   2317.19220899
_cell_formula_units_Z   8
loop_
 _symmetry_equiv_pos_site_id
 _symmetry_equiv_pos_as_xyz
  1  'x, y, z'
loop_
 _atom_site_type_symbol
 _atom_site_label
 _atom_site_symmetry_multiplicity
 _atom_site_fract_x
 _atom_site_fract_y
 _atom_site_fract_z
 _atom_site_occupancy
  Mo  Mo0  1  0.65111279  0.90922979  0.43949699  1
  Mo  Mo1  1  0.34888721  0.09077021  0.56050301  1
  Mo  Mo2  1  0.38036866  0.09851892  0.06033948  1
  Mo  Mo3  1  0.15111279  0.59077021  0.93949699  1
  Mo  Mo4  1  0.88036866  0.40148108  0.56033948  1
  Mo  Mo5  1  0.61963134  0.90148108  0.93966052  1
  Mo  Mo6  1  0.84888721  0.40922979  0.06050301  1
  Mo  Mo7  1  0.11963134  0.59851892  0.43966052  1
  Pb  Pb8  1  0.61148996  0.25558006  0.20512536  1
  Pb  Pb9  1  0.36460072  0.07823547  0.30414021  1
  Pb  Pb10  1  0.38467113  0.74720973  0.07885788  1
  Pb  Pb11  1  0.09895678  0.25293017  0.92505507  1
  Pb  Pb12  1  0.11054217  0.93700125  0.93473946  1
  Pb  Pb13  1  0.86460072  0.42176453  0.80414021  1
  Pb  Pb14  1  0.90188987  0.07766097  0.56097242  1
  Pb  Pb15  1  0.86592370  0.41677703  0.31715845  1
  Pb  Pb16  1  0.40188987  0.42233903  0.06097242  1
  Pb  Pb17  1  0.89504158  0.76098923  0.80271728  1
  Pb  Pb18  1  0.40104322  0.75293017  0.57494493  1
  Pb  Pb19  1  0.61054217  0.56299875  0.43473946  1
  Pb  Pb20  1  0.88945783  0.06299875  0.06526054  1
  Pb  Pb21  1  0.60501976  0.58219989  0.18692964  1
  Pb  Pb22  1  0.10495842  0.23901077  0.19728272  1
  Pb  Pb23  1  0.88467113  0.75279027  0.57885788  1
  Pb  Pb24  1  0.10501976  0.91780011  0.68692964  1
  Pb  Pb25  1  0.59811013  0.57766097  0.93902758  1
  Pb  Pb26  1  0.10692891  0.91453837  0.18993987  1
  Pb  Pb27  1  0.60692891  0.58546163  0.68993987  1
  Pb  Pb28  1  0.59895678  0.24706983  0.42505507  1
  Pb  Pb29  1  0.88851004  0.75558006  0.29487464  1
  Pb  Pb30  1  0.61532887  0.25279027  0.92114212  1
  Pb  Pb31  1  0.13407630  0.58322297  0.68284155  1
  Pb  Pb32  1  0.63539928  0.92176453  0.69585979  1
  Pb  Pb33  1  0.38945783  0.43700125  0.56526054  1
  Pb  Pb34  1  0.36592370  0.08322297  0.81715845  1
  Pb  Pb35  1  0.09811013  0.92233903  0.43902758  1
  Pb  Pb36  1  0.38851004  0.74441994  0.79487464  1
  Pb  Pb37  1  0.89307109  0.08546163  0.81006013  1
  Pb  Pb38  1  0.13539928  0.57823547  0.19585979  1
  Pb  Pb39  1  0.39498024  0.41780011  0.81307036  1
  Pb  Pb40  1  0.89498024  0.08219989  0.31307036  1
  Pb  Pb41  1  0.11148996  0.24441994  0.70512536  1
  Pb  Pb42  1  0.11532887  0.24720973  0.42114212  1
  Pb  Pb43  1  0.63407630  0.91677703  0.18284155  1
  Pb  Pb44  1  0.90104322  0.74706983  0.07494493  1
  Pb  Pb45  1  0.60495842  0.26098923  0.69728272  1
  Pb  Pb46  1  0.39307109  0.41453837  0.31006013  1
  Pb  Pb47  1  0.39504158  0.73901077  0.30271728  1
  O  O48  1  0.11734715  0.54224855  0.04424874  1
  O  O49  1  0.11037477  0.49782776  0.85669428  1
  O  O50  1  0.19977809  0.17436839  0.81799880  1
  O  O51  1  0.70021232  0.39615057  0.06541056  1
  O  O52  1  0.29511994  0.66979644  0.19063404  1
  O  O53  1  0.00414774  0.08097389  0.18485524  1
  O  O54  1  0.47600510  0.21273365  0.05213705  1
  O  O55  1  0.95052705  0.52675573  0.58952897  1
  O  O56  1  0.50404887  0.40885095  0.18812247  1
  O  O57  1  0.47989324  0.23340200  0.81187900  1
  O  O58  1  0.99585226  0.91902611  0.81514476  1
  O  O59  1  0.04947295  0.47324427  0.41047103  1
  O  O60  1  0.29978768  0.60384943  0.93458944  1
  O  O61  1  0.70488006  0.33020356  0.80936596  1
  O  O62  1  0.97703472  0.27065456  0.81274960  1
  O  O63  1  0.79511994  0.83020356  0.69063404  1
  O  O64  1  0.79978768  0.89615057  0.43458944  1
  O  O65  1  0.99495970  0.91139318  0.56360610  1
  O  O66  1  0.99595113  0.90885095  0.31187753  1
  O  O67  1  0.21480037  0.63153050  0.35751775  1
  O  O68  1  0.38962523  0.99782776  0.64330572  1
  O  O69  1  0.52010676  0.76659800  0.18812100  1
  O  O70  1  0.88265285  0.45775145  0.95575126  1
  O  O71  1  0.20021232  0.10384943  0.56541056  1
  O  O72  1  0.61037477  0.00217224  0.35669428  1
  O  O73  1  0.30043955  0.08335773  0.96397612  1
  O  O74  1  0.47703472  0.22934544  0.31274960  1
  O  O75  1  0.52399490  0.78726635  0.94786295  1
  O  O76  1  0.91109200  0.27573005  0.07946598  1
  O  O77  1  0.00404887  0.09114905  0.68812247  1
  O  O78  1  0.49495970  0.58860682  0.06360610  1
  O  O79  1  0.69977809  0.32563161  0.31799880  1
  O  O80  1  0.80022191  0.82563161  0.18200120  1
  O  O81  1  0.50504030  0.41139318  0.93639390  1
  O  O82  1  0.88962523  0.50217224  0.14330572  1
  O  O83  1  0.19956045  0.58335773  0.53602388  1
  O  O84  1  0.50530748  0.59485223  0.55765608  1
  O  O85  1  0.00504030  0.08860682  0.43639390  1
  O  O86  1  0.50414774  0.41902611  0.68485524  1
  O  O87  1  0.00530748  0.90514777  0.05765608  1
  O  O88  1  0.38265285  0.04224855  0.45575126  1
  O  O89  1  0.28519963  0.13153050  0.14248225  1
  O  O90  1  0.02296528  0.72934544  0.18725040  1
  O  O91  1  0.49585226  0.58097389  0.31514476  1
  O  O92  1  0.02010676  0.73340200  0.68812100  1
  O  O93  1  0.08890800  0.72426995  0.92053402  1
  O  O94  1  0.45052705  0.97324427  0.08952897  1
  O  O95  1  0.80043955  0.41664227  0.46397612  1
  O  O96  1  0.02399490  0.71273365  0.44786295  1
  O  O97  1  0.54947295  0.02675573  0.91047103  1
  O  O98  1  0.78519963  0.36846950  0.64248225  1
  O  O99  1  0.49469252  0.40514777  0.44234392  1
  O  O100  1  0.97600510  0.28726635  0.55213705  1
  O  O101  1  0.99469252  0.09485223  0.94234392  1
  O  O102  1  0.30022191  0.67436839  0.68200120  1
  O  O103  1  0.58890800  0.77573005  0.42053402  1
  O  O104  1  0.61734715  0.95775145  0.54424874  1
  O  O105  1  0.52296528  0.77065456  0.68725040  1
  O  O106  1  0.41109200  0.22426995  0.57946598  1
  O  O107  1  0.71480037  0.86846950  0.85751775  1
  O  O108  1  0.69956045  0.91664227  0.03602388  1
  O  O109  1  0.20488006  0.16979644  0.30936596  1
  O  O110  1  0.49595113  0.59114905  0.81187753  1
  O  O111  1  0.97989324  0.26659800  0.31187900  1
