# generated using pymatgen
data_Rb3NiF7
_symmetry_space_group_name_H-M   'P 1'
_cell_length_a   5.94153822
_cell_length_b   8.11963822
_cell_length_c   8.11963822
_cell_angle_alpha   90.00000000
_cell_angle_beta   90.00000000
_cell_angle_gamma   90.00000000
_symmetry_Int_Tables_number   1
_chemical_formula_structural   Rb3NiF7
_chemical_formula_sum   'Rb6 Ni2 F14'
_cell_volume   391.71685003
_cell_formula_units_Z   2
loop_
 _symmetry_equiv_pos_site_id
 _symmetry_equiv_pos_as_xyz
  1  'x, y, z'
loop_
 _atom_site_type_symbol
 _atom_site_label
 _atom_site_symmetry_multiplicity
 _atom_site_fract_x
 _atom_site_fract_y
 _atom_site_fract_z
 _atom_site_occupancy
  F  F0  1  0.78314615  0.89003671  0.39003671  1
  F  F1  1  0.78314615  0.10996329  0.60996329  1
  F  F2  1  0.78314615  0.39003671  0.10996329  1
  F  F3  1  0.78314615  0.60996329  0.89003671  1
  F  F4  1  0.21685385  0.89003671  0.39003671  1
  F  F5  1  0.21685385  0.60996329  0.89003671  1
  F  F6  1  0.21685385  0.39003671  0.10996329  1
  F  F7  1  0.21685385  0.10996329  0.60996329  1
  F  F8  1  0.50000000  0.00000000  0.00000000  1
  F  F9  1  0.50000000  0.50000000  0.50000000  1
  F  F10  1  0.00000000  0.34301317  0.84301317  1
  F  F11  1  0.00000000  0.15698683  0.34301317  1
  F  F12  1  0.00000000  0.84301317  0.65698683  1
  F  F13  1  0.00000000  0.65698683  0.15698683  1
  Ni  Ni14  1  0.00000000  0.50000000  0.00000000  1
  Ni  Ni15  1  0.00000000  0.00000000  0.50000000  1
  Rb  Rb16  1  0.50000000  0.69049948  0.19049948  1
  Rb  Rb17  1  0.50000000  0.80950052  0.69049948  1
  Rb  Rb18  1  0.50000000  0.19049948  0.30950052  1
  Rb  Rb19  1  0.50000000  0.30950052  0.80950052  1
  Rb  Rb20  1  0.00000000  0.50000000  0.50000000  1
  Rb  Rb21  1  0.00000000  0.00000000  0.00000000  1
