# generated using pymatgen
data_BaCu2(PO4)2
_symmetry_space_group_name_H-M   'P 1'
_cell_length_a   9.35421983
_cell_length_b   9.38852568
_cell_length_c   10.70157753
_cell_angle_alpha   106.92935908
_cell_angle_beta   101.71213653
_cell_angle_gamma   115.37064453
_symmetry_Int_Tables_number   1
_chemical_formula_structural   BaCu2(PO4)2
_chemical_formula_sum   'Ba4 Cu8 P8 O32'
_cell_volume   751.72736976
_cell_formula_units_Z   4
loop_
 _symmetry_equiv_pos_site_id
 _symmetry_equiv_pos_as_xyz
  1  'x, y, z'
loop_
 _atom_site_type_symbol
 _atom_site_label
 _atom_site_symmetry_multiplicity
 _atom_site_fract_x
 _atom_site_fract_y
 _atom_site_fract_z
 _atom_site_occupancy
  Ba  Ba0  1  0.75928394  0.75636194  0.00250900  1
  Ba  Ba1  1  0.24071606  0.24363806  0.99749100  1
  Ba  Ba2  1  0.73598547  0.75117907  0.51362537  1
  Ba  Ba3  1  0.26401453  0.24882093  0.48637463  1
  Cu  Cu4  1  0.09920352  0.76324344  0.29288089  1
  Cu  Cu5  1  0.02976992  0.68702221  0.80108106  1
  Cu  Cu6  1  0.36317959  0.70878076  0.68888337  1
  Cu  Cu7  1  0.48425505  0.83226289  0.19592228  1
  Cu  Cu8  1  0.90079648  0.23675656  0.70711911  1
  Cu  Cu9  1  0.97023008  0.31297779  0.19891894  1
  Cu  Cu10  1  0.51574495  0.16773711  0.80407772  1
  Cu  Cu11  1  0.63682041  0.29121924  0.31111663  1
  P  P12  1  0.21301091  0.94375667  0.13468428  1
  P  P13  1  0.28872631  0.57004689  0.86725206  1
  P  P14  1  0.19519985  0.91977678  0.62840249  1
  P  P15  1  0.29706757  0.57669974  0.35951313  1
  P  P16  1  0.80480015  0.08022322  0.37159751  1
  P  P17  1  0.70293243  0.42330026  0.64048687  1
  P  P18  1  0.71127369  0.42995311  0.13274794  1
  P  P19  1  0.78698909  0.05624333  0.86531572  1
  O  O20  1  0.27292030  0.10949124  0.74328936  1
  O  O21  1  0.63782161  0.87230240  0.81812738  1
  O  O22  1  0.86521868  0.40611084  0.65799048  1
  O  O23  1  0.26200782  0.80862021  0.14929695  1
  O  O24  1  0.74703392  0.28927570  0.16165320  1
  O  O25  1  0.64204188  0.09883670  0.34293796  1
  O  O26  1  0.35795812  0.90116330  0.65706204  1
  O  O27  1  0.89661961  0.05542160  0.77066369  1
  O  O28  1  0.10338039  0.94457840  0.22933631  1
  O  O29  1  0.73799218  0.19137979  0.85070305  1
  O  O30  1  0.90864860  0.11878252  0.01888056  1
  O  O31  1  0.78430323  0.61838688  0.74764278  1
  O  O32  1  0.13478132  0.59388916  0.34200952  1
  O  O33  1  0.04377194  0.78134974  0.64149160  1
  O  O34  1  0.09135140  0.88121748  0.98111944  1
  O  O35  1  0.86224475  0.07834131  0.51715146  1
  O  O36  1  0.62399451  0.41003920  0.49103790  1
  O  O37  1  0.21569677  0.38161312  0.25235722  1
  O  O38  1  0.55970962  0.29565606  0.66782705  1
  O  O39  1  0.44029038  0.70434394  0.33217295  1
  O  O40  1  0.95622806  0.21865026  0.35850840  1
  O  O41  1  0.13775525  0.92165869  0.48284854  1
  O  O42  1  0.35009647  0.51705432  0.74528535  1
  O  O43  1  0.37600549  0.58996080  0.50896210  1
  O  O44  1  0.25296608  0.71072430  0.83834680  1
  O  O45  1  0.86692282  0.58134722  0.13464436  1
  O  O46  1  0.64990353  0.48294568  0.25471465  1
  O  O47  1  0.13307718  0.41865278  0.86535564  1
  O  O48  1  0.56239408  0.34773202  0.98998812  1
  O  O49  1  0.72707970  0.89050876  0.25671064  1
  O  O50  1  0.43760592  0.65226798  0.01001188  1
  O  O51  1  0.36217839  0.12769760  0.18187262  1
