# generated using pymatgen
data_Mn(GaTe2)2
_symmetry_space_group_name_H-M   'P 1'
_cell_length_a   4.26051630
_cell_length_b   7.07272766
_cell_length_c   27.80089810
_cell_angle_alpha   90.00000000
_cell_angle_beta   90.00000000
_cell_angle_gamma   90.00000000
_symmetry_Int_Tables_number   1
_chemical_formula_structural   Mn(GaTe2)2
_chemical_formula_sum   'Mn4 Ga8 Te16'
_cell_volume   837.73757004
_cell_formula_units_Z   4
loop_
 _symmetry_equiv_pos_site_id
 _symmetry_equiv_pos_as_xyz
  1  'x, y, z'
loop_
 _atom_site_type_symbol
 _atom_site_label
 _atom_site_symmetry_multiplicity
 _atom_site_fract_x
 _atom_site_fract_y
 _atom_site_fract_z
 _atom_site_occupancy
  Mn  Mn0  1  0.25000000  0.35220375  0.30951659  1
  Mn  Mn1  1  0.75000000  0.85220375  0.19048341  1
  Mn  Mn2  1  0.75000000  0.64779625  0.69048341  1
  Mn  Mn3  1  0.25000000  0.14779625  0.80951659  1
  Ga  Ga4  1  0.75000000  0.95414860  0.34998099  1
  Ga  Ga5  1  0.25000000  0.07401064  0.04700148  1
  Ga  Ga6  1  0.25000000  0.45414860  0.15001901  1
  Ga  Ga7  1  0.25000000  0.04585140  0.65001901  1
  Ga  Ga8  1  0.25000000  0.42598936  0.54700148  1
  Ga  Ga9  1  0.75000000  0.57401064  0.45299852  1
  Ga  Ga10  1  0.75000000  0.54585140  0.84998099  1
  Ga  Ga11  1  0.75000000  0.92598936  0.95299852  1
  Te  Te12  1  0.75000000  0.61193644  0.10656015  1
  Te  Te13  1  0.25000000  0.42404901  0.64322892  1
  Te  Te14  1  0.75000000  0.36426268  0.76640516  1
  Te  Te15  1  0.75000000  0.24914603  0.00558933  1
  Te  Te16  1  0.75000000  0.57595099  0.35677108  1
  Te  Te17  1  0.75000000  0.92404901  0.85677108  1
  Te  Te18  1  0.75000000  0.13573732  0.26640516  1
  Te  Te19  1  0.25000000  0.11193644  0.39343985  1
  Te  Te20  1  0.25000000  0.38806356  0.89343985  1
  Te  Te21  1  0.25000000  0.86426268  0.73359484  1
  Te  Te22  1  0.25000000  0.74914603  0.49441067  1
  Te  Te23  1  0.25000000  0.63573732  0.23359484  1
  Te  Te24  1  0.25000000  0.75085397  0.99441067  1
  Te  Te25  1  0.25000000  0.07595099  0.14322892  1
  Te  Te26  1  0.75000000  0.25085397  0.50558933  1
  Te  Te27  1  0.75000000  0.88806356  0.60656015  1
