# generated using pymatgen
data_UCo5Sn
_symmetry_space_group_name_H-M   'P 1'
_cell_length_a   4.79833045
_cell_length_b   10.28124605
_cell_length_c   15.98305127
_cell_angle_alpha   90.00000000
_cell_angle_beta   90.00000000
_cell_angle_gamma   90.00000000
_symmetry_Int_Tables_number   1
_chemical_formula_structural   UCo5Sn
_chemical_formula_sum   'U8 Co40 Sn8'
_cell_volume   788.48892719
_cell_formula_units_Z   8
loop_
 _symmetry_equiv_pos_site_id
 _symmetry_equiv_pos_as_xyz
  1  'x, y, z'
loop_
 _atom_site_type_symbol
 _atom_site_label
 _atom_site_symmetry_multiplicity
 _atom_site_fract_x
 _atom_site_fract_y
 _atom_site_fract_z
 _atom_site_occupancy
  U  U0  1  0.00000000  0.61147095  0.24394794  1
  U  U1  1  0.00000000  0.00000000  0.50000000  1
  U  U2  1  0.50000000  0.11147095  0.25605206  1
  U  U3  1  0.00000000  0.38852905  0.75605206  1
  U  U4  1  0.50000000  0.88852905  0.74394794  1
  U  U5  1  0.50000000  0.50000000  0.50000000  1
  U  U6  1  0.00000000  0.00000000  0.00000000  1
  U  U7  1  0.50000000  0.50000000  0.00000000  1
  Co  Co8  1  0.74738510  0.63343813  0.84024027  1
  Co  Co9  1  0.50000000  0.57490282  0.17129154  1
  Co  Co10  1  0.75261490  0.13343813  0.65975973  1
  Co  Co11  1  0.25073890  0.74313628  0.09119938  1
  Co  Co12  1  0.50000000  0.34608189  0.65279356  1
  Co  Co13  1  0.00000000  0.69999830  0.71888932  1
  Co  Co14  1  0.00000000  0.84608189  0.84720644  1
  Co  Co15  1  0.24738510  0.13343813  0.65975973  1
  Co  Co16  1  0.50000000  0.80000170  0.21888932  1
  Co  Co17  1  0.00000000  0.54290685  0.59765683  1
  Co  Co18  1  0.50000000  0.18902119  0.53532736  1
  Co  Co19  1  0.24926110  0.75686372  0.59119938  1
  Co  Co20  1  0.75073890  0.75686372  0.59119938  1
  Co  Co21  1  0.50000000  0.42509718  0.82870846  1
  Co  Co22  1  0.00000000  0.92509718  0.67129154  1
  Co  Co23  1  0.25261490  0.36656187  0.15975973  1
  Co  Co24  1  0.50000000  0.81097881  0.46467264  1
  Co  Co25  1  0.74926110  0.25686372  0.90880062  1
  Co  Co26  1  0.50000000  0.04290685  0.90234317  1
  Co  Co27  1  0.00000000  0.07490282  0.32870846  1
  Co  Co28  1  0.00000000  0.46396341  0.91773691  1
  Co  Co29  1  0.50000000  0.95709315  0.09765683  1
  Co  Co30  1  0.00000000  0.31097881  0.03532736  1
  Co  Co31  1  0.75073890  0.24313628  0.40880062  1
  Co  Co32  1  0.50000000  0.65391811  0.34720644  1
  Co  Co33  1  0.00000000  0.30000170  0.28111068  1
  Co  Co34  1  0.00000000  0.15391811  0.15279356  1
  Co  Co35  1  0.00000000  0.45709315  0.40234317  1
  Co  Co36  1  0.50000000  0.19999830  0.78111068  1
  Co  Co37  1  0.00000000  0.53603659  0.08226309  1
  Co  Co38  1  0.24926110  0.24313628  0.40880062  1
  Co  Co39  1  0.25261490  0.63343813  0.84024027  1
  Co  Co40  1  0.24738510  0.86656187  0.34024027  1
  Co  Co41  1  0.25073890  0.25686372  0.90880062  1
  Co  Co42  1  0.74926110  0.74313628  0.09119938  1
  Co  Co43  1  0.50000000  0.96396341  0.58226309  1
  Co  Co44  1  0.75261490  0.86656187  0.34024027  1
  Co  Co45  1  0.00000000  0.68902119  0.96467264  1
  Co  Co46  1  0.50000000  0.03603659  0.41773691  1
  Co  Co47  1  0.74738510  0.36656187  0.15975973  1
  Sn  Sn48  1  0.50000000  0.58689084  0.69235726  1
  Sn  Sn49  1  0.00000000  0.69697315  0.44485607  1
  Sn  Sn50  1  0.50000000  0.80302685  0.94485607  1
  Sn  Sn51  1  0.50000000  0.19697315  0.05514393  1
  Sn  Sn52  1  0.50000000  0.41310916  0.30764274  1
  Sn  Sn53  1  0.00000000  0.30302685  0.55514393  1
  Sn  Sn54  1  0.00000000  0.08689084  0.80764274  1
  Sn  Sn55  1  0.00000000  0.91310916  0.19235726  1
