# generated using pymatgen
data_V2Cu(PO5)2
_symmetry_space_group_name_H-M   'P 1'
_cell_length_a   7.45731273
_cell_length_b   12.77864096
_cell_length_c   14.73296913
_cell_angle_alpha   90.00000000
_cell_angle_beta   90.00000000
_cell_angle_gamma   90.00000000
_symmetry_Int_Tables_number   1
_chemical_formula_structural   V2Cu(PO5)2
_chemical_formula_sum   'V16 Cu8 P16 O80'
_cell_volume   1403.96830286
_cell_formula_units_Z   8
loop_
 _symmetry_equiv_pos_site_id
 _symmetry_equiv_pos_as_xyz
  1  'x, y, z'
loop_
 _atom_site_type_symbol
 _atom_site_label
 _atom_site_symmetry_multiplicity
 _atom_site_fract_x
 _atom_site_fract_y
 _atom_site_fract_z
 _atom_site_occupancy
  V  V0  1  0.71464589  0.25368206  0.48783495  1
  V  V1  1  0.52768524  0.98146092  0.73622561  1
  V  V2  1  0.28535411  0.75368206  0.01216505  1
  V  V3  1  0.97231476  0.01853908  0.23622561  1
  V  V4  1  0.02768524  0.51853908  0.26377439  1
  V  V5  1  0.97231476  0.48146092  0.73622561  1
  V  V6  1  0.78535411  0.75368206  0.48783495  1
  V  V7  1  0.47231476  0.01853908  0.26377439  1
  V  V8  1  0.52768524  0.51853908  0.23622561  1
  V  V9  1  0.71464589  0.24631794  0.98783495  1
  V  V10  1  0.47231476  0.48146092  0.76377439  1
  V  V11  1  0.02768524  0.98146092  0.76377439  1
  V  V12  1  0.78535411  0.74631794  0.98783495  1
  V  V13  1  0.21464589  0.25368206  0.01216505  1
  V  V14  1  0.21464589  0.24631794  0.51216505  1
  V  V15  1  0.28535411  0.74631794  0.51216505  1
  Cu  Cu16  1  0.87480576  0.11897898  0.62724744  1
  Cu  Cu17  1  0.62519424  0.88102102  0.12724744  1
  Cu  Cu18  1  0.87480576  0.38102102  0.12724744  1
  Cu  Cu19  1  0.37480576  0.11897898  0.87275256  1
  Cu  Cu20  1  0.37480576  0.38102102  0.37275256  1
  Cu  Cu21  1  0.12519424  0.88102102  0.37275256  1
  Cu  Cu22  1  0.12519424  0.61897898  0.87275256  1
  Cu  Cu23  1  0.62519424  0.61897898  0.62724744  1
  P  P24  1  0.73625247  0.50199686  0.43611383  1
  P  P25  1  0.26374753  0.00199686  0.06388617  1
  P  P26  1  -0.00007351  0.73906404  0.68689669  1
  P  P27  1  0.49992649  0.73906404  0.81310331  1
  P  P28  1  0.50007351  0.23906404  0.68689669  1
  P  P29  1  0.49992649  0.76093596  0.31310331  1
  P  P30  1  0.23625247  0.50199686  0.06388617  1
  P  P31  1  0.26374753  0.49800314  0.56388617  1
  P  P32  1  0.00007351  0.26093596  0.31310331  1
  P  P33  1  0.73625247  0.99800314  0.93611383  1
  P  P34  1  0.23625247  0.99800314  0.56388617  1
  P  P35  1  0.00007351  0.23906404  0.81310331  1
  P  P36  1  0.76374753  0.49800314  0.93611383  1
  P  P37  1  -0.00007351  0.76093596  0.18689669  1
  P  P38  1  0.76374753  0.00199686  0.43611383  1
  P  P39  1  0.50007351  0.26093596  0.18689669  1
  O  O40  1  0.25394668  0.48930214  0.79360930  1
  O  O41  1  0.43084815  0.49996293  0.62837395  1
  O  O42  1  0.26770381  0.90508539  0.00278699  1
  O  O43  1  0.33061662  0.76912286  0.37470038  1
  O  O44  1  0.50409144  0.75387027  0.54266621  1
  O  O45  1  0.93084815  0.49996293  0.87162605  1
  O  O46  1  0.00409144  0.75387027  0.95733379  1
  O  O47  1  0.49590856  0.24612973  0.45733379  1
  O  O48  1  0.33061662  0.73087714  0.87470038  1
  O  O49  1  0.27612331  0.09835639  0.99929016  1
  O  O50  1  0.48825508  0.83296447  0.74835923  1
  O  O51  1  0.50409144  0.74612973  0.04266621  1
  O  O52  1  0.48825508  0.66703553  0.24835923  1
  O  O53  1  0.16982300  0.74517041  0.62845063  1
  O  O54  1  0.98825508  0.66703553  0.25164077  1
  O  O55  1  0.50915010  0.86001372  0.25110556  1
  O  O56  1  0.74605332  0.51069786  0.20639070  1
  O  O57  1  0.98825508  0.83296447  0.75164077  1
  O  O58  1  0.76770381  0.59491461  0.99721301  1
  O  O59  1  0.33017700  0.25482959  0.12845063  1
  O  O60  1  0.23229619  0.40508539  0.00278699  1
  O  O61  1  0.23229619  0.09491461  0.50278699  1
  O  O62  1  0.22387669  0.90164361  0.49929016  1
  O  O63  1  0.59094806  0.48766767  0.88026642  1
  O  O64  1  0.50915010  0.63998628  0.75110556  1
  O  O65  1  0.74605332  0.98930214  0.70639070  1
  O  O66  1  0.56915185  0.99996293  0.87162605  1
  O  O67  1  0.00915010  0.86001372  0.24889444  1
  O  O68  1  0.66982300  0.75482959  0.37154937  1
  O  O69  1  0.56915185  0.50003707  0.37162605  1
  O  O70  1  0.59094806  0.01233233  0.38026642  1
  O  O71  1  0.49084990  0.13998628  0.74889444  1
  O  O72  1  0.16938338  0.26912286  0.37470038  1
  O  O73  1  0.00409144  0.74612973  0.45733379  1
  O  O74  1  0.99084990  0.13998628  0.75110556  1
  O  O75  1  0.76770381  0.90508539  0.49721301  1
  O  O76  1  0.90905194  0.98766767  0.88026642  1
  O  O77  1  0.77612331  0.40164361  0.00070984  1
  O  O78  1  0.73229619  0.40508539  0.49721301  1
  O  O79  1  0.33017700  0.24517041  0.62845063  1
  O  O80  1  0.06915185  0.99996293  0.62837395  1
  O  O81  1  0.73229619  0.09491461  0.99721301  1
  O  O82  1  0.24605332  0.51069786  0.29360930  1
  O  O83  1  0.16938338  0.23087714  0.87470038  1
  O  O84  1  0.06915185  0.50003707  0.12837395  1
  O  O85  1  0.83017700  0.25482959  0.37154937  1
  O  O86  1  0.99590856  0.24612973  0.04266621  1
  O  O87  1  0.43084815  0.00003707  0.12837395  1
  O  O88  1  0.83061662  0.76912286  0.12529962  1
  O  O89  1  0.00915010  0.63998628  0.74889444  1
  O  O90  1  0.40905194  0.98766767  0.61973358  1
  O  O91  1  0.75394668  0.48930214  0.70639070  1
  O  O92  1  0.24605332  0.98930214  0.79360930  1
  O  O93  1  0.26770381  0.59491461  0.50278699  1
  O  O94  1  0.66938338  0.26912286  0.12529962  1
  O  O95  1  0.01174492  0.16703553  0.24835923  1
  O  O96  1  0.51174492  0.16703553  0.25164077  1
  O  O97  1  0.99084990  0.36001372  0.25110556  1
  O  O98  1  0.83061662  0.73087714  0.62529962  1
  O  O99  1  0.99590856  0.25387027  0.54266621  1
  O  O100  1  0.66982300  0.74517041  0.87154937  1
  O  O101  1  0.75394668  0.01069786  0.20639070  1
  O  O102  1  0.40905194  0.51233233  0.11973358  1
  O  O103  1  0.49590856  0.25387027  0.95733379  1
  O  O104  1  0.51174492  0.33296447  0.75164077  1
  O  O105  1  0.66938338  0.23087714  0.62529962  1
  O  O106  1  0.09094806  0.48766767  0.61973358  1
  O  O107  1  0.01174492  0.33296447  0.74835923  1
  O  O108  1  0.22387669  0.59835639  0.99929016  1
  O  O109  1  0.93084815  0.00003707  0.37162605  1
  O  O110  1  0.72387669  0.59835639  0.50070984  1
  O  O111  1  0.83017700  0.24517041  0.87154937  1
  O  O112  1  0.72387669  0.90164361  0.00070984  1
  O  O113  1  0.90905194  0.51233233  0.38026642  1
  O  O114  1  0.27612331  0.40164361  0.49929016  1
  O  O115  1  0.09094806  0.01233233  0.11973358  1
  O  O116  1  0.16982300  0.75482959  0.12845063  1
  O  O117  1  0.49084990  0.36001372  0.24889444  1
  O  O118  1  0.77612331  0.09835639  0.50070984  1
  O  O119  1  0.25394668  0.01069786  0.29360930  1
