# generated using pymatgen
data_AlPO4
_symmetry_space_group_name_H-M   'P 1'
_cell_length_a   8.73578501
_cell_length_b   8.98373485
_cell_length_c   9.73446525
_cell_angle_alpha   90.00000000
_cell_angle_beta   90.00000000
_cell_angle_gamma   118.98886503
_symmetry_Int_Tables_number   1
_chemical_formula_structural   AlPO4
_chemical_formula_sum   'Al6 P6 O24'
_cell_volume   668.24696395
_cell_formula_units_Z   6
loop_
 _symmetry_equiv_pos_site_id
 _symmetry_equiv_pos_as_xyz
  1  'x, y, z'
loop_
 _atom_site_type_symbol
 _atom_site_label
 _atom_site_symmetry_multiplicity
 _atom_site_fract_x
 _atom_site_fract_y
 _atom_site_fract_z
 _atom_site_occupancy
  Al  Al0  1  0.21685686  0.80838435  0.34813851  1
  Al  Al1  1  0.06414107  0.50000429  0.84342546  1
  Al  Al2  1  0.40824571  0.19147445  0.65161235  1
  Al  Al3  1  0.71685686  0.80838435  0.65186149  1
  Al  Al4  1  0.56414107  0.50000429  0.15657454  1
  Al  Al5  1  0.90824571  0.19147445  0.34838765  1
  P  P6  1  0.09219077  0.80911922  0.65547226  1
  P  P7  1  0.43708443  0.49998695  0.84209308  1
  P  P8  1  0.28296312  0.19100805  0.34415856  1
  P  P9  1  0.59219077  0.80911922  0.34452774  1
  P  P10  1  0.93708443  0.49998695  0.15790692  1
  P  P11  1  0.78296312  0.19100805  0.65584144  1
  O  O12  1  0.00237754  0.49998861  0.01264312  1
  O  O13  1  0.09068523  0.68465228  0.76340305  1
  O  O14  1  0.07229188  0.66027172  0.23232015  1
  O  O15  1  0.12239137  0.75369883  0.51249569  1
  O  O16  1  0.10831452  0.19279389  0.34345365  1
  O  O17  1  0.26266445  0.50028335  0.84722976  1
  O  O18  1  0.41582527  0.80746850  0.34367576  1
  O  O19  1  0.24987102  0.01148744  0.30654565  1
  O  O20  1  0.23840654  0.98850432  0.69276550  1
  O  O21  1  0.36841684  0.24609303  0.48713675  1
  O  O22  1  0.40576831  0.31559577  0.23640110  1
  O  O23  1  0.41150507  0.33918493  0.76790765  1
  O  O24  1  0.50237754  0.49998861  0.98735688  1
  O  O25  1  0.59068523  0.68465228  0.23659695  1
  O  O26  1  0.57229188  0.66027172  0.76767985  1
  O  O27  1  0.62239137  0.75369883  0.48750431  1
  O  O28  1  0.60831452  0.19279389  0.65654635  1
  O  O29  1  0.76266445  0.50028335  0.15277024  1
  O  O30  1  0.91582527  0.80746850  0.65632424  1
  O  O31  1  0.73840654  0.98850432  0.30723450  1
  O  O32  1  0.74987102  0.01148744  0.69345435  1
  O  O33  1  0.86841684  0.24609303  0.51286325  1
  O  O34  1  0.90576831  0.31559577  0.76359890  1
  O  O35  1  0.91150507  0.33918493  0.23209235  1
