# generated using pymatgen
data_K(OsO3)2
_symmetry_space_group_name_H-M   'P 1'
_cell_length_a   7.22936581
_cell_length_b   7.22936592
_cell_length_c   7.22936636
_cell_angle_alpha   59.88916464
_cell_angle_beta   59.88916415
_cell_angle_gamma   59.88916545
_symmetry_Int_Tables_number   1
_chemical_formula_structural   K(OsO3)2
_chemical_formula_sum   'K2 Os4 O12'
_cell_volume   266.49690307
_cell_formula_units_Z   2
loop_
 _symmetry_equiv_pos_site_id
 _symmetry_equiv_pos_as_xyz
  1  'x, y, z'
loop_
 _atom_site_type_symbol
 _atom_site_label
 _atom_site_symmetry_multiplicity
 _atom_site_fract_x
 _atom_site_fract_y
 _atom_site_fract_z
 _atom_site_occupancy
  K  K0  1  0.26682063  0.26682063  0.26682063  1
  K  K1  1  0.50081682  0.50081682  0.50081682  1
  Os  Os2  1  0.37538457  0.87572945  0.87572945  1
  Os  Os3  1  0.87572945  0.37538457  0.87572945  1
  Os  Os4  1  0.87572945  0.87572945  0.37538457  1
  Os  Os5  1  0.87556243  0.87556243  0.87556243  1
  O  O6  1  0.19042946  0.80871607  0.19042946  1
  O  O7  1  0.19042946  0.19042946  0.80871607  1
  O  O8  1  0.80871607  0.19042946  0.19042946  1
  O  O9  1  0.19159711  0.80842042  0.80842042  1
  O  O10  1  0.55840550  0.94165247  0.55840550  1
  O  O11  1  0.55840550  0.55840550  0.94165247  1
  O  O12  1  0.80842042  0.19159711  0.80842042  1
  O  O13  1  0.80842042  0.80842042  0.19159711  1
  O  O14  1  0.56093045  0.94017489  0.94017489  1
  O  O15  1  0.94165247  0.55840550  0.55840550  1
  O  O16  1  0.94017489  0.56093045  0.94017489  1
  O  O17  1  0.94017489  0.94017489  0.56093045  1
