# generated using pymatgen
data_Li9Mn2Co5O16
_symmetry_space_group_name_H-M   'P 1'
_cell_length_a   2.94197387
_cell_length_b   10.12281878
_cell_length_c   9.72768656
_cell_angle_alpha   94.39191766
_cell_angle_beta   83.49602986
_cell_angle_gamma   92.46973522
_symmetry_Int_Tables_number   1
_chemical_formula_structural   Li9Mn2Co5O16
_chemical_formula_sum   'Li9 Mn2 Co5 O16'
_cell_volume   286.81791634
_cell_formula_units_Z   1
loop_
 _symmetry_equiv_pos_site_id
 _symmetry_equiv_pos_as_xyz
  1  'x, y, z'
loop_
 _atom_site_type_symbol
 _atom_site_label
 _atom_site_symmetry_multiplicity
 _atom_site_fract_x
 _atom_site_fract_y
 _atom_site_fract_z
 _atom_site_occupancy
  Li  Li0  1  0.86789998  0.19187351  0.24717410  1
  Li  Li1  1  0.11862494  0.30913769  0.75955210  1
  Li  Li2  1  0.38233778  0.43924185  0.24784661  1
  Li  Li3  1  0.62298833  0.56131007  0.75392021  1
  Li  Li4  1  0.87957513  0.68688964  0.24643560  1
  Li  Li5  1  0.13023600  0.81040576  0.74666501  1
  Li  Li6  1  0.37876692  0.93531652  0.24929420  1
  Li  Li7  1  0.61217606  0.07012304  0.75557752  1
  Li  Li8  1  0.51424604  0.24855093  0.99139440  1
  Mn  Mn9  1  0.99608257  0.00558902  0.99905630  1
  Mn  Mn10  1  0.25003741  0.62508608  0.50162742  1
  Co  Co11  1  0.24939343  0.12510301  0.49896442  1
  Co  Co12  1  0.75257347  0.37449585  0.49704079  1
  Co  Co13  1  0.00356992  0.49112668  0.00171049  1
  Co  Co14  1  0.48975081  0.74861658  0.00250430  1
  Co  Co15  1  0.74701117  0.87602478  0.50248160  1
  O  O16  1  0.46440408  0.08163226  0.10923797  1
  O  O17  1  0.67892957  0.21625893  0.61366218  1
  O  O18  1  0.94166113  0.36339998  0.11431390  1
  O  O19  1  0.18750143  0.46758012  0.61357272  1
  O  O20  1  0.42367165  0.59634924  0.11064992  1
  O  O21  1  0.65366933  0.71914311  0.62221281  1
  O  O22  1  0.90602262  0.84468566  0.11240749  1
  O  O23  1  0.18077359  0.96438407  0.61421125  1
  O  O24  1  0.31782086  0.28326477  0.38089156  1
  O  O25  1  0.59028398  0.41616595  0.88490719  1
  O  O26  1  0.84669042  0.53126709  0.38242228  1
  O  O27  1  0.08133689  0.65081766  0.89320205  1
  O  O28  1  0.32028457  0.78177628  0.38609307  1
  O  O29  1  0.52569346  0.90822009  0.89554455  1
  O  O30  1  0.82156435  0.03510910  0.38362242  1
  O  O31  1  0.06442208  0.14105469  0.88180356  1
