# generated using pymatgen
data_Ce2USe4
_symmetry_space_group_name_H-M   'P 1'
_cell_length_a   7.67266512
_cell_length_b   7.67266499
_cell_length_c   7.67266565
_cell_angle_alpha   109.34640316
_cell_angle_beta   109.72114210
_cell_angle_gamma   109.34640555
_symmetry_Int_Tables_number   1
_chemical_formula_structural   Ce2USe4
_chemical_formula_sum   'Ce4 U2 Se8'
_cell_volume   347.70478293
_cell_formula_units_Z   2
loop_
 _symmetry_equiv_pos_site_id
 _symmetry_equiv_pos_as_xyz
  1  'x, y, z'
loop_
 _atom_site_type_symbol
 _atom_site_label
 _atom_site_symmetry_multiplicity
 _atom_site_fract_x
 _atom_site_fract_y
 _atom_site_fract_z
 _atom_site_occupancy
  Ce  Ce0  1  0.25000000  0.62599916  0.37599916  1
  Ce  Ce1  1  0.62400084  0.37400084  0.25000000  1
  Ce  Ce2  1  0.75000000  0.87400084  0.12400084  1
  Ce  Ce3  1  0.87599916  0.12599916  0.75000000  1
  U  U4  1  0.12500000  0.75000000  0.87500000  1
  U  U5  1  0.37500000  0.25000000  0.62500000  1
  Se  Se6  1  0.15349721  0.14900417  0.15351019  1
  Se  Se7  1  0.49549398  -0.00001298  0.34648981  1
  Se  Se8  1  0.34650279  0.50001298  0.99550696  1
  Se  Se9  1  0.65351019  0.64900417  0.65349721  1
  Se  Se10  1  0.49550696  0.00001298  0.84650279  1
  Se  Se11  1  0.00449304  0.85099583  0.50450602  1
  Se  Se12  1  0.84648981  0.49998702  0.99549398  1
  Se  Se13  1  0.00450602  0.35099583  0.50449304  1
