# generated using pymatgen
data_Ag2Hg7(P4I3)2
_symmetry_space_group_name_H-M   'P 1'
_cell_length_a   8.53356979
_cell_length_b   8.75598764
_cell_length_c   8.75598713
_cell_angle_alpha   79.78257162
_cell_angle_beta   80.29614129
_cell_angle_gamma   80.29614211
_symmetry_Int_Tables_number   1
_chemical_formula_structural   Ag2Hg7(P4I3)2
_chemical_formula_sum   'Ag2 Hg7 P8 I6'
_cell_volume   628.14151280
_cell_formula_units_Z   1
loop_
 _symmetry_equiv_pos_site_id
 _symmetry_equiv_pos_as_xyz
  1  'x, y, z'
loop_
 _atom_site_type_symbol
 _atom_site_label
 _atom_site_symmetry_multiplicity
 _atom_site_fract_x
 _atom_site_fract_y
 _atom_site_fract_z
 _atom_site_occupancy
  Ag  Ag0  1  0.50000000  0.00000000  0.50000000  1
  Ag  Ag1  1  0.50000000  0.50000000  0.00000000  1
  Hg  Hg2  1  0.23450599  0.72959255  0.36450231  1
  Hg  Hg3  1  0.86776166  0.72796345  0.72796345  1
  Hg  Hg4  1  0.76549401  0.27040745  0.63549769  1
  Hg  Hg5  1  0.13223834  0.27203655  0.27203655  1
  Hg  Hg6  1  0.76549401  0.63549769  0.27040745  1
  Hg  Hg7  1  0.00000000  0.00000000  0.00000000  1
  Hg  Hg8  1  0.23450599  0.36450231  0.72959255  1
  P  P9  1  0.42102307  0.92150406  0.23640206  1
  P  P10  1  0.93432740  0.43841207  0.43841207  1
  P  P11  1  0.06567260  0.56158793  0.56158793  1
  P  P12  1  0.25776756  0.08527342  0.08527342  1
  P  P13  1  0.57897693  0.76359794  0.07849594  1
  P  P14  1  0.42102307  0.23640206  0.92150406  1
  P  P15  1  0.57897693  0.07849594  0.76359794  1
  P  P16  1  0.74223244  0.91472658  0.91472658  1
  I  I17  1  0.85173914  0.35992173  0.96241482  1
  I  I18  1  0.53507021  0.64623398  0.64623398  1
  I  I19  1  0.14826086  0.64007827  0.03758518  1
  I  I20  1  0.85173914  0.96241482  0.35992173  1
  I  I21  1  0.14826086  0.03758518  0.64007827  1
  I  I22  1  0.46492979  0.35376602  0.35376602  1
