# generated using pymatgen
data_YbIn4Ni
_symmetry_space_group_name_H-M   'P 1'
_cell_length_a   4.40481467
_cell_length_b   7.41762541
_cell_length_c   8.63826298
_cell_angle_alpha   89.92067844
_cell_angle_beta   104.69770261
_cell_angle_gamma   89.98980331
_symmetry_Int_Tables_number   1
_chemical_formula_structural   YbIn4Ni
_chemical_formula_sum   'Yb2 In8 Ni2'
_cell_volume   273.00446820
_cell_formula_units_Z   2
loop_
 _symmetry_equiv_pos_site_id
 _symmetry_equiv_pos_as_xyz
  1  'x, y, z'
loop_
 _atom_site_type_symbol
 _atom_site_label
 _atom_site_symmetry_multiplicity
 _atom_site_fract_x
 _atom_site_fract_y
 _atom_site_fract_z
 _atom_site_occupancy
  Yb  Yb0  1  0.87866292  0.25313429  0.74649239  1
  Yb  Yb1  1  0.12647087  0.75261530  0.25562800  1
  In  In2  1  0.06794151  0.24771889  0.14218635  1
  In  In3  1  0.68184575  0.45518118  0.37064027  1
  In  In4  1  0.93275391  0.75195191  0.85710746  1
  In  In5  1  0.68479536  0.05004829  0.37257067  1
  In  In6  1  0.31349408  0.55004601  0.62659027  1
  In  In7  1  0.50202069  0.00153454  0.99773520  1
  In  In8  1  0.49894399  0.50355685  0.99915884  1
  In  In9  1  0.31351091  0.95564867  0.62761735  1
  Ni  Ni10  1  0.22672222  0.25339687  0.45715445  1
  Ni  Ni11  1  0.76909482  0.75198919  0.54177876  1
