# generated using pymatgen
data_Nb3IrSe8
_symmetry_space_group_name_H-M   'P 1'
_cell_length_a   6.95719284
_cell_length_b   6.96636281
_cell_length_c   14.53948548
_cell_angle_alpha   96.13882312
_cell_angle_beta   75.81160877
_cell_angle_gamma   119.94906644
_symmetry_Int_Tables_number   1
_chemical_formula_structural   Nb3IrSe8
_chemical_formula_sum   'Nb6 Ir2 Se16'
_cell_volume   591.85427736
_cell_formula_units_Z   2
loop_
 _symmetry_equiv_pos_site_id
 _symmetry_equiv_pos_as_xyz
  1  'x, y, z'
loop_
 _atom_site_type_symbol
 _atom_site_label
 _atom_site_symmetry_multiplicity
 _atom_site_fract_x
 _atom_site_fract_y
 _atom_site_fract_z
 _atom_site_occupancy
  Nb  Nb0  1  0.01885914  0.52164463  -0.00007865  1
  Nb  Nb1  1  0.25014906  0.02104654  0.50071479  1
  Nb  Nb2  1  0.02780781  0.99260675  0.00215755  1
  Nb  Nb3  1  0.49469766  0.53025537  0.99766934  1
  Nb  Nb4  1  0.78897627  0.03076317  0.49840655  1
  Nb  Nb5  1  0.71402202  0.49450556  0.50300781  1
  Ir  Ir6  1  0.25140752  0.45085813  0.50034790  1
  Ir  Ir7  1  0.44929417  0.95013267  0.00012396  1
  Se  Se8  1  0.08577336  0.81705416  0.13134515  1
  Se  Se9  1  0.14808239  0.65374915  0.40123974  1
  Se  Se10  1  0.11929753  0.34391226  0.11916982  1
  Se  Se11  1  0.61050126  0.84844777  0.11529629  1
  Se  Se12  1  0.35509351  0.80162372  0.59943808  1
  Se  Se13  1  0.15583456  0.16383523  0.36944746  1
  Se  Se14  1  0.59494542  0.30058562  0.09910811  1
  Se  Se15  1  0.34740338  0.31765891  0.63135961  1
  Se  Se16  1  0.39162777  0.66298220  0.86928718  1
  Se  Se17  1  0.63332698  0.67943165  0.38507968  1
  Se  Se18  1  0.65038779  0.19026780  0.38067405  1
  Se  Se19  1  0.41409361  0.17791799  0.88432451  1
  Se  Se20  1  0.85291553  0.84453083  0.62064999  1
  Se  Se21  1  0.87089978  0.34945476  0.61594533  1
  Se  Se22  1  0.91253278  0.68876591  0.87928952  1
  Se  Se23  1  0.85721272  0.15269322  0.90089922  1
