# generated using pymatgen
data_Ce6Th4O19
_symmetry_space_group_name_H-M   'P 1'
_cell_length_a   7.88364083
_cell_length_b   19.65292904
_cell_length_c   6.81802801
_cell_angle_alpha   29.85311617
_cell_angle_beta   54.64967293
_cell_angle_gamma   59.88084194
_symmetry_Int_Tables_number   1
_chemical_formula_structural   Ce6Th4O19
_chemical_formula_sum   'Ce6 Th4 O19'
_cell_volume   428.88594254
_cell_formula_units_Z   1
loop_
 _symmetry_equiv_pos_site_id
 _symmetry_equiv_pos_as_xyz
  1  'x, y, z'
loop_
 _atom_site_type_symbol
 _atom_site_label
 _atom_site_symmetry_multiplicity
 _atom_site_fract_x
 _atom_site_fract_y
 _atom_site_fract_z
 _atom_site_occupancy
  Ce  Ce0  1  0.99555382  0.00000000  0.97901186  1
  Ce  Ce1  1  0.52477534  1.00000000  0.97939499  1
  Ce  Ce2  1  0.49766009  0.19387804  0.02051330  1
  Ce  Ce3  1  0.99516370  0.21156285  0.98058158  1
  Ce  Ce4  1  0.49766009  0.80612196  0.98990348  1
  Ce  Ce5  1  0.99516370  0.78843715  0.03839583  1
  Th  Th6  1  0.00030057  0.60620131  0.98907260  1
  Th  Th7  1  0.49573332  0.39729686  0.01040618  1
  Th  Th8  1  0.49573332  0.60270314  0.99689050  1
  Th  Th9  1  0.00030057  0.39379869  0.02007917  1
  O  O10  1  0.12435455  0.20079738  0.24393221  1
  O  O11  1  0.12264383  0.40403976  0.24638593  1
  O  O12  1  0.12264383  0.59596024  0.26658471  1
  O  O13  1  0.62954675  0.20139654  0.24303292  1
  O  O14  1  0.35435581  0.18398589  0.78567877  1
  O  O15  1  0.62145395  0.38860641  0.28343412  1
  O  O16  1  0.12435455  0.79920262  0.24791912  1
  O  O17  1  0.37513894  0.39782569  0.75913876  1
  O  O18  1  0.62145395  0.61139359  0.22646615  1
  O  O19  1  0.37513894  0.60217431  0.74826722  1
  O  O20  1  0.89977231  0.18297505  0.78888243  1
  O  O21  1  0.62954675  0.79860346  0.25001562  1
  O  O22  1  0.35435581  0.81601411  0.70560824  1
  O  O23  1  0.87079450  0.40242699  0.74845665  1
  O  O24  1  0.62879670  0.00000000  0.24172180  1
  O  O25  1  0.87079450  0.59757301  0.76059159  1
  O  O26  1  0.35891259  1.00000000  0.78275414  1
  O  O27  1  0.89977231  0.81702495  0.70375768  1
  O  O28  1  0.89312488  0.00000000  0.71312243  1
