# generated using pymatgen
data_SiO2
_symmetry_space_group_name_H-M   'P 1'
_cell_length_a   4.85629235
_cell_length_b   8.57346635
_cell_length_c   8.77838459
_cell_angle_alpha   111.58389591
_cell_angle_beta   90.00000000
_cell_angle_gamma   90.00000000
_symmetry_Int_Tables_number   1
_chemical_formula_structural   SiO2
_chemical_formula_sum   'Si8 O16'
_cell_volume   339.86210535
_cell_formula_units_Z   8
loop_
 _symmetry_equiv_pos_site_id
 _symmetry_equiv_pos_as_xyz
  1  'x, y, z'
loop_
 _atom_site_type_symbol
 _atom_site_label
 _atom_site_symmetry_multiplicity
 _atom_site_fract_x
 _atom_site_fract_y
 _atom_site_fract_z
 _atom_site_occupancy
  Si  Si0  1  0.07205355  0.83334644  0.70744775  1
  Si  Si1  1  0.23309134  0.70701032  0.33282207  1
  Si  Si2  1  0.26690866  0.20701032  0.83282207  1
  Si  Si3  1  0.42794645  0.33334644  0.20744775  1
  Si  Si4  1  0.92794645  0.16665356  0.29255225  1
  Si  Si5  1  0.73309134  0.79298968  0.16717793  1
  Si  Si6  1  0.76690866  0.29298968  0.66717793  1
  Si  Si7  1  0.57205355  0.66665356  0.79255225  1
  O  O8  1  0.62318126  0.69215305  0.98283875  1
  O  O9  1  0.87681874  0.19215305  0.48283875  1
  O  O10  1  0.47377313  0.81873449  0.29200388  1
  O  O11  1  0.85532773  0.97339986  0.17937821  1
  O  O12  1  0.24939144  0.20338414  0.26488663  1
  O  O13  1  0.02622687  0.31873449  0.79200388  1
  O  O14  1  0.74939144  0.29661586  0.23511337  1
  O  O15  1  0.75060856  0.79661586  0.73511337  1
  O  O16  1  0.35532773  0.52660014  0.32062179  1
  O  O17  1  0.37681874  0.30784695  0.01716125  1
  O  O18  1  0.97377313  0.68126551  0.20799612  1
  O  O19  1  0.12318126  0.80784695  0.51716125  1
  O  O20  1  0.14467227  0.02660014  0.82062179  1
  O  O21  1  0.52622687  0.18126551  0.70799612  1
  O  O22  1  0.64467227  0.47339986  0.67937821  1
  O  O23  1  0.25060856  0.70338414  0.76488663  1
