# generated using pymatgen
data_LiMo6Cl13
_symmetry_space_group_name_H-M   'P 1'
_cell_length_a   8.90894720
_cell_length_b   9.07120506
_cell_length_c   13.98081329
_cell_angle_alpha   95.60385032
_cell_angle_beta   102.91572864
_cell_angle_gamma   113.72993683
_symmetry_Int_Tables_number   1
_chemical_formula_structural   LiMo6Cl13
_chemical_formula_sum   'Li2 Mo12 Cl26'
_cell_volume   985.62887357
_cell_formula_units_Z   2
loop_
 _symmetry_equiv_pos_site_id
 _symmetry_equiv_pos_as_xyz
  1  'x, y, z'
loop_
 _atom_site_type_symbol
 _atom_site_label
 _atom_site_symmetry_multiplicity
 _atom_site_fract_x
 _atom_site_fract_y
 _atom_site_fract_z
 _atom_site_occupancy
  Li  Li0  1  0.03035312  0.26758810  0.27364096  1
  Li  Li1  1  0.96964688  0.73241190  0.72635904  1
  Mo  Mo2  1  0.60705365  0.22943248  0.52903958  1
  Mo  Mo3  1  0.54796382  0.69266011  0.08699963  1
  Mo  Mo4  1  0.56159084  0.99588115  0.38096759  1
  Mo  Mo5  1  0.39294635  0.77056752  0.47096042  1
  Mo  Mo6  1  0.70346557  0.99724131  0.56817020  1
  Mo  Mo7  1  0.45203618  0.30733989  0.91300037  1
  Mo  Mo8  1  0.35577159  0.54537575  0.90089194  1
  Mo  Mo9  1  0.43840916  0.00411885  0.61903241  1
  Mo  Mo10  1  0.29653443  0.00275869  0.43182980  1
  Mo  Mo11  1  0.68453802  0.61632520  0.95301873  1
  Mo  Mo12  1  0.31546198  0.38367480  0.04698127  1
  Mo  Mo13  1  0.64422841  0.45462425  0.09910806  1
  Cl  Cl14  1  0.46897614  0.21537560  0.35059783  1
  Cl  Cl15  1  0.65364153  0.78320805  0.42736039  1
  Cl  Cl16  1  0.25204767  0.46816851  0.42504212  1
  Cl  Cl17  1  0.26370763  0.78285748  0.29645281  1
  Cl  Cl18  1  0.37872781  0.03679590  0.79266730  1
  Cl  Cl19  1  0.14919153  0.78677026  0.52045764  1
  Cl  Cl20  1  0.34635847  0.21679195  0.57263961  1
  Cl  Cl21  1  0.96628048  0.98169197  0.65493512  1
  Cl  Cl22  1  0.03371952  0.01830803  0.34506488  1
  Cl  Cl23  1  0.50339322  0.52770191  0.21829956  1
  Cl  Cl24  1  0.62127219  0.96320410  0.20733270  1
  Cl  Cl25  1  0.85446978  0.74823173  0.12868292  1
  Cl  Cl26  1  0.49660678  0.47229809  0.78170044  1
  Cl  Cl27  1  0.74795233  0.53183149  0.57495788  1
  Cl  Cl28  1  0.53102386  0.78462440  0.64940217  1
  Cl  Cl29  1  0.58353489  0.83506146  0.94479306  1
  Cl  Cl30  1  0.73629237  0.21714252  0.70354719  1
  Cl  Cl31  1  0.76441922  0.38302056  0.96716254  1
  Cl  Cl32  1  0.14553022  0.25176827  0.87131708  1
  Cl  Cl33  1  0.07116548  0.22356395  0.10821473  1
  Cl  Cl34  1  0.83698342  0.41114482  0.23829146  1
  Cl  Cl35  1  0.85080847  0.21322974  0.47954236  1
  Cl  Cl36  1  0.92883452  0.77643605  0.89178527  1
  Cl  Cl37  1  0.16301658  0.58885518  0.76170854  1
  Cl  Cl38  1  0.41646511  0.16493854  0.05520694  1
  Cl  Cl39  1  0.23558078  0.61697944  0.03283746  1
