# generated using pymatgen
data_NaNdS2
_symmetry_space_group_name_H-M   'P 1'
_cell_length_a   8.08669446
_cell_length_b   10.83389941
_cell_length_c   7.21098635
_cell_angle_alpha   28.97819310
_cell_angle_beta   55.89427669
_cell_angle_gamma   41.72591490
_symmetry_Int_Tables_number   1
_chemical_formula_structural   NaNdS2
_chemical_formula_sum   'Na2 Nd2 S4'
_cell_volume   195.21083869
_cell_formula_units_Z   2
loop_
 _symmetry_equiv_pos_site_id
 _symmetry_equiv_pos_as_xyz
  1  'x, y, z'
loop_
 _atom_site_type_symbol
 _atom_site_label
 _atom_site_symmetry_multiplicity
 _atom_site_fract_x
 _atom_site_fract_y
 _atom_site_fract_z
 _atom_site_occupancy
  Na  Na0  1  0.25388995  0.49660880  0.00118043  1
  Na  Na1  1  0.50365597  0.99636286  0.00393333  1
  Nd  Nd2  1  0.00341559  0.99697503  0.00176937  1
  Nd  Nd3  1  0.75390040  0.49697147  0.00207296  1
  S  S4  1  0.51578959  0.49726435  0.47694796  1
  S  S5  1  0.24098432  0.99609993  0.52843365  1
  S  S6  1  0.99166234  0.49621160  0.52838011  1
  S  S7  1  0.76581484  0.99754095  0.47623219  1
