# generated using pymatgen
data_Ca2Ga2Si(HO4)2
_symmetry_space_group_name_H-M   'P 1'
_cell_length_a   7.80153343
_cell_length_b   7.85449856
_cell_length_c   7.81999697
_cell_angle_alpha   109.26597648
_cell_angle_beta   109.66204797
_cell_angle_gamma   109.49189503
_symmetry_Int_Tables_number   1
_chemical_formula_structural   Ca2Ga2Si(HO4)2
_chemical_formula_sum   'Ca4 Ga4 Si2 H4 O16'
_cell_volume   368.84650536
_cell_formula_units_Z   2
loop_
 _symmetry_equiv_pos_site_id
 _symmetry_equiv_pos_as_xyz
  1  'x, y, z'
loop_
 _atom_site_type_symbol
 _atom_site_label
 _atom_site_symmetry_multiplicity
 _atom_site_fract_x
 _atom_site_fract_y
 _atom_site_fract_z
 _atom_site_occupancy
  Ca  Ca0  1  0.00830290  0.01047738  0.72554616  1
  Ca  Ca1  1  0.27322889  0.28045069  0.28258508  1
  Ca  Ca2  1  0.71251674  0.99092100  0.98889887  1
  Ca  Ca3  1  0.00007042  0.72272671  0.00037711  1
  Ga  Ga4  1  0.50016127  0.25724946  0.74209996  1
  Ga  Ga5  1  0.50039687  0.74301606  0.25904336  1
  Ga  Ga6  1  0.75121138  0.24389278  0.49064066  1
  Ga  Ga7  1  0.75151303  0.49226106  0.24643691  1
  Si  Si8  1  0.24765212  0.51133074  0.75510093  1
  Si  Si9  1  0.24670986  0.75534559  0.51013916  1
  H  H10  1  0.66664191  0.65495470  0.62708846  1
  H  H11  1  0.37364248  0.03555709  0.03648451  1
  H  H12  1  0.96466605  0.99841269  0.33848595  1
  H  H13  1  0.96690407  0.34196091  0.00132807  1
  O  O14  1  0.99227413  0.99350228  0.22517945  1
  O  O15  1  0.27523459  0.57764071  0.57663851  1
  O  O16  1  0.26761916  0.71480497  0.29938122  1
  O  O17  1  0.26890549  0.30140290  0.71406326  1
  O  O18  1  0.42949868  0.98814128  0.71239406  1
  O  O19  1  0.43120735  0.71211140  0.98868812  1
  O  O20  1  0.23378580  0.00852926  0.00907925  1
  O  O21  1  0.74338048  0.99511333  0.45095732  1
  O  O22  1  0.77426873  0.77334008  0.76548583  1
  O  O23  1  0.54391845  0.27766045  0.53318465  1
  O  O24  1  0.54822529  0.53871560  0.28869339  1
  O  O25  1  0.71899896  0.25031253  0.24915475  1
  O  O26  1  0.74180195  0.45188789  0.99546330  1
  O  O27  1  0.01576976  0.46234275  0.72817340  1
  O  O28  1  0.01557624  0.72913582  0.46306357  1
  O  O29  1  0.99401695  0.22870193  0.99614472  1
