# generated using pymatgen
data_NaMo6Br13
_symmetry_space_group_name_H-M   'P 1'
_cell_length_a   9.59774690
_cell_length_b   9.74392071
_cell_length_c   14.93094245
_cell_angle_alpha   96.72876314
_cell_angle_beta   101.50827182
_cell_angle_gamma   115.40017381
_symmetry_Int_Tables_number   1
_chemical_formula_structural   NaMo6Br13
_chemical_formula_sum   'Na2 Mo12 Br26'
_cell_volume   1203.14156869
_cell_formula_units_Z   2
loop_
 _symmetry_equiv_pos_site_id
 _symmetry_equiv_pos_as_xyz
  1  'x, y, z'
loop_
 _atom_site_type_symbol
 _atom_site_label
 _atom_site_symmetry_multiplicity
 _atom_site_fract_x
 _atom_site_fract_y
 _atom_site_fract_z
 _atom_site_occupancy
  Na  Na0  1  0.00185207  0.75754959  0.22907344  1
  Na  Na1  1  0.99814793  0.24245041  0.77092656  1
  Mo  Mo2  1  0.45975078  0.31816637  0.41643154  1
  Mo  Mo3  1  0.54024922  0.68183363  0.58356846  1
  Mo  Mo4  1  0.44880771  0.01051767  0.11524027  1
  Mo  Mo5  1  0.55119229  0.98948233  0.88475973  1
  Mo  Mo6  1  0.37272556  0.54106920  0.40494879  1
  Mo  Mo7  1  0.68239199  0.61594889  0.46179842  1
  Mo  Mo8  1  0.39952901  0.78132483  0.97634544  1
  Mo  Mo9  1  0.31760801  0.38405111  0.53820158  1
  Mo  Mo10  1  0.62727444  0.45893080  0.59505121  1
  Mo  Mo11  1  0.30552811  0.99344320  0.93952351  1
  Mo  Mo12  1  0.69447189  0.00655680  0.06047649  1
  Mo  Mo13  1  0.60047099  0.21867517  0.02365456  1
  Br  Br14  1  0.84243436  0.21567909  0.96991107  1
  Br  Br15  1  0.23547659  0.60857305  0.52603312  1
  Br  Br16  1  0.15756564  0.78432091  0.03008893  1
  Br  Br17  1  0.76452341  0.39142695  0.47396688  1
  Br  Br18  1  0.61250144  0.95718609  0.70866269  1
  Br  Br19  1  0.74001870  0.52477737  0.06130564  1
  Br  Br20  1  0.15544542  0.24738461  0.36450855  1
  Br  Br21  1  0.25998130  0.47522263  0.93869436  1
  Br  Br22  1  0.40714533  0.16502673  0.54942873  1
  Br  Br23  1  0.38749856  0.04281391  0.29133731  1
  Br  Br24  1  0.96448788  0.00867443  0.14078881  1
  Br  Br25  1  0.03551212  0.99132557  0.85921119  1
  Br  Br26  1  0.74217080  0.23160262  0.19632279  1
  Br  Br27  1  0.51902516  0.47896244  0.28777256  1
  Br  Br28  1  0.54098959  0.80053563  0.15026426  1
  Br  Br29  1  0.94184468  0.78377582  0.41218248  1
  Br  Br30  1  0.25782920  0.76839738  0.80367721  1
  Br  Br31  1  0.84455458  0.75261539  0.63549145  1
  Br  Br32  1  0.64654789  0.78545920  0.92530055  1
  Br  Br33  1  0.59285467  0.83497327  0.45057127  1
  Br  Br34  1  0.35345211  0.21454080  0.07469945  1
  Br  Br35  1  0.81003131  0.41945283  0.73550396  1
  Br  Br36  1  0.45901041  0.19946437  0.84973574  1
  Br  Br37  1  0.18996869  0.58054717  0.26449604  1
  Br  Br38  1  0.05815532  0.21622418  0.58781752  1
  Br  Br39  1  0.48097484  0.52103756  0.71222744  1
