# generated using pymatgen
data_Na7Zr4Si5PO24
_symmetry_space_group_name_H-M   'P 1'
_cell_length_a   9.34883283
_cell_length_b   9.31205823
_cell_length_c   9.31123892
_cell_angle_alpha   59.79779290
_cell_angle_beta   59.62602484
_cell_angle_gamma   59.70832738
_symmetry_Int_Tables_number   1
_chemical_formula_structural   Na7Zr4Si5PO24
_chemical_formula_sum   'Na7 Zr4 Si5 P1 O24'
_cell_volume   569.41718365
_cell_formula_units_Z   1
loop_
 _symmetry_equiv_pos_site_id
 _symmetry_equiv_pos_as_xyz
  1  'x, y, z'
loop_
 _atom_site_type_symbol
 _atom_site_label
 _atom_site_symmetry_multiplicity
 _atom_site_fract_x
 _atom_site_fract_y
 _atom_site_fract_z
 _atom_site_occupancy
  Na  Na0  1  0.00681246  0.99579187  0.99416421  1
  Na  Na1  1  0.11974439  0.38304415  0.74782945  1
  Na  Na2  1  0.38871678  0.74525387  0.11728227  1
  Na  Na3  1  0.32048604  0.71164632  0.53988229  1
  Na  Na4  1  0.74422208  0.12659032  0.38703259  1
  Na  Na5  1  0.61247694  0.25335251  0.87514818  1
  Na  Na6  1  0.87289799  0.61561814  0.25592524  1
  Zr  Zr7  1  0.15137936  0.14387676  0.14827643  1
  Zr  Zr8  1  0.35808940  0.35476297  0.35177574  1
  Zr  Zr9  1  0.64108087  0.65040231  0.64914436  1
  Zr  Zr10  1  0.85337653  0.84997060  0.85304041  1
  Si  Si11  1  0.03505566  0.75202308  0.45247774  1
  Si  Si12  1  0.45663348  0.04186535  0.75474130  1
  Si  Si13  1  0.75303281  0.45375918  0.03942582  1
  Si  Si14  1  0.24623159  0.54553389  0.96188577  1
  Si  Si15  1  0.54675945  0.95677811  0.24837257  1
  P  P16  1  0.96055596  0.24935438  0.54574725  1
  O  O17  1  0.12072319  0.28496787  0.51371422  1
  O  O18  1  0.27457486  0.51678887  0.13538283  1
  O  O19  1  0.06023906  0.92477875  0.27498922  1
  O  O20  1  0.50886737  0.13228612  0.27999259  1
  O  O21  1  0.00477632  0.78215760  0.62754970  1
  O  O22  1  0.21869578  0.58310447  0.43466214  1
  O  O23  1  0.27437824  0.06454001  0.92546777  1
  O  O24  1  0.42441765  0.21644170  0.58362122  1
  O  O25  1  0.57829268  0.43353225  0.21542970  1
  O  O26  1  0.21156755  0.37161555  0.99682589  1
  O  O27  1  0.07387018  0.72462553  0.93846456  1
  O  O28  1  0.37456005  0.98002079  0.21969981  1
  O  O29  1  0.62801690  0.01910704  0.78254284  1
  O  O30  1  0.92201812  0.27401592  0.07072206  1
  O  O31  1  0.78150877  0.62974344  0.00834448  1
  O  O32  1  0.42181568  0.55885390  0.78397816  1
  O  O33  1  0.57672837  0.77348039  0.41483765  1
  O  O34  1  0.72656081  0.94012965  0.07368137  1
  O  O35  1  0.79270286  0.41419647  0.56336112  1
  O  O36  1  0.99146740  0.21322313  0.38474756  1
  O  O37  1  0.49794609  0.85929319  0.73320131  1
  O  O38  1  0.92950646  0.09269195  0.71915631  1
  O  O39  1  0.72887018  0.48183246  0.86374932  1
  O  O40  1  0.86574364  0.72074914  0.47972657  1
