# generated using pymatgen
data_P6N6Cl10O
_symmetry_space_group_name_H-M   'P 1'
_cell_length_a   9.52856404
_cell_length_b   11.67530202
_cell_length_c   21.94439111
_cell_angle_alpha   104.31138304
_cell_angle_beta   90.00000000
_cell_angle_gamma   90.00000000
_symmetry_Int_Tables_number   1
_chemical_formula_structural   P6N6Cl10O
_chemical_formula_sum   'P24 N24 Cl40 O4'
_cell_volume   2365.52717350
_cell_formula_units_Z   4
loop_
 _symmetry_equiv_pos_site_id
 _symmetry_equiv_pos_as_xyz
  1  'x, y, z'
loop_
 _atom_site_type_symbol
 _atom_site_label
 _atom_site_symmetry_multiplicity
 _atom_site_fract_x
 _atom_site_fract_y
 _atom_site_fract_z
 _atom_site_occupancy
  P  P0  1  0.20724525  0.39051313  0.47938956  1
  P  P1  1  0.41073217  0.33306290  0.85206853  1
  P  P2  1  0.38290534  0.23700641  0.04932036  1
  P  P3  1  0.65170013  0.82041802  0.52820534  1
  P  P4  1  0.61709466  0.76299359  0.95067964  1
  P  P5  1  0.11709466  0.23700641  0.54932036  1
  P  P6  1  0.56696531  0.12749344  0.81873021  1
  P  P7  1  0.79275475  0.60948687  0.52061044  1
  P  P8  1  0.43303469  0.87250656  0.18126979  1
  P  P9  1  0.13219582  0.68094510  0.72987595  1
  P  P10  1  0.15170013  0.17958198  0.97179466  1
  P  P11  1  0.06696531  0.87250656  0.68126979  1
  P  P12  1  0.08926783  0.33306290  0.35206853  1
  P  P13  1  0.70724525  0.60948687  0.02061044  1
  P  P14  1  0.86780418  0.31905490  0.27012405  1
  P  P15  1  0.93303469  0.12749344  0.31873021  1
  P  P16  1  0.91073217  0.66693710  0.64793147  1
  P  P17  1  0.36780418  0.68094510  0.22987595  1
  P  P18  1  0.29275475  0.39051313  0.97938956  1
  P  P19  1  0.84829987  0.82041802  0.02820534  1
  P  P20  1  0.58926783  0.66693710  0.14793147  1
  P  P21  1  0.34829987  0.17958198  0.47179466  1
  P  P22  1  0.63219582  0.31905490  0.77012405  1
  P  P23  1  0.88290534  0.76299359  0.45067964  1
  N  N24  1  0.34930685  0.81686758  0.23013180  1
  N  N25  1  0.40449421  0.35377816  0.02495184  1
  N  N26  1  0.73257980  0.85702905  0.98388427  1
  N  N27  1  0.26742020  0.14297095  0.01611573  1
  N  N28  1  0.83628982  0.69547055  0.04503593  1
  N  N29  1  0.76742020  0.85702905  0.48388427  1
  N  N30  1  0.90449421  0.64622184  0.47504816  1
  N  N31  1  0.95127215  0.79342693  0.63747366  1
  N  N32  1  0.66371018  0.69547055  0.54503593  1
  N  N33  1  0.45127215  0.20657307  0.86252634  1
  N  N34  1  0.97924350  0.39741681  0.31722529  1
  N  N35  1  0.84930685  0.18313242  0.26986820  1
  N  N36  1  0.47924350  0.60258319  0.18277471  1
  N  N37  1  0.09550579  0.35377816  0.52495184  1
  N  N38  1  0.23257980  0.14297095  0.51611573  1
  N  N39  1  0.52075650  0.39741681  0.81722529  1
  N  N40  1  0.33628982  0.30452945  0.45496407  1
  N  N41  1  0.16371018  0.30452945  0.95496407  1
  N  N42  1  0.04872785  0.20657307  0.36252634  1
  N  N43  1  0.65069315  0.18313242  0.76986820  1
  N  N44  1  0.02075650  0.60258319  0.68277471  1
  N  N45  1  0.54872785  0.79342693  0.13747366  1
  N  N46  1  0.59550579  0.64622184  0.97504816  1
  N  N47  1  0.15069315  0.81686758  0.73013180  1
  Cl  Cl48  1  0.06794867  0.84582341  0.45413773  1
  Cl  Cl49  1  0.52221688  0.02433621  0.22899809  1
  Cl  Cl50  1  0.22361807  0.32526943  0.80739845  1
  Cl  Cl51  1  0.65457285  0.71500025  0.85723842  1
  Cl  Cl52  1  0.22051569  0.55343085  0.01834627  1
  Cl  Cl53  1  0.02221688  0.97566379  0.27100191  1
  Cl  Cl54  1  0.81880125  0.40227507  0.78517749  1
  Cl  Cl55  1  0.31880125  0.59772493  0.71482251  1
  Cl  Cl56  1  0.27948431  0.55343085  0.51834627  1
  Cl  Cl57  1  0.54030551  0.16814075  0.50920465  1
  Cl  Cl58  1  0.72051569  0.44656915  0.48165373  1
  Cl  Cl59  1  0.91038947  0.32531202  0.18064509  1
  Cl  Cl60  1  0.93205133  0.15417659  0.54586227  1
  Cl  Cl61  1  0.56794867  0.15417659  0.04586227  1
  Cl  Cl62  1  0.97778312  0.02433621  0.72899809  1
  Cl  Cl63  1  0.58961053  0.32531202  0.68064509  1
  Cl  Cl64  1  0.68119875  0.40227507  0.28517749  1
  Cl  Cl65  1  0.15457285  0.28499975  0.64276158  1
  Cl  Cl66  1  0.34542715  0.28499975  0.14276158  1
  Cl  Cl67  1  0.41038947  0.67468798  0.31935491  1
  Cl  Cl68  1  0.27638193  0.32526943  0.30739845  1
  Cl  Cl69  1  0.13942907  0.05146242  0.89180032  1
  Cl  Cl70  1  0.79425045  0.07077658  0.37387879  1
  Cl  Cl71  1  0.43205133  0.84582341  0.95413773  1
  Cl  Cl72  1  0.20574955  0.92922342  0.62612121  1
  Cl  Cl73  1  0.29425045  0.92922342  0.12612121  1
  Cl  Cl74  1  0.47778312  0.97566379  0.77100191  1
  Cl  Cl75  1  0.18119875  0.59772493  0.21482251  1
  Cl  Cl76  1  0.84542715  0.71500025  0.35723842  1
  Cl  Cl77  1  0.77638193  0.67473057  0.19260155  1
  Cl  Cl78  1  0.95969449  0.16814075  0.00920465  1
  Cl  Cl79  1  0.72361807  0.67473057  0.69260155  1
  Cl  Cl80  1  0.45969449  0.83185925  0.49079535  1
  Cl  Cl81  1  0.77948431  0.44656915  0.98165373  1
  Cl  Cl82  1  0.36057093  0.05146242  0.39180032  1
  Cl  Cl83  1  0.04030551  0.83185925  0.99079535  1
  Cl  Cl84  1  0.08961053  0.67468798  0.81935491  1
  Cl  Cl85  1  0.70574955  0.07077658  0.87387879  1
  Cl  Cl86  1  0.63942907  0.94853758  0.60819968  1
  Cl  Cl87  1  0.86057093  0.94853758  0.10819968  1
  O  O88  1  0.37564697  0.41948269  0.91968481  1
  O  O89  1  0.62435303  0.58051731  0.08031519  1
  O  O90  1  0.12435303  0.41948269  0.41968481  1
  O  O91  1  0.87564697  0.58051731  0.58031519  1
