# generated using pymatgen
data_Tl2Br3
_symmetry_space_group_name_H-M   'P 1'
_cell_length_a   15.73346010
_cell_length_b   15.83663455
_cell_length_c   27.78991154
_cell_angle_alpha   106.42166513
_cell_angle_beta   90.00000000
_cell_angle_gamma   119.78472109
_symmetry_Int_Tables_number   1
_chemical_formula_structural   Tl2Br3
_chemical_formula_sum   'Tl64 Br96'
_cell_volume   5681.81037731
_cell_formula_units_Z   32
loop_
 _symmetry_equiv_pos_site_id
 _symmetry_equiv_pos_as_xyz
  1  'x, y, z'
loop_
 _atom_site_type_symbol
 _atom_site_label
 _atom_site_symmetry_multiplicity
 _atom_site_fract_x
 _atom_site_fract_y
 _atom_site_fract_z
 _atom_site_occupancy
  Tl  Tl0  1  0.36146224  0.24973712  0.59087751  1
  Tl  Tl1  1  0.78600491  0.59322126  0.91489471  1
  Tl  Tl2  1  0.20672381  0.85818147  0.09197683  1
  Tl  Tl3  1  0.04833905  0.59580259  0.69756145  1
  Tl  Tl4  1  0.63853776  0.75026288  0.40912249  1
  Tl  Tl5  1  0.18954533  0.94959184  0.59207997  1
  Tl  Tl6  1  0.61387833  0.14972483  0.21999955  1
  Tl  Tl7  1  0.36021769  0.64939047  0.90983777  1
  Tl  Tl8  1  0.58106008  0.24127731  0.91636535  1
  Tl  Tl9  1  0.84884630  0.69377913  0.09228100  1
  Tl  Tl10  1  0.08688597  0.16367530  0.22537837  1
  Tl  Tl11  1  0.91311403  0.83632470  0.77462163  1
  Tl  Tl12  1  0.66021723  0.24127731  0.41636535  1
  Tl  Tl13  1  0.21399509  0.40677874  0.08510529  1
  Tl  Tl14  1  0.80721635  0.59322126  0.41489471  1
  Tl  Tl15  1  0.54746354  0.59580259  0.19756145  1
  Tl  Tl16  1  0.41893992  0.75872269  0.08363465  1
  Tl  Tl17  1  0.70051880  0.81321092  0.91185586  1
  Tl  Tl18  1  0.29948120  0.18678908  0.08814414  1
  Tl  Tl19  1  0.50000000  0.00000000  0.50000000  1
  Tl  Tl20  1  0.76004650  0.94959184  0.09207997  1
  Tl  Tl21  1  0.19278365  0.40677874  0.58510529  1
  Tl  Tl22  1  0.26063180  0.51967052  0.74852012  1
  Tl  Tl23  1  0.93408195  0.36826897  0.80992422  1
  Tl  Tl24  1  0.81045467  0.05040816  0.40792003  1
  Tl  Tl25  1  0.15115370  0.30622087  0.90771900  1
  Tl  Tl26  1  0.00000000  0.00000000  0.00000000  1
  Tl  Tl27  1  0.25903872  0.51967052  0.24852012  1
  Tl  Tl28  1  0.11172512  0.75026288  0.90912249  1
  Tl  Tl29  1  0.50000000  0.50000000  0.00000000  1
  Tl  Tl30  1  0.77599013  0.00000000  0.25000000  1
  Tl  Tl31  1  0.38612167  0.85027517  0.78000045  1
  Tl  Tl32  1  0.06591805  0.63173103  0.19007578  1
  Tl  Tl33  1  0.71082722  0.35060953  0.59016223  1
  Tl  Tl34  1  0.07678933  0.16367530  0.72537837  1
  Tl  Tl35  1  0.95166095  0.40419741  0.30243855  1
  Tl  Tl36  1  0.92321067  0.83632470  0.27462163  1
  Tl  Tl37  1  0.74096128  0.48032948  0.75147988  1
  Tl  Tl38  1  0.84493283  0.69377913  0.59228100  1
  Tl  Tl39  1  0.33978277  0.75872269  0.58363465  1
  Tl  Tl40  1  0.23995350  0.05040816  0.90792003  1
  Tl  Tl41  1  0.00000000  0.50000000  0.00000000  1
  Tl  Tl42  1  0.45253646  0.40419741  0.80243855  1
  Tl  Tl43  1  0.88827488  0.24973712  0.09087751  1
  Tl  Tl44  1  0.73546050  0.00000000  0.75000000  1
  Tl  Tl45  1  0.22400987  0.00000000  0.75000000  1
  Tl  Tl46  1  0.00000000  0.00000000  0.50000000  1
  Tl  Tl47  1  0.00000000  0.50000000  0.50000000  1
  Tl  Tl48  1  0.43418702  0.36826897  0.30992422  1
  Tl  Tl49  1  0.26453950  0.00000000  0.25000000  1
  Tl  Tl50  1  0.79327619  0.14181853  0.90802317  1
  Tl  Tl51  1  0.50000000  0.00000000  0.00000000  1
  Tl  Tl52  1  0.34854234  0.14181853  0.40802317  1
  Tl  Tl53  1  0.88730788  0.18678908  0.58814414  1
  Tl  Tl54  1  0.15506717  0.30622087  0.40771900  1
  Tl  Tl55  1  0.63978231  0.35060953  0.09016223  1
  Tl  Tl56  1  0.11269212  0.81321092  0.41185586  1
  Tl  Tl57  1  0.73936820  0.48032948  0.25147988  1
  Tl  Tl58  1  0.50000000  0.50000000  0.50000000  1
  Tl  Tl59  1  0.65145766  0.85818147  0.59197683  1
  Tl  Tl60  1  0.53584650  0.14972483  0.71999955  1
  Tl  Tl61  1  0.56581298  0.63173103  0.69007578  1
  Tl  Tl62  1  0.46415350  0.85027517  0.28000045  1
  Tl  Tl63  1  0.28917278  0.64939047  0.40983777  1
  Br  Br64  1  0.33069045  0.52226488  0.99919939  1
  Br  Br65  1  0.28657258  0.10459020  0.18511976  1
  Br  Br66  1  0.29173112  0.85984637  0.50037863  1
  Br  Br67  1  0.44116356  0.63763711  0.31322091  1
  Br  Br68  1  0.64635118  0.37052670  0.82077069  1
  Br  Br69  1  0.96823242  0.41215178  0.57924078  1
  Br  Br70  1  0.69197991  0.17937289  0.01513939  1
  Br  Br71  1  0.45687427  0.13038900  0.30501035  1
  Br  Br72  1  0.83337640  0.38155455  0.92223643  1
  Br  Br73  1  0.70826888  0.14015363  0.49962137  1
  Br  Br74  1  0.31739235  0.32390981  0.49830257  1
  Br  Br75  1  0.51260702  0.82062711  0.48486061  1
  Br  Br76  1  0.33386312  0.41085692  0.68365399  1
  Br  Br77  1  0.69272270  0.62631027  0.79945961  1
  Br  Br78  1  0.97761474  0.81860398  0.51410524  1
  Br  Br79  1  0.76449297  0.59653315  0.18457234  1
  Br  Br80  1  0.91954691  0.88175084  0.39975791  1
  Br  Br81  1  0.16795982  0.40346685  0.31542766  1
  Br  Br82  1  0.23550703  0.40346685  0.81542766  1
  Br  Br83  1  0.14418613  0.09635076  0.81873902  1
  Br  Br84  1  0.03176758  0.58784822  0.42075922  1
  Br  Br85  1  0.30727730  0.37368973  0.20054039  1
  Br  Br86  1  0.83204018  0.59653315  0.68457234  1
  Br  Br87  1  0.32648527  0.86961100  0.19498965  1
  Br  Br88  1  0.91808771  0.31466826  0.42281872  1
  Br  Br89  1  0.88884397  0.47746803  0.07845220  1
  Br  Br90  1  0.79018627  0.33683522  0.70244301  1
  Br  Br91  1  0.11115603  0.52253197  0.92154780  1
  Br  Br92  1  0.77829896  0.84066940  0.68167508  1
  Br  Br93  1  0.66613688  0.58914308  0.31634601  1
  Br  Br94  1  0.92300620  0.58914308  0.81634601  1
  Br  Br95  1  0.81801762  0.10459020  0.68511976  1
  Br  Br96  1  0.95216463  0.09635076  0.31873902  1
  Br  Br97  1  0.19647356  0.63763711  0.81322091  1
  Br  Br98  1  0.85610269  0.16176264  0.20924654  1
  Br  Br99  1  0.54817815  0.38155455  0.42223643  1
  Br  Br100  1  0.60341945  0.68533174  0.07718128  1
  Br  Br101  1  0.00651746  0.32390981  0.99830257  1
  Br  Br102  1  0.96220394  0.88175084  0.89975791  1
  Br  Br103  1  0.15901076  0.18139602  0.98589476  1
  Br  Br104  1  0.54616957  0.04096722  0.60040402  1
  Br  Br105  1  0.30685722  0.90514027  0.68211725  1
  Br  Br106  1  0.06641243  0.37368973  0.70054039  1
  Br  Br107  1  0.20981373  0.66316478  0.29755699  1
  Br  Br108  1  0.84098924  0.81860398  0.01410524  1
  Br  Br109  1  0.19313991  0.04554604  0.48578799  1
  Br  Br110  1  0.19157442  0.52226488  0.49919939  1
  Br  Br111  1  0.30802009  0.82062711  0.98486061  1
  Br  Br112  1  0.40171695  0.09485973  0.81788275  1
  Br  Br113  1  0.54312573  0.86961100  0.69498965  1
  Br  Br114  1  0.85240613  0.04554604  0.98578799  1
  Br  Br115  1  0.02238526  0.18139602  0.48589476  1
  Br  Br116  1  0.14389731  0.83823736  0.79075346  1
  Br  Br117  1  0.22170104  0.15933060  0.31832492  1
  Br  Br118  1  0.30565996  0.16176264  0.70924654  1
  Br  Br119  1  0.59828305  0.90514027  0.18211725  1
  Br  Br120  1  0.35364882  0.62947330  0.17922931  1
  Br  Br121  1  0.69434004  0.83823736  0.29075346  1
  Br  Br122  1  0.08045309  0.11824916  0.60024209  1
  Br  Br123  1  0.80352644  0.36236289  0.18677909  1
  Br  Br124  1  0.44391936  0.41215178  0.07924078  1
  Br  Br125  1  0.45182185  0.61844545  0.57776357  1
  Br  Br126  1  0.39658055  0.31466826  0.92281872  1
  Br  Br127  1  0.71342742  0.89540980  0.81488024  1
  Br  Br128  1  0.07699380  0.41085692  0.18365399  1
  Br  Br129  1  0.58862406  0.47746803  0.57845220  1
  Br  Br130  1  0.27582448  0.62947330  0.67922931  1
  Br  Br131  1  0.08191229  0.68533174  0.57718128  1
  Br  Br132  1  0.56811526  0.85984637  0.00037863  1
  Br  Br133  1  0.99348254  0.67609019  0.00169743  1
  Br  Br134  1  0.55608064  0.58784822  0.92075922  1
  Br  Br135  1  0.55883644  0.36236289  0.68677909  1
  Br  Br136  1  0.69314278  0.09485973  0.31788275  1
  Br  Br137  1  0.16662360  0.61844545  0.07776357  1
  Br  Br138  1  0.72417552  0.37052670  0.32077069  1
  Br  Br139  1  0.49479764  0.04096722  0.10040402  1
  Br  Br140  1  0.80842558  0.47773512  0.50080061  1
  Br  Br141  1  0.54664895  0.33683522  0.20244301  1
  Br  Br142  1  0.93358757  0.62631027  0.29945961  1
  Br  Br143  1  0.80686009  0.95445396  0.51421201  1
  Br  Br144  1  0.66930955  0.47773512  0.00080061  1
  Br  Br145  1  0.68260765  0.67609019  0.50169743  1
  Br  Br146  1  0.45335105  0.66316478  0.79755699  1
  Br  Br147  1  0.06237044  0.84066940  0.18167508  1
  Br  Br148  1  0.93762956  0.15933060  0.81832492  1
  Br  Br149  1  0.03779606  0.11824916  0.10024209  1
  Br  Br150  1  0.14759387  0.95445396  0.01421201  1
  Br  Br151  1  0.41137594  0.52253197  0.42154780  1
  Br  Br152  1  0.04783537  0.90364924  0.68126098  1
  Br  Br153  1  0.67351473  0.13038900  0.80501035  1
  Br  Br154  1  0.43188474  0.14015363  0.99962137  1
  Br  Br155  1  0.50520236  0.95903278  0.89959598  1
  Br  Br156  1  0.48739298  0.17937289  0.51513939  1
  Br  Br157  1  0.85581387  0.90364924  0.18126098  1
  Br  Br158  1  0.45383043  0.95903278  0.39959598  1
  Br  Br159  1  0.18198238  0.89540980  0.31488024  1
