# generated using pymatgen
data_Li9Mn2Co5O16
_symmetry_space_group_name_H-M   'P 1'
_cell_length_a   2.94887786
_cell_length_b   10.63188763
_cell_length_c   10.16554774
_cell_angle_alpha   113.93940288
_cell_angle_beta   87.67047822
_cell_angle_gamma   85.01427281
_symmetry_Int_Tables_number   1
_chemical_formula_structural   Li9Mn2Co5O16
_chemical_formula_sum   'Li9 Mn2 Co5 O16'
_cell_volume   289.18208156
_cell_formula_units_Z   1
loop_
 _symmetry_equiv_pos_site_id
 _symmetry_equiv_pos_as_xyz
  1  'x, y, z'
loop_
 _atom_site_type_symbol
 _atom_site_label
 _atom_site_symmetry_multiplicity
 _atom_site_fract_x
 _atom_site_fract_y
 _atom_site_fract_z
 _atom_site_occupancy
  Li  Li0  1  0.86937991  0.25045933  0.93599937  1
  Li  Li1  1  0.11997031  0.75381218  0.06206933  1
  Li  Li2  1  0.38020047  0.25536141  0.19519841  1
  Li  Li3  1  0.37163438  0.25190469  0.68799380  1
  Li  Li4  1  0.62726118  0.74604666  0.80931667  1
  Li  Li5  1  0.86553185  0.25274420  0.44125097  1
  Li  Li6  1  0.13198762  0.73990617  0.55376145  1
  Li  Li7  1  0.64084709  0.74369349  0.31733263  1
  Li  Li8  1  0.73196839  0.50965154  0.37787994  1
  Mn  Mn9  1  0.99763848  0.00083741  0.00021875  1
  Mn  Mn10  1  0.25529038  0.50117220  0.13098208  1
  Co  Co11  1  0.50489939  0.99838486  0.25017155  1
  Co  Co12  1  0.00118233  0.99907736  0.49983176  1
  Co  Co13  1  0.24640082  0.49698381  0.61432417  1
  Co  Co14  1  0.49613594  0.00191628  0.75048175  1
  Co  Co15  1  0.76108067  0.49728820  0.87183853  1
  O  O16  1  0.39920725  0.12073704  0.96675567  1
  O  O17  1  0.72581523  0.60530691  0.08544098  1
  O  O18  1  0.92845115  0.11749658  0.21510130  1
  O  O19  1  0.93365437  0.11611170  0.71720288  1
  O  O20  1  0.16895706  0.60706359  0.82988368  1
  O  O21  1  0.43452963  0.11471647  0.46790760  1
  O  O22  1  0.65648686  0.61556709  0.59908190  1
  O  O23  1  0.18693071  0.61774734  0.32435983  1
  O  O24  1  0.34796227  0.38789230  0.91314029  1
  O  O25  1  0.59684789  0.87891588  0.03328411  1
  O  O26  1  0.78835939  0.39033526  0.15228754  1
  O  O27  1  0.82472724  0.38772645  0.66457313  1
  O  O28  1  0.06240664  0.88635967  0.78624628  1
  O  O29  1  0.30712504  0.38496100  0.43182290  1
  O  O30  1  0.56947115  0.88412192  0.53308960  1
  O  O31  1  0.06765891  0.88570105  0.28117114  1
