# generated using pymatgen
data_LuAgS2
_symmetry_space_group_name_H-M   'P 1'
_cell_length_a   7.59548173
_cell_length_b   10.35871750
_cell_length_c   7.03786801
_cell_angle_alpha   28.61593504
_cell_angle_beta   57.24109077
_cell_angle_gamma   42.76681766
_symmetry_Int_Tables_number   1
_chemical_formula_structural   LuAgS2
_chemical_formula_sum   'Lu2 Ag2 S4'
_cell_volume   170.74317041
_cell_formula_units_Z   2
loop_
 _symmetry_equiv_pos_site_id
 _symmetry_equiv_pos_as_xyz
  1  'x, y, z'
loop_
 _atom_site_type_symbol
 _atom_site_label
 _atom_site_symmetry_multiplicity
 _atom_site_fract_x
 _atom_site_fract_y
 _atom_site_fract_z
 _atom_site_occupancy
  Lu  Lu0  1  0.00753496  0.99521228  0.00434231  1
  Lu  Lu1  1  0.75784427  0.49205383  0.00783331  1
  Ag  Ag2  1  0.49793324  0.00077846  0.99196592  1
  Ag  Ag3  1  0.24749385  0.50633745  0.99289858  1
  S  S4  1  0.23389027  0.99668273  0.54811410  1
  S  S5  1  0.77377425  0.99951209  0.45492863  1
  S  S6  1  0.52855426  0.49129740  0.46390857  1
  S  S7  1  0.97515290  0.50317777  0.54188359  1
