# generated using pymatgen
data_Li9Mn2Co5O16
_symmetry_space_group_name_H-M   'P 1'
_cell_length_a   2.94721266
_cell_length_b   10.64660373
_cell_length_c   10.15095558
_cell_angle_alpha   113.90180885
_cell_angle_beta   87.55699269
_cell_angle_gamma   85.02601936
_symmetry_Int_Tables_number   1
_chemical_formula_structural   Li9Mn2Co5O16
_chemical_formula_sum   'Li9 Mn2 Co5 O16'
_cell_volume   289.04356850
_cell_formula_units_Z   1
loop_
 _symmetry_equiv_pos_site_id
 _symmetry_equiv_pos_as_xyz
  1  'x, y, z'
loop_
 _atom_site_type_symbol
 _atom_site_label
 _atom_site_symmetry_multiplicity
 _atom_site_fract_x
 _atom_site_fract_y
 _atom_site_fract_z
 _atom_site_occupancy
  Li  Li0  1  0.86928653  0.25259866  0.93684318  1
  Li  Li1  1  0.12977248  0.75346853  0.06896004  1
  Li  Li2  1  0.38987526  0.24446073  0.19074258  1
  Li  Li3  1  0.37522906  0.24744378  0.68453172  1
  Li  Li4  1  0.61948953  0.75171323  0.81102161  1
  Li  Li5  1  0.88321228  0.23857563  0.42768499  1
  Li  Li6  1  0.12183238  0.75110755  0.56266876  1
  Li  Li7  1  0.61110449  0.75470873  0.31752456  1
  Li  Li8  1  0.48001842  0.00944760  0.25226931  1
  Mn  Mn9  1  0.00916866  0.00036366  0.00544961  1
  Mn  Mn10  1  0.24969442  0.50123987  0.12582529  1
  Co  Co11  1  0.75395762  0.49583262  0.37391609  1
  Co  Co12  1  0.99324382  -0.00106229  0.49107695  1
  Co  Co13  1  0.25017318  0.49906780  0.62447683  1
  Co  Co14  1  0.51223042  0.99688790  0.74691371  1
  Co  Co15  1  0.74457950  0.50380485  0.87547059  1
  O  O16  1  0.47731398  0.10463236  0.95859565  1
  O  O17  1  0.65075711  0.62333032  0.09316253  1
  O  O18  1  0.93914657  0.11607861  0.19828318  1
  O  O19  1  0.92206074  0.10817556  0.70575986  1
  O  O20  1  0.18052903  0.61634971  0.84376523  1
  O  O21  1  0.40449425  0.11615435  0.47471702  1
  O  O22  1  0.68391211  0.61480645  0.59248443  1
  O  O23  1  0.18435289  0.61338900  0.34179736  1
  O  O24  1  0.31562315  0.38505806  0.90922715  1
  O  O25  1  0.54198817  0.89000613  0.02626635  1
  O  O26  1  0.84845992  0.38082641  0.15612071  1
  O  O27  1  0.81485725  0.38637562  0.65901489  1
  O  O28  1  0.09240082  0.88704674  0.78813172  1
  O  O29  1  0.32079837  0.38322099  0.40698905  1
  O  O30  1  0.57495396  0.88849760  0.54153222  1
  O  O31  1  0.05548362  0.88639324  0.30877685  1
