# generated using pymatgen
data_La11Mn12O36
_symmetry_space_group_name_H-M   'P 1'
_cell_length_a   11.11552735
_cell_length_b   7.89438273
_cell_length_c   23.59215598
_cell_angle_alpha   90.00000000
_cell_angle_beta   90.00000000
_cell_angle_gamma   45.04226937
_symmetry_Int_Tables_number   1
_chemical_formula_structural   La11Mn12O36
_chemical_formula_sum   'La22 Mn24 O72'
_cell_volume   1464.94406331
_cell_formula_units_Z   2
loop_
 _symmetry_equiv_pos_site_id
 _symmetry_equiv_pos_as_xyz
  1  'x, y, z'
loop_
 _atom_site_type_symbol
 _atom_site_label
 _atom_site_symmetry_multiplicity
 _atom_site_fract_x
 _atom_site_fract_y
 _atom_site_fract_z
 _atom_site_occupancy
  La  La0  1  0.25924056  0.00393671  0.41719918  1
  La  La1  1  0.25924056  0.00393671  0.74946782  1
  La  La2  1  0.23617510  0.50391765  0.24899213  1
  La  La3  1  0.23617510  0.50391765  0.91767487  1
  La  La4  1  0.23165379  0.50960122  0.58333300  1
  La  La5  1  0.26147300  0.49400913  0.08333300  1
  La  La6  1  0.25739494  0.49922293  0.41901309  1
  La  La7  1  0.25739494  0.49922293  0.74765391  1
  La  La8  1  0.25328468  0.98436968  0.58333300  1
  La  La9  1  0.24409878  0.99101851  0.24591673  1
  La  La10  1  0.24409878  0.99101851  0.92075027  1
  La  La11  1  0.74671532  0.01563032  0.08333300  1
  La  La12  1  0.75590122  0.00898149  0.42075027  1
  La  La13  1  0.75590122  0.00898149  0.74591673  1
  La  La14  1  0.73852700  0.50599087  0.58333300  1
  La  La15  1  0.74260506  0.50077707  0.24765391  1
  La  La16  1  0.74260506  0.50077707  0.91901309  1
  La  La17  1  0.76382490  0.49608235  0.74899213  1
  La  La18  1  0.76834621  0.49039878  0.08333300  1
  La  La19  1  0.76382490  0.49608235  0.41767487  1
  La  La20  1  0.74075944  0.99606329  0.24946782  1
  La  La21  1  0.74075944  0.99606329  0.91719918  1
  Mn  Mn22  1  -0.00004498  0.00057321  0.00122018  1
  Mn  Mn23  1  -0.00004498  0.00057321  0.16544682  1
  Mn  Mn24  1  0.00000000  0.00000000  0.33333300  1
  Mn  Mn25  1  1.00004498  0.99942679  0.50122018  1
  Mn  Mn26  1  1.00004498  0.99942679  0.66544682  1
  Mn  Mn27  1  0.00000000  0.00000000  0.83333300  1
  Mn  Mn28  1  0.49667805  0.00052030  0.00130930  1
  Mn  Mn29  1  0.49667805  0.00052030  0.16535770  1
  Mn  Mn30  1  0.50000000  0.00000000  0.33333300  1
  Mn  Mn31  1  0.50332195  0.99947970  0.50130930  1
  Mn  Mn32  1  0.50332195  0.99947970  0.66535770  1
  Mn  Mn33  1  0.50000000  0.00000000  0.83333300  1
  Mn  Mn34  1  0.50315434  0.49454306  0.50141269  1
  Mn  Mn35  1  0.50000000  0.50000000  0.83333300  1
  Mn  Mn36  1  0.49684566  0.50545694  0.16525431  1
  Mn  Mn37  1  0.50315434  0.49454306  0.66525431  1
  Mn  Mn38  1  0.49684566  0.50545694  0.00141269  1
  Mn  Mn39  1  0.50000000  0.50000000  0.33333300  1
  Mn  Mn40  1  0.00255326  0.49592946  0.16570978  1
  Mn  Mn41  1  0.99744674  0.50407054  0.50095722  1
  Mn  Mn42  1  0.00000000  0.50000000  0.83333300  1
  Mn  Mn43  1  0.00255326  0.49592946  0.00095722  1
  Mn  Mn44  1  0.00000000  0.50000000  0.33333300  1
  Mn  Mn45  1  0.99744674  0.50407054  0.66570978  1
  O  O46  1  0.99547967  0.25504793  0.00565543  1
  O  O47  1  0.99547967  0.25504793  0.16101057  1
  O  O48  1  0.02322694  0.22827043  0.34630598  1
  O  O49  1  0.02279966  0.22799273  0.48626670  1
  O  O50  1  0.02279966  0.22799273  0.68040030  1
  O  O51  1  0.02322694  0.22827043  0.82036102  1
  O  O52  1  0.04380958  0.42467312  0.58333300  1
  O  O53  1  0.04293945  0.42603115  0.91562244  1
  O  O54  1  0.04293945  0.42603115  0.25104456  1
  O  O55  1  0.25001971  0.27519290  0.34759938  1
  O  O56  1  0.24959294  0.29092530  0.15964477  1
  O  O57  1  0.24959294  0.29092530  0.00702123  1
  O  O58  1  0.25118750  0.26306857  0.48593549  1
  O  O59  1  0.25001971  0.27519290  0.81906762  1
  O  O60  1  0.25118750  0.26306857  0.68073151  1
  O  O61  1  0.01909432  0.92622776  0.08333300  1
  O  O62  1  0.03138889  0.93312524  0.41601268  1
  O  O63  1  0.03138889  0.93312524  0.75065432  1
  O  O64  1  0.46872095  0.07100675  0.25129154  1
  O  O65  1  0.44786161  0.07184951  0.58333300  1
  O  O66  1  0.46872095  0.07100675  0.91537546  1
  O  O67  1  0.24864483  0.72821645  0.18120305  1
  O  O68  1  0.24955822  0.72851841  0.31920500  1
  O  O69  1  0.25121663  0.73139040  0.51251485  1
  O  O70  1  0.24955822  0.72851841  0.84746200  1
  O  O71  1  0.25121663  0.73139040  0.65415115  1
  O  O72  1  0.24864483  0.72821645  0.98546395  1
  O  O73  1  0.52645895  0.22357125  0.34686187  1
  O  O74  1  0.52068920  0.22867083  0.15761040  1
  O  O75  1  0.52068920  0.22867083  0.00905560  1
  O  O76  1  0.52645895  0.22357125  0.81980513  1
  O  O77  1  0.50863419  0.24149041  0.68257880  1
  O  O78  1  0.50863419  0.24149041  0.48408820  1
  O  O79  1  0.45768612  0.57252553  0.75157234  1
  O  O80  1  0.47259326  0.53011707  0.08333300  1
  O  O81  1  0.45768612  0.57252553  0.41509466  1
  O  O82  1  0.52740674  0.46988293  0.58333300  1
  O  O83  1  0.54231388  0.42747447  0.25157234  1
  O  O84  1  0.54231388  0.42747447  0.91509466  1
  O  O85  1  0.47931080  0.77132917  0.65761040  1
  O  O86  1  0.49136581  0.75850959  0.18257880  1
  O  O87  1  0.47354105  0.77642875  0.31980513  1
  O  O88  1  0.47931080  0.77132917  0.50905560  1
  O  O89  1  0.47354105  0.77642875  0.84686187  1
  O  O90  1  0.49136581  0.75850959  0.98408820  1
  O  O91  1  0.75135517  0.27178355  0.48546395  1
  O  O92  1  0.75044178  0.27148159  0.34746200  1
  O  O93  1  0.75135517  0.27178355  0.68120305  1
  O  O94  1  0.74878337  0.26860960  0.15415115  1
  O  O95  1  0.74878337  0.26860960  0.01251485  1
  O  O96  1  0.75044178  0.27148159  0.81920500  1
  O  O97  1  0.53127905  0.92899325  0.41537546  1
  O  O98  1  0.55213839  0.92815049  0.08333300  1
  O  O99  1  0.53127905  0.92899325  0.75129154  1
  O  O100  1  0.96861111  0.06687476  0.25065432  1
  O  O101  1  0.98090568  0.07377224  0.58333300  1
  O  O102  1  0.96861111  0.06687476  0.91601268  1
  O  O103  1  0.75040706  0.70907470  0.50702123  1
  O  O104  1  0.74998029  0.72480710  0.84759938  1
  O  O105  1  0.74881250  0.73693143  0.18073151  1
  O  O106  1  0.74998029  0.72480710  0.31906762  1
  O  O107  1  0.75040706  0.70907470  0.65964477  1
  O  O108  1  0.74881250  0.73693143  0.98593549  1
  O  O109  1  0.95619042  0.57532688  0.08333300  1
  O  O110  1  0.95706055  0.57396885  0.41562244  1
  O  O111  1  0.95706055  0.57396885  0.75104456  1
  O  O112  1  0.97720034  0.77200727  0.18040030  1
  O  O113  1  0.97677306  0.77172957  0.32036102  1
  O  O114  1  0.00452033  0.74495207  0.50565543  1
  O  O115  1  0.97677306  0.77172957  0.84630598  1
  O  O116  1  0.00452033  0.74495207  0.66101057  1
  O  O117  1  0.97720034  0.77200727  0.98626670  1
