# generated using pymatgen
data_Cr5S8
_symmetry_space_group_name_H-M   'P 1'
_cell_length_a   13.12331145
_cell_length_b   17.78116434
_cell_length_c   11.68737665
_cell_angle_alpha   25.83782578
_cell_angle_beta   48.87704456
_cell_angle_gamma   36.75091489
_symmetry_Int_Tables_number   1
_chemical_formula_structural   Cr5S8
_chemical_formula_sum   'Cr15 S24'
_cell_volume   689.79426398
_cell_formula_units_Z   3
loop_
 _symmetry_equiv_pos_site_id
 _symmetry_equiv_pos_as_xyz
  1  'x, y, z'
loop_
 _atom_site_type_symbol
 _atom_site_label
 _atom_site_symmetry_multiplicity
 _atom_site_fract_x
 _atom_site_fract_y
 _atom_site_fract_z
 _atom_site_occupancy
  Cr  Cr0  1  0.00367576  0.99481765  0.00329681  1
  Cr  Cr1  1  0.16649062  0.99959895  0.33653010  1
  Cr  Cr2  1  0.49632424  0.00518235  0.99670319  1
  Cr  Cr3  1  0.33350938  0.00040105  0.66346990  1
  Cr  Cr4  1  0.25000000  0.50000000  0.00000000  1
  Cr  Cr5  1  0.99713733  0.50134884  0.50010257  1
  Cr  Cr6  1  0.66297424  0.99101669  0.33506698  1
  Cr  Cr7  1  0.09447503  0.49149690  0.68408342  1
  Cr  Cr8  1  0.40552497  0.50850310  0.31591658  1
  Cr  Cr9  1  0.83702576  0.00898331  0.66493302  1
  Cr  Cr10  1  0.75000000  0.50000000  0.00000000  1
  Cr  Cr11  1  0.50286267  0.49865116  0.49989743  1
  Cr  Cr12  1  0.58324168  0.50017919  0.68222646  1
  Cr  Cr13  1  0.91675832  0.49982081  0.31777354  1
  Cr  Cr14  1  0.75000000  0.00000000  0.50000000  1
  S  S15  1  0.29385921  0.15606881  0.09019823  1
  S  S16  1  0.13424715  0.32706024  0.25691947  1
  S  S17  1  0.11517775  0.17789254  0.73552442  1
  S  S18  1  0.03982276  0.66040734  0.08963021  1
  S  S19  1  0.46417369  0.16318157  0.40884841  1
  S  S20  1  0.28514041  0.33546681  0.59054336  1
  S  S21  1  0.79143291  0.15608250  0.09453967  1
  S  S22  1  0.63216617  0.32589554  0.25832867  1
  S  S23  1  0.21485959  0.66453319  0.40945664  1
  S  S24  1  0.61507347  0.17706221  0.73929082  1
  S  S25  1  0.03582631  0.83681843  0.59115159  1
  S  S26  1  0.53876459  0.65818128  0.09174671  1
  S  S27  1  0.46017724  0.33959266  0.91036979  1
  S  S28  1  0.96013385  0.16962899  0.40397281  1
  S  S29  1  0.38482225  0.82210746  0.26447558  1
  S  S30  1  0.78872853  0.33262637  0.59338432  1
  S  S31  1  0.36575285  0.67293976  0.74308053  1
  S  S32  1  0.20614079  0.84393119  0.90980177  1
  S  S33  1  0.71127147  0.66737363  0.40661568  1
  S  S34  1  0.53986615  0.83037101  0.59602719  1
  S  S35  1  0.96123541  0.34181872  0.90825329  1
  S  S36  1  0.88492653  0.82293779  0.26070918  1
  S  S37  1  0.86783383  0.67410446  0.74167133  1
  S  S38  1  0.70856709  0.84391750  0.90546033  1
