# generated using pymatgen
data_Li10Ge(PSe6)2
_symmetry_space_group_name_H-M   'P 1'
_cell_length_a   9.28743534
_cell_length_b   9.28743534
_cell_length_c   13.36895596
_cell_angle_alpha   90.00000000
_cell_angle_beta   90.00000000
_cell_angle_gamma   90.00000000
_symmetry_Int_Tables_number   1
_chemical_formula_structural   Li10Ge(PSe6)2
_chemical_formula_sum   'Li20 Ge2 P4 Se24'
_cell_volume   1153.15875076
_cell_formula_units_Z   2
loop_
 _symmetry_equiv_pos_site_id
 _symmetry_equiv_pos_as_xyz
  1  'x, y, z'
loop_
 _atom_site_type_symbol
 _atom_site_label
 _atom_site_symmetry_multiplicity
 _atom_site_fract_x
 _atom_site_fract_y
 _atom_site_fract_z
 _atom_site_occupancy
  Li  Li0  1  0.23028115  0.77359056  0.29489041  1
  Li  Li1  1  0.76971885  0.22640944  0.29489041  1
  Li  Li2  1  0.27359056  0.26971885  0.79489041  1
  Li  Li3  1  0.72640944  0.73028115  0.79489041  1
  Li  Li4  1  0.23028115  0.22640944  0.29489041  1
  Li  Li5  1  0.76971885  0.77359056  0.29489041  1
  Li  Li6  1  0.27359056  0.73028115  0.79489041  1
  Li  Li7  1  0.72640944  0.26971885  0.79489041  1
  Li  Li8  1  0.00000000  0.50000000  0.94111710  1
  Li  Li9  1  0.00000000  0.50000000  0.44111710  1
  Li  Li10  1  0.50000000  0.00000000  0.54686775  1
  Li  Li11  1  0.50000000  0.00000000  0.04686775  1
  Li  Li12  1  0.25894001  0.22618066  0.03571813  1
  Li  Li13  1  0.74105999  0.77381934  0.03571813  1
  Li  Li14  1  0.27381934  0.75894001  0.53571813  1
  Li  Li15  1  0.72618066  0.24105999  0.53571813  1
  Li  Li16  1  0.27381934  0.24105999  0.53571813  1
  Li  Li17  1  0.72618066  0.75894001  0.53571813  1
  Li  Li18  1  0.25894001  0.77381934  0.03571813  1
  Li  Li19  1  0.74105999  0.22618066  0.03571813  1
  Ge  Ge20  1  0.50000000  0.00000000  0.80121971  1
  Ge  Ge21  1  0.50000000  0.00000000  0.30121971  1
  P  P22  1  0.00000000  0.50000000  0.68537357  1
  P  P23  1  0.00000000  0.50000000  0.18537357  1
  P  P24  1  0.00000000  0.00000000  0.50382419  1
  P  P25  1  0.50000000  0.50000000  0.00382419  1
  Se  Se26  1  0.00000000  0.19948523  0.40944788  1
  Se  Se27  1  0.00000000  0.80051477  0.40944788  1
  Se  Se28  1  0.30051477  0.50000000  0.90944788  1
  Se  Se29  1  0.69948523  0.50000000  0.90944788  1
  Se  Se30  1  0.50000000  0.69394752  0.10129219  1
  Se  Se31  1  0.50000000  0.30605248  0.10129219  1
  Se  Se32  1  0.19394752  0.00000000  0.60129219  1
  Se  Se33  1  0.80605248  0.00000000  0.60129219  1
  Se  Se34  1  0.00000000  0.29828933  0.09283429  1
  Se  Se35  1  0.00000000  0.70171067  0.09283429  1
  Se  Se36  1  0.20171067  0.50000000  0.59283429  1
  Se  Se37  1  0.79828933  0.50000000  0.59283429  1
  Se  Se38  1  0.50000000  0.78549797  0.40297552  1
  Se  Se39  1  0.50000000  0.21450203  0.40297552  1
  Se  Se40  1  0.28549797  0.00000000  0.90297552  1
  Se  Se41  1  0.71450203  0.00000000  0.90297552  1
  Se  Se42  1  0.00000000  0.69731966  0.77919885  1
  Se  Se43  1  0.00000000  0.30268034  0.77919885  1
  Se  Se44  1  0.80268034  0.50000000  0.27919885  1
  Se  Se45  1  0.19731966  0.50000000  0.27919885  1
  Se  Se46  1  0.50000000  0.20975562  0.69743452  1
  Se  Se47  1  0.50000000  0.79024438  0.69743452  1
  Se  Se48  1  0.70975562  0.00000000  0.19743452  1
  Se  Se49  1  0.29024438  0.00000000  0.19743452  1
