# generated using pymatgen
data_Ca14La6Mg3Ti17O60
_symmetry_space_group_name_H-M   'P 1'
_cell_length_a   5.48077928
_cell_length_b   5.54818181
_cell_length_c   38.92920846
_cell_angle_alpha   90.09665385
_cell_angle_beta   90.02389999
_cell_angle_gamma   89.91379646
_symmetry_Int_Tables_number   1
_chemical_formula_structural   Ca14La6Mg3Ti17O60
_chemical_formula_sum   'Ca14 La6 Mg3 Ti17 O60'
_cell_volume   1183.77025546
_cell_formula_units_Z   1
loop_
 _symmetry_equiv_pos_site_id
 _symmetry_equiv_pos_as_xyz
  1  'x, y, z'
loop_
 _atom_site_type_symbol
 _atom_site_label
 _atom_site_symmetry_multiplicity
 _atom_site_fract_x
 _atom_site_fract_y
 _atom_site_fract_z
 _atom_site_occupancy
  Ca  Ca0  1  0.01238170  0.96073770  0.14865763  1
  Ca  Ca1  1  0.01081532  0.96102268  0.94983225  1
  Ca  Ca2  1  0.48893546  0.46023385  0.14869140  1
  Ca  Ca3  1  0.48629494  0.45899993  0.94973751  1
  Ca  Ca4  1  0.51186009  0.54014642  0.04922801  1
  Ca  Ca5  1  0.51073968  0.54031176  0.24747248  1
  Ca  Ca6  1  0.51505671  0.54370277  0.64856991  1
  Ca  Ca7  1  0.51507960  0.54379308  0.44830727  1
  Ca  Ca8  1  0.51661397  0.54331311  0.85004245  1
  Ca  Ca9  1  0.98775360  0.03952718  0.04932647  1
  Ca  Ca10  1  0.99199404  0.03879024  0.24738070  1
  Ca  Ca11  1  0.98769212  0.03641710  0.64900875  1
  Ca  Ca12  1  0.98796816  0.03653402  0.44875089  1
  Ca  Ca13  1  0.98360993  0.03826819  0.85046136  1
  La  La14  1  0.00774565  0.96996319  0.35163976  1
  La  La15  1  0.00575382  0.97081529  0.55219830  1
  La  La16  1  0.00559934  0.97112565  0.75264478  1
  La  La17  1  0.49119547  0.46730878  0.35151968  1
  La  La18  1  0.48940816  0.46607951  0.55204937  1
  La  La19  1  0.48891435  0.46619652  0.75249132  1
  Mg  Mg20  1  0.49943219  0.99944655  0.60160648  1
  Mg  Mg21  1  0.49948371  0.99992001  0.40157283  1
  Mg  Mg22  1  0.49936067  0.99906403  0.80196570  1
  Ti  Ti23  1  0.99102376  0.49825416  0.99932422  1
  Ti  Ti24  1  0.00399397  0.50106402  0.09845550  1
  Ti  Ti25  1  0.00532604  0.50190177  0.19751799  1
  Ti  Ti26  1  0.00009797  0.49604216  0.29706064  1
  Ti  Ti27  1  -0.00076855  0.50001265  0.40267841  1
  Ti  Ti28  1  -0.00046749  0.49986764  0.60338839  1
  Ti  Ti29  1  0.99677224  0.49992866  0.69919253  1
  Ti  Ti30  1  -0.00066989  0.49983317  0.80417073  1
  Ti  Ti31  1  0.49778881  0.00141776  0.09819852  1
  Ti  Ti32  1  0.50376654  0.99597256  0.29763593  1
  Ti  Ti33  1  0.49915323  -0.00011014  0.49757490  1
  Ti  Ti34  1  0.49778321  0.99608738  0.99798746  1
  Ti  Ti35  1  0.49756379  -0.00032638  0.69784214  1
  Ti  Ti36  1  0.49129040  0.00720523  0.89844226  1
  Ti  Ti37  1  0.51014752  0.00467445  0.19846842  1
  Ti  Ti38  1  0.99846066  0.49968391  0.49884672  1
  Ti  Ti39  1  0.00163489  0.50686528  0.90056635  1
  O  O40  1  0.08421040  0.47927610  0.05090380  1
  O  O41  1  0.08372697  0.47916296  0.24975378  1
  O  O42  1  0.09142932  0.47451162  0.45063011  1
  O  O43  1  0.09186223  0.47446547  0.65103616  1
  O  O44  1  0.08991940  0.47376671  0.85213598  1
  O  O45  1  0.21821355  0.21913059  0.10931207  1
  O  O46  1  0.22266259  0.22536410  0.30797575  1
  O  O47  1  0.22138398  0.22372969  0.70925231  1
  O  O48  1  0.22109935  0.22388777  0.50894192  1
  O  O49  1  0.21369806  0.21636200  0.19115052  1
  O  O50  1  0.21772633  0.21603057  0.91056132  1
  O  O51  1  0.21529614  0.22755009  0.39037914  1
  O  O52  1  0.21444170  0.22768131  0.59086329  1
  O  O53  1  0.21453829  0.22814507  0.79138662  1
  O  O54  1  0.21916203  0.21800076  0.99184369  1
  O  O55  1  0.28017988  0.71815884  0.10928632  1
  O  O56  1  0.27941146  0.71400946  0.19119424  1
  O  O57  1  0.27626025  0.72415905  0.30801523  1
  O  O58  1  0.27421023  0.71329442  0.39061018  1
  O  O59  1  0.27290782  0.71262978  0.59105082  1
  O  O60  1  0.27390446  0.72047039  0.50933649  1
  O  O61  1  0.27825949  0.71398577  0.91064911  1
  O  O62  1  0.28503699  0.71842537  0.99178483  1
  O  O63  1  0.27435668  0.72069426  0.70963745  1
  O  O64  1  0.27250236  0.71276564  0.79160842  1
  O  O65  1  0.41697559  0.97948758  0.05120112  1
  O  O66  1  0.41533075  0.97852656  0.24956369  1
  O  O67  1  0.40860519  0.97175408  0.65255010  1
  O  O68  1  0.40806056  0.97132906  0.45232323  1
  O  O69  1  0.40873975  0.97230888  0.85343827  1
  O  O70  1  0.57595817  0.01346061  0.34691207  1
  O  O71  1  0.58237910  0.01989060  0.15073678  1
  O  O72  1  0.57745123  0.01429519  0.54781552  1
  O  O73  1  0.57779286  0.01441283  0.74818223  1
  O  O74  1  0.58554156  0.02030183  0.95182661  1
  O  O75  1  0.72199710  0.28320880  0.00960712  1
  O  O76  1  0.71693724  0.28233450  0.09157386  1
  O  O77  1  0.72060889  0.28254262  0.29020723  1
  O  O78  1  0.71565410  0.27903699  0.20898290  1
  O  O79  1  0.72618228  0.29064629  0.60843642  1
  O  O80  1  0.72059599  0.28174017  0.49022496  1
  O  O81  1  0.72602668  0.29095258  0.40793696  1
  O  O82  1  0.72103185  0.28191089  0.69052033  1
  O  O83  1  0.72602253  0.29056249  0.80903546  1
  O  O84  1  0.71574005  0.27972746  0.89189279  1
  O  O85  1  0.78401489  0.78070650  0.00965336  1
  O  O86  1  0.77899948  0.78014461  0.20895705  1
  O  O87  1  0.78288317  0.78212403  0.09155880  1
  O  O88  1  0.79511823  0.77790467  0.40821260  1
  O  O89  1  0.79462306  0.77713923  0.60856518  1
  O  O90  1  0.78270703  0.77788779  0.69082677  1
  O  O91  1  0.78076101  0.78173496  0.29023615  1
  O  O92  1  0.78238548  0.77805924  0.49057713  1
  O  O93  1  0.79457268  0.77710228  0.80921805  1
  O  O94  1  0.78480134  0.77723537  0.89203345  1
  O  O95  1  0.91498777  0.52068560  0.15053029  1
  O  O96  1  0.92379802  0.51348600  0.34818752  1
  O  O97  1  0.92219808  0.51104257  0.54851960  1
  O  O98  1  0.92232901  0.51107682  0.74893675  1
  O  O99  1  0.91520357  0.51949064  0.95121368  1
