# generated using pymatgen
data_Na3CaAl4Si8ClO24
_symmetry_space_group_name_H-M   'P 1'
_cell_length_a   7.71425618
_cell_length_b   9.39511039
_cell_length_c   9.39906179
_cell_angle_alpha   80.41696533
_cell_angle_beta   66.26766338
_cell_angle_gamma   65.88973288
_symmetry_Int_Tables_number   1
_chemical_formula_structural   Na3CaAl4Si8ClO24
_chemical_formula_sum   'Na3 Ca1 Al4 Si8 Cl1 O24'
_cell_volume   569.19880655
_cell_formula_units_Z   1
loop_
 _symmetry_equiv_pos_site_id
 _symmetry_equiv_pos_as_xyz
  1  'x, y, z'
loop_
 _atom_site_type_symbol
 _atom_site_label
 _atom_site_symmetry_multiplicity
 _atom_site_fract_x
 _atom_site_fract_y
 _atom_site_fract_z
 _atom_site_occupancy
  Na  Na0  1  0.13304702  0.08240455  0.65910281  1
  Na  Na1  1  0.22083988  0.66614637  0.91244478  1
  Na  Na2  1  0.86955170  0.91613000  0.34273762  1
  Ca  Ca3  1  0.78190159  0.35110837  0.08235861  1
  Al  Al4  1  0.13307608  0.74970837  0.57514780  1
  Al  Al5  1  0.45356155  0.25298386  0.42645655  1
  Al  Al6  1  0.71282770  0.42314439  0.74436378  1
  Al  Al7  1  0.87916348  0.57299143  0.25467328  1
  Si  Si8  1  0.33743158  0.06795515  0.25357780  1
  Si  Si9  1  0.12311057  0.42470584  0.75345133  1
  Si  Si10  1  0.29118929  0.57782439  0.24673140  1
  Si  Si11  1  0.41278137  0.25025351  0.93007388  1
  Si  Si12  1  0.58670605  0.74684621  0.07088185  1
  Si  Si13  1  0.54315893  0.75226291  0.57768767  1
  Si  Si14  1  0.87456023  0.24248685  0.42116196  1
  Si  Si15  1  0.66138048  0.92918570  0.74739421  1
  Cl  Cl16  1  0.97564346  0.03281028  0.01040858  1
  O  O17  1  0.09673483  0.09388796  0.35573135  1
  O  O18  1  0.12675014  0.57455802  0.18134084  1
  O  O19  1  0.34692146  0.18850152  0.10726609  1
  O  O20  1  0.17183181  0.69791837  0.39061132  1
  O  O21  1  0.43598433  0.09779849  0.36211050  1
  O  O22  1  0.26219409  0.30273473  0.60982346  1
  O  O23  1  0.13273531  0.59606170  0.71045987  1
  O  O24  1  0.19700816  0.36040172  0.90441843  1
  O  O25  1  0.44320884  0.40597457  0.28402748  1
  O  O26  1  0.45007208  0.64117359  0.09520382  1
  O  O27  1  0.31396354  0.81740201  0.57497699  1
  O  O28  1  0.45668824  0.88870644  0.19389015  1
  O  O29  1  0.53304646  0.10766700  0.80772869  1
  O  O30  1  0.70401780  0.18140011  0.42390702  1
  O  O31  1  0.55113518  0.35130935  0.90432378  1
  O  O32  1  0.56350645  0.60950157  0.70261137  1
  O  O33  1  0.79198113  0.62558979  0.09933437  1
  O  O34  1  0.87247034  0.38419885  0.29150073  1
  O  O35  1  0.72853607  0.70526525  0.40853141  1
  O  O36  1  0.55275277  0.90206825  0.64145187  1
  O  O37  1  0.84843098  0.29342379  0.58712757  1
  O  O38  1  0.64274880  0.80892594  0.89358793  1
  O  O39  1  0.89115707  0.42260421  0.82013691  1
  O  O40  1  0.89619316  0.90397860  0.64124413  1
