# generated using pymatgen
data_K3P2H7O10
_symmetry_space_group_name_H-M   'P 1'
_cell_length_a   6.18876206
_cell_length_b   10.48250064
_cell_length_c   17.06464182
_cell_angle_alpha   90.00000000
_cell_angle_beta   89.65172458
_cell_angle_gamma   90.00000000
_symmetry_Int_Tables_number   1
_chemical_formula_structural   K3P2H7O10
_chemical_formula_sum   'K12 P8 H28 O40'
_cell_volume   1107.02604078
_cell_formula_units_Z   4
loop_
 _symmetry_equiv_pos_site_id
 _symmetry_equiv_pos_as_xyz
  1  'x, y, z'
loop_
 _atom_site_type_symbol
 _atom_site_label
 _atom_site_symmetry_multiplicity
 _atom_site_fract_x
 _atom_site_fract_y
 _atom_site_fract_z
 _atom_site_occupancy
  K  K0  1  0.39960296  0.12568594  0.89450212  1
  K  K1  1  0.60039704  0.62568594  0.60549788  1
  K  K2  1  0.60039704  0.87431406  0.10549788  1
  K  K3  1  0.39960296  0.37431406  0.39450212  1
  K  K4  1  0.65520354  0.98783706  0.69405483  1
  K  K5  1  0.34479646  0.48783706  0.80594517  1
  K  K6  1  0.34479646  0.01216294  0.30594517  1
  K  K7  1  0.65520354  0.51216294  0.19405483  1
  K  K8  1  0.20726424  0.11404465  0.54831872  1
  K  K9  1  0.79273576  0.61404465  0.95168128  1
  K  K10  1  0.79273576  0.88595535  0.45168128  1
  K  K11  1  0.20726424  0.38595535  0.04831872  1
  P  P12  1  0.12591708  0.79654419  0.64828739  1
  P  P13  1  0.87408292  0.29654419  0.85171261  1
  P  P14  1  0.87408292  0.20345581  0.35171261  1
  P  P15  1  0.12591708  0.70345581  0.14828739  1
  P  P16  1  0.16216036  0.85285483  0.82112279  1
  P  P17  1  0.83783964  0.35285483  0.67887721  1
  P  P18  1  0.83783964  0.14714517  0.17887721  1
  P  P19  1  0.16216036  0.64714517  0.32112279  1
  H  H20  1  0.06589135  0.58073444  0.65827345  1
  H  H21  1  0.93410865  0.08073444  0.84172655  1
  H  H22  1  0.93410865  0.41926556  0.34172655  1
  H  H23  1  0.06589135  0.91926556  0.15827345  1
  H  H24  1  0.81245998  0.68786834  0.78610141  1
  H  H25  1  0.18754002  0.18786834  0.71389859  1
  H  H26  1  0.18754002  0.31213166  0.21389859  1
  H  H27  1  0.81245998  0.81213166  0.28610141  1
  H  H28  1  0.57548679  0.74525773  0.78949016  1
  H  H29  1  0.42451321  0.24525773  0.71050984  1
  H  H30  1  0.42451321  0.25474227  0.21050984  1
  H  H31  1  0.57548679  0.75474227  0.28949016  1
  H  H32  1  0.25196168  0.66562506  0.92530520  1
  H  H33  1  0.74803832  0.16562506  0.57469480  1
  H  H34  1  0.74803832  0.33437494  0.07469480  1
  H  H35  1  0.25196168  0.83437494  0.42530520  1
  H  H36  1  0.33165873  0.63687731  0.01381831  1
  H  H37  1  0.66834127  0.13687731  0.48618169  1
  H  H38  1  0.66834127  0.36312269  0.98618169  1
  H  H39  1  0.33165873  0.86312269  0.51381831  1
  H  H40  1  0.80872800  0.90830169  0.92213589  1
  H  H41  1  0.19127200  0.40830169  0.57786411  1
  H  H42  1  0.19127200  0.09169831  0.07786411  1
  H  H43  1  0.80872800  0.59169831  0.42213589  1
  H  H44  1  0.56883434  0.86933580  0.90356690  1
  H  H45  1  0.43116566  0.36933580  0.59643310  1
  H  H46  1  0.43116566  0.13066420  0.09643310  1
  H  H47  1  0.56883434  0.63066420  0.40356690  1
  O  O48  1  0.17663697  0.65244600  0.67123755  1
  O  O49  1  0.82336303  0.15244600  0.82876245  1
  O  O50  1  0.82336303  0.34755400  0.32876245  1
  O  O51  1  0.17663697  0.84755400  0.17123755  1
  O  O52  1  0.33322875  0.85294609  0.61515435  1
  O  O53  1  0.66677125  0.35294609  0.88484565  1
  O  O54  1  0.66677125  0.14705391  0.38484565  1
  O  O55  1  0.33322875  0.64705391  0.11515435  1
  O  O56  1  0.92376820  0.81080811  0.59997987  1
  O  O57  1  0.07623180  0.31080811  0.90002013  1
  O  O58  1  0.07623180  0.18919189  0.40002013  1
  O  O59  1  0.92376820  0.68919189  0.09997987  1
  O  O60  1  0.06905790  0.86769387  0.73090460  1
  O  O61  1  0.93094210  0.36769387  0.76909540  1
  O  O62  1  0.93094210  0.13230613  0.26909540  1
  O  O63  1  0.06905790  0.63230613  0.23090460  1
  O  O64  1  0.09148350  0.72024755  0.84890782  1
  O  O65  1  0.90851650  0.22024755  0.65109218  1
  O  O66  1  0.90851650  0.27975245  0.15109218  1
  O  O67  1  0.09148350  0.77975245  0.34890782  1
  O  O68  1  0.04607066  0.96148822  0.86489310  1
  O  O69  1  0.95392934  0.46148822  0.63510690  1
  O  O70  1  0.95392934  0.03851178  0.13510690  1
  O  O71  1  0.04607066  0.53851178  0.36489310  1
  O  O72  1  0.40806696  0.87179239  0.81758736  1
  O  O73  1  0.59193304  0.37179239  0.68241264  1
  O  O74  1  0.59193304  0.12820761  0.18241264  1
  O  O75  1  0.40806696  0.62820761  0.31758736  1
  O  O76  1  0.66164103  0.66956642  0.77254739  1
  O  O77  1  0.33835897  0.16956642  0.72745261  1
  O  O78  1  0.33835897  0.33043358  0.22745261  1
  O  O79  1  0.66164103  0.83043358  0.27254739  1
  O  O80  1  0.34144723  0.60798806  0.95824914  1
  O  O81  1  0.65855277  0.10798806  0.54175086  1
  O  O82  1  0.65855277  0.39201194  0.04175086  1
  O  O83  1  0.34144723  0.89201194  0.45824914  1
  O  O84  1  0.67352184  0.87741158  0.94718707  1
  O  O85  1  0.32647816  0.37741158  0.55281293  1
  O  O86  1  0.32647816  0.12258842  0.05281293  1
  O  O87  1  0.67352184  0.62258842  0.44718707  1
