# generated using pymatgen
data_Li10Si(PS6)2
_symmetry_space_group_name_H-M   'P 1'
_cell_length_a   8.78389592
_cell_length_b   8.78389592
_cell_length_c   12.60642480
_cell_angle_alpha   90.00000000
_cell_angle_beta   90.00000000
_cell_angle_gamma   90.00000000
_symmetry_Int_Tables_number   1
_chemical_formula_structural   Li10Si(PS6)2
_chemical_formula_sum   'Li20 Si2 P4 S24'
_cell_volume   972.67174411
_cell_formula_units_Z   2
loop_
 _symmetry_equiv_pos_site_id
 _symmetry_equiv_pos_as_xyz
  1  'x, y, z'
loop_
 _atom_site_type_symbol
 _atom_site_label
 _atom_site_symmetry_multiplicity
 _atom_site_fract_x
 _atom_site_fract_y
 _atom_site_fract_z
 _atom_site_occupancy
  Li  Li0  1  0.23032192  0.77342463  0.29490068  1
  Li  Li1  1  0.76967808  0.22657537  0.29490068  1
  Li  Li2  1  0.27342463  0.26967808  0.79490068  1
  Li  Li3  1  0.72657537  0.73032192  0.79490068  1
  Li  Li4  1  0.23032192  0.22657537  0.29490068  1
  Li  Li5  1  0.76967808  0.77342463  0.29490068  1
  Li  Li6  1  0.27342463  0.73032192  0.79490068  1
  Li  Li7  1  0.72657537  0.26967808  0.79490068  1
  Li  Li8  1  0.00000000  0.50000000  0.93956147  1
  Li  Li9  1  0.00000000  0.50000000  0.43956147  1
  Li  Li10  1  0.50000000  0.00000000  0.54804978  1
  Li  Li11  1  0.50000000  0.00000000  0.04804978  1
  Li  Li12  1  0.25677837  0.22470427  0.03626053  1
  Li  Li13  1  0.74322163  0.77529573  0.03626053  1
  Li  Li14  1  0.27529573  0.75677837  0.53626053  1
  Li  Li15  1  0.72470427  0.24322163  0.53626053  1
  Li  Li16  1  0.27529573  0.24322163  0.53626053  1
  Li  Li17  1  0.72470427  0.75677837  0.53626053  1
  Li  Li18  1  0.25677837  0.77529573  0.03626053  1
  Li  Li19  1  0.74322163  0.22470427  0.03626053  1
  Si  Si20  1  0.50000000  0.00000000  0.80123289  1
  Si  Si21  1  0.50000000  0.00000000  0.30123289  1
  P  P22  1  0.00000000  0.50000000  0.68595927  1
  P  P23  1  0.00000000  0.50000000  0.18595927  1
  P  P24  1  0.00000000  0.00000000  0.50388894  1
  P  P25  1  0.50000000  0.50000000  0.00388894  1
  S  S26  1  0.00000000  0.19472089  0.41162383  1
  S  S27  1  0.00000000  0.80527911  0.41162383  1
  S  S28  1  0.30527911  0.50000000  0.91162383  1
  S  S29  1  0.69472089  0.50000000  0.91162383  1
  S  S30  1  0.50000000  0.68994125  0.09738264  1
  S  S31  1  0.50000000  0.31005875  0.09738264  1
  S  S32  1  0.18994125  0.00000000  0.59738264  1
  S  S33  1  0.81005875  0.00000000  0.59738264  1
  S  S34  1  0.00000000  0.30407918  0.09412159  1
  S  S35  1  0.00000000  0.69592082  0.09412159  1
  S  S36  1  0.19592082  0.50000000  0.59412159  1
  S  S37  1  0.80407918  0.50000000  0.59412159  1
  S  S38  1  0.50000000  0.79829461  0.39962876  1
  S  S39  1  0.50000000  0.20170539  0.39962876  1
  S  S40  1  0.29829461  0.00000000  0.89962876  1
  S  S41  1  0.70170539  0.00000000  0.89962876  1
  S  S42  1  0.00000000  0.69253797  0.77723659  1
  S  S43  1  0.00000000  0.30746203  0.77723659  1
  S  S44  1  0.80746203  0.50000000  0.27723659  1
  S  S45  1  0.19253797  0.50000000  0.27723659  1
  S  S46  1  0.50000000  0.19873775  0.70194001  1
  S  S47  1  0.50000000  0.80126225  0.70194001  1
  S  S48  1  0.69873775  0.00000000  0.20194001  1
  S  S49  1  0.30126225  0.00000000  0.20194001  1
