# generated using pymatgen
data_Li2VCl4
_symmetry_space_group_name_H-M   'P 1'
_cell_length_a   7.40206055
_cell_length_b   7.38953438
_cell_length_c   7.40206024
_cell_angle_alpha   60.05596197
_cell_angle_beta   60.26929942
_cell_angle_gamma   60.05595884
_symmetry_Int_Tables_number   1
_chemical_formula_structural   Li2VCl4
_chemical_formula_sum   'Li4 V2 Cl8'
_cell_volume   287.11226939
_cell_formula_units_Z   2
loop_
 _symmetry_equiv_pos_site_id
 _symmetry_equiv_pos_as_xyz
  1  'x, y, z'
loop_
 _atom_site_type_symbol
 _atom_site_label
 _atom_site_symmetry_multiplicity
 _atom_site_fract_x
 _atom_site_fract_y
 _atom_site_fract_z
 _atom_site_occupancy
  Li  Li0  1  0.00888925  0.99111075  0.00888925  1
  Li  Li1  1  0.24071394  0.25928606  0.24071394  1
  Li  Li2  1  0.62480153  0.12512356  0.62480153  1
  Li  Li3  1  0.62480153  0.62527338  0.62480153  1
  V  V4  1  0.12516965  0.62501385  0.62480266  1
  V  V5  1  0.62480266  0.62501385  0.12516965  1
  Cl  Cl6  1  0.37828471  0.39239833  0.37828471  1
  Cl  Cl7  1  0.37828471  0.85103225  0.37828471  1
  Cl  Cl8  1  0.37531355  0.38726019  0.85016608  1
  Cl  Cl9  1  0.85016608  0.38726019  0.37531355  1
  Cl  Cl10  1  0.39999250  0.86239359  0.87522032  1
  Cl  Cl11  1  0.87177979  0.39877437  0.87177979  1
  Cl  Cl12  1  0.87522032  0.86239359  0.39999250  1
  Cl  Cl13  1  0.87177979  0.85766605  0.87177979  1
