# generated using pymatgen
data_Li9Mn2Co5O16
_symmetry_space_group_name_H-M   'P 1'
_cell_length_a   2.95458332
_cell_length_b   10.10858590
_cell_length_c   9.74273539
_cell_angle_alpha   94.19004136
_cell_angle_beta   83.55900980
_cell_angle_gamma   93.00703694
_symmetry_Int_Tables_number   1
_chemical_formula_structural   Li9Mn2Co5O16
_chemical_formula_sum   'Li9 Mn2 Co5 O16'
_cell_volume   288.08565610
_cell_formula_units_Z   1
loop_
 _symmetry_equiv_pos_site_id
 _symmetry_equiv_pos_as_xyz
  1  'x, y, z'
loop_
 _atom_site_type_symbol
 _atom_site_label
 _atom_site_symmetry_multiplicity
 _atom_site_fract_x
 _atom_site_fract_y
 _atom_site_fract_z
 _atom_site_occupancy
  Li  Li0  1  0.88212404  0.18171074  0.25286589  1
  Li  Li1  1  0.14361964  0.30534320  0.74442090  1
  Li  Li2  1  0.36939866  0.43971147  0.25118390  1
  Li  Li3  1  0.61597773  0.56639520  0.75448911  1
  Li  Li4  1  0.87140722  0.68915023  0.25056196  1
  Li  Li5  1  0.12690901  0.81317394  0.74825804  1
  Li  Li6  1  0.36403854  0.93483997  0.25431391  1
  Li  Li7  1  0.63442269  0.06780067  0.73648840  1
  Li  Li8  1  0.22961327  0.12707425  0.50887289  1
  Mn  Mn9  1  -0.00699339  0.99786653  0.00290786  1
  Mn  Mn10  1  0.75612018  0.37004677  0.50073621  1
  Co  Co11  1  0.49812257  0.25076442  0.00308744  1
  Co  Co12  1  0.00347430  0.50127912  -0.00337266  1
  Co  Co13  1  0.26231833  0.62686207  0.49631180  1
  Co  Co14  1  0.50592116  0.74949321  0.99752368  1
  Co  Co15  1  0.74574698  0.88314415  0.49914791  1
  O  O16  1  0.40472740  0.09066020  0.12355659  1
  O  O17  1  0.68646718  0.23435433  0.61792813  1
  O  O18  1  0.92709253  0.34200629  0.11689781  1
  O  O19  1  0.23004602  0.46785250  0.60467226  1
  O  O20  1  0.44425017  0.59688448  0.11040773  1
  O  O21  1  0.66538492  0.72323825  0.60731970  1
  O  O22  1  0.91429144  0.84181889  0.11427666  1
  O  O23  1  0.15660277  0.95894714  0.61678288  1
  O  O24  1  0.28723856  0.29352743  0.39065049  1
  O  O25  1  0.56031042  0.41122651  0.88524901  1
  O  O26  1  0.85329470  0.53035836  0.38599397  1
  O  O27  1  0.09395723  0.65929560  0.88105035  1
  O  O28  1  0.32058855  0.77852292  0.38765482  1
  O  O29  1  0.57942246  0.90176903  0.88567749  1
  O  O30  1  0.80750978  0.00981008  0.38659340  1
  O  O31  1  0.06659493  0.15507205  0.88749148  1
