# generated using pymatgen
data_U2CuP2(HO)24
_symmetry_space_group_name_H-M   'P 1'
_cell_length_a   7.04817438
_cell_length_b   7.04817438
_cell_length_c   21.10035838
_cell_angle_alpha   90.00000000
_cell_angle_beta   90.00000000
_cell_angle_gamma   90.00000000
_symmetry_Int_Tables_number   1
_chemical_formula_structural   U2CuP2(HO)24
_chemical_formula_sum   'U4 Cu2 P4 H48 O48'
_cell_volume   1048.19748328
_cell_formula_units_Z   2
loop_
 _symmetry_equiv_pos_site_id
 _symmetry_equiv_pos_as_xyz
  1  'x, y, z'
loop_
 _atom_site_type_symbol
 _atom_site_label
 _atom_site_symmetry_multiplicity
 _atom_site_fract_x
 _atom_site_fract_y
 _atom_site_fract_z
 _atom_site_occupancy
  U  U0  1  0.75000000  0.75000000  0.54129676  1
  U  U1  1  0.75000000  0.75000000  0.95870324  1
  U  U2  1  0.25000000  0.25000000  0.45870324  1
  U  U3  1  0.25000000  0.25000000  0.04129676  1
  Cu  Cu4  1  0.75000000  0.75000000  0.75000000  1
  Cu  Cu5  1  0.25000000  0.25000000  0.25000000  1
  P  P6  1  0.25000000  0.75000000  0.50000000  1
  P  P7  1  0.25000000  0.75000000  0.00000000  1
  P  P8  1  0.75000000  0.25000000  0.50000000  1
  P  P9  1  0.75000000  0.25000000  0.00000000  1
  H  H10  1  0.09032075  0.39885423  0.66539517  1
  H  H11  1  0.40967925  0.10114577  0.66539517  1
  H  H12  1  0.40967925  0.39885423  0.83460483  1
  H  H13  1  0.09032075  0.10114577  0.83460483  1
  H  H14  1  0.90967925  0.60114577  0.33460483  1
  H  H15  1  0.59032075  0.89885423  0.33460483  1
  H  H16  1  0.59032075  0.60114577  0.16539517  1
  H  H17  1  0.90967925  0.89885423  0.16539517  1
  H  H18  1  0.39885423  0.09032075  0.83460483  1
  H  H19  1  0.10114577  0.40967925  0.83460483  1
  H  H20  1  0.39885423  0.40967925  0.66539517  1
  H  H21  1  0.10114577  0.09032075  0.66539517  1
  H  H22  1  0.60114577  0.90967925  0.16539517  1
  H  H23  1  0.89885423  0.59032075  0.16539517  1
  H  H24  1  0.60114577  0.59032075  0.33460483  1
  H  H25  1  0.89885423  0.90967925  0.33460483  1
  H  H26  1  0.15342585  0.57236412  0.62310283  1
  H  H27  1  0.34657415  0.92763588  0.62310283  1
  H  H28  1  0.34657415  0.57236412  0.87689717  1
  H  H29  1  0.15342585  0.92763588  0.87689717  1
  H  H30  1  0.84657415  0.42763588  0.37689717  1
  H  H31  1  0.65342585  0.07236412  0.37689717  1
  H  H32  1  0.65342585  0.42763588  0.12310283  1
  H  H33  1  0.84657415  0.07236412  0.12310283  1
  H  H34  1  0.57236412  0.15342585  0.87689717  1
  H  H35  1  0.92763588  0.34657415  0.87689717  1
  H  H36  1  0.57236412  0.34657415  0.62310283  1
  H  H37  1  0.92763588  0.15342585  0.62310283  1
  H  H38  1  0.42763588  0.84657415  0.12310283  1
  H  H39  1  0.07236412  0.65342585  0.12310283  1
  H  H40  1  0.42763588  0.65342585  0.37689717  1
  H  H41  1  0.07236412  0.84657415  0.37689717  1
  H  H42  1  0.09492290  0.66611845  0.72034523  1
  H  H43  1  0.40507710  0.83388155  0.72034523  1
  H  H44  1  0.40507710  0.66611845  0.77965477  1
  H  H45  1  0.09492290  0.83388155  0.77965477  1
  H  H46  1  0.90507710  0.33388155  0.27965477  1
  H  H47  1  0.59492290  0.16611845  0.27965477  1
  H  H48  1  0.59492290  0.33388155  0.22034523  1
  H  H49  1  0.90507710  0.16611845  0.22034523  1
  H  H50  1  0.66611845  0.09492290  0.77965477  1
  H  H51  1  0.83388155  0.40507710  0.77965477  1
  H  H52  1  0.66611845  0.40507710  0.72034523  1
  H  H53  1  0.83388155  0.09492290  0.72034523  1
  H  H54  1  0.33388155  0.90507710  0.22034523  1
  H  H55  1  0.16611845  0.59492290  0.22034523  1
  H  H56  1  0.33388155  0.59492290  0.27965477  1
  H  H57  1  0.16611845  0.90507710  0.27965477  1
  O  O58  1  0.75000000  0.75000000  0.62735635  1
  O  O59  1  0.75000000  0.75000000  0.87264365  1
  O  O60  1  0.25000000  0.25000000  0.37264365  1
  O  O61  1  0.25000000  0.25000000  0.12735635  1
  O  O62  1  0.75000000  0.75000000  0.45515770  1
  O  O63  1  0.75000000  0.75000000  0.04484230  1
  O  O64  1  0.25000000  0.25000000  0.54484230  1
  O  O65  1  0.25000000  0.25000000  0.95515770  1
  O  O66  1  0.02285831  0.75000000  0.75000000  1
  O  O67  1  0.47714169  0.75000000  0.75000000  1
  O  O68  1  0.97714169  0.25000000  0.25000000  1
  O  O69  1  0.52285831  0.25000000  0.25000000  1
  O  O70  1  0.75000000  0.02285831  0.75000000  1
  O  O71  1  0.75000000  0.47714169  0.75000000  1
  O  O72  1  0.25000000  0.97714169  0.25000000  1
  O  O73  1  0.25000000  0.52285831  0.25000000  1
  O  O74  1  0.07667409  0.71197727  0.54390449  1
  O  O75  1  0.42332591  0.78802273  0.54390449  1
  O  O76  1  0.42332591  0.71197727  0.95609551  1
  O  O77  1  0.07667409  0.78802273  0.95609551  1
  O  O78  1  0.92332591  0.28802273  0.45609551  1
  O  O79  1  0.57667409  0.21197727  0.45609551  1
  O  O80  1  0.57667409  0.28802273  0.04390449  1
  O  O81  1  0.92332591  0.21197727  0.04390449  1
  O  O82  1  0.71197727  0.07667409  0.95609551  1
  O  O83  1  0.78802273  0.42332591  0.95609551  1
  O  O84  1  0.71197727  0.42332591  0.54390449  1
  O  O85  1  0.78802273  0.07667409  0.54390449  1
  O  O86  1  0.28802273  0.92332591  0.04390449  1
  O  O87  1  0.21197727  0.57667409  0.04390449  1
  O  O88  1  0.28802273  0.57667409  0.45609551  1
  O  O89  1  0.21197727  0.92332591  0.45609551  1
  O  O90  1  0.17282521  0.51490551  0.66519318  1
  O  O91  1  0.32717479  0.98509449  0.66519318  1
  O  O92  1  0.32717479  0.51490551  0.83480682  1
  O  O93  1  0.17282521  0.98509449  0.83480682  1
  O  O94  1  0.82717479  0.48509449  0.33480682  1
  O  O95  1  0.67282521  0.01490551  0.33480682  1
  O  O96  1  0.67282521  0.48509449  0.16519318  1
  O  O97  1  0.82717479  0.01490551  0.16519318  1
  O  O98  1  0.51490551  0.17282521  0.83480682  1
  O  O99  1  0.98509449  0.32717479  0.83480682  1
  O  O100  1  0.51490551  0.32717479  0.66519318  1
  O  O101  1  0.98509449  0.17282521  0.66519318  1
  O  O102  1  0.48509449  0.82717479  0.16519318  1
  O  O103  1  0.01490551  0.67282521  0.16519318  1
  O  O104  1  0.48509449  0.67282521  0.33480682  1
  O  O105  1  0.01490551  0.82717479  0.33480682  1
