# generated using pymatgen
data_TlCrO4
_symmetry_space_group_name_H-M   'P 1'
_cell_length_a   5.85224699
_cell_length_b   8.77324024
_cell_length_c   14.90789048
_cell_angle_alpha   90.00000000
_cell_angle_beta   90.00000000
_cell_angle_gamma   90.00000000
_symmetry_Int_Tables_number   1
_chemical_formula_structural   TlCrO4
_chemical_formula_sum   'Tl8 Cr8 O32'
_cell_volume   765.41833717
_cell_formula_units_Z   8
loop_
 _symmetry_equiv_pos_site_id
 _symmetry_equiv_pos_as_xyz
  1  'x, y, z'
loop_
 _atom_site_type_symbol
 _atom_site_label
 _atom_site_symmetry_multiplicity
 _atom_site_fract_x
 _atom_site_fract_y
 _atom_site_fract_z
 _atom_site_occupancy
  Tl  Tl0  1  0.25000000  0.31995709  0.60357650  1
  Tl  Tl1  1  0.75000000  0.81995709  0.89642350  1
  Tl  Tl2  1  0.25000000  0.03671426  0.37053699  1
  Tl  Tl3  1  0.75000000  0.53671426  0.12946301  1
  Tl  Tl4  1  0.75000000  0.68004291  0.39642350  1
  Tl  Tl5  1  0.25000000  0.18004291  0.10357650  1
  Tl  Tl6  1  0.75000000  0.96328574  0.62946301  1
  Tl  Tl7  1  0.25000000  0.46328574  0.87053699  1
  Cr  Cr8  1  0.75000000  0.28077463  0.46690887  1
  Cr  Cr9  1  0.75000000  0.21922537  0.96690887  1
  Cr  Cr10  1  0.25000000  0.01916620  0.78535484  1
  Cr  Cr11  1  0.75000000  0.98083380  0.21464516  1
  Cr  Cr12  1  0.75000000  0.51916620  0.71464516  1
  Cr  Cr13  1  0.25000000  0.78077463  0.03309113  1
  Cr  Cr14  1  0.25000000  0.71922537  0.53309113  1
  Cr  Cr15  1  0.25000000  0.48083380  0.28535484  1
  O  O16  1  0.25000000  0.74321658  0.13858004  1
  O  O17  1  0.48868563  0.91203764  0.79829085  1
  O  O18  1  0.75000000  0.46833574  0.48403680  1
  O  O19  1  0.75000000  0.84508961  0.14207181  1
  O  O20  1  0.01480899  0.69978167  0.98434005  1
  O  O21  1  0.48519101  0.69978167  0.98434005  1
  O  O22  1  0.25000000  0.40549101  0.18114606  1
  O  O23  1  0.01131437  0.91203764  0.79829085  1
  O  O24  1  0.25000000  0.75678342  0.63858004  1
  O  O25  1  0.25000000  0.53166426  0.51596320  1
  O  O26  1  0.25000000  0.09450899  0.68114606  1
  O  O27  1  0.98868563  0.08796236  0.20170915  1
  O  O28  1  0.75000000  0.03166426  0.98403680  1
  O  O29  1  0.75000000  0.59450899  0.81885394  1
  O  O30  1  0.98868563  0.41203764  0.70170915  1
  O  O31  1  0.75000000  0.90549101  0.31885394  1
  O  O32  1  0.51131437  0.41203764  0.70170915  1
  O  O33  1  0.98519101  0.30021833  0.01565995  1
  O  O34  1  0.25000000  0.34508961  0.35792819  1
  O  O35  1  0.25000000  0.96833574  0.01596320  1
  O  O36  1  0.01131437  0.58796236  0.29829085  1
  O  O37  1  0.51480899  0.30021833  0.01565995  1
  O  O38  1  0.75000000  0.25678342  0.86141996  1
  O  O39  1  0.98519101  0.19978167  0.51565995  1
  O  O40  1  0.01480899  0.80021833  0.48434005  1
  O  O41  1  0.75000000  0.65491039  0.64207181  1
  O  O42  1  0.48868563  0.58796236  0.29829085  1
  O  O43  1  0.75000000  0.24321658  0.36141996  1
  O  O44  1  0.51131437  0.08796236  0.20170915  1
  O  O45  1  0.51480899  0.19978167  0.51565995  1
  O  O46  1  0.25000000  0.15491039  0.85792819  1
  O  O47  1  0.48519101  0.80021833  0.48434005  1
