# generated using pymatgen
data_Ca3Be2P4(HO2)10
_symmetry_space_group_name_H-M   'P 1'
_cell_length_a   7.38045585
_cell_length_b   7.79562006
_cell_length_c   7.10583727
_cell_angle_alpha   94.41046430
_cell_angle_beta   96.33705930
_cell_angle_gamma   102.38396077
_symmetry_Int_Tables_number   1
_chemical_formula_structural   Ca3Be2P4(HO2)10
_chemical_formula_sum   'Ca3 Be2 P4 H10 O20'
_cell_volume   394.74768817
_cell_formula_units_Z   1
loop_
 _symmetry_equiv_pos_site_id
 _symmetry_equiv_pos_as_xyz
  1  'x, y, z'
loop_
 _atom_site_type_symbol
 _atom_site_label
 _atom_site_symmetry_multiplicity
 _atom_site_fract_x
 _atom_site_fract_y
 _atom_site_fract_z
 _atom_site_occupancy
  Ca  Ca0  1  0.29024491  0.60644256  0.02272497  1
  Ca  Ca1  1  0.70975509  0.39355744  0.97727503  1
  Ca  Ca2  1  0.00000000  0.00000000  0.00000000  1
  Be  Be3  1  0.26845706  0.58177858  0.51633819  1
  Be  Be4  1  0.73154294  0.41822142  0.48366181  1
  P  P5  1  0.95843584  0.69801988  0.31805385  1
  P  P6  1  0.04156416  0.30198012  0.68194615  1
  P  P7  1  0.64499091  0.69826096  0.72832034  1
  P  P8  1  0.35500909  0.30173904  0.27167966  1
  H  H9  1  0.84829099  0.87639345  0.50672603  1
  H  H10  1  0.15170901  0.12360655  0.49327397  1
  H  H11  1  0.48706926  0.82518518  0.36572098  1
  H  H12  1  0.51293074  0.17481482  0.63427902  1
  H  H13  1  0.36302709  0.94954759  0.27927734  1
  H  H14  1  0.63697291  0.05045241  0.72072266  1
  H  H15  1  0.18603685  0.82224100  0.71676114  1
  H  H16  1  0.81396315  0.17775900  0.28323886  1
  H  H17  1  0.35300719  0.96158764  0.82871524  1
  H  H18  1  0.64699281  0.03841236  0.17128476  1
  O  O19  1  0.01494718  0.71371016  0.11756109  1
  O  O20  1  0.98505282  0.28628984  0.88243891  1
  O  O21  1  0.86775407  0.86012804  0.36779824  1
  O  O22  1  0.13224593  0.13987196  0.63220176  1
  O  O23  1  0.80518009  0.52524420  0.30713096  1
  O  O24  1  0.19481991  0.47475580  0.69286904  1
  O  O25  1  0.12449724  0.71172238  0.47385500  1
  O  O26  1  0.87550276  0.28827762  0.52614500  1
  O  O27  1  0.58661510  0.66910771  0.92654840  1
  O  O28  1  0.41338490  0.33089229  0.07345160  1
  O  O29  1  0.73775202  0.54051637  0.67855748  1
  O  O30  1  0.26224798  0.45948363  0.32144252  1
  O  O31  1  0.79010918  0.87571155  0.72873486  1
  O  O32  1  0.20989082  0.12428845  0.27126514  1
  O  O33  1  0.47855103  0.70200935  0.57650002  1
  O  O34  1  0.52144897  0.29799065  0.42349998  1
  O  O35  1  0.44982342  0.87430636  0.24630328  1
  O  O36  1  0.55017658  0.12569364  0.75369672  1
  O  O37  1  0.24187788  0.87069591  0.84889179  1
  O  O38  1  0.75812212  0.12930409  0.15110821  1
