# generated using pymatgen
data_La8Mn7O24
_symmetry_space_group_name_H-M   'P 1'
_cell_length_a   22.08502183
_cell_length_b   14.52151160
_cell_length_c   9.46897691
_cell_angle_alpha   29.93228061
_cell_angle_beta   55.81032025
_cell_angle_gamma   41.60944509
_symmetry_Int_Tables_number   1
_chemical_formula_structural   La8Mn7O24
_chemical_formula_sum   'La16 Mn14 O48'
_cell_volume   971.71691082
_cell_formula_units_Z   2
loop_
 _symmetry_equiv_pos_site_id
 _symmetry_equiv_pos_as_xyz
  1  'x, y, z'
loop_
 _atom_site_type_symbol
 _atom_site_label
 _atom_site_symmetry_multiplicity
 _atom_site_fract_x
 _atom_site_fract_y
 _atom_site_fract_z
 _atom_site_occupancy
  La  La0  1  0.06835918  0.00070458  0.26434842  1
  La  La1  1  0.30690017  0.99916771  0.25440682  1
  La  La2  1  0.06721030  0.48060777  0.77504011  1
  La  La3  1  0.18277977  0.51940251  0.22497333  1
  La  La4  1  0.56553741  0.98130269  0.27805379  1
  La  La5  1  0.30621919  0.51760251  0.74274237  1
  La  La6  1  0.44457549  0.49708619  0.24934435  1
  La  La7  1  0.18163029  0.99929829  0.73565449  1
  La  La8  1  0.80724518  0.01963991  0.23680544  1
  La  La9  1  0.56732050  0.50125488  0.76543861  1
  La  La10  1  0.68267437  0.49876621  0.23453616  1
  La  La11  1  0.44275986  0.98036615  0.76317593  1
  La  La12  1  0.80541649  0.50293678  0.75062896  1
  La  La13  1  0.94377788  0.48242611  0.25722596  1
  La  La14  1  0.68445521  0.01873251  0.72189769  1
  La  La15  1  0.94310576  0.00082397  0.74560401  1
  Mn  Mn16  1  0.99978559  0.99613897  0.01118915  1
  Mn  Mn17  1  0.25021569  0.00383725  0.98884311  1
  Mn  Mn18  1  0.12500536  0.49994113  0.00010376  1
  Mn  Mn19  1  0.37254792  0.00557386  0.49379948  1
  Mn  Mn20  1  0.49787622  0.00147361  0.00183509  1
  Mn  Mn21  1  0.25196077  0.49799382  0.49845371  1
  Mn  Mn22  1  0.37755269  0.49620483  0.00216389  1
  Mn  Mn23  1  0.62502390  0.99993133  0.50002560  1
  Mn  Mn24  1  0.75212164  0.99852321  0.99815248  1
  Mn  Mn25  1  0.49987578  0.49732112  0.50994599  1
  Mn  Mn26  1  0.87744745  0.99447741  0.50616736  1
  Mn  Mn27  1  0.75012381  0.50262475  0.49013008  1
  Mn  Mn28  1  0.87245977  0.50375573  0.99788533  1
  Mn  Mn29  1  0.99806467  0.50191775  0.50165151  1
  O  O30  1  0.17950738  0.05694398  0.17307091  1
  O  O31  1  0.10088435  0.30141685  0.22222530  1
  O  O32  1  0.02403694  0.21777304  0.74961543  1
  O  O33  1  0.04471599  0.56599180  0.18924123  1
  O  O34  1  0.24165607  0.20690833  0.32656813  1
  O  O35  1  0.13257657  0.28989595  0.67577536  1
  O  O36  1  0.41565040  0.07707441  0.17653245  1
  O  O37  1  0.11742049  0.71011383  0.32422650  1
  O  O38  1  0.34704434  0.28812758  0.24491476  1
  O  O39  1  0.00834932  0.79304383  0.67348534  1
  O  O40  1  0.27792457  0.21302052  0.74870467  1
  O  O41  1  0.20527774  0.43398055  0.81080282  1
  O  O42  1  0.29400442  0.56990405  0.17691181  1
  O  O43  1  0.22595991  0.78222581  0.25040767  1
  O  O44  1  0.49106341  0.21267760  0.32182335  1
  O  O45  1  0.14911575  0.69852782  0.77784997  1
  O  O46  1  0.38477276  0.28489654  0.67653611  1
  O  O47  1  0.07048832  0.94305654  0.82693477  1
  O  O48  1  0.67303489  0.07104967  0.17454599  1
  O  O49  1  0.36665527  0.71903160  0.31703922  1
  O  O50  1  0.60288140  0.26159573  0.27342143  1
  O  O51  1  0.26918195  0.75671474  0.70687314  1
  O  O52  1  0.52350938  0.21939628  0.74633030  1
  O  O53  1  0.45836280  0.41746263  0.83382333  1
  O  O54  1  0.54222247  0.55679970  0.21362687  1
  O  O55  1  0.47323068  0.78220470  0.25891960  1
  O  O56  1  0.75375713  0.19637737  0.32942872  1
  O  O57  1  0.40209249  0.71182199  0.75604747  1
  O  O58  1  0.63645189  0.27493032  0.68450402  1
  O  O59  1  0.33170944  0.92936259  0.81927424  1
  O  O60  1  0.91828440  0.07065706  0.18070810  1
  O  O61  1  0.61354101  0.72509653  0.31547642  1
  O  O62  1  0.84791411  0.28818237  0.24395563  1
  O  O63  1  0.49624128  0.80365866  0.67053007  1
  O  O64  1  0.77677196  0.21781743  0.74103650  1
  O  O65  1  0.70777813  0.44320713  0.78635067  1
  O  O66  1  0.79163742  0.58258388  0.16612344  1
  O  O67  1  0.72649044  0.78061878  0.25364705  1
  O  O68  1  0.98081805  0.24329482  0.29312135  1
  O  O69  1  0.64711819  0.73838980  0.72657828  1
  O  O70  1  0.88334215  0.28099191  0.68293120  1
  O  O71  1  0.57697384  0.92894545  0.82542804  1
  O  O72  1  0.86523074  0.71512497  0.32343785  1
  O  O73  1  0.75894557  0.78729799  0.67816589  1
  O  O74  1  0.95599864  0.43010552  0.82308216  1
  O  O75  1  0.97207093  0.78699401  0.25127109  1
  O  O76  1  0.90294004  0.71191592  0.75503735  1
  O  O77  1  0.83433621  0.92295792  0.82343504  1
