# generated using pymatgen
data_MgMn2O4
_symmetry_space_group_name_H-M   'P 1'
_cell_length_a   5.86642856
_cell_length_b   5.87066722
_cell_length_c   30.96181000
_cell_angle_alpha   118.00705949
_cell_angle_beta   118.27181360
_cell_angle_gamma   90.00232964
_symmetry_Int_Tables_number   1
_chemical_formula_structural   MgMn2O4
_chemical_formula_sum   'Mg10 Mn20 O40'
_cell_volume   794.48156134
_cell_formula_units_Z   10
loop_
 _symmetry_equiv_pos_site_id
 _symmetry_equiv_pos_as_xyz
  1  'x, y, z'
loop_
 _atom_site_type_symbol
 _atom_site_label
 _atom_site_symmetry_multiplicity
 _atom_site_fract_x
 _atom_site_fract_y
 _atom_site_fract_z
 _atom_site_occupancy
  Mg  Mg0  1  0.00477605  0.00383186  0.80190977  1
  Mg  Mg1  1  0.25833324  0.75869304  0.90332718  1
  Mg  Mg2  1  0.25135590  0.75205796  0.70056232  1
  Mg  Mg3  1  0.99176629  0.99186787  0.39673789  1
  Mg  Mg4  1  0.24384440  0.74516085  0.49757576  1
  Mg  Mg5  1  0.23149283  0.74195342  0.29259649  1
  Mg  Mg6  1  0.99786087  0.99751041  0.59916457  1
  Mg  Mg7  1  0.24831333  0.75830011  0.09927185  1
  Mg  Mg8  1  0.61822771  0.37026314  0.24728844  1
  Mg  Mg9  1  0.63196546  0.38167113  0.05273710  1
  Mn  Mn10  1  0.13915218  0.38378796  0.95514110  1
  Mn  Mn11  1  0.12813466  0.37790562  0.75127674  1
  Mn  Mn12  1  0.63667517  0.38377319  0.95513457  1
  Mn  Mn13  1  0.63178898  0.38003998  0.85271869  1
  Mn  Mn14  1  0.63103658  0.87986958  0.85241139  1
  Mn  Mn15  1  0.12096115  0.37174143  0.54845276  1
  Mn  Mn16  1  0.62812686  0.37789214  0.75125903  1
  Mn  Mn17  1  0.62462537  0.37477093  0.64988381  1
  Mn  Mn18  1  0.62464562  0.87483776  0.64987284  1
  Mn  Mn19  1  0.11308710  0.36794455  0.34517357  1
  Mn  Mn20  1  0.62107202  0.37173453  0.54843466  1
  Mn  Mn21  1  0.00267405  0.99137161  0.20107235  1
  Mn  Mn22  1  0.61615339  0.36800361  0.44649994  1
  Mn  Mn23  1  0.61751293  0.86954737  0.44702793  1
  Mn  Mn24  1  0.12701208  0.37572786  0.15033216  1
  Mn  Mn25  1  0.61267929  0.36793115  0.34516672  1
  Mn  Mn26  1  0.01713392  0.00704005  0.00679721  1
  Mn  Mn27  1  0.61679188  0.87067132  0.24670053  1
  Mn  Mn28  1  0.62482641  0.37573089  0.15033088  1
  Mn  Mn29  1  0.63655379  0.87664636  0.05457018  1
  O  O30  1  0.38838606  0.61354330  0.95531558  1
  O  O31  1  0.39730934  0.16270061  0.95889533  1
  O  O32  1  0.40324488  0.62722364  0.85123959  1
  O  O33  1  0.40989970  0.13287031  0.85410070  1
  O  O34  1  0.38131812  0.60588531  0.75254022  1
  O  O35  1  0.38132664  0.15632948  0.75254741  1
  O  O36  1  0.88176610  0.15354681  0.95267707  1
  O  O37  1  0.87554312  0.59487505  0.95018234  1
  O  O38  1  0.39645422  0.62144139  0.64850416  1
  O  O39  1  0.40309601  0.12789427  0.65114517  1
  O  O40  1  0.85295554  0.62723719  0.85123484  1
  O  O41  1  0.86060466  0.13288219  0.85409553  1
  O  O42  1  0.37395614  0.59937479  0.54961005  1
  O  O43  1  0.37393650  0.14981346  0.54960708  1
  O  O44  1  0.87471997  0.14979761  0.74990547  1
  O  O45  1  0.87470116  0.59924750  0.74989320  1
  O  O46  1  0.38765822  0.61566744  0.44512960  1
  O  O47  1  0.39642497  0.12238511  0.44845023  1
  O  O48  1  0.84594695  0.62144757  0.64850005  1
  O  O49  1  0.85251590  0.12791411  0.65114606  1
  O  O50  1  0.36348070  0.59531453  0.34540942  1
  O  O51  1  0.36981834  0.14804081  0.34794771  1
  O  O52  1  0.86756371  0.14327901  0.54706117  1
  O  O53  1  0.86753466  0.59310356  0.54704220  1
  O  O54  1  0.35774342  0.60543002  0.23682705  1
  O  O55  1  0.40252219  0.11948502  0.25116609  1
  O  O56  1  0.83780335  0.61567565  0.44512431  1
  O  O57  1  0.84564819  0.12240657  0.44845045  1
  O  O58  1  0.36952218  0.59122413  0.14777655  1
  O  O59  1  0.38596876  0.16305626  0.15436120  1
  O  O60  1  0.86384537  0.14084990  0.34556122  1
  O  O61  1  0.85422422  0.58799425  0.34170434  1
  O  O62  1  0.39725531  0.63378089  0.05053562  1
  O  O63  1  0.43094012  0.14697234  0.06485987  1
  O  O64  1  0.82642756  0.60544515  0.23682705  1
  O  O65  1  0.85331561  0.11952167  0.25116834  1
  O  O66  1  0.88242016  0.16464212  0.15293709  1
  O  O67  1  0.86436050  0.58264043  0.14570785  1
  O  O68  1  0.85566545  0.63379013  0.05052742  1
  O  O69  1  0.89359650  0.14699281  0.06485692  1
