# generated using pymatgen
data_Ca3Be2P4(HO2)10
_symmetry_space_group_name_H-M   'P 1'
_cell_length_a   7.40552710
_cell_length_b   15.16598697
_cell_length_c   7.14569431
_cell_angle_alpha   90.00000000
_cell_angle_beta   95.82613587
_cell_angle_gamma   90.00000000
_symmetry_Int_Tables_number   1
_chemical_formula_structural   Ca3Be2P4(HO2)10
_chemical_formula_sum   'Ca6 Be4 P8 H20 O40'
_cell_volume   798.40257341
_cell_formula_units_Z   2
loop_
 _symmetry_equiv_pos_site_id
 _symmetry_equiv_pos_as_xyz
  1  'x, y, z'
loop_
 _atom_site_type_symbol
 _atom_site_label
 _atom_site_symmetry_multiplicity
 _atom_site_fract_x
 _atom_site_fract_y
 _atom_site_fract_z
 _atom_site_occupancy
  Ca  Ca0  1  0.00000000  0.00000000  0.00000000  1
  Ca  Ca1  1  0.14151791  0.30303019  0.95477505  1
  Ca  Ca2  1  0.35848209  0.80303019  0.04522495  1
  Ca  Ca3  1  0.50000000  0.50000000  0.00000000  1
  Ca  Ca4  1  0.64151791  0.19696981  0.95477505  1
  Ca  Ca5  1  0.85848209  0.69696981  0.04522495  1
  Be  Be6  1  0.12688483  0.29166485  0.44622134  1
  Be  Be7  1  0.37311517  0.79166485  0.55377866  1
  Be  Be8  1  0.62688483  0.20833515  0.44622134  1
  Be  Be9  1  0.87311517  0.70833515  0.55377866  1
  P  P10  1  0.02505618  0.84837334  0.35651849  1
  P  P11  1  0.20664367  0.65205937  0.76727990  1
  P  P12  1  0.29335633  0.15205937  0.23272010  1
  P  P13  1  0.47494382  0.34837334  0.64348151  1
  P  P14  1  0.52505618  0.65162666  0.35651849  1
  P  P15  1  0.70664367  0.84794063  0.76727990  1
  P  P16  1  0.79335633  0.34794063  0.23272010  1
  P  P17  1  0.97494382  0.15162666  0.64348151  1
  H  H18  1  0.10941703  0.47744426  0.73157915  1
  H  H19  1  0.05406048  0.58353297  0.34831105  1
  H  H20  1  0.12462681  0.06447193  0.46214208  1
  H  H21  1  0.21826991  0.91692690  0.72731356  1
  H  H22  1  0.35564656  0.98126029  0.83952630  1
  H  H23  1  0.14435344  0.48126029  0.16047370  1
  H  H24  1  0.28173009  0.41692690  0.27268644  1
  H  H25  1  0.37537319  0.56447193  0.53785792  1
  H  H26  1  0.44593952  0.08353297  0.65168895  1
  H  H27  1  0.39058297  0.97744426  0.26842085  1
  H  H28  1  0.60941703  0.02255574  0.73157915  1
  H  H29  1  0.55406048  0.91646703  0.34831105  1
  H  H30  1  0.62462681  0.43552807  0.46214208  1
  H  H31  1  0.71826991  0.58307310  0.72731356  1
  H  H32  1  0.85564656  0.51873971  0.83952630  1
  H  H33  1  0.64435344  0.01873971  0.16047370  1
  H  H34  1  0.78173009  0.08307310  0.27268644  1
  H  H35  1  0.87537319  0.93552807  0.53785792  1
  H  H36  1  0.94593952  0.41646703  0.65168895  1
  H  H37  1  0.89058297  0.52255574  0.26842085  1
  O  O38  1  0.01160370  0.43884436  0.76910598  1
  O  O39  1  0.04385611  0.64536802  0.61376605  1
  O  O40  1  0.08263859  0.23950815  0.63914596  1
  O  O41  1  0.10529545  0.07262700  0.59936114  1
  O  O42  1  0.15150716  0.67410939  0.96416513  1
  O  O43  1  0.07283978  0.86129718  0.15462710  1
  O  O44  1  0.15843645  0.22754514  0.27277788  1
  O  O45  1  0.19067170  0.85290753  0.50512926  1
  O  O46  1  0.19329169  0.06181816  0.23943853  1
  O  O47  1  0.26087688  0.93574845  0.85733417  1
  O  O48  1  0.23912312  0.43574845  0.14266583  1
  O  O49  1  0.30670831  0.56181816  0.76056147  1
  O  O50  1  0.30932830  0.35290753  0.49487074  1
  O  O51  1  0.34156355  0.72754514  0.72722212  1
  O  O52  1  0.42716022  0.36129718  0.84537290  1
  O  O53  1  0.34849284  0.17410939  0.03583487  1
  O  O54  1  0.39470455  0.57262700  0.40063886  1
  O  O55  1  0.41736141  0.73950815  0.36085404  1
  O  O56  1  0.45614389  0.14536802  0.38623395  1
  O  O57  1  0.51160370  0.06115564  0.76910598  1
  O  O58  1  0.48839630  0.93884436  0.23089402  1
  O  O59  1  0.54385611  0.85463198  0.61376605  1
  O  O60  1  0.58263859  0.26049185  0.63914596  1
  O  O61  1  0.60529545  0.42737300  0.59936114  1
  O  O62  1  0.65150716  0.82589061  0.96416513  1
  O  O63  1  0.57283978  0.63870282  0.15462710  1
  O  O64  1  0.65843645  0.27245486  0.27277788  1
  O  O65  1  0.69067170  0.64709247  0.50512926  1
  O  O66  1  0.69329169  0.43818184  0.23943853  1
  O  O67  1  0.76087688  0.56425155  0.85733417  1
  O  O68  1  0.73912312  0.06425155  0.14266583  1
  O  O69  1  0.80670831  0.93818184  0.76056147  1
  O  O70  1  0.80932830  0.14709247  0.49487074  1
  O  O71  1  0.84156355  0.77245486  0.72722212  1
  O  O72  1  0.92716022  0.13870282  0.84537290  1
  O  O73  1  0.84849284  0.32589061  0.03583487  1
  O  O74  1  0.89470455  0.92737300  0.40063886  1
  O  O75  1  0.91736141  0.76049185  0.36085404  1
  O  O76  1  0.95614389  0.35463198  0.38623395  1
  O  O77  1  0.98839630  0.56115564  0.23089402  1
