# generated using pymatgen
data_Na4Sn2H26Se6O13
_symmetry_space_group_name_H-M   'P 1'
_cell_length_a   7.27960216
_cell_length_b   10.48225313
_cell_length_c   18.99876388
_cell_angle_alpha   78.68198150
_cell_angle_beta   86.42117177
_cell_angle_gamma   72.70909751
_symmetry_Int_Tables_number   1
_chemical_formula_structural   Na4Sn2H26Se6O13
_chemical_formula_sum   'Na8 Sn4 H52 Se12 O26'
_cell_volume   1357.28361883
_cell_formula_units_Z   2
loop_
 _symmetry_equiv_pos_site_id
 _symmetry_equiv_pos_as_xyz
  1  'x, y, z'
loop_
 _atom_site_type_symbol
 _atom_site_label
 _atom_site_symmetry_multiplicity
 _atom_site_fract_x
 _atom_site_fract_y
 _atom_site_fract_z
 _atom_site_occupancy
  Na  Na0  1  0.51168209  0.49323131  0.90559279  1
  Na  Na1  1  0.48831791  0.50676869  0.09440721  1
  Na  Na2  1  0.20544427  0.81721790  0.79363746  1
  Na  Na3  1  0.79455573  0.18278210  0.20636254  1
  Na  Na4  1  0.83191181  0.08879588  0.70505717  1
  Na  Na5  1  0.16808819  0.91120412  0.29494283  1
  Na  Na6  1  0.38400235  0.99498546  0.59117252  1
  Na  Na7  1  0.61599765  0.00501454  0.40882748  1
  Sn  Sn8  1  0.88604626  0.86690448  0.01198198  1
  Sn  Sn9  1  0.11395374  0.13309552  0.98801802  1
  Sn  Sn10  1  0.31525807  0.56491958  0.56054939  1
  Sn  Sn11  1  0.68474193  0.43508042  0.43945061  1
  H  H12  1  0.22064768  0.43298426  0.02119462  1
  H  H13  1  0.77935232  0.56701574  0.97880538  1
  H  H14  1  0.15665995  0.58088700  0.97572520  1
  H  H15  1  0.84334005  0.41911300  0.02427480  1
  H  H16  1  0.76149811  0.38634806  0.79644043  1
  H  H17  1  0.23850189  0.61365194  0.20355957  1
  H  H18  1  0.91772840  0.38341098  0.85115344  1
  H  H19  1  0.08227160  0.61658902  0.14884656  1
  H  H20  1  0.31560780  0.52773749  0.75777110  1
  H  H21  1  0.68439220  0.47226251  0.24222890  1
  H  H22  1  0.18868219  0.52845332  0.82472196  1
  H  H23  1  0.81131781  0.47154668  0.17527804  1
  H  H24  1  0.57088415  0.75522274  0.88960637  1
  H  H25  1  0.42911585  0.24477726  0.11039363  1
  H  H26  1  0.37556169  0.78434923  0.93041784  1
  H  H27  1  0.62443831  0.21565077  0.06958216  1
  H  H28  1  0.91154204  0.78218243  0.71149855  1
  H  H29  1  0.08845796  0.21781757  0.28850145  1
  H  H30  1  0.04039388  0.84185082  0.65350071  1
  H  H31  1  0.95960612  0.15814918  0.34649929  1
  H  H32  1  0.55991474  0.78842915  0.70919522  1
  H  H33  1  0.44008526  0.21157085  0.29080478  1
  H  H34  1  0.50192254  0.92595420  0.73746805  1
  H  H35  1  0.49807746  0.07404580  0.26253195  1
  H  H36  1  0.12187677  0.10836953  0.81544254  1
  H  H37  1  0.87812323  0.89163047  0.18455746  1
  H  H38  1  0.94886185  0.05763255  0.84419224  1
  H  H39  1  0.05113815  0.94236745  0.15580776  1
  H  H40  1  0.50413090  0.07853512  0.81821266  1
  H  H41  1  0.49586910  0.92146488  0.18178734  1
  H  H42  1  0.67949527  0.94582045  0.83026352  1
  H  H43  1  0.32050473  0.05417955  0.16973648  1
  H  H44  1  0.72240422  0.37407851  0.67678860  1
  H  H45  1  0.27759578  0.62592149  0.32321140  1
  H  H46  1  0.55091199  0.33811562  0.71847293  1
  H  H47  1  0.44908801  0.66188438  0.28152707  1
  H  H48  1  0.99824260  0.18829083  0.57066042  1
  H  H49  1  0.00175740  0.81170917  0.42933958  1
  H  H50  1  0.09768094  0.24280184  0.62521203  1
  H  H51  1  0.90231906  0.75719816  0.37478797  1
  H  H52  1  0.62918246  0.16544107  0.56854134  1
  H  H53  1  0.37081754  0.83455893  0.43145866  1
  H  H54  1  0.47599441  0.22531539  0.62580226  1
  H  H55  1  0.52400559  0.77468461  0.37419774  1
  H  H56  1  0.80363591  0.85361850  0.54348379  1
  H  H57  1  0.19636409  0.14638150  0.45651621  1
  H  H58  1  0.66558164  0.76974345  0.53459986  1
  H  H59  1  0.33441836  0.23025655  0.46540014  1
  H  H60  1  0.84540985  0.60397728  0.68152858  1
  H  H61  1  0.15459015  0.39602272  0.31847142  1
  H  H62  1  0.78323886  0.57762462  0.76227983  1
  H  H63  1  0.21676114  0.42237538  0.23772017  1
  Se  Se64  1  0.23866900  0.86986422  0.03566534  1
  Se  Se65  1  0.76133100  0.13013578  0.96433466  1
  Se  Se66  1  0.75446727  0.76028776  0.12601216  1
  Se  Se67  1  0.24553273  0.23971224  0.87398784  1
  Se  Se68  1  0.89104972  0.74500628  0.90927740  1
  Se  Se69  1  0.10895028  0.25499372  0.09072260  1
  Se  Se70  1  0.69035715  0.52844993  0.55793708  1
  Se  Se71  1  0.30964285  0.47155007  0.44206292  1
  Se  Se72  1  0.22942857  0.41242690  0.66797179  1
  Se  Se73  1  0.77057143  0.58757310  0.33202821  1
  Se  Se74  1  0.14934316  0.81613042  0.53636026  1
  Se  Se75  1  0.85065684  0.18386958  0.46363974  1
  O  O76  1  0.27102948  0.50991568  0.99840693  1
  O  O77  1  0.72897052  0.49008432  0.00159307  1
  O  O78  1  0.79094337  0.43970398  0.82990672  1
  O  O79  1  0.20905663  0.56029602  0.17009328  1
  O  O80  1  0.29159247  0.56525973  0.80245780  1
  O  O81  1  0.70840753  0.43474027  0.19754220  1
  O  O82  1  0.44138245  0.74234591  0.88981558  1
  O  O83  1  0.55861755  0.25765409  0.11018442  1
  O  O84  1  0.98163439  0.85140596  0.70135766  1
  O  O85  1  0.01836561  0.14859404  0.29864234  1
  O  O86  1  0.44957807  0.86948161  0.71235764  1
  O  O87  1  0.55042193  0.13051839  0.28764236  1
  O  O88  1  0.04596139  0.04855695  0.80581285  1
  O  O89  1  0.95403861  0.95144305  0.19418715  1
  O  O90  1  0.60495878  0.01791961  0.79228832  1
  O  O91  1  0.39504122  0.98208039  0.20771168  1
  O  O92  1  0.69112917  0.32379076  0.72344102  1
  O  O93  1  0.30887083  0.67620924  0.27655898  1
  O  O94  1  0.06566074  0.16148630  0.61751782  1
  O  O95  1  0.93433926  0.83851370  0.38248218  1
  O  O96  1  0.56871844  0.14060031  0.61533511  1
  O  O97  1  0.43128156  0.85939969  0.38466489  1
  O  O98  1  0.66781230  0.86413345  0.53297957  1
  O  O99  1  0.33218770  0.13586655  0.46702043  1
  O  O100  1  0.77655567  0.65180708  0.71935693  1
  O  O101  1  0.22344433  0.34819292  0.28064307  1
