# generated using pymatgen
data_ZnPH3O5
_symmetry_space_group_name_H-M   'P 1'
_cell_length_a   6.51011376
_cell_length_b   7.79010300
_cell_length_c   12.35956171
_cell_angle_alpha   74.37566354
_cell_angle_beta   81.92706170
_cell_angle_gamma   81.70870988
_symmetry_Int_Tables_number   1
_chemical_formula_structural   ZnPH3O5
_chemical_formula_sum   'Zn6 P6 H18 O30'
_cell_volume   593.93320559
_cell_formula_units_Z   6
loop_
 _symmetry_equiv_pos_site_id
 _symmetry_equiv_pos_as_xyz
  1  'x, y, z'
loop_
 _atom_site_type_symbol
 _atom_site_label
 _atom_site_symmetry_multiplicity
 _atom_site_fract_x
 _atom_site_fract_y
 _atom_site_fract_z
 _atom_site_occupancy
  Zn  Zn0  1  0.02540607  0.06248886  0.79994902  1
  Zn  Zn1  1  0.13903286  0.67051550  0.44952382  1
  Zn  Zn2  1  0.35205218  0.88545025  0.59077629  1
  Zn  Zn3  1  0.64794782  0.11454975  0.40922371  1
  Zn  Zn4  1  0.86096714  0.32948450  0.55047618  1
  Zn  Zn5  1  0.97459393  0.93751114  0.20005098  1
  P  P6  1  0.14555066  0.13093095  0.36536786  1
  P  P7  1  0.35165793  0.29094755  0.61220024  1
  P  P8  1  0.33066470  0.69009246  0.86503675  1
  P  P9  1  0.66933530  0.30990754  0.13496325  1
  P  P10  1  0.64834207  0.70905245  0.38779976  1
  P  P11  1  0.85444934  0.86906905  0.63463214  1
  H  H12  1  0.99076360  0.21482691  0.97405531  1
  H  H13  1  0.16565828  0.51058444  0.27999839  1
  H  H14  1  0.35674043  0.05130909  0.10385599  1
  H  H15  1  0.29395187  0.28925698  0.19660311  1
  H  H16  1  0.26179759  0.98912521  0.01427783  1
  H  H17  1  0.16307756  0.31292451  0.88063859  1
  H  H18  1  0.31852212  0.66231851  0.25258158  1
  H  H19  1  0.34874687  0.42340317  0.99611888  1
  H  H20  1  0.63692075  0.49842095  0.29093694  1
  H  H21  1  0.36307925  0.50157905  0.70906306  1
  H  H22  1  0.65125313  0.57659683  0.00388112  1
  H  H23  1  0.68147788  0.33768149  0.74741842  1
  H  H24  1  0.83692244  0.68707549  0.11936141  1
  H  H25  1  0.73820241  0.01087479  0.98572217  1
  H  H26  1  0.70604813  0.71074302  0.80339689  1
  H  H27  1  0.64325957  0.94869091  0.89614401  1
  H  H28  1  0.83434172  0.48941556  0.72000161  1
  H  H29  1  0.00923640  0.78517309  0.02594469  1
  O  O30  1  0.17613291  0.30158033  0.26166840  1
  O  O31  1  0.06189820  0.81512588  0.56796155  1
  O  O32  1  0.09217531  0.20342495  0.90689198  1
  O  O33  1  0.17658495  0.63538663  0.28523920  1
  O  O34  1  0.16690115  0.40887517  0.55243567  1
  O  O35  1  0.13147844  0.96740193  0.32059911  1
  O  O36  1  0.32810215  0.09511180  0.43805347  1
  O  O37  1  0.28295442  0.95508240  0.09492330  1
  O  O38  1  0.28929600  0.10080758  0.67294601  1
  O  O39  1  0.45673015  0.28762971  0.09991399  1
  O  O40  1  0.15706120  0.83048337  0.89651218  1
  O  O41  1  0.26410487  0.49808347  0.93290649  1
  O  O42  1  0.39030898  0.36794618  0.71454040  1
  O  O43  1  0.34957764  0.69096605  0.73901827  1
  O  O44  1  0.44367548  0.71157368  0.46697097  1
  O  O45  1  0.55632452  0.28842632  0.53302903  1
  O  O46  1  0.65042236  0.30903395  0.26098173  1
  O  O47  1  0.60969102  0.63205382  0.28545960  1
  O  O48  1  0.73589513  0.50191653  0.06709351  1
  O  O49  1  0.84293880  0.16951663  0.10348782  1
  O  O50  1  0.54326985  0.71237029  0.90008601  1
  O  O51  1  0.71070400  0.89919242  0.32705399  1
  O  O52  1  0.71704558  0.04491760  0.90507670  1
  O  O53  1  0.67189785  0.90488820  0.56194653  1
  O  O54  1  0.86852156  0.03259807  0.67940089  1
  O  O55  1  0.83309885  0.59112483  0.44756433  1
  O  O56  1  0.82341505  0.36461337  0.71476080  1
  O  O57  1  0.90782469  0.79657505  0.09310802  1
  O  O58  1  0.93810180  0.18487412  0.43203845  1
  O  O59  1  0.82386709  0.69841967  0.73833160  1
