# generated using pymatgen
data_H13S2N3O8
_symmetry_space_group_name_H-M   'P 1'
_cell_length_a   10.35338870
_cell_length_b   8.37928476
_cell_length_c   8.37928476
_cell_angle_alpha   41.16995539
_cell_angle_beta   99.65378230
_cell_angle_gamma   99.65378230
_symmetry_Int_Tables_number   1
_chemical_formula_structural   H13S2N3O8
_chemical_formula_sum   'H26 S4 N6 O16'
_cell_volume   470.79818195
_cell_formula_units_Z   2
loop_
 _symmetry_equiv_pos_site_id
 _symmetry_equiv_pos_as_xyz
  1  'x, y, z'
loop_
 _atom_site_type_symbol
 _atom_site_label
 _atom_site_symmetry_multiplicity
 _atom_site_fract_x
 _atom_site_fract_y
 _atom_site_fract_z
 _atom_site_occupancy
  H  H0  1  0.17521965  0.58931184  0.34634141  1
  H  H1  1  0.67521965  0.34634141  0.58931184  1
  H  H2  1  0.82478035  0.41068816  0.65365859  1
  H  H3  1  0.32478035  0.65365859  0.41068816  1
  H  H4  1  0.28213781  0.77594394  0.13148365  1
  H  H5  1  0.78213781  0.13148365  0.77594394  1
  H  H6  1  0.71786219  0.22405606  0.86851635  1
  H  H7  1  0.21786219  0.86851635  0.22405606  1
  H  H8  1  0.75697289  0.51997588  0.13029886  1
  H  H9  1  0.25697289  0.13029886  0.51997588  1
  H  H10  1  0.24302711  0.48002412  0.86970114  1
  H  H11  1  0.74302711  0.86970114  0.48002412  1
  H  H12  1  0.84414103  0.44171819  0.04558227  1
  H  H13  1  0.34414103  0.04558227  0.44171819  1
  H  H14  1  0.15585897  0.55828181  0.95441773  1
  H  H15  1  0.65585897  0.95441773  0.55828181  1
  H  H16  1  0.91618444  0.45281096  0.23009605  1
  H  H17  1  0.41618444  0.23009605  0.45281096  1
  H  H18  1  0.08381556  0.54718904  0.76990395  1
  H  H19  1  0.58381556  0.76990395  0.54718904  1
  H  H20  1  0.87565222  0.71673880  0.93503554  1
  H  H21  1  0.37565222  0.93503554  0.71673880  1
  H  H22  1  0.12434778  0.28326120  0.06496446  1
  H  H23  1  0.62434778  0.06496446  0.28326120  1
  H  H24  1  0.50000000  0.00000000  0.00000000  1
  H  H25  1  0.00000000  0.00000000  0.00000000  1
  S  S26  1  0.03878501  0.09466399  0.68011467  1
  S  S27  1  0.53878501  0.68011467  0.09466399  1
  S  S28  1  0.96121499  0.90533601  0.31988533  1
  S  S29  1  0.46121499  0.31988533  0.90533601  1
  N  N30  1  0.75000000  0.27671884  0.72328116  1
  N  N31  1  0.25000000  0.72328116  0.27671884  1
  N  N32  1  0.84809092  0.53269316  0.08547492  1
  N  N33  1  0.34809092  0.08547492  0.53269316  1
  N  N34  1  0.15190908  0.46730684  0.91452508  1
  N  N35  1  0.65190908  0.91452508  0.46730684  1
  O  O36  1  0.10770796  0.87307133  0.82801345  1
  O  O37  1  0.60770796  0.82801345  0.87307133  1
  O  O38  1  0.89229204  0.12692867  0.17198655  1
  O  O39  1  0.39229204  0.17198655  0.12692867  1
  O  O40  1  0.05556280  0.15950385  0.81318977  1
  O  O41  1  0.55556280  0.81318977  0.15950385  1
  O  O42  1  0.94443720  0.84049615  0.18681023  1
  O  O43  1  0.44443720  0.18681023  0.84049615  1
  O  O44  1  0.89573369  0.05426789  0.64972929  1
  O  O45  1  0.39573369  0.64972929  0.05426789  1
  O  O46  1  0.10426631  0.94573211  0.35027071  1
  O  O47  1  0.60426631  0.35027071  0.94573211  1
  O  O48  1  0.09695621  0.30771443  0.44233964  1
  O  O49  1  0.59695621  0.44233964  0.30771443  1
  O  O50  1  0.90304379  0.69228557  0.55766036  1
  O  O51  1  0.40304379  0.55766036  0.69228557  1
