# generated using pymatgen
data_Li9Mn2Co5O16
_symmetry_space_group_name_H-M   'P 1'
_cell_length_a   2.93749600
_cell_length_b   10.19631678
_cell_length_c   9.79336759
_cell_angle_alpha   100.93025151
_cell_angle_beta   87.52731113
_cell_angle_gamma   91.11163848
_symmetry_Int_Tables_number   1
_chemical_formula_structural   Li9Mn2Co5O16
_chemical_formula_sum   'Li9 Mn2 Co5 O16'
_cell_volume   287.71910279
_cell_formula_units_Z   1
loop_
 _symmetry_equiv_pos_site_id
 _symmetry_equiv_pos_as_xyz
  1  'x, y, z'
loop_
 _atom_site_type_symbol
 _atom_site_label
 _atom_site_symmetry_multiplicity
 _atom_site_fract_x
 _atom_site_fract_y
 _atom_site_fract_z
 _atom_site_occupancy
  Li  Li0  1  0.99621383  0.13583875  0.75268732  1
  Li  Li1  1  0.50575053  0.49529515  0.49944555  1
  Li  Li2  1  0.00298195  0.87586425  0.25152543  1
  Li  Li3  1  0.48846126  0.25249019  0.99156185  1
  Li  Li4  1  0.50234634  0.00308897  0.50065023  1
  Li  Li5  1  0.00654053  0.37161833  0.25268290  1
  Li  Li6  1  0.50592841  0.74936325  0.00099109  1
  Li  Li7  1  0.99098768  0.62014787  0.74635887  1
  Li  Li8  1  0.51391402  0.36805017  0.75382871  1
  Mn  Mn9  1  0.99813901  0.00188868  0.00078418  1
  Mn  Mn10  1  -0.00084730  0.49281309  0.99314441  1
  Co  Co11  1  0.99488809  0.74885312  0.49853753  1
  Co  Co12  1  0.50435605  0.12832194  0.25356969  1
  Co  Co13  1  0.49526058  0.87525830  0.74920299  1
  Co  Co14  1  0.00350021  0.25700931  0.51023029  1
  Co  Co15  1  0.49628898  0.62634266  0.24828049  1
  O  O16  1  0.45887417  0.05626776  0.87488658  1
  O  O17  1  0.99967182  0.41942470  0.60742973  1
  O  O18  1  0.49569493  0.80746431  0.38130126  1
  O  O19  1  0.00002269  0.17818016  0.12933512  1
  O  O20  1  0.98841457  0.92591984  0.62959802  1
  O  O21  1  0.47055469  0.30424601  0.37625213  1
  O  O22  1  0.97710514  0.67307698  0.13054472  1
  O  O23  1  0.51590168  0.55639659  0.89075838  1
  O  O24  1  0.53257488  0.19125900  0.61412087  1
  O  O25  1  0.01548456  0.57313287  0.36179265  1
  O  O26  1  0.53964568  0.94559647  0.12922897  1
  O  O27  1  0.00395750  0.32604213  0.88505959  1
  O  O28  1  0.00357758  0.08240976  0.38067669  1
  O  O29  1  0.47930690  0.44633433  0.11210045  1
  O  O30  1  0.01125019  0.82101033  0.87360269  1
  O  O31  1  0.50325286  0.69098975  0.61983064  1
