# generated using pymatgen
data_SiO2
_symmetry_space_group_name_H-M   'P 1'
_cell_length_a   5.27624083
_cell_length_b   5.27624082
_cell_length_c   8.61197753
_cell_angle_alpha   90.00000000
_cell_angle_beta   90.00000000
_cell_angle_gamma   119.99999998
_symmetry_Int_Tables_number   1
_chemical_formula_structural   SiO2
_chemical_formula_sum   'Si4 O8'
_cell_volume   207.62647940
_cell_formula_units_Z   4
loop_
 _symmetry_equiv_pos_site_id
 _symmetry_equiv_pos_as_xyz
  1  'x, y, z'
loop_
 _atom_site_type_symbol
 _atom_site_label
 _atom_site_symmetry_multiplicity
 _atom_site_fract_x
 _atom_site_fract_y
 _atom_site_fract_z
 _atom_site_occupancy
  O  O0  1  0.50000000  0.00000000  0.50000000  1
  O  O1  1  0.50000000  0.50000000  0.00000000  1
  O  O2  1  0.00000000  0.50000000  0.00000000  1
  O  O3  1  0.00000000  0.50000000  0.50000000  1
  O  O4  1  0.33333333  0.66666667  0.25000000  1
  O  O5  1  0.66666667  0.33333333  0.75000000  1
  O  O6  1  0.50000000  0.00000000  0.00000000  1
  O  O7  1  0.50000000  0.50000000  0.50000000  1
  Si  Si8  1  0.33333333  0.66666667  0.43757585  1
  Si  Si9  1  0.66666667  0.33333333  0.93757585  1
  Si  Si10  1  0.66666667  0.33333333  0.56242415  1
  Si  Si11  1  0.33333333  0.66666667  0.06242415  1
