# generated using pymatgen
data_MnAgH8(OF)4
_symmetry_space_group_name_H-M   'P 1'
_cell_length_a   7.01775213
_cell_length_b   7.17153044
_cell_length_c   7.48269487
_cell_angle_alpha   90.00000000
_cell_angle_beta   104.51014554
_cell_angle_gamma   90.00000000
_symmetry_Int_Tables_number   1
_chemical_formula_structural   MnAgH8(OF)4
_chemical_formula_sum   'Mn2 Ag2 H16 O8 F8'
_cell_volume   364.57728190
_cell_formula_units_Z   2
loop_
 _symmetry_equiv_pos_site_id
 _symmetry_equiv_pos_as_xyz
  1  'x, y, z'
loop_
 _atom_site_type_symbol
 _atom_site_label
 _atom_site_symmetry_multiplicity
 _atom_site_fract_x
 _atom_site_fract_y
 _atom_site_fract_z
 _atom_site_occupancy
  Mn  Mn0  1  0.26639131  0.25000000  0.55038458  1
  Mn  Mn1  1  0.73360869  0.75000000  0.44961542  1
  Ag  Ag2  1  0.03846941  0.25000000  0.03770535  1
  Ag  Ag3  1  0.96153059  0.75000000  0.96229465  1
  H  H4  1  0.95693190  0.36908488  0.63472787  1
  H  H5  1  0.04306810  0.86908488  0.36527213  1
  H  H6  1  0.04306810  0.63091512  0.36527213  1
  H  H7  1  0.95693190  0.13091512  0.63472787  1
  H  H8  1  0.53073537  0.36439620  0.38137293  1
  H  H9  1  0.46926463  0.86439620  0.61862707  1
  H  H10  1  0.46926463  0.63560380  0.61862707  1
  H  H11  1  0.53073537  0.13560380  0.38137293  1
  H  H12  1  0.65765720  0.45954127  0.88030177  1
  H  H13  1  0.34234280  0.95954127  0.11969823  1
  H  H14  1  0.34234280  0.54045873  0.11969823  1
  H  H15  1  0.65765720  0.04045873  0.88030177  1
  H  H16  1  0.70719020  0.49317003  0.09693527  1
  H  H17  1  0.29280980  0.99317003  0.90306473  1
  H  H18  1  0.29280980  0.50682997  0.90306473  1
  H  H19  1  0.70719020  0.00682997  0.09693527  1
  O  O20  1  0.04200325  0.25000000  0.66293972  1
  O  O21  1  0.95799675  0.75000000  0.33706028  1
  O  O22  1  0.49856744  0.25000000  0.44588860  1
  O  O23  1  0.50143256  0.75000000  0.55411140  1
  O  O24  1  0.76850356  0.47849894  0.99135575  1
  O  O25  1  0.23149644  0.97849894  0.00864425  1
  O  O26  1  0.23149644  0.52150106  0.00864425  1
  O  O27  1  0.76850356  0.02150106  0.99135575  1
  F  F28  1  0.40408784  0.46141663  0.72719969  1
  F  F29  1  0.59591216  0.96141663  0.27280031  1
  F  F30  1  0.59591216  0.53858337  0.27280031  1
  F  F31  1  0.40408784  0.03858337  0.72719969  1
  F  F32  1  0.14385455  0.45045691  0.37477294  1
  F  F33  1  0.85614545  0.95045691  0.62522706  1
  F  F34  1  0.85614545  0.54954309  0.62522706  1
  F  F35  1  0.14385455  0.04954309  0.37477294  1
