# generated using pymatgen
data_Na5Te2H36AuO28
_symmetry_space_group_name_H-M   'P 1'
_cell_length_a   9.01624529
_cell_length_b   12.79370353
_cell_length_c   5.99453859
_cell_angle_alpha   98.45870071
_cell_angle_beta   92.70622256
_cell_angle_gamma   98.14824737
_symmetry_Int_Tables_number   1
_chemical_formula_structural   Na5Te2H36AuO28
_chemical_formula_sum   'Na5 Te2 H36 Au1 O28'
_cell_volume   675.41268954
_cell_formula_units_Z   1
loop_
 _symmetry_equiv_pos_site_id
 _symmetry_equiv_pos_as_xyz
  1  'x, y, z'
loop_
 _atom_site_type_symbol
 _atom_site_label
 _atom_site_symmetry_multiplicity
 _atom_site_fract_x
 _atom_site_fract_y
 _atom_site_fract_z
 _atom_site_occupancy
  Na  Na0  1  0.00000000  0.50000000  0.00000000  1
  Na  Na1  1  0.66980615  0.04571784  0.65249773  1
  Na  Na2  1  0.33019385  0.95428216  0.34750227  1
  Na  Na3  1  0.77369101  0.31854914  0.67134537  1
  Na  Na4  1  0.22630899  0.68145086  0.32865463  1
  Te  Te5  1  0.75526159  0.80581187  0.81646676  1
  Te  Te6  1  0.24473841  0.19418813  0.18353324  1
  H  H7  1  0.71819577  0.70107117  0.14565329  1
  H  H8  1  0.28180423  0.29892883  0.85434671  1
  H  H9  1  0.76872622  0.83404682  0.39920567  1
  H  H10  1  0.23127378  0.16595318  0.60079433  1
  H  H11  1  0.48626075  0.79050350  0.11291046  1
  H  H12  1  0.51373925  0.20949650  0.88708954  1
  H  H13  1  0.52784259  0.81746098  0.37591787  1
  H  H14  1  0.47215741  0.18253902  0.62408213  1
  H  H15  1  0.68395136  0.52028712  0.00240104  1
  H  H16  1  0.31604864  0.47971288  0.99759896  1
  H  H17  1  0.75048390  0.56683909  0.79163622  1
  H  H18  1  0.24951610  0.43316091  0.20836378  1
  H  H19  1  0.65998831  0.61700928  0.43474682  1
  H  H20  1  0.34001169  0.38299072  0.56525318  1
  H  H21  1  0.50363693  0.57817297  0.28452512  1
  H  H22  1  0.49636307  0.42182703  0.71547488  1
  H  H23  1  0.19401526  0.66199508  0.83473852  1
  H  H24  1  0.80598474  0.33800492  0.16526148  1
  H  H25  1  0.06669602  0.73313984  0.90258835  1
  H  H26  1  0.93330398  0.26686016  0.09741165  1
  H  H27  1  0.05902897  0.85053371  0.55506700  1
  H  H28  1  0.94097103  0.14946629  0.44493300  1
  H  H29  1  0.01180705  0.81851403  0.29733875  1
  H  H30  1  0.98819295  0.18148597  0.70266125  1
  H  H31  1  0.42921829  0.68955106  0.73018189  1
  H  H32  1  0.57078171  0.31044894  0.26981811  1
  H  H33  1  0.36171736  0.56425182  0.67252613  1
  H  H34  1  0.63828264  0.43574818  0.32747387  1
  H  H35  1  0.45814132  0.89116776  0.78426710  1
  H  H36  1  0.54185868  0.10883224  0.21573290  1
  H  H37  1  0.35733204  0.98392979  0.83624380  1
  H  H38  1  0.64266796  0.01607021  0.16375620  1
  H  H39  1  0.92275181  0.62024103  0.51003442  1
  H  H40  1  0.07724819  0.37975897  0.48996558  1
  H  H41  1  0.91512717  0.63933709  0.26782214  1
  H  H42  1  0.08487283  0.36066291  0.73217786  1
  Au  Au43  1  0.00000000  0.00000000  0.00000000  1
  O  O44  1  0.80256550  0.75622284  0.12250567  1
  O  O45  1  0.19743450  0.24377716  0.87749433  1
  O  O46  1  0.76902189  0.66966397  0.65361623  1
  O  O47  1  0.23097811  0.33033603  0.34638377  1
  O  O48  1  0.54774560  0.78736635  0.85788433  1
  O  O49  1  0.45225440  0.21263365  0.14211567  1
  O  O50  1  0.71612060  0.86539395  0.53024046  1
  O  O51  1  0.28387940  0.13460605  0.46975954  1
  O  O52  1  0.77417425  0.95676949  0.97328057  1
  O  O53  1  0.22582575  0.04323051  0.02671943  1
  O  O54  1  0.97886604  0.84965278  0.82242266  1
  O  O55  1  0.02113396  0.15034722  0.17757734  1
  O  O56  1  0.44076168  0.79456576  0.26368632  1
  O  O57  1  0.55923832  0.20543424  0.73631368  1
  O  O58  1  0.73925237  0.50094051  0.86858019  1
  O  O59  1  0.26074763  0.49905949  0.13141981  1
  O  O60  1  0.61072925  0.57314221  0.28582582  1
  O  O61  1  0.38927075  0.42685779  0.71417418  1
  O  O62  1  0.11441955  0.67267357  0.94258623  1
  O  O63  1  0.88558045  0.32732643  0.05741377  1
  O  O64  1  0.10037505  0.84398592  0.40277354  1
  O  O65  1  0.89962495  0.15601408  0.59722646  1
  O  O66  1  0.33819607  0.63663288  0.66127122  1
  O  O67  1  0.66180393  0.36336712  0.33872878  1
  O  O68  1  0.41913614  0.95088987  0.72202461  1
  O  O69  1  0.58086386  0.04911013  0.27797539  1
  O  O70  1  0.96962629  0.60045357  0.36499361  1
  O  O71  1  0.03037371  0.39954643  0.63500639  1
