# generated using pymatgen
data_BaRe2(H2O3)4
_symmetry_space_group_name_H-M   'P 1'
_cell_length_a   7.49871423
_cell_length_b   12.65177343
_cell_length_c   12.49110542
_cell_angle_alpha   90.00000000
_cell_angle_beta   91.52282454
_cell_angle_gamma   90.00000000
_symmetry_Int_Tables_number   1
_chemical_formula_structural   BaRe2(H2O3)4
_chemical_formula_sum   'Ba4 Re8 H32 O48'
_cell_volume   1184.63802977
_cell_formula_units_Z   4
loop_
 _symmetry_equiv_pos_site_id
 _symmetry_equiv_pos_as_xyz
  1  'x, y, z'
loop_
 _atom_site_type_symbol
 _atom_site_label
 _atom_site_symmetry_multiplicity
 _atom_site_fract_x
 _atom_site_fract_y
 _atom_site_fract_z
 _atom_site_occupancy
  Ba  Ba0  1  0.24805986  0.75018569  0.06964174  1
  Ba  Ba1  1  0.74805986  0.74981431  0.56964174  1
  Ba  Ba2  1  0.75194014  0.24981431  0.93035826  1
  Ba  Ba3  1  0.25194014  0.25018569  0.43035826  1
  Re  Re4  1  0.24449204  0.88589413  0.40806305  1
  Re  Re5  1  0.74449204  0.61410587  0.90806305  1
  Re  Re6  1  0.75550796  0.11410587  0.59193695  1
  Re  Re7  1  0.25550796  0.38589413  0.09193695  1
  Re  Re8  1  0.25131191  0.57251905  0.53763777  1
  Re  Re9  1  0.75131191  0.92748095  0.03763777  1
  Re  Re10  1  0.74868809  0.42748095  0.46236223  1
  Re  Re11  1  0.24868809  0.07251905  0.96236223  1
  H  H12  1  0.52941708  0.59362303  0.21834384  1
  H  H13  1  0.02941708  0.90637697  0.71834384  1
  H  H14  1  0.47058292  0.40637697  0.78165616  1
  H  H15  1  0.97058292  0.09362303  0.28165616  1
  H  H16  1  0.40600884  0.64597809  0.30189536  1
  H  H17  1  0.90600884  0.85402191  0.80189536  1
  H  H18  1  0.59399116  0.35402191  0.69810464  1
  H  H19  1  0.09399116  0.14597809  0.19810464  1
  H  H20  1  0.09230094  0.61323082  0.28546497  1
  H  H21  1  0.59230094  0.88676918  0.78546497  1
  H  H22  1  0.90769906  0.38676918  0.71453503  1
  H  H23  1  0.40769906  0.11323082  0.21453503  1
  H  H24  1  0.94935934  0.69832060  0.25776716  1
  H  H25  1  0.44935934  0.80167940  0.75776716  1
  H  H26  1  0.05064066  0.30167940  0.74223284  1
  H  H27  1  0.55064066  0.19832060  0.24223284  1
  H  H28  1  0.16396298  0.77570022  0.80061039  1
  H  H29  1  0.66396298  0.72429978  0.30061039  1
  H  H30  1  0.83603702  0.22429978  0.19938961  1
  H  H31  1  0.33603702  0.27570022  0.69938961  1
  H  H32  1  0.25376005  0.66546217  0.81358081  1
  H  H33  1  0.75376005  0.83453783  0.31358081  1
  H  H34  1  0.74623995  0.33453783  0.18641919  1
  H  H35  1  0.24623995  0.16546217  0.68641919  1
  H  H36  1  0.28648442  0.50823131  0.89645784  1
  H  H37  1  0.78648442  0.99176869  0.39645784  1
  H  H38  1  0.71351558  0.49176869  0.10354216  1
  H  H39  1  0.21351558  0.00823131  0.60354216  1
  H  H40  1  0.16870372  0.45744549  0.80552711  1
  H  H41  1  0.66870372  0.04255451  0.30552711  1
  H  H42  1  0.83129628  0.54255451  0.19447289  1
  H  H43  1  0.33129628  0.95744549  0.69447289  1
  O  O44  1  0.22144335  0.86172316  0.27039030  1
  O  O45  1  0.72144335  0.63827684  0.77039030  1
  O  O46  1  0.77855665  0.13827684  0.72960970  1
  O  O47  1  0.27855665  0.36172316  0.22960970  1
  O  O48  1  0.08577419  0.81254392  0.47667717  1
  O  O49  1  0.58577419  0.68745608  0.97667717  1
  O  O50  1  0.91422581  0.18745608  0.52332283  1
  O  O51  1  0.41422581  0.31254392  0.02332283  1
  O  O52  1  0.21232362  0.02076636  0.43766562  1
  O  O53  1  0.71232362  0.47923364  0.93766562  1
  O  O54  1  0.78767638  0.97923364  0.56233438  1
  O  O55  1  0.28767638  0.52076636  0.06233438  1
  O  O56  1  0.45769868  0.84736465  0.45421108  1
  O  O57  1  0.95769868  0.65263535  0.95421108  1
  O  O58  1  0.54230132  0.15263535  0.54578892  1
  O  O59  1  0.04230132  0.34736465  0.04578892  1
  O  O60  1  0.03991665  0.59783313  0.59002601  1
  O  O61  1  0.53991665  0.90216687  0.09002601  1
  O  O62  1  0.96008335  0.40216687  0.40997399  1
  O  O63  1  0.46008335  0.09783313  0.90997399  1
  O  O64  1  0.41215679  0.65031752  0.60338319  1
  O  O65  1  0.91215679  0.84968248  0.10338319  1
  O  O66  1  0.58784321  0.34968248  0.39661681  1
  O  O67  1  0.08784321  0.15031752  0.89661681  1
  O  O68  1  0.30570409  0.43846245  0.55505804  1
  O  O69  1  0.80570409  0.06153755  0.05505804  1
  O  O70  1  0.69429591  0.56153755  0.44494196  1
  O  O71  1  0.19429591  0.93846245  0.94494196  1
  O  O72  1  0.24853411  0.60202375  0.39998619  1
  O  O73  1  0.74853411  0.89797625  0.89998619  1
  O  O74  1  0.75146589  0.39797625  0.60001381  1
  O  O75  1  0.25146589  0.10202375  0.10001381  1
  O  O76  1  0.47366259  0.66182138  0.23698035  1
  O  O77  1  0.97366259  0.83817862  0.73698035  1
  O  O78  1  0.52633741  0.33817862  0.76301965  1
  O  O79  1  0.02633741  0.16182138  0.26301965  1
  O  O80  1  0.02051859  0.64127842  0.22439170  1
  O  O81  1  0.52051859  0.85872158  0.72439170  1
  O  O82  1  0.97948141  0.35872158  0.77560830  1
  O  O83  1  0.47948141  0.14127842  0.27560830  1
  O  O84  1  0.26833155  0.73964680  0.83545762  1
  O  O85  1  0.76833155  0.76035320  0.33545762  1
  O  O86  1  0.73166845  0.26035320  0.16454238  1
  O  O87  1  0.23166845  0.23964680  0.66454238  1
  O  O88  1  0.27524019  0.50317492  0.81823919  1
  O  O89  1  0.77524019  0.99682508  0.31823919  1
  O  O90  1  0.72475981  0.49682508  0.18176081  1
  O  O91  1  0.22475981  0.00317492  0.68176081  1
