# generated using pymatgen
data_BaLa3Mn4O12
_symmetry_space_group_name_H-M   'P 1'
_cell_length_a   11.18353586
_cell_length_b   11.18353589
_cell_length_c   13.64752163
_cell_angle_alpha   35.55591387
_cell_angle_beta   35.55591365
_cell_angle_gamma   60.47576991
_symmetry_Int_Tables_number   1
_chemical_formula_structural   BaLa3Mn4O12
_chemical_formula_sum   'Ba2 La6 Mn8 O24'
_cell_volume   499.84791697
_cell_formula_units_Z   2
loop_
 _symmetry_equiv_pos_site_id
 _symmetry_equiv_pos_as_xyz
  1  'x, y, z'
loop_
 _atom_site_type_symbol
 _atom_site_label
 _atom_site_symmetry_multiplicity
 _atom_site_fract_x
 _atom_site_fract_y
 _atom_site_fract_z
 _atom_site_occupancy
  Ba  Ba0  1  0.50000000  0.50000000  0.25000000  1
  Ba  Ba1  1  0.50000000  0.50000000  0.75000000  1
  La  La2  1  0.99584838  0.00415162  0.25000000  1
  La  La3  1  0.99584838  0.49169676  0.25830324  1
  La  La4  1  0.00415162  0.99584838  0.75000000  1
  La  La5  1  0.50830324  0.00415162  0.24169676  1
  La  La6  1  0.00415162  0.50830324  0.74169676  1
  La  La7  1  0.49169676  0.99584838  0.75830324  1
  Mn  Mn8  1  0.00000000  0.00000000  0.00000000  1
  Mn  Mn9  1  0.00000000  0.50000000  0.00000000  1
  Mn  Mn10  1  0.00000000  0.00000000  0.50000000  1
  Mn  Mn11  1  0.50000000  0.00000000  0.00000000  1
  Mn  Mn12  1  0.00000000  0.50000000  0.50000000  1
  Mn  Mn13  1  0.50000000  0.50000000  0.00000000  1
  Mn  Mn14  1  0.50000000  0.00000000  0.50000000  1
  Mn  Mn15  1  0.50000000  0.50000000  0.50000000  1
  O  O16  1  0.26290741  0.02581483  0.22418517  1
  O  O17  1  0.21554038  0.27230690  0.26300449  1
  O  O18  1  0.27230690  0.55676652  0.19238172  1
  O  O19  1  0.22292174  0.77707826  0.25000000  1
  O  O20  1  0.44323348  0.21554038  0.30591476  1
  O  O21  1  0.02581483  0.26290741  0.72418517  1
  O  O22  1  0.77707826  0.05415652  0.19584348  1
  O  O23  1  0.44323348  0.72769310  0.30761828  1
  O  O24  1  0.73709259  0.26290741  0.25000000  1
  O  O25  1  0.05415652  0.77707826  0.69584348  1
  O  O26  1  0.27230690  0.21554038  0.76300449  1
  O  O27  1  0.21554038  0.44323348  0.80591476  1
  O  O28  1  0.78445962  0.55676652  0.19408524  1
  O  O29  1  0.72769310  0.78445962  0.23699551  1
  O  O30  1  0.94584348  0.22292174  0.30415652  1
  O  O31  1  0.26290741  0.73709259  0.75000000  1
  O  O32  1  0.55676652  0.27230690  0.69238172  1
  O  O33  1  0.22292174  0.94584348  0.80415652  1
  O  O34  1  0.97418517  0.73709259  0.27581483  1
  O  O35  1  0.55676652  0.78445962  0.69408524  1
  O  O36  1  0.77707826  0.22292174  0.75000000  1
  O  O37  1  0.72769310  0.44323348  0.80761828  1
  O  O38  1  0.78445962  0.72769310  0.73699551  1
  O  O39  1  0.73709259  0.97418517  0.77581483  1
