# generated using pymatgen
data_LiAgF4
_symmetry_space_group_name_H-M   'P 1'
_cell_length_a   4.85465715
_cell_length_b   11.33224499
_cell_length_c   5.64523379
_cell_angle_alpha   90.00000000
_cell_angle_beta   90.00000000
_cell_angle_gamma   90.00000000
_symmetry_Int_Tables_number   1
_chemical_formula_structural   LiAgF4
_chemical_formula_sum   'Li4 Ag4 F16'
_cell_volume   310.56781848
_cell_formula_units_Z   4
loop_
 _symmetry_equiv_pos_site_id
 _symmetry_equiv_pos_as_xyz
  1  'x, y, z'
loop_
 _atom_site_type_symbol
 _atom_site_label
 _atom_site_symmetry_multiplicity
 _atom_site_fract_x
 _atom_site_fract_y
 _atom_site_fract_z
 _atom_site_occupancy
  Li  Li0  1  0.00000000  0.06235366  0.25000000  1
  Li  Li1  1  0.00000000  0.93764634  0.75000000  1
  Li  Li2  1  0.50000000  0.56235366  0.25000000  1
  Li  Li3  1  0.50000000  0.43764634  0.75000000  1
  Ag  Ag4  1  0.00000000  0.33111436  0.25000000  1
  Ag  Ag5  1  0.00000000  0.66888564  0.75000000  1
  Ag  Ag6  1  0.50000000  0.83111436  0.25000000  1
  Ag  Ag7  1  0.50000000  0.16888564  0.75000000  1
  F  F8  1  0.21689599  0.19996897  0.38598679  1
  F  F9  1  0.21689599  0.80003103  0.88598679  1
  F  F10  1  0.25026371  0.05015721  0.90328585  1
  F  F11  1  0.25026371  0.94984279  0.40328585  1
  F  F12  1  0.24973629  0.44984279  0.40328585  1
  F  F13  1  0.24973629  0.55015721  0.90328585  1
  F  F14  1  0.28310401  0.30003103  0.88598679  1
  F  F15  1  0.28310401  0.69996897  0.38598679  1
  F  F16  1  0.71689599  0.30003103  0.61401321  1
  F  F17  1  0.71689599  0.69996897  0.11401321  1
  F  F18  1  0.75026371  0.44984279  0.09671415  1
  F  F19  1  0.75026371  0.55015721  0.59671415  1
  F  F20  1  0.74973629  0.05015721  0.59671415  1
  F  F21  1  0.74973629  0.94984279  0.09671415  1
  F  F22  1  0.78310401  0.19996897  0.11401321  1
  F  F23  1  0.78310401  0.80003103  0.61401321  1
