# generated using pymatgen
data_H2S
_symmetry_space_group_name_H-M   'P 1'
_cell_length_a   13.65548067
_cell_length_b   13.65548067
_cell_length_c   4.28044892
_cell_angle_alpha   90.00000000
_cell_angle_beta   90.00000000
_cell_angle_gamma   90.00000000
_symmetry_Int_Tables_number   1
_chemical_formula_structural   H2S
_chemical_formula_sum   'H32 S16'
_cell_volume   798.18452305
_cell_formula_units_Z   16
loop_
 _symmetry_equiv_pos_site_id
 _symmetry_equiv_pos_as_xyz
  1  'x, y, z'
loop_
 _atom_site_type_symbol
 _atom_site_label
 _atom_site_symmetry_multiplicity
 _atom_site_fract_x
 _atom_site_fract_y
 _atom_site_fract_z
 _atom_site_occupancy
  H  H0  1  0.13149596  0.81037439  0.64783730  1
  H  H1  1  0.86850404  0.18962561  0.64783730  1
  H  H2  1  0.81037439  0.86850404  0.14783730  1
  H  H3  1  0.18962561  0.13149596  0.14783730  1
  H  H4  1  0.06037959  0.89384349  0.34723794  1
  H  H5  1  0.93962041  0.10615651  0.34723794  1
  H  H6  1  0.89384349  0.93962041  0.84723794  1
  H  H7  1  0.10615651  0.06037959  0.84723794  1
  H  H8  1  0.12874135  0.31074847  0.64684058  1
  H  H9  1  0.87125865  0.68925153  0.64684058  1
  H  H10  1  0.31074847  0.87125865  0.14684058  1
  H  H11  1  0.68925153  0.12874135  0.14684058  1
  H  H12  1  0.05718191  0.39497620  0.34994020  1
  H  H13  1  0.94281809  0.60502380  0.34994020  1
  H  H14  1  0.39497620  0.94281809  0.84994020  1
  H  H15  1  0.60502380  0.05718191  0.84994020  1
  H  H16  1  0.63164294  0.81287102  0.64137977  1
  H  H17  1  0.36835706  0.18712898  0.64137977  1
  H  H18  1  0.81287102  0.36835706  0.14137977  1
  H  H19  1  0.18712898  0.63164294  0.14137977  1
  H  H20  1  0.56039228  0.89506530  0.34323244  1
  H  H21  1  0.43960772  0.10493470  0.34323244  1
  H  H22  1  0.89506530  0.43960772  0.84323244  1
  H  H23  1  0.10493470  0.56039228  0.84323244  1
  H  H24  1  0.62898018  0.31274292  0.35893581  1
  H  H25  1  0.37101982  0.68725708  0.35893581  1
  H  H26  1  0.31274292  0.37101982  0.85893581  1
  H  H27  1  0.68725708  0.62898018  0.85893581  1
  H  H28  1  0.55762748  0.39583217  0.65410278  1
  H  H29  1  0.44237252  0.60416783  0.65410278  1
  H  H30  1  0.39583217  0.44237252  0.15410278  1
  H  H31  1  0.60416783  0.55762748  0.15410278  1
  S  S32  1  0.14642677  0.89792541  0.50628877  1
  S  S33  1  0.85357323  0.10207459  0.50628877  1
  S  S34  1  0.89792541  0.85357323  0.00628877  1
  S  S35  1  0.10207459  0.14642677  0.00628877  1
  S  S36  1  0.14443202  0.39781080  0.50301825  1
  S  S37  1  0.85556798  0.60218920  0.50301825  1
  S  S38  1  0.39781080  0.85556798  0.00301825  1
  S  S39  1  0.60218920  0.14443202  0.00301825  1
  S  S40  1  0.64523731  0.90181257  0.50869086  1
  S  S41  1  0.35476269  0.09818743  0.50869086  1
  S  S42  1  0.90181257  0.35476269  0.00869086  1
  S  S43  1  0.09818743  0.64523731  0.00869086  1
  S  S44  1  0.64332194  0.40151908  0.49249529  1
  S  S45  1  0.35667806  0.59848092  0.49249529  1
  S  S46  1  0.40151908  0.35667806  0.99249529  1
  S  S47  1  0.59848092  0.64332194  0.99249529  1
