# generated using pymatgen
data_CaH14I10O7
_symmetry_space_group_name_H-M   'P 1'
_cell_length_a   9.96935585
_cell_length_b   15.61368236
_cell_length_c   9.54554466
_cell_angle_alpha   90.65562331
_cell_angle_beta   108.84831488
_cell_angle_gamma   93.06476269
_symmetry_Int_Tables_number   1
_chemical_formula_structural   CaH14I10O7
_chemical_formula_sum   'Ca2 H28 I20 O14'
_cell_volume   1403.50908614
_cell_formula_units_Z   2
loop_
 _symmetry_equiv_pos_site_id
 _symmetry_equiv_pos_as_xyz
  1  'x, y, z'
loop_
 _atom_site_type_symbol
 _atom_site_label
 _atom_site_symmetry_multiplicity
 _atom_site_fract_x
 _atom_site_fract_y
 _atom_site_fract_z
 _atom_site_occupancy
  Ca  Ca0  1  0.62698954  0.25120011  0.78247876  1
  Ca  Ca1  1  0.37301046  0.74879989  0.21752124  1
  H  H2  1  0.37984661  0.26586802  0.48252566  1
  H  H3  1  0.62015339  0.73413198  0.51747434  1
  H  H4  1  0.39350311  0.16900413  0.51896821  1
  H  H5  1  0.60649689  0.83099587  0.48103179  1
  H  H6  1  0.37128655  0.29185358  0.89431149  1
  H  H7  1  0.62871345  0.70814642  0.10568851  1
  H  H8  1  0.37671944  0.19194097  0.88270761  1
  H  H9  1  0.62328056  0.80805903  0.11729239  1
  H  H10  1  0.69559002  0.06854485  0.69239078  1
  H  H11  1  0.30440998  0.93145515  0.30760922  1
  H  H12  1  0.73685254  0.13125347  0.58427843  1
  H  H13  1  0.26314746  0.86874653  0.41572157  1
  H  H14  1  0.68700359  0.15170010  0.06940388  1
  H  H15  1  0.31299641  0.84829990  0.93059612  1
  H  H16  1  0.71551234  0.08634447  0.95862242  1
  H  H17  1  0.28448766  0.91365553  0.04137758  1
  H  H18  1  0.84639668  0.34991501  0.67000256  1
  H  H19  1  0.15360332  0.65008499  0.32999744  1
  H  H20  1  0.94334094  0.30282036  0.80533434  1
  H  H21  1  0.05665906  0.69717964  0.19466566  1
  H  H22  1  0.75766713  0.33969606  0.09953281  1
  H  H23  1  0.24233287  0.66030394  0.90046719  1
  H  H24  1  0.80974094  0.39292044  0.98618203  1
  H  H25  1  0.19025906  0.60707956  0.01381797  1
  H  H26  1  0.63399854  0.44504404  0.70232250  1
  H  H27  1  0.36600146  0.55495596  0.29767750  1
  H  H28  1  0.47644672  0.41000356  0.62795350  1
  H  H29  1  0.52355328  0.58999644  0.37204650  1
  I  I30  1  0.91662409  0.85940149  0.03418914  1
  I  I31  1  0.08337591  0.14059851  0.96581086  1
  I  I32  1  0.93044389  0.85561960  0.73754893  1
  I  I33  1  0.06955611  0.14438040  0.26245107  1
  I  I34  1  0.93988046  0.85605974  0.41773216  1
  I  I35  1  0.06011954  0.14394026  0.58226784  1
  I  I36  1  0.69296858  0.97605841  0.31220243  1
  I  I37  1  0.30703142  0.02394159  0.68779757  1
  I  I38  1  0.44298460  0.07000981  0.20420219  1
  I  I39  1  0.55701540  0.92999019  0.79579781  1
  I  I40  1  0.81548031  0.56816818  0.21977793  1
  I  I41  1  0.18451969  0.43183182  0.78022207  1
  I  I42  1  0.81843904  0.57217087  0.51935615  1
  I  I43  1  0.18156096  0.42782913  0.48064385  1
  I  I44  1  0.82683803  0.57338349  0.86694866  1
  I  I45  1  0.17316197  0.42661651  0.13305134  1
  I  I46  1  0.52877095  0.64362964  0.75596221  1
  I  I47  1  0.47122905  0.35637036  0.24403779  1
  I  I48  1  0.25552887  0.70996583  0.65102065  1
  I  I49  1  0.74447113  0.29003417  0.34897935  1
  O  O50  1  0.43662566  0.22617466  0.55169847  1
  O  O51  1  0.56337434  0.77382534  0.44830153  1
  O  O52  1  0.42868132  0.24593704  0.87766845  1
  O  O53  1  0.57131868  0.75406296  0.12233155  1
  O  O54  1  0.69635155  0.12862249  0.66413438  1
  O  O55  1  0.30364845  0.87137751  0.33586562  1
  O  O56  1  0.69255241  0.14560852  0.96982030  1
  O  O57  1  0.30744759  0.85439148  0.03017970  1
  O  O58  1  0.84475543  0.31440299  0.75307157  1
  O  O59  1  0.15524457  0.68559701  0.24692843  1
  O  O60  1  0.75073555  0.34254597  0.99507888  1
  O  O61  1  0.24926445  0.65745403  0.00492112  1
  O  O62  1  0.57245420  0.39184625  0.67586780  1
  O  O63  1  0.42754580  0.60815375  0.32413220  1
