# generated using pymatgen
data_Rb3P3(HO3)4
_symmetry_space_group_name_H-M   'P 1'
_cell_length_a   9.70741444
_cell_length_b   9.75443918
_cell_length_c   8.82758233
_cell_angle_alpha   112.08941311
_cell_angle_beta   107.75087695
_cell_angle_gamma   60.02095929
_symmetry_Int_Tables_number   1
_chemical_formula_structural   Rb3P3(HO3)4
_chemical_formula_sum   'Rb6 P6 H8 O24'
_cell_volume   663.74266237
_cell_formula_units_Z   2
loop_
 _symmetry_equiv_pos_site_id
 _symmetry_equiv_pos_as_xyz
  1  'x, y, z'
loop_
 _atom_site_type_symbol
 _atom_site_label
 _atom_site_symmetry_multiplicity
 _atom_site_fract_x
 _atom_site_fract_y
 _atom_site_fract_z
 _atom_site_occupancy
  Rb  Rb0  1  0.06029128  0.21233332  0.13760092  1
  Rb  Rb1  1  0.33338175  0.48757541  0.59334065  1
  Rb  Rb2  1  0.32085667  0.98175210  0.75816848  1
  Rb  Rb3  1  0.67914346  0.01824785  0.24183129  1
  Rb  Rb4  1  0.66661790  0.51242467  0.40665940  1
  Rb  Rb5  1  0.93970775  0.78766662  0.86239880  1
  P  P6  1  0.60733077  0.22797384  0.95894758  1
  P  P7  1  0.30399691  0.39824141  0.08903790  1
  P  P8  1  0.22249094  0.75422610  0.25215159  1
  P  P9  1  0.77750920  0.24577392  0.74784866  1
  P  P10  1  0.69600308  0.60175846  0.91096195  1
  P  P11  1  0.39266907  0.77202623  0.04105219  1
  H  H12  1  0.03529426  0.07735328  0.37854789  1
  H  H13  1  0.06512747  0.34285978  0.59692772  1
  H  H14  1  0.12434927  0.39443638  0.78508317  1
  H  H15  1  0.08775947  0.79874229  0.49346339  1
  H  H16  1  0.91224054  0.20125769  0.50653667  1
  H  H17  1  0.87565063  0.60556377  0.21491659  1
  H  H18  1  0.93487266  0.65714052  0.40307263  1
  H  H19  1  0.96470576  0.92264672  0.62145219  1
  O  O20  1  0.00752031  0.18273154  0.46786549  1
  O  O21  1  0.19687293  0.32225906  0.96979287  1
  O  O22  1  0.09378892  0.42866765  0.68237582  1
  O  O23  1  0.43910933  0.04691036  0.46484825  1
  O  O24  1  0.43043940  0.37987008  0.98776143  1
  O  O25  1  0.59893309  0.06636241  0.90268606  1
  O  O26  1  0.26931668  0.74559899  0.89735767  1
  O  O27  1  0.19398291  0.59737256  0.12402584  1
  O  O28  1  0.07681546  0.90411376  0.21357330  1
  O  O29  1  0.39011427  0.35087117  0.24697549  1
  O  O30  1  0.26958514  0.74055788  0.42680823  1
  O  O31  1  0.61931758  0.26621104  0.79774555  1
  O  O32  1  0.38068243  0.73378896  0.20225454  1
  O  O33  1  0.73041483  0.25944209  0.57319166  1
  O  O34  1  0.60988583  0.64912871  0.75302471  1
  O  O35  1  0.92318459  0.09588627  0.78642678  1
  O  O36  1  0.80601700  0.40262738  0.87597401  1
  O  O37  1  0.73068331  0.25440104  0.10264239  1
  O  O38  1  0.40106703  0.93363757  0.09731332  1
  O  O39  1  0.56956064  0.62012998  0.01223869  1
  O  O40  1  0.56089057  0.95308994  0.53515168  1
  O  O41  1  0.90621107  0.57133197  0.31762419  1
  O  O42  1  0.80312718  0.67774084  0.03020712  1
  O  O43  1  0.99247968  0.81726838  0.53213426  1
