# generated using pymatgen
data_NbOF3
_symmetry_space_group_name_H-M   'P 1'
_cell_length_a   8.75317419
_cell_length_b   6.69776172
_cell_length_c   7.81210870
_cell_angle_alpha   108.58937945
_cell_angle_beta   98.79964113
_cell_angle_gamma   111.08720556
_symmetry_Int_Tables_number   1
_chemical_formula_structural   NbOF3
_chemical_formula_sum   'Nb4 O4 F12'
_cell_volume   386.03403028
_cell_formula_units_Z   4
loop_
 _symmetry_equiv_pos_site_id
 _symmetry_equiv_pos_as_xyz
  1  'x, y, z'
loop_
 _atom_site_type_symbol
 _atom_site_label
 _atom_site_symmetry_multiplicity
 _atom_site_fract_x
 _atom_site_fract_y
 _atom_site_fract_z
 _atom_site_occupancy
  Nb  Nb0  1  0.20943495  0.51420416  0.53991148  1
  Nb  Nb1  1  0.36929854  0.33882417  0.10490780  1
  Nb  Nb2  1  0.63070146  0.66117583  0.89509220  1
  Nb  Nb3  1  0.79056505  0.48579584  0.46008852  1
  O  O4  1  0.39106955  0.58438173  0.73408789  1
  O  O5  1  0.30029960  0.43154695  0.31375282  1
  O  O6  1  0.69970040  0.56845305  0.68624718  1
  O  O7  1  0.60893045  0.41561827  0.26591211  1
  F  F8  1  0.04098403  0.56128085  0.67704973  1
  F  F9  1  0.17729113  0.28278722  0.91506833  1
  F  F10  1  0.08992103  0.18445097  0.45701322  1
  F  F11  1  0.27167823  0.81301724  0.52926826  1
  F  F12  1  0.69310171  0.98241813  0.95298894  1
  F  F13  1  0.49441992  0.67236543  0.11190738  1
  F  F14  1  0.50558008  0.32763457  0.88809262  1
  F  F15  1  0.30689829  0.01758187  0.04701106  1
  F  F16  1  0.72832177  0.18698276  0.47073174  1
  F  F17  1  0.91007897  0.81554903  0.54298678  1
  F  F18  1  0.82270887  0.71721278  0.08493167  1
  F  F19  1  0.95901597  0.43871915  0.32295027  1
