# generated using pymatgen
data_Sr2Li2Nb3O10
_symmetry_space_group_name_H-M   'P 1'
_cell_length_a   13.60919944
_cell_length_b   13.60919944
_cell_length_c   13.60884590
_cell_angle_alpha   162.94106383
_cell_angle_beta   162.94106383
_cell_angle_gamma   24.22274077
_symmetry_Int_Tables_number   1
_chemical_formula_structural   Sr2Li2Nb3O10
_chemical_formula_sum   'Sr2 Li2 Nb3 O10'
_cell_volume   216.84955319
_cell_formula_units_Z   1
loop_
 _symmetry_equiv_pos_site_id
 _symmetry_equiv_pos_as_xyz
  1  'x, y, z'
loop_
 _atom_site_type_symbol
 _atom_site_label
 _atom_site_symmetry_multiplicity
 _atom_site_fract_x
 _atom_site_fract_y
 _atom_site_fract_z
 _atom_site_occupancy
  Sr  Sr0  1  0.41848987  0.41675094  0.00000000  1
  Sr  Sr1  1  0.58324906  0.58151013  0.00000000  1
  Li  Li2  1  0.75001561  0.24998439  0.50000000  1
  Li  Li3  1  0.25001561  0.74998439  0.50000000  1
  Nb  Nb4  1  0.01400539  0.98599461  0.00000000  1
  Nb  Nb5  1  0.15719055  0.15787848  0.00000000  1
  Nb  Nb6  1  0.84212152  0.84280945  0.00000000  1
  O  O7  1  0.08195493  0.07040724  0.00000000  1
  O  O8  1  0.65013208  0.14890112  0.50068750  1
  O  O9  1  0.22938294  0.22840999  0.00000000  1
  O  O10  1  0.85109888  0.34986792  0.49931250  1
  O  O11  1  0.77159001  0.77061706  0.00000000  1
  O  O12  1  0.92959276  0.91804507  0.00000000  1
  O  O13  1  0.51375281  0.97872397  0.49247678  1
  O  O14  1  0.14944458  0.64821362  0.49931250  1
  O  O15  1  0.02127603  0.48624719  0.50752322  1
  O  O16  1  0.35178638  0.85055542  0.50068750  1
