# generated using pymatgen
data_YH5S3O13
_symmetry_space_group_name_H-M   'P 1'
_cell_length_a   6.86874799
_cell_length_b   8.11926023
_cell_length_c   9.74256305
_cell_angle_alpha   79.84785220
_cell_angle_beta   77.58480048
_cell_angle_gamma   77.57969279
_symmetry_Int_Tables_number   1
_chemical_formula_structural   YH5S3O13
_chemical_formula_sum   'Y2 H10 S6 O26'
_cell_volume   513.37204190
_cell_formula_units_Z   2
loop_
 _symmetry_equiv_pos_site_id
 _symmetry_equiv_pos_as_xyz
  1  'x, y, z'
loop_
 _atom_site_type_symbol
 _atom_site_label
 _atom_site_symmetry_multiplicity
 _atom_site_fract_x
 _atom_site_fract_y
 _atom_site_fract_z
 _atom_site_occupancy
  Y  Y0  1  0.13405275  0.67656293  0.69344472  1
  Y  Y1  1  0.86594725  0.32343707  0.30655528  1
  H  H2  1  0.07155778  0.77580245  0.18113022  1
  H  H3  1  0.42241465  0.13450208  0.61775626  1
  H  H4  1  0.59294822  0.21069556  0.13619031  1
  H  H5  1  0.19932968  0.92047417  0.86440893  1
  H  H6  1  0.50839900  0.86288235  0.10431861  1
  H  H7  1  0.49160100  0.13711765  0.89568139  1
  H  H8  1  0.80067032  0.07952583  0.13559107  1
  H  H9  1  0.40705178  0.78930444  0.86381069  1
  H  H10  1  0.57758535  0.86549792  0.38224374  1
  H  H11  1  0.92844222  0.22419755  0.81886978  1
  S  S12  1  0.19946108  0.88942106  0.31879324  1
  S  S13  1  0.30646943  0.33505822  0.45936785  1
  S  S14  1  0.20515651  0.29165104  0.95488081  1
  S  S15  1  0.79484349  0.70834896  0.04511919  1
  S  S16  1  0.69353057  0.66494178  0.54063215  1
  S  S17  1  0.80053892  0.11057894  0.68120676  1
  O  O18  1  0.05397346  0.03823223  0.27356560  1
  O  O19  1  0.10447478  0.35175217  0.08858274  1
  O  O20  1  0.18498877  0.32302618  0.35688272  1
  O  O21  1  0.10557046  0.17096072  0.91035370  1
  O  O22  1  0.17612492  0.73946784  0.24577050  1
  O  O23  1  0.20249229  0.45871193  0.55582311  1
  O  O24  1  0.16241837  0.83500682  0.47133161  1
  O  O25  1  0.32613491  0.15287874  0.54917050  1
  O  O26  1  0.25290436  0.42931418  0.84107741  1
  O  O27  1  0.50918431  0.36513129  0.39000326  1
  O  O28  1  0.41329390  0.91148193  0.26782832  1
  O  O29  1  0.27513538  0.81224072  0.83441279  1
  O  O30  1  0.41691458  0.18521068  0.98602759  1
  O  O31  1  0.58308542  0.81478932  0.01397241  1
  O  O32  1  0.72486462  0.18775928  0.16558721  1
  O  O33  1  0.58670610  0.08851807  0.73217168  1
  O  O34  1  0.49081569  0.63486871  0.60999674  1
  O  O35  1  0.74709564  0.57068582  0.15892259  1
  O  O36  1  0.67386509  0.84712126  0.45082950  1
  O  O37  1  0.83758163  0.16499318  0.52866839  1
  O  O38  1  0.79750771  0.54128807  0.44417689  1
  O  O39  1  0.82387508  0.26053216  0.75422950  1
  O  O40  1  0.89442954  0.82903928  0.08964630  1
  O  O41  1  0.81501123  0.67697382  0.64311728  1
  O  O42  1  0.89552522  0.64824783  0.91141726  1
  O  O43  1  0.94602654  0.96176777  0.72643440  1
