# generated using pymatgen
data_GdOF
_symmetry_space_group_name_H-M   'P 1'
_cell_length_a   3.92566191
_cell_length_b   3.92560663
_cell_length_c   5.60065518
_cell_angle_alpha   90.00000000
_cell_angle_beta   90.00000000
_cell_angle_gamma   90.00000000
_symmetry_Int_Tables_number   1
_chemical_formula_structural   GdOF
_chemical_formula_sum   'Gd2 O2 F2'
_cell_volume   86.30948148
_cell_formula_units_Z   2
loop_
 _symmetry_equiv_pos_site_id
 _symmetry_equiv_pos_as_xyz
  1  'x, y, z'
loop_
 _atom_site_type_symbol
 _atom_site_label
 _atom_site_symmetry_multiplicity
 _atom_site_fract_x
 _atom_site_fract_y
 _atom_site_fract_z
 _atom_site_occupancy
  Gd  Gd0  1  0.00000000  0.50000000  0.71172506  1
  Gd  Gd1  1  0.50000000  0.00000000  0.28827494  1
  O  O2  1  0.00000000  0.00000000  0.50000626  1
  O  O3  1  0.50000000  0.50000000  0.49999374  1
  F  F4  1  0.00000000  0.00000000  0.00001839  1
  F  F5  1  0.50000000  0.50000000  0.99998161  1
