# generated using pymatgen
data_Ti8O13
_symmetry_space_group_name_H-M   'P 1'
_cell_length_a   6.50208246
_cell_length_b   6.50208157
_cell_length_c   6.50208215
_cell_angle_alpha   73.64338564
_cell_angle_beta   73.64338936
_cell_angle_gamma   73.64338449
_symmetry_Int_Tables_number   1
_chemical_formula_structural   Ti8O13
_chemical_formula_sum   'Ti8 O13'
_cell_volume   246.90282098
_cell_formula_units_Z   1
loop_
 _symmetry_equiv_pos_site_id
 _symmetry_equiv_pos_as_xyz
  1  'x, y, z'
loop_
 _atom_site_type_symbol
 _atom_site_label
 _atom_site_symmetry_multiplicity
 _atom_site_fract_x
 _atom_site_fract_y
 _atom_site_fract_z
 _atom_site_occupancy
  Ti  Ti0  1  0.05669389  0.31600374  0.87652620  1
  Ti  Ti1  1  0.27670015  0.27670015  0.27670015  1
  Ti  Ti2  1  0.31600374  0.87652620  0.05669389  1
  Ti  Ti3  1  0.12347380  0.94330611  0.68399626  1
  Ti  Ti4  1  0.87652620  0.05669389  0.31600374  1
  Ti  Ti5  1  0.68399626  0.12347380  0.94330611  1
  Ti  Ti6  1  0.72329985  0.72329985  0.72329985  1
  Ti  Ti7  1  0.94330611  0.68399626  0.12347380  1
  O  O8  1  0.00000000  0.00000000  0.00000000  1
  O  O9  1  0.16999275  0.25836693  0.57998161  1
  O  O10  1  0.04048161  0.64361684  0.79632028  1
  O  O11  1  0.25836693  0.57998161  0.16999275  1
  O  O12  1  0.20367972  0.95951839  0.35638316  1
  O  O13  1  0.35638316  0.20367972  0.95951839  1
  O  O14  1  0.57998161  0.16999275  0.25836693  1
  O  O15  1  0.42001839  0.83000725  0.74163407  1
  O  O16  1  0.64361684  0.79632028  0.04048161  1
  O  O17  1  0.79632028  0.04048161  0.64361684  1
  O  O18  1  0.74163407  0.42001839  0.83000725  1
  O  O19  1  0.95951839  0.35638316  0.20367972  1
  O  O20  1  0.83000725  0.74163407  0.42001839  1
