# generated using pymatgen
data_Gd3InO6
_symmetry_space_group_name_H-M   'P 1'
_cell_length_a   6.76505692
_cell_length_b   6.76505698
_cell_length_c   6.76505706
_cell_angle_alpha   92.25805982
_cell_angle_beta   92.25806009
_cell_angle_gamma   92.25806205
_symmetry_Int_Tables_number   1
_chemical_formula_structural   Gd3InO6
_chemical_formula_sum   'Gd6 In2 O12'
_cell_volume   308.86879510
_cell_formula_units_Z   2
loop_
 _symmetry_equiv_pos_site_id
 _symmetry_equiv_pos_as_xyz
  1  'x, y, z'
loop_
 _atom_site_type_symbol
 _atom_site_label
 _atom_site_symmetry_multiplicity
 _atom_site_fract_x
 _atom_site_fract_y
 _atom_site_fract_z
 _atom_site_occupancy
  Gd  Gd0  1  0.06818912  0.56022339  0.25338243  1
  Gd  Gd1  1  0.25338243  0.06818912  0.56022339  1
  Gd  Gd2  1  0.43977661  0.74661757  0.93181088  1
  Gd  Gd3  1  0.56022339  0.25338243  0.06818912  1
  Gd  Gd4  1  0.74661757  0.93181088  0.43977661  1
  Gd  Gd5  1  0.93181088  0.43977661  0.74661757  1
  In  In6  1  0.00000000  0.00000000  0.00000000  1
  In  In7  1  0.50000000  0.50000000  0.50000000  1
  O  O8  1  0.08863532  0.68998228  0.93164203  1
  O  O9  1  0.06835797  0.91136468  0.31001772  1
  O  O10  1  0.18931789  0.40368244  0.53422595  1
  O  O11  1  0.31001772  0.06835797  0.91136468  1
  O  O12  1  0.40368244  0.53422595  0.18931789  1
  O  O13  1  0.46577405  0.81068211  0.59631756  1
  O  O14  1  0.53422595  0.18931789  0.40368244  1
  O  O15  1  0.59631756  0.46577405  0.81068211  1
  O  O16  1  0.68998228  0.93164203  0.08863532  1
  O  O17  1  0.81068211  0.59631756  0.46577405  1
  O  O18  1  0.93164203  0.08863532  0.68998228  1
  O  O19  1  0.91136468  0.31001772  0.06835797  1
