# generated using pymatgen
data_KAl11O17
_symmetry_space_group_name_H-M   'P 1'
_cell_length_a   5.67505671
_cell_length_b   5.64965132
_cell_length_c   22.95569620
_cell_angle_alpha   90.00063777
_cell_angle_beta   89.99761201
_cell_angle_gamma   120.12013604
_symmetry_Int_Tables_number   1
_chemical_formula_structural   KAl11O17
_chemical_formula_sum   'K2 Al22 O34'
_cell_volume   636.62828897
_cell_formula_units_Z   2
loop_
 _symmetry_equiv_pos_site_id
 _symmetry_equiv_pos_as_xyz
  1  'x, y, z'
loop_
 _atom_site_type_symbol
 _atom_site_label
 _atom_site_symmetry_multiplicity
 _atom_site_fract_x
 _atom_site_fract_y
 _atom_site_fract_z
 _atom_site_occupancy
  K  K0  1  0.10496119  0.20703310  0.75008436  1
  K  K1  1  0.89462943  0.79231541  0.24999683  1
  Al  Al2  1  0.17018428  0.83417404  0.60640218  1
  Al  Al3  1  0.17042698  0.83414466  0.89361310  1
  Al  Al4  1  0.33289152  0.66616403  0.02537481  1
  Al  Al5  1  0.32985766  0.66181364  0.17479850  1
  Al  Al6  1  0.00003621  0.99996652  0.99998295  1
  Al  Al7  1  0.00002146  0.00006679  0.49996974  1
  Al  Al8  1  0.32990523  0.66185241  0.32531808  1
  Al  Al9  1  0.33288683  0.66621743  0.47469651  1
  Al  Al10  1  0.16996001  0.33862024  0.60435507  1
  Al  Al11  1  0.17019548  0.33869265  0.89569432  1
  Al  Al12  1  0.66528553  0.83400682  0.60639974  1
  Al  Al13  1  0.66545097  0.83405516  0.89361313  1
  Al  Al14  1  0.33465348  0.16598999  0.39356716  1
  Al  Al15  1  0.33457545  0.16596031  0.10639633  1
  Al  Al16  1  0.82992703  0.66136382  0.39564739  1
  Al  Al17  1  0.67000958  0.33813546  0.67470652  1
  Al  Al18  1  0.66711258  0.33387517  0.52529952  1
  Al  Al19  1  0.67021233  0.33827583  0.82523725  1
  Al  Al20  1  0.66721141  0.33381980  0.97468664  1
  Al  Al21  1  0.82994152  0.66137597  0.10432890  1
  Al  Al22  1  0.82970285  0.16581401  0.10640202  1
  Al  Al23  1  0.82975731  0.16588500  0.39357301  1
  O  O24  1  0.15444712  0.84119454  0.04912038  1
  O  O25  1  0.15459511  0.84130785  0.45085334  1
  O  O26  1  0.00660987  0.50224084  0.85564042  1
  O  O27  1  0.00638354  0.50223470  0.64434414  1
  O  O28  1  0.33393185  0.67064252  0.25000836  1
  O  O29  1  0.15604798  0.31282108  0.45009105  1
  O  O30  1  0.00216392  0.00311306  0.64081845  1
  O  O31  1  0.99773059  0.99686281  0.35918477  1
  O  O32  1  0.99768565  0.99684361  0.14079093  1
  O  O33  1  0.00241302  0.00314662  0.85926664  1
  O  O34  1  0.33442386  0.66807631  0.55460553  1
  O  O35  1  0.33460046  0.66814047  0.94544880  1
  O  O36  1  0.15596761  0.31265937  0.04988579  1
  O  O37  1  0.50179948  0.00226921  0.64315897  1
  O  O38  1  0.50206877  0.00241191  0.85683908  1
  O  O39  1  0.31378089  0.15865483  0.54907699  1
  O  O40  1  0.31394606  0.15870764  0.95093670  1
  O  O41  1  0.49725282  0.50200266  0.64433294  1
  O  O42  1  0.49742946  0.50208403  0.85566286  1
  O  O43  1  0.50258474  0.49802316  0.14430872  1
  O  O44  1  0.50270138  0.49795905  0.35563209  1
  O  O45  1  0.68624280  0.84135900  0.04906760  1
  O  O46  1  0.68616758  0.84139793  0.45089986  1
  O  O47  1  0.49815433  0.99775824  0.35681884  1
  O  O48  1  0.66557891  0.33203179  0.44539663  1
  O  O49  1  0.84397607  0.68732929  0.54988091  1
  O  O50  1  0.84407765  0.68721311  0.95011702  1
  O  O51  1  0.49798526  0.99756519  0.14313231  1
  O  O52  1  0.66551566  0.33187142  0.05460087  1
  O  O53  1  0.66604683  0.32943648  0.74996835  1
  O  O54  1  0.99354566  0.49778014  0.14434021  1
  O  O55  1  0.99346981  0.49776441  0.35562321  1
  O  O56  1  0.84544764  0.15877535  0.54911910  1
  O  O57  1  0.84558331  0.15880111  0.95088111  1
