# generated using pymatgen
data_LuHO2
_symmetry_space_group_name_H-M   'P 1'
_cell_length_a   5.36498792
_cell_length_b   4.76234115
_cell_length_c   3.39047996
_cell_angle_alpha   90.00000000
_cell_angle_beta   90.00000000
_cell_angle_gamma   90.00000000
_symmetry_Int_Tables_number   1
_chemical_formula_structural   LuHO2
_chemical_formula_sum   'Lu2 H2 O4'
_cell_volume   86.62643322
_cell_formula_units_Z   2
loop_
 _symmetry_equiv_pos_site_id
 _symmetry_equiv_pos_as_xyz
  1  'x, y, z'
loop_
 _atom_site_type_symbol
 _atom_site_label
 _atom_site_symmetry_multiplicity
 _atom_site_fract_x
 _atom_site_fract_y
 _atom_site_fract_z
 _atom_site_occupancy
  Lu  Lu0  1  0.01720344  0.27653204  0.00000000  1
  Lu  Lu1  1  0.51720344  0.72346796  0.50000000  1
  H  H2  1  0.03680906  0.80541884  0.50000000  1
  H  H3  1  0.53680906  0.19458116  0.00000000  1
  O  O4  1  0.14729355  0.98176684  0.50000000  1
  O  O5  1  0.37591794  0.48397662  0.00000000  1
  O  O6  1  0.64729355  0.01823316  0.00000000  1
  O  O7  1  0.87591794  0.51602338  0.50000000  1
