# generated using pymatgen
data_Rb2Be2O3
_symmetry_space_group_name_H-M   'P 1'
_cell_length_a   4.97801240
_cell_length_b   8.81559538
_cell_length_c   6.58790908
_cell_angle_alpha   90.00000000
_cell_angle_beta   114.71422303
_cell_angle_gamma   90.00000000
_symmetry_Int_Tables_number   1
_chemical_formula_structural   Rb2Be2O3
_chemical_formula_sum   'Rb4 Be4 O6'
_cell_volume   262.62402765
_cell_formula_units_Z   2
loop_
 _symmetry_equiv_pos_site_id
 _symmetry_equiv_pos_as_xyz
  1  'x, y, z'
loop_
 _atom_site_type_symbol
 _atom_site_label
 _atom_site_symmetry_multiplicity
 _atom_site_fract_x
 _atom_site_fract_y
 _atom_site_fract_z
 _atom_site_occupancy
  Rb  Rb0  1  0.22005341  0.65196726  0.92760087  1
  Rb  Rb1  1  0.22005341  0.84803274  0.42760087  1
  Rb  Rb2  1  0.77994659  0.15196726  0.57239913  1
  Rb  Rb3  1  0.77994659  0.34803274  0.07239913  1
  Be  Be4  1  0.30189377  0.49313197  0.50279746  1
  Be  Be5  1  0.69810623  0.99313197  0.99720254  1
  Be  Be6  1  0.30189377  0.00686803  0.00279746  1
  Be  Be7  1  0.69810623  0.50686803  0.49720254  1
  O  O8  1  0.00000000  0.50000000  0.50000000  1
  O  O9  1  0.00000000  0.00000000  0.00000000  1
  O  O10  1  0.39581009  0.05069729  0.80804916  1
  O  O11  1  0.60418991  0.55069729  0.69195084  1
  O  O12  1  0.39581009  0.44930271  0.30804916  1
  O  O13  1  0.60418991  0.94930271  0.19195084  1
