# generated using pymatgen
data_Li9Mn2Co5O16
_symmetry_space_group_name_H-M   'P 1'
_cell_length_a   3.01843509
_cell_length_b   8.05459106
_cell_length_c   12.12829527
_cell_angle_alpha   90.86835674
_cell_angle_beta   99.26755778
_cell_angle_gamma   89.09289689
_symmetry_Int_Tables_number   1
_chemical_formula_structural   Li9Mn2Co5O16
_chemical_formula_sum   'Li9 Mn2 Co5 O16'
_cell_volume   290.95718799
_cell_formula_units_Z   1
loop_
 _symmetry_equiv_pos_site_id
 _symmetry_equiv_pos_as_xyz
  1  'x, y, z'
loop_
 _atom_site_type_symbol
 _atom_site_label
 _atom_site_symmetry_multiplicity
 _atom_site_fract_x
 _atom_site_fract_y
 _atom_site_fract_z
 _atom_site_occupancy
  Li  Li0  1  0.74672374  0.00402345  0.74588527  1
  Li  Li1  1  0.88006881  0.24836982  0.37612816  1
  Li  Li2  1  0.99800327  0.50168909  0.99863421  1
  Li  Li3  1  0.12448138  0.74966798  0.62433003  1
  Li  Li4  1  0.25322894  0.99773940  0.25215988  1
  Li  Li5  1  0.36922371  0.25365763  0.87334284  1
  Li  Li6  1  0.50211955  0.49649550  0.50322025  1
  Li  Li7  1  0.62618420  0.74808623  0.12649573  1
  Li  Li8  1  0.12503973  0.24991459  0.62471908  1
  Mn  Mn9  1  0.99819150  0.99728892  0.99752878  1
  Mn  Mn10  1  0.62644824  0.25264527  0.12702214  1
  Co  Co11  1  0.24959434  0.50275184  0.25198407  1
  Co  Co12  1  0.37192103  0.74603000  0.87259024  1
  Co  Co13  1  0.51037073  0.00845874  0.50584485  1
  Co  Co14  1  0.74112254  0.49095211  0.74421144  1
  Co  Co15  1  0.87699169  0.75248484  0.37639495  1
  O  O16  1  0.35362645  0.98642896  0.87522788  1
  O  O17  1  0.49418141  0.22459676  0.49678251  1
  O  O18  1  0.60710517  0.49494809  0.13260300  1
  O  O19  1  0.73556256  0.72841463  0.75721915  1
  O  O20  1  0.85623155  0.98684205  0.38264679  1
  O  O21  1  0.97672035  0.24146650  0.00371830  1
  O  O22  1  0.11416234  0.50183729  0.63440138  1
  O  O23  1  0.23113747  0.73852735  0.25798381  1
  O  O24  1  0.13711604  0.99771598  0.61521375  1
  O  O25  1  0.27021855  0.26338989  0.24800897  1
  O  O26  1  0.38946217  0.51170024  0.86617771  1
  O  O27  1  0.51672758  0.77103672  0.49273030  1
  O  O28  1  0.64835232  0.00788512  0.12162536  1
  O  O29  1  0.75728085  0.27495321  0.75275151  1
  O  O30  1  0.89492933  0.51447980  0.37040691  1
  O  O31  1  0.01747946  0.75552198  0.99201476  1
