# generated using pymatgen
data_Li8Ti15O32
_symmetry_space_group_name_H-M   'P 1'
_cell_length_a   5.97843094
_cell_length_b   5.97843094
_cell_length_c   19.81960281
_cell_angle_alpha   98.67451693
_cell_angle_beta   90.00000000
_cell_angle_gamma   120.00000000
_symmetry_Int_Tables_number   1
_chemical_formula_structural   Li8Ti15O32
_chemical_formula_sum   'Li8 Ti15 O32'
_cell_volume   604.10458912
_cell_formula_units_Z   1
loop_
 _symmetry_equiv_pos_site_id
 _symmetry_equiv_pos_as_xyz
  1  'x, y, z'
loop_
 _atom_site_type_symbol
 _atom_site_label
 _atom_site_symmetry_multiplicity
 _atom_site_fract_x
 _atom_site_fract_y
 _atom_site_fract_z
 _atom_site_occupancy
  Li  Li0  1  0.43785687  0.87571374  0.31357162  1
  Li  Li1  1  0.68719677  0.37439453  0.06159130  1
  Li  Li2  1  0.74998722  0.49997444  0.24996067  1
  Li  Li3  1  0.18803824  0.37607747  0.56411571  1
  Li  Li4  1  0.84380713  0.68761425  0.53142138  1
  Li  Li5  1  0.24952331  0.49904762  0.74857094  1
  Li  Li6  1  0.49952720  0.99905539  0.49858259  1
  Li  Li7  1  0.93797698  0.87595495  0.81393193  1
  Ti  Ti8  1  0.21787501  0.93782458  0.15569959  1
  Ti  Ti9  1  0.34309849  0.68619698  0.02929546  1
  Ti  Ti10  1  0.71995058  0.93782458  0.15569959  1
  Ti  Ti11  1  0.21787501  0.43574901  0.15569959  1
  Ti  Ti12  1  0.09439006  0.18878012  0.28317017  1
  Ti  Ti13  1  0.96642897  0.93285794  0.40956896  1
  Ti  Ti14  1  0.47671002  0.44313899  0.40956896  1
  Ti  Ti15  1  0.21100148  0.93205909  0.65311669  1
  Ti  Ti16  1  0.72105761  0.93205909  0.65311669  1
  Ti  Ti17  1  0.96642897  0.44313899  0.40956896  1
  Ti  Ti18  1  0.72105761  0.44211522  0.65311669  1
  Ti  Ti19  1  0.46790910  0.93581820  0.90697134  1
  Ti  Ti20  1  0.46790910  0.43906224  0.90697134  1
  Ti  Ti21  1  0.59334727  0.18669455  0.78004182  1
  Ti  Ti22  1  0.97115314  0.43906224  0.90697134  1
  O  O23  1  0.06616769  0.58175295  0.09733720  1
  O  O24  1  0.51558526  0.58175295  0.09733720  1
  O  O25  1  0.40315465  0.80630931  0.20946396  1
  O  O26  1  0.03541871  0.07083641  0.10625512  1
  O  O27  1  0.92210506  0.84421012  0.21628967  1
  O  O28  1  0.13009522  0.79499148  0.45988775  1
  O  O29  1  0.37207955  0.29418461  0.21628967  1
  O  O30  1  0.26338552  0.52677004  0.34662509  1
  O  O31  1  0.51558526  0.03117052  0.09733720  1
  O  O32  1  0.02258312  0.58013949  0.60272362  1
  O  O33  1  0.15343517  0.30687134  0.46030651  1
  O  O34  1  0.26338552  0.08324057  0.34662509  1
  O  O35  1  0.78432521  0.56865043  0.35297464  1
  O  O36  1  0.92210506  0.29418461  0.21628967  1
  O  O37  1  0.66489627  0.79499148  0.45988775  1
  O  O38  1  0.42420842  0.84841585  0.71582775  1
  O  O39  1  0.66489627  0.32979253  0.45988775  1
  O  O40  1  0.02258312  0.04516725  0.60272362  1
  O  O41  1  0.81985505  0.08324057  0.34662509  1
  O  O42  1  0.55755637  0.58013949  0.60272362  1
  O  O43  1  0.90322155  0.80644309  0.70966364  1
  O  O44  1  0.42420842  0.29161932  0.71582775  1
  O  O45  1  0.53407165  0.06814329  0.60221494  1
  O  O46  1  0.28398937  0.56797874  0.85196711  1
  O  O47  1  0.17503419  0.78924255  0.96427674  1
  O  O48  1  0.61420836  0.78924255  0.96427674  1
  O  O49  1  0.86741190  0.29161932  0.71582775  1
  O  O50  1  0.17503419  0.35006738  0.96427674  1
  O  O51  1  0.31722961  0.08178397  0.84633834  1
  O  O52  1  0.76455436  0.52910873  0.84633834  1
  O  O53  1  0.76455436  0.08178397  0.84633834  1
  O  O54  1  0.65297043  0.30594187  0.95891230  1
