# generated using pymatgen
data_LiTi3Nb(PO4)6
_symmetry_space_group_name_H-M   'P 1'
_cell_length_a   8.87309667
_cell_length_b   8.87309751
_cell_length_c   8.87309654
_cell_angle_alpha   58.48188174
_cell_angle_beta   58.48187747
_cell_angle_gamma   58.48188368
_symmetry_Int_Tables_number   1
_chemical_formula_structural   LiTi3Nb(PO4)6
_chemical_formula_sum   'Li1 Ti3 Nb1 P6 O24'
_cell_volume   476.82462151
_cell_formula_units_Z   1
loop_
 _symmetry_equiv_pos_site_id
 _symmetry_equiv_pos_as_xyz
  1  'x, y, z'
loop_
 _atom_site_type_symbol
 _atom_site_label
 _atom_site_symmetry_multiplicity
 _atom_site_fract_x
 _atom_site_fract_y
 _atom_site_fract_z
 _atom_site_occupancy
  Li  Li0  1  0.00536686  0.00536686  0.00536686  1
  Ti  Ti1  1  0.14522301  0.14522301  0.14522301  1
  Ti  Ti2  1  0.36030411  0.36030411  0.36030411  1
  Ti  Ti3  1  0.64032968  0.64032968  0.64032968  1
  Nb  Nb4  1  0.85619028  0.85619028  0.85619028  1
  P  P5  1  0.03457534  0.75061735  0.45668407  1
  P  P6  1  0.45668407  0.03457534  0.75061735  1
  P  P7  1  0.75061735  0.45668407  0.03457534  1
  P  P8  1  0.25494513  0.53240481  0.96740845  1
  P  P9  1  0.53240481  0.96740845  0.25494513  1
  P  P10  1  0.96740845  0.25494513  0.53240481  1
  O  O11  1  0.13866798  0.28111246  0.50327252  1
  O  O12  1  0.28111246  0.50327252  0.13866798  1
  O  O13  1  0.06064282  0.92351380  0.27609800  1
  O  O14  1  0.50327252  0.13866798  0.28111246  1
  O  O15  1  0.21402768  0.57805225  0.43595163  1
  O  O16  1  0.00335430  0.78625001  0.62815320  1
  O  O17  1  0.27609800  0.06064282  0.92351380  1
  O  O18  1  0.43595163  0.21402768  0.57805225  1
  O  O19  1  0.57805225  0.43595163  0.21402768  1
  O  O20  1  0.21451793  0.36696285  0.99794682  1
  O  O21  1  0.08078612  0.71779676  0.93976877  1
  O  O22  1  0.36696285  0.99794682  0.21451793  1
  O  O23  1  0.62815320  0.00335430  0.78625001  1
  O  O24  1  0.92351380  0.27609800  0.06064282  1
  O  O25  1  0.78625001  0.62815320  0.00335430  1
  O  O26  1  0.42382774  0.56081355  0.78706399  1
  O  O27  1  0.56081355  0.78706399  0.42382774  1
  O  O28  1  0.71779676  0.93976877  0.08078612  1
  O  O29  1  0.99794682  0.21451793  0.36696285  1
  O  O30  1  0.78706399  0.42382774  0.56081355  1
  O  O31  1  0.49513336  0.86208210  0.72015430  1
  O  O32  1  0.93976877  0.08078612  0.71779676  1
  O  O33  1  0.72015430  0.49513336  0.86208210  1
  O  O34  1  0.86208210  0.72015430  0.49513336  1
