# generated using pymatgen
data_Li4MnSi2O7
_symmetry_space_group_name_H-M   'P 1'
_cell_length_a   5.49407332
_cell_length_b   7.28370245
_cell_length_c   8.17748450
_cell_angle_alpha   85.08551508
_cell_angle_beta   90.00000000
_cell_angle_gamma   67.84284111
_symmetry_Int_Tables_number   1
_chemical_formula_structural   Li4MnSi2O7
_chemical_formula_sum   'Li8 Mn2 Si4 O14'
_cell_volume   301.77488674
_cell_formula_units_Z   2
loop_
 _symmetry_equiv_pos_site_id
 _symmetry_equiv_pos_as_xyz
  1  'x, y, z'
loop_
 _atom_site_type_symbol
 _atom_site_label
 _atom_site_symmetry_multiplicity
 _atom_site_fract_x
 _atom_site_fract_y
 _atom_site_fract_z
 _atom_site_occupancy
  Li  Li0  1  0.73675021  0.84415926  0.87537466  1
  Li  Li1  1  0.41909053  0.84415926  0.37537466  1
  Li  Li2  1  0.88361289  0.58731279  0.59488057  1
  Li  Li3  1  0.52907432  0.58731279  0.09488057  1
  Li  Li4  1  0.12968642  0.44615350  0.94758235  1
  Li  Li5  1  0.42416008  0.44615350  0.44758235  1
  Li  Li6  1  0.19423386  0.99277215  0.01999717  1
  Li  Li7  1  0.81299400  0.99277215  0.51999717  1
  Mn  Mn8  1  0.68950417  0.29755519  0.79872495  1
  Mn  Mn9  1  0.01294063  0.29755519  0.29872495  1
  Si  Si10  1  0.30490807  0.73027035  0.73789944  1
  Si  Si11  1  0.96482158  0.73027035  0.23789944  1
  Si  Si12  1  0.26030567  0.14726642  0.67041941  1
  Si  Si13  1  0.59242691  0.14726642  0.17041941  1
  O  O14  1  0.21126155  0.94667796  0.60505019  1
  O  O15  1  0.84206049  0.94667796  0.10505019  1
  O  O16  1  0.42664611  0.77766565  0.90257962  1
  O  O17  1  0.79568723  0.77766565  0.40257962  1
  O  O18  1  0.04919831  0.67342069  0.77171699  1
  O  O19  1  0.27738101  0.67342069  0.27171699  1
  O  O20  1  0.53272170  0.55794277  0.64155028  1
  O  O21  1  0.90933552  0.55794277  0.14155028  1
  O  O22  1  0.14762685  0.32990032  0.52401219  1
  O  O23  1  0.52247283  0.32990032  0.02401219  1
  O  O24  1  0.08962931  0.21431044  0.83585850  1
  O  O25  1  0.69606026  0.21431044  0.33585850  1
  O  O26  1  0.57642277  0.08557150  0.70403369  1
  O  O27  1  0.33800573  0.08557150  0.20403369  1
