# generated using pymatgen
data_MgTi23O40
_symmetry_space_group_name_H-M   'P 1'
_cell_length_a   7.62038496
_cell_length_b   10.60342511
_cell_length_c   11.34400743
_cell_angle_alpha   110.01370329
_cell_angle_beta   80.34095291
_cell_angle_gamma   68.98107774
_symmetry_Int_Tables_number   1
_chemical_formula_structural   MgTi23O40
_chemical_formula_sum   'Mg1 Ti23 O40'
_cell_volume   758.56936370
_cell_formula_units_Z   1
loop_
 _symmetry_equiv_pos_site_id
 _symmetry_equiv_pos_as_xyz
  1  'x, y, z'
loop_
 _atom_site_type_symbol
 _atom_site_label
 _atom_site_symmetry_multiplicity
 _atom_site_fract_x
 _atom_site_fract_y
 _atom_site_fract_z
 _atom_site_occupancy
  Mg  Mg0  1  0.77716281  0.82182325  0.25023844  1
  Ti  Ti1  1  0.03581618  0.89511195  0.05809891  1
  Ti  Ti2  1  0.54045920  0.89447030  0.05729166  1
  Ti  Ti3  1  0.27543772  0.82326743  0.24984589  1
  Ti  Ti4  1  0.15406030  0.91270199  0.55786343  1
  Ti  Ti5  1  0.65221084  0.91601408  0.56025960  1
  Ti  Ti6  1  0.34601371  0.58744810  0.44249090  1
  Ti  Ti7  1  0.84785948  0.58566068  0.43806595  1
  Ti  Ti8  1  0.03687927  0.39711827  0.05674711  1
  Ti  Ti9  1  0.53834376  0.39536052  0.05608082  1
  Ti  Ti10  1  0.72051628  0.68060941  0.75179872  1
  Ti  Ti11  1  0.22230769  0.68041639  0.75136341  1
  Ti  Ti12  1  0.77649047  0.32020221  0.24871191  1
  Ti  Ti13  1  0.27946743  0.31973590  0.24831667  1
  Ti  Ti14  1  0.96144931  0.60545158  0.94407643  1
  Ti  Ti15  1  0.46135717  0.60494437  0.94424500  1
  Ti  Ti16  1  0.15329445  0.41319586  0.56199402  1
  Ti  Ti17  1  0.65424848  0.41161718  0.55881877  1
  Ti  Ti18  1  0.84630417  0.08555291  0.43878885  1
  Ti  Ti19  1  0.35091562  0.08269387  0.43706067  1
  Ti  Ti20  1  0.22116720  0.17980105  0.75182982  1
  Ti  Ti21  1  0.72346589  0.17961357  0.75013956  1
  Ti  Ti22  1  0.96192196  0.10410790  0.94400044  1
  Ti  Ti23  1  0.46168536  0.10432526  0.94456648  1
  O  O24  1  0.31037964  0.84643981  0.06589779  1
  O  O25  1  0.81003968  0.84629241  0.06669474  1
  O  O26  1  0.47952697  0.89779454  0.24978525  1
  O  O27  1  0.99871567  0.89684129  0.24942669  1
  O  O28  1  0.87313593  0.97002426  0.57211772  1
  O  O29  1  0.36970336  0.97270049  0.57148468  1
  O  O30  1  0.78295152  0.73993946  0.38844410  1
  O  O31  1  0.28436294  0.74090952  0.37932661  1
  O  O32  1  0.41345150  0.61189339  0.12364486  1
  O  O33  1  0.91895258  0.60452587  0.11673963  1
  O  O34  1  0.58598754  0.88978337  0.87653279  1
  O  O35  1  0.08613731  0.88963125  0.87737145  1
  O  O36  1  0.21549969  0.76035183  0.62040632  1
  O  O37  1  0.71484803  0.75963044  0.61793029  1
  O  O38  1  0.30747358  0.34905256  0.06798430  1
  O  O39  1  0.80958017  0.34871456  0.06741185  1
  O  O40  1  0.12979481  0.52632748  0.42825609  1
  O  O41  1  0.62856111  0.52867866  0.42842213  1
  O  O42  1  0.49292337  0.39017223  0.24844868  1
  O  O43  1  0.99177591  0.39141300  0.24970142  1
  O  O44  1  0.00775172  0.61075613  0.74764267  1
  O  O45  1  0.50714878  0.60950442  0.75081025  1
  O  O46  1  0.86949231  0.47423469  0.57197208  1
  O  O47  1  0.37261105  0.47002637  0.57122192  1
  O  O48  1  0.19321253  0.64891580  0.93024408  1
  O  O49  1  0.69365612  0.64827376  0.92951175  1
  O  O50  1  0.28240312  0.24108623  0.38208494  1
  O  O51  1  0.78515061  0.24014369  0.37950411  1
  O  O52  1  0.41552087  0.10942164  0.12362162  1
  O  O53  1  0.91364127  0.10983572  0.12312064  1
  O  O54  1  0.58480760  0.39032865  0.87707686  1
  O  O55  1  0.08643670  0.39058502  0.87642599  1
  O  O56  1  0.71733511  0.25943839  0.62040632  1
  O  O57  1  0.21346843  0.25959395  0.61859955  1
  O  O58  1  0.12658871  0.02899016  0.43221435  1
  O  O59  1  0.62863272  0.02768221  0.43189775  1
  O  O60  1  0.50770405  0.10927093  0.75049093  1
  O  O61  1  0.00707428  0.10997679  0.75166838  1
  O  O62  1  0.19312417  0.14863297  0.93105769  1
  O  O63  1  0.69160380  0.15094004  0.93170428  1
