# generated using pymatgen
data_Ti3VCu2(PO4)6
_symmetry_space_group_name_H-M   'P 1'
_cell_length_a   8.60763116
_cell_length_b   8.60351087
_cell_length_c   8.60351091
_cell_angle_alpha   60.00000347
_cell_angle_beta   60.01583687
_cell_angle_gamma   60.01583231
_symmetry_Int_Tables_number   1
_chemical_formula_structural   Ti3VCu2(PO4)6
_chemical_formula_sum   'Ti3 V1 Cu2 P6 O24'
_cell_volume   450.63403626
_cell_formula_units_Z   1
loop_
 _symmetry_equiv_pos_site_id
 _symmetry_equiv_pos_as_xyz
  1  'x, y, z'
loop_
 _atom_site_type_symbol
 _atom_site_label
 _atom_site_symmetry_multiplicity
 _atom_site_fract_x
 _atom_site_fract_y
 _atom_site_fract_z
 _atom_site_occupancy
  Ti  Ti0  1  0.07418010  0.64194030  0.64194030  1
  Ti  Ti1  1  0.42568723  0.85810459  0.85810459  1
  Ti  Ti2  1  0.92574715  0.35808428  0.35808428  1
  V  V3  1  0.57281505  0.14239532  0.14239532  1
  Cu  Cu4  1  0.00233906  0.99922031  0.99922031  1
  Cu  Cu5  1  0.49988345  0.50003918  0.50003918  1
  P  P6  1  0.25102394  0.24974347  0.53809840  1
  P  P7  1  0.25102394  0.96113418  0.24974347  1
  P  P8  1  0.25102394  0.53809840  0.96113418  1
  P  P9  1  0.74917126  0.45912451  0.03976836  1
  P  P10  1  0.74917126  0.03976836  0.75193588  1
  P  P11  1  0.74917126  0.75193588  0.45912451  1
  O  O12  1  0.07144205  0.12596431  0.30287074  1
  O  O13  1  0.07144205  0.49972290  0.12596431  1
  O  O14  1  0.07144205  0.30287074  0.49972290  1
  O  O15  1  0.24481742  0.08334926  0.72922373  1
  O  O16  1  0.43083883  0.19694630  0.37614811  1
  O  O17  1  0.25445072  0.41701622  0.55775722  1
  O  O18  1  0.24481742  0.94260960  0.08334926  1
  O  O19  1  0.25445072  0.77077684  0.41701622  1
  O  O20  1  0.57081433  0.62542178  0.00043823  1
  O  O21  1  0.25445072  0.55775722  0.77077684  1
  O  O22  1  0.75439635  0.26898215  0.05827115  1
  O  O23  1  0.57081433  0.00043823  0.80332566  1
  O  O24  1  0.43083883  0.99606676  0.19694630  1
  O  O25  1  0.24481742  0.72922373  0.94260960  1
  O  O26  1  0.74466378  0.44119849  0.22965218  1
  O  O27  1  0.43083883  0.37614811  0.99606676  1
  O  O28  1  0.74466378  0.22965218  0.58448555  1
  O  O29  1  0.75439635  0.05827115  0.91834935  1
  O  O30  1  0.74466378  0.58448555  0.44119849  1
  O  O31  1  0.57081433  0.80332566  0.62542178  1
  O  O32  1  0.75439635  0.91834935  0.26898215  1
  O  O33  1  0.92816331  0.69892892  0.49852232  1
  O  O34  1  0.92816331  0.49852232  0.87438445  1
  O  O35  1  0.92816331  0.87438445  0.69892892  1
