# generated using pymatgen
data_Ag2SnO3
_symmetry_space_group_name_H-M   'P 1'
_cell_length_a   5.75468880
_cell_length_b   5.75500323
_cell_length_c   12.88540757
_cell_angle_alpha   89.99959161
_cell_angle_beta   89.99951701
_cell_angle_gamma   120.00027277
_symmetry_Int_Tables_number   1
_chemical_formula_structural   Ag2SnO3
_chemical_formula_sum   'Ag8 Sn4 O12'
_cell_volume   369.56855576
_cell_formula_units_Z   4
loop_
 _symmetry_equiv_pos_site_id
 _symmetry_equiv_pos_as_xyz
  1  'x, y, z'
loop_
 _atom_site_type_symbol
 _atom_site_label
 _atom_site_symmetry_multiplicity
 _atom_site_fract_x
 _atom_site_fract_y
 _atom_site_fract_z
 _atom_site_occupancy
  Ag  Ag0  1  -0.00000075  0.67686235  0.49999534  1
  Ag  Ag1  1  0.00001668  0.32314926  0.99998721  1
  Ag  Ag2  1  0.33326786  0.66662995  0.75000013  1
  Ag  Ag3  1  0.32313353  0.32313174  0.50000332  1
  Ag  Ag4  1  0.32313091  0.99999949  -0.00000141  1
  Ag  Ag5  1  0.67687228  0.67685622  0.00001302  1
  Ag  Ag6  1  0.66663614  0.33336932  0.25000145  1
  Ag  Ag7  1  0.67687334  0.00000122  0.49999828  1
  Sn  Sn8  1  0.33339010  0.66670444  0.25000932  1
  Sn  Sn9  1  -0.00003957  -0.00002102  0.25000793  1
  Sn  Sn10  1  0.00004522  0.00001816  0.74999143  1
  Sn  Sn11  1  0.66660945  0.33329661  0.74999371  1
  O  O12  1  0.05290267  0.71905680  0.33747316  1
  O  O13  1  0.28096828  0.94709585  0.16252297  1
  O  O14  1  0.05292789  0.33385632  0.16249871  1
  O  O15  1  0.28094362  0.33386742  0.33748859  1
  O  O16  1  0.66614509  0.94708782  0.33746262  1
  O  O17  1  0.33385781  0.28094265  0.66254096  1
  O  O18  1  0.66615017  0.71905603  0.16254059  1
  O  O19  1  0.33386794  0.05290894  0.83746285  1
  O  O20  1  0.71906870  0.66613094  0.83749632  1
  O  O21  1  0.94707942  0.66614191  0.66251018  1
  O  O22  1  0.71905024  0.05291168  0.66252932  1
  O  O23  1  0.94710298  0.28094590  0.83747300  1
