# generated using pymatgen
data_Li9Mn2Co5O16
_symmetry_space_group_name_H-M   'P 1'
_cell_length_a   2.94056876
_cell_length_b   10.62786531
_cell_length_c   10.14335551
_cell_angle_alpha   113.78025314
_cell_angle_beta   87.54572536
_cell_angle_gamma   85.02732035
_symmetry_Int_Tables_number   1
_chemical_formula_structural   Li9Mn2Co5O16
_chemical_formula_sum   'Li9 Mn2 Co5 O16'
_cell_volume   287.94071612
_cell_formula_units_Z   1
loop_
 _symmetry_equiv_pos_site_id
 _symmetry_equiv_pos_as_xyz
  1  'x, y, z'
loop_
 _atom_site_type_symbol
 _atom_site_label
 _atom_site_symmetry_multiplicity
 _atom_site_fract_x
 _atom_site_fract_y
 _atom_site_fract_z
 _atom_site_occupancy
  Li  Li0  1  0.86832307  0.25289086  0.93676994  1
  Li  Li1  1  0.13096112  0.75293675  0.06764165  1
  Li  Li2  1  0.38974087  0.24443416  0.19215909  1
  Li  Li3  1  0.37622413  0.24704815  0.68332291  1
  Li  Li4  1  0.61841131  0.75237923  0.81132912  1
  Li  Li5  1  0.88438320  0.23840044  0.42772449  1
  Li  Li6  1  0.12104880  0.75129139  0.56354691  1
  Li  Li7  1  0.61525080  0.75372053  0.31690433  1
  Li  Li8  1  0.48464055  0.00831382  0.25236287  1
  Mn  Mn9  1  0.00760563  0.00092635  0.00572591  1
  Mn  Mn10  1  0.25065489  0.49978709  0.62488673  1
  Co  Co11  1  0.25022291  0.50093773  0.12560801  1
  Co  Co12  1  0.74961680  0.50134880  0.37521697  1
  Co  Co13  1  0.99496946  0.99819299  0.48992881  1
  Co  Co14  1  0.51005430  0.99753580  0.74728968  1
  Co  Co15  1  0.74962660  0.49795941  0.87446765  1
  O  O16  1  0.47333539  0.10597060  0.96002849  1
  O  O17  1  0.67551063  0.61769007  0.09221658  1
  O  O18  1  0.93805593  0.11735273  0.19852440  1
  O  O19  1  0.92283158  0.10721351  0.70553546  1
  O  O20  1  0.18345808  0.61448501  0.84136418  1
  O  O21  1  0.40691354  0.11468452  0.47371882  1
  O  O22  1  0.65468540  0.62032771  0.59200162  1
  O  O23  1  0.18415082  0.61481019  0.34306368  1
  O  O24  1  0.31544272  0.38288224  0.90773408  1
  O  O25  1  0.54246405  0.88988224  0.02666158  1
  O  O26  1  0.81781661  0.38696253  0.15651016  1
  O  O27  1  0.84385901  0.38139048  0.66010162  1
  O  O28  1  0.08701686  0.88893820  0.79025338  1
  O  O29  1  0.31882290  0.38500311  0.40906362  1
  O  O30  1  0.57697239  0.88927358  0.54141865  1
  O  O31  1  0.05692965  0.88502976  0.30691861  1
