# generated using pymatgen
data_BeO
_symmetry_space_group_name_H-M   'P 1'
_cell_length_a   2.70097331
_cell_length_b   4.64187573
_cell_length_c   4.64187573
_cell_angle_alpha   90.00000000
_cell_angle_beta   90.00000000
_cell_angle_gamma   90.00000000
_symmetry_Int_Tables_number   1
_chemical_formula_structural   BeO
_chemical_formula_sum   'Be4 O4'
_cell_volume   58.19789971
_cell_formula_units_Z   4
loop_
 _symmetry_equiv_pos_site_id
 _symmetry_equiv_pos_as_xyz
  1  'x, y, z'
loop_
 _atom_site_type_symbol
 _atom_site_label
 _atom_site_symmetry_multiplicity
 _atom_site_fract_x
 _atom_site_fract_y
 _atom_site_fract_z
 _atom_site_occupancy
  Be  Be0  1  0.00000000  0.32658572  0.67341428  1
  Be  Be1  1  0.50000000  0.82658572  0.82658572  1
  Be  Be2  1  0.50000000  0.17341428  0.17341428  1
  Be  Be3  1  0.00000000  0.67341428  0.32658572  1
  O  O4  1  0.00000000  0.31135332  0.31135332  1
  O  O5  1  0.50000000  0.18864668  0.81135332  1
  O  O6  1  0.50000000  0.81135332  0.18864668  1
  O  O7  1  0.00000000  0.68864668  0.68864668  1
