# generated using pymatgen
data_V2Cu(PO4)3
_symmetry_space_group_name_H-M   'P 1'
_cell_length_a   8.62611687
_cell_length_b   8.62611709
_cell_length_c   8.62611700
_cell_angle_alpha   59.85521048
_cell_angle_beta   59.85520799
_cell_angle_gamma   59.85520868
_symmetry_Int_Tables_number   1
_chemical_formula_structural   V2Cu(PO4)3
_chemical_formula_sum   'V4 Cu2 P6 O24'
_cell_volume   452.37823367
_cell_formula_units_Z   2
loop_
 _symmetry_equiv_pos_site_id
 _symmetry_equiv_pos_as_xyz
  1  'x, y, z'
loop_
 _atom_site_type_symbol
 _atom_site_label
 _atom_site_symmetry_multiplicity
 _atom_site_fract_x
 _atom_site_fract_y
 _atom_site_fract_z
 _atom_site_occupancy
  V  V0  1  0.14225248  0.14225248  0.14225248  1
  V  V1  1  0.35774752  0.35774752  0.35774752  1
  V  V2  1  0.64225248  0.64225248  0.64225248  1
  V  V3  1  0.85774752  0.85774752  0.85774752  1
  Cu  Cu4  1  0.00000000  0.00000000  0.00000000  1
  Cu  Cu5  1  0.50000000  0.50000000  0.50000000  1
  P  P6  1  0.03998878  0.75000000  0.46001122  1
  P  P7  1  0.46001122  0.03998878  0.75000000  1
  P  P8  1  0.75000000  0.46001122  0.03998878  1
  P  P9  1  0.25000000  0.53998878  0.96001122  1
  P  P10  1  0.53998878  0.96001122  0.25000000  1
  P  P11  1  0.96001122  0.25000000  0.53998878  1
  O  O12  1  0.12427340  0.30228877  0.50401694  1
  O  O13  1  0.30228877  0.50401694  0.12427340  1
  O  O14  1  0.05803220  0.91701720  0.26921593  1
  O  O15  1  0.50401694  0.12427340  0.30228877  1
  O  O16  1  0.00401694  0.80228877  0.62427340  1
  O  O17  1  0.23078407  0.58298280  0.44196780  1
  O  O18  1  0.26921593  0.05803220  0.91701720  1
  O  O19  1  0.44196780  0.23078407  0.58298280  1
  O  O20  1  0.19771123  0.37572660  0.99598306  1
  O  O21  1  0.58298280  0.44196780  0.23078407  1
  O  O22  1  0.08298280  0.73078407  0.94196780  1
  O  O23  1  0.37572660  0.99598306  0.19771123  1
  O  O24  1  0.62427340  0.00401694  0.80228877  1
  O  O25  1  0.91701720  0.26921593  0.05803220  1
  O  O26  1  0.41701720  0.55803220  0.76921593  1
  O  O27  1  0.80228877  0.62427340  0.00401694  1
  O  O28  1  0.55803220  0.76921593  0.41701720  1
  O  O29  1  0.73078407  0.94196780  0.08298280  1
  O  O30  1  0.76921593  0.41701720  0.55803220  1
  O  O31  1  0.99598306  0.19771123  0.37572660  1
  O  O32  1  0.49598306  0.87572660  0.69771123  1
  O  O33  1  0.94196780  0.08298280  0.73078407  1
  O  O34  1  0.69771123  0.49598306  0.87572660  1
  O  O35  1  0.87572660  0.69771123  0.49598306  1
