# generated using pymatgen
data_Na2Ni3(P2O7)2
_symmetry_space_group_name_H-M   'P 1'
_cell_length_a   7.40916094
_cell_length_b   8.22837502
_cell_length_c   9.50084237
_cell_angle_alpha   90.00000000
_cell_angle_beta   111.44081322
_cell_angle_gamma   90.00000000
_symmetry_Int_Tables_number   1
_chemical_formula_structural   Na2Ni3(P2O7)2
_chemical_formula_sum   'Na4 Ni6 P8 O28'
_cell_volume   539.13753869
_cell_formula_units_Z   2
loop_
 _symmetry_equiv_pos_site_id
 _symmetry_equiv_pos_as_xyz
  1  'x, y, z'
loop_
 _atom_site_type_symbol
 _atom_site_label
 _atom_site_symmetry_multiplicity
 _atom_site_fract_x
 _atom_site_fract_y
 _atom_site_fract_z
 _atom_site_occupancy
  Na  Na0  1  0.31046050  0.58220404  0.87793413  1
  Na  Na1  1  0.31046050  0.91779596  0.37793413  1
  Na  Na2  1  0.68953950  0.08220404  0.62206587  1
  Na  Na3  1  0.68953950  0.41779596  0.12206587  1
  Ni  Ni4  1  0.00000000  0.00000000  0.50000000  1
  Ni  Ni5  1  0.17919906  0.61841412  0.51354466  1
  Ni  Ni6  1  0.00000000  0.50000000  0.00000000  1
  Ni  Ni7  1  0.17919906  0.88158588  0.01354466  1
  Ni  Ni8  1  0.82080094  0.11841412  0.98645534  1
  Ni  Ni9  1  0.82080094  0.38158588  0.48645534  1
  P  P10  1  0.11012415  0.20134620  0.80598982  1
  P  P11  1  0.11012415  0.29865380  0.30598982  1
  P  P12  1  0.39920441  0.95957901  0.79102935  1
  P  P13  1  0.60079559  0.45957901  0.70897065  1
  P  P14  1  0.39920441  0.54042099  0.29102935  1
  P  P15  1  0.60079559  0.04042099  0.20897065  1
  P  P16  1  0.88987585  0.70134620  0.69401018  1
  P  P17  1  0.88987585  0.79865380  0.19401018  1
  O  O18  1  0.01225267  0.70313853  0.86598101  1
  O  O19  1  0.02543990  0.07550614  0.88641018  1
  O  O20  1  0.13886396  0.36404913  0.88411356  1
  O  O21  1  0.01225267  0.79686147  0.36598101  1
  O  O22  1  0.02543990  0.42449386  0.38641018  1
  O  O23  1  0.31727112  0.13849289  0.81269244  1
  O  O24  1  0.36978439  0.84882616  0.90921965  1
  O  O25  1  0.13886396  0.13595087  0.38411356  1
  O  O26  1  0.27878739  0.90127650  0.62818583  1
  O  O27  1  0.38943864  0.49270208  0.68602257  1
  O  O28  1  0.31727112  0.36150711  0.31269244  1
  O  O29  1  0.36978439  0.65117384  0.40921965  1
  O  O30  1  0.27878739  0.59872350  0.12818583  1
  O  O31  1  0.61056136  0.99270208  0.81397743  1
  O  O32  1  0.38943864  0.00729792  0.18602257  1
  O  O33  1  0.72121261  0.40127650  0.87181417  1
  O  O34  1  0.63021561  0.34882616  0.59078035  1
  O  O35  1  0.68272888  0.63849289  0.68730756  1
  O  O36  1  0.61056136  0.50729792  0.31397743  1
  O  O37  1  0.72121261  0.09872350  0.37181417  1
  O  O38  1  0.86113604  0.86404913  0.61588644  1
  O  O39  1  0.63021561  0.15117384  0.09078035  1
  O  O40  1  0.68272888  0.86150711  0.18730756  1
  O  O41  1  0.97456010  0.57550614  0.61358982  1
  O  O42  1  0.98774633  0.20313853  0.63401899  1
  O  O43  1  0.86113604  0.63595087  0.11588644  1
  O  O44  1  0.97456010  0.92449386  0.11358982  1
  O  O45  1  0.98774633  0.29686147  0.13401899  1
