# generated using pymatgen
data_NaNi4H9(CO5)3
_symmetry_space_group_name_H-M   'P 1'
_cell_length_a   10.44681917
_cell_length_b   10.44682432
_cell_length_c   6.09409719
_cell_angle_alpha   90.00006400
_cell_angle_beta   89.99992355
_cell_angle_gamma   120.00101693
_symmetry_Int_Tables_number   1
_chemical_formula_structural   NaNi4H9(CO5)3
_chemical_formula_sum   'Na2 Ni8 H18 C6 O30'
_cell_volume   575.97538824
_cell_formula_units_Z   2
loop_
 _symmetry_equiv_pos_site_id
 _symmetry_equiv_pos_as_xyz
  1  'x, y, z'
loop_
 _atom_site_type_symbol
 _atom_site_label
 _atom_site_symmetry_multiplicity
 _atom_site_fract_x
 _atom_site_fract_y
 _atom_site_fract_z
 _atom_site_occupancy
  Na  Na0  1  0.00000051  0.00000063  0.36847881  1
  Na  Na1  1  0.00000082  0.00000046  0.86847915  1
  Ni  Ni2  1  0.00245107  0.51564732  0.25303027  1
  Ni  Ni3  1  0.33333774  0.66666310  0.13742376  1
  Ni  Ni4  1  0.51319924  0.99754485  0.25303700  1
  Ni  Ni5  1  0.48434796  0.48679548  0.25303402  1
  Ni  Ni6  1  0.51565451  0.51320365  0.75302983  1
  Ni  Ni7  1  0.48680147  0.00245270  0.75303755  1
  Ni  Ni8  1  0.66667040  0.33333447  0.63742714  1
  Ni  Ni9  1  0.99755251  0.48434926  0.75303512  1
  H  H10  1  0.04945263  0.79557200  0.16670284  1
  H  H11  1  0.20120884  0.93787767  0.10812057  1
  H  H12  1  0.16249366  0.71629723  0.93505521  1
  H  H13  1  0.06212769  0.26333391  0.10812328  1
  H  H14  1  0.20442991  0.25388157  0.16670188  1
  H  H15  1  0.28370583  0.44619459  0.93505384  1
  H  H16  1  0.55380955  0.83751267  0.93505702  1
  H  H17  1  0.26333359  0.20120842  0.60812143  1
  H  H18  1  0.25388321  0.04945535  0.66670348  1
  H  H19  1  0.74611816  0.95054637  0.16670390  1
  H  H20  1  0.73666905  0.79879320  0.10812226  1
  H  H21  1  0.44619560  0.16248908  0.43505830  1
  H  H22  1  0.71629775  0.55380626  0.43505118  1
  H  H23  1  0.79557002  0.74611712  0.66670357  1
  H  H24  1  0.93787313  0.73666717  0.60812339  1
  H  H25  1  0.83751175  0.28370271  0.43505768  1
  H  H26  1  0.79879393  0.06212557  0.60812119  1
  H  H27  1  0.95055005  0.20443096  0.66670445  1
  C  C28  1  0.22078051  0.78313426  0.50883699  1
  C  C29  1  0.21686568  0.43764199  0.50884430  1
  C  C30  1  0.56235862  0.77922302  0.50883165  1
  C  C31  1  0.43764155  0.22077854  0.00884694  1
  C  C32  1  0.78313905  0.56235888  0.00883288  1
  C  C33  1  0.77922309  0.21686591  0.00883071  1
  O  O34  1  0.09458289  0.89906169  0.12149687  1
  O  O35  1  0.08584610  0.66998833  0.50681124  1
  O  O36  1  0.13724693  0.61838695  0.98987641  1
  O  O37  1  0.26860453  0.85977702  0.68517320  1
  O  O38  1  0.30078804  0.81649635  0.33192944  1
  O  O39  1  0.14022691  0.40882687  0.68517732  1
  O  O40  1  0.18350482  0.48428486  0.33192997  1
  O  O41  1  0.10093826  0.19552279  0.12149464  1
  O  O42  1  0.48114585  0.86275733  0.98987513  1
  O  O43  1  0.38161898  0.51885756  0.98987211  1
  O  O44  1  0.58414658  0.91415266  0.50680952  1
  O  O45  1  0.33000918  0.41585049  0.50681572  1
  O  O46  1  0.19552278  0.09458429  0.62149776  1
  O  O47  1  0.51571204  0.69921098  0.33192757  1
  O  O48  1  0.59118001  0.73139954  0.68517344  1
  O  O49  1  0.40881962  0.26859780  0.18517692  1
  O  O50  1  0.48428687  0.30078490  0.83193338  1
  O  O51  1  0.80447849  0.90541799  0.12149579  1
  O  O52  1  0.66999911  0.58415027  0.00680696  1
  O  O53  1  0.41585403  0.08584458  0.00681837  1
  O  O54  1  0.61838874  0.48114231  0.48987425  1
  O  O55  1  0.51886000  0.13724277  0.48987581  1
  O  O56  1  0.89905969  0.80447770  0.62149630  1
  O  O57  1  0.81650031  0.51570957  0.83193101  1
  O  O58  1  0.85978454  0.59118020  0.18517496  1
  O  O59  1  0.69921549  0.18350433  0.83192445  1
  O  O60  1  0.73139575  0.14021997  0.18516771  1
  O  O61  1  0.86276019  0.38161446  0.48987210  1
  O  O62  1  0.91415740  0.33000953  0.00681051  1
  O  O63  1  0.90541876  0.10094054  0.62149454  1
