# generated using pymatgen
data_Li2Co(SiO3)2
_symmetry_space_group_name_H-M   'P 1'
_cell_length_a   5.17365619
_cell_length_b   10.33649641
_cell_length_c   5.17596188
_cell_angle_alpha   104.54501956
_cell_angle_beta   90.06773100
_cell_angle_gamma   75.42055265
_symmetry_Int_Tables_number   1
_chemical_formula_structural   Li2Co(SiO3)2
_chemical_formula_sum   'Li4 Co2 Si4 O12'
_cell_volume   258.72967003
_cell_formula_units_Z   2
loop_
 _symmetry_equiv_pos_site_id
 _symmetry_equiv_pos_as_xyz
  1  'x, y, z'
loop_
 _atom_site_type_symbol
 _atom_site_label
 _atom_site_symmetry_multiplicity
 _atom_site_fract_x
 _atom_site_fract_y
 _atom_site_fract_z
 _atom_site_occupancy
  Li  Li0  1  0.52198705  0.83130462  0.91117319  1
  Li  Li1  1  0.10737822  0.66781016  0.83637909  1
  Li  Li2  1  0.83228266  0.33180658  0.10634631  1
  Li  Li3  1  0.91459258  0.16884263  0.52560623  1
  Co  Co4  1  0.71965148  0.49911367  0.71566608  1
  Co  Co5  1  0.96600861  0.00049081  0.96870544  1
  Si  Si6  1  0.16655185  0.83672954  0.39922266  1
  Si  Si7  1  0.75404671  0.66340572  0.31139364  1
  Si  Si8  1  0.31509554  0.33605671  0.75684287  1
  Si  Si9  1  0.39925460  0.16287725  0.16994412  1
  O  O10  1  0.05150447  0.98994717  0.59628624  1
  O  O11  1  0.17557655  0.83382715  0.08266767  1
  O  O12  1  0.99164418  0.73153060  0.46626136  1
  O  O13  1  0.47292900  0.76853372  0.48454949  1
  O  O14  1  0.75994770  0.66624980  0.99752407  1
  O  O15  1  0.79386118  0.51032135  0.35455605  1
  O  O16  1  0.35889195  0.48916364  0.79849401  1
  O  O17  1  0.00097351  0.33348294  0.76193474  1
  O  O18  1  0.48702270  0.23155450  0.47505853  1
  O  O19  1  0.46970648  0.26658549  0.99271071  1
  O  O20  1  0.08250047  0.16668588  0.17906153  1
  O  O21  1  0.59486451  0.00907306  0.05564497  1
