# generated using pymatgen
data_Li2FeSiO4
_symmetry_space_group_name_H-M   'P 1'
_cell_length_a   5.41560569
_cell_length_b   5.41560569
_cell_length_c   6.22546640
_cell_angle_alpha   90.00000000
_cell_angle_beta   90.00000000
_cell_angle_gamma   86.81308458
_symmetry_Int_Tables_number   1
_chemical_formula_structural   Li2FeSiO4
_chemical_formula_sum   'Li4 Fe2 Si2 O8'
_cell_volume   182.30299500
_cell_formula_units_Z   2
loop_
 _symmetry_equiv_pos_site_id
 _symmetry_equiv_pos_as_xyz
  1  'x, y, z'
loop_
 _atom_site_type_symbol
 _atom_site_label
 _atom_site_symmetry_multiplicity
 _atom_site_fract_x
 _atom_site_fract_y
 _atom_site_fract_z
 _atom_site_occupancy
  Li  Li0  1  0.32459505  0.67540495  0.50000000  1
  Li  Li1  1  0.18999601  0.18999601  0.75000000  1
  Li  Li2  1  0.81000399  0.81000399  0.25000000  1
  Li  Li3  1  0.67540495  0.32459505  0.00000000  1
  Fe  Fe4  1  0.17796475  0.17796475  0.25000000  1
  Fe  Fe5  1  0.82203525  0.82203525  0.75000000  1
  Si  Si6  1  0.32045602  0.67954398  0.00000000  1
  Si  Si7  1  0.67954398  0.32045602  0.50000000  1
  O  O8  1  0.19054222  0.80024349  0.21978684  1
  O  O9  1  0.19975651  0.80945778  0.78021316  1
  O  O10  1  0.29036899  0.37707009  0.99934838  1
  O  O11  1  0.62292991  0.70963101  0.00065162  1
  O  O12  1  0.37707009  0.29036899  0.50065162  1
  O  O13  1  0.70963101  0.62292991  0.49934838  1
  O  O14  1  0.80945778  0.19975651  0.71978684  1
  O  O15  1  0.80024349  0.19054222  0.28021316  1
