# generated using pymatgen
data_Li3MnFeCo(PO4)3
_symmetry_space_group_name_H-M   'P 1'
_cell_length_a   10.47267205
_cell_length_b   6.08500444
_cell_length_c   14.29319941
_cell_angle_alpha   90.00000000
_cell_angle_beta   90.00000000
_cell_angle_gamma   90.00000000
_symmetry_Int_Tables_number   1
_chemical_formula_structural   Li3MnFeCo(PO4)3
_chemical_formula_sum   'Li12 Mn4 Fe4 Co4 P12 O48'
_cell_volume   910.85208356
_cell_formula_units_Z   4
loop_
 _symmetry_equiv_pos_site_id
 _symmetry_equiv_pos_as_xyz
  1  'x, y, z'
loop_
 _atom_site_type_symbol
 _atom_site_label
 _atom_site_symmetry_multiplicity
 _atom_site_fract_x
 _atom_site_fract_y
 _atom_site_fract_z
 _atom_site_occupancy
  Li  Li0  1  0.99897015  0.99878452  0.00068467  1
  Li  Li1  1  0.00115642  0.00101285  0.33304985  1
  Li  Li2  1  0.99951644  0.99940391  0.66648792  1
  Li  Li3  1  0.99897015  0.50121548  0.00068467  1
  Li  Li4  1  0.00115642  0.49898715  0.33304985  1
  Li  Li5  1  0.99951644  0.50059609  0.66648792  1
  Li  Li6  1  0.50048356  0.00059609  0.16648792  1
  Li  Li7  1  0.50102985  0.00121548  0.50068467  1
  Li  Li8  1  0.49884358  0.99898715  0.83304985  1
  Li  Li9  1  0.50048356  0.49940391  0.16648792  1
  Li  Li10  1  0.50102985  0.49878452  0.50068467  1
  Li  Li11  1  0.49884358  0.50101285  0.83304985  1
  Mn  Mn12  1  0.21836798  0.75000000  0.49383976  1
  Mn  Mn13  1  0.28163202  0.25000000  0.99383976  1
  Mn  Mn14  1  0.71931554  0.75000000  0.34029073  1
  Mn  Mn15  1  0.78068446  0.25000000  0.84029073  1
  Fe  Fe16  1  0.21990627  0.75000000  0.82517961  1
  Fe  Fe17  1  0.28009373  0.25000000  0.32517961  1
  Fe  Fe18  1  0.71807946  0.75000000  0.67418197  1
  Fe  Fe19  1  0.78192054  0.25000000  0.17418197  1
  Co  Co20  1  0.22056606  0.75000000  0.15888789  1
  Co  Co21  1  0.27943394  0.25000000  0.65888789  1
  Co  Co22  1  0.72156031  0.75000000  0.00698414  1
  Co  Co23  1  0.77843969  0.25000000  0.50698414  1
  P  P24  1  0.09349049  0.25000000  0.14081369  1
  P  P25  1  0.09378192  0.25000000  0.47190350  1
  P  P26  1  0.09560679  0.25000000  0.80521702  1
  P  P27  1  0.40439321  0.75000000  0.30521702  1
  P  P28  1  0.40650951  0.75000000  0.64081369  1
  P  P29  1  0.40621808  0.75000000  0.97190350  1
  P  P30  1  0.59610911  0.25000000  0.02816927  1
  P  P31  1  0.59429651  0.25000000  0.36167976  1
  P  P32  1  0.59280302  0.25000000  0.69252807  1
  P  P33  1  0.90719698  0.75000000  0.19252807  1
  P  P34  1  0.90389089  0.75000000  0.52816927  1
  P  P35  1  0.90570349  0.75000000  0.86167976  1
  O  O36  1  0.04463280  0.75000000  0.23355288  1
  O  O37  1  0.04116130  0.75000000  0.57058909  1
  O  O38  1  0.04452170  0.75000000  0.90104598  1
  O  O39  1  0.09643116  0.25000000  0.24794551  1
  O  O40  1  0.10099038  0.25000000  0.57960178  1
  O  O41  1  0.09642996  0.25000000  0.91253682  1
  O  O42  1  0.16382603  0.04539781  0.09682654  1
  O  O43  1  0.16362458  0.04799931  0.42624597  1
  O  O44  1  0.16768721  0.04777860  0.76122194  1
  O  O45  1  0.16382603  0.45460219  0.09682654  1
  O  O46  1  0.16362458  0.45200069  0.42624597  1
  O  O47  1  0.16768721  0.45222140  0.76122194  1
  O  O48  1  0.33231279  0.54777860  0.26122194  1
  O  O49  1  0.33617397  0.54539781  0.59682654  1
  O  O50  1  0.33637542  0.54799931  0.92624597  1
  O  O51  1  0.33231279  0.95222140  0.26122194  1
  O  O52  1  0.33617397  0.95460219  0.59682654  1
  O  O53  1  0.33637542  0.95200069  0.92624597  1
  O  O54  1  0.39900962  0.75000000  0.07960178  1
  O  O55  1  0.40357004  0.75000000  0.41253682  1
  O  O56  1  0.40356884  0.75000000  0.74794551  1
  O  O57  1  0.45883870  0.25000000  0.07058909  1
  O  O58  1  0.45547830  0.25000000  0.40104598  1
  O  O59  1  0.45536720  0.25000000  0.73355288  1
  O  O60  1  0.54098075  0.75000000  0.26285152  1
  O  O61  1  0.54341239  0.75000000  0.59860176  1
  O  O62  1  0.54479403  0.75000000  0.93321821  1
  O  O63  1  0.59880069  0.25000000  0.25412976  1
  O  O64  1  0.59761516  0.25000000  0.58497001  1
  O  O65  1  0.59637027  0.25000000  0.92071959  1
  O  O66  1  0.66657145  0.04589832  0.07171398  1
  O  O67  1  0.66439310  0.04849616  0.40720206  1
  O  O68  1  0.66360537  0.04704470  0.73684693  1
  O  O69  1  0.66657145  0.45410168  0.07171398  1
  O  O70  1  0.66439310  0.45150384  0.40720206  1
  O  O71  1  0.66360537  0.45295530  0.73684693  1
  O  O72  1  0.83639463  0.54704470  0.23684693  1
  O  O73  1  0.83342855  0.54589832  0.57171398  1
  O  O74  1  0.83560690  0.54849616  0.90720206  1
  O  O75  1  0.83639463  0.95295530  0.23684693  1
  O  O76  1  0.83342855  0.95410168  0.57171398  1
  O  O77  1  0.83560690  0.95150384  0.90720206  1
  O  O78  1  0.90238484  0.75000000  0.08497001  1
  O  O79  1  0.90362973  0.75000000  0.42071959  1
  O  O80  1  0.90119931  0.75000000  0.75412976  1
  O  O81  1  0.95658761  0.25000000  0.09860176  1
  O  O82  1  0.95520597  0.25000000  0.43321821  1
  O  O83  1  0.95901925  0.25000000  0.76285152  1
