# generated using pymatgen
data_LiMnF4
_symmetry_space_group_name_H-M   'P 1'
_cell_length_a   4.62702401
_cell_length_b   11.35929567
_cell_length_c   5.11081138
_cell_angle_alpha   90.00000000
_cell_angle_beta   90.00000000
_cell_angle_gamma   90.00000000
_symmetry_Int_Tables_number   1
_chemical_formula_structural   LiMnF4
_chemical_formula_sum   'Li4 Mn4 F16'
_cell_volume   268.62288564
_cell_formula_units_Z   4
loop_
 _symmetry_equiv_pos_site_id
 _symmetry_equiv_pos_as_xyz
  1  'x, y, z'
loop_
 _atom_site_type_symbol
 _atom_site_label
 _atom_site_symmetry_multiplicity
 _atom_site_fract_x
 _atom_site_fract_y
 _atom_site_fract_z
 _atom_site_occupancy
  Li  Li0  1  0.00000000  0.05823818  0.25000000  1
  Li  Li1  1  0.00000000  0.94176182  0.75000000  1
  Li  Li2  1  0.50000000  0.55823818  0.25000000  1
  Li  Li3  1  0.50000000  0.44176182  0.75000000  1
  Mn  Mn4  1  0.00000000  0.32225045  0.25000000  1
  Mn  Mn5  1  0.00000000  0.67774955  0.75000000  1
  Mn  Mn6  1  0.50000000  0.82225045  0.25000000  1
  Mn  Mn7  1  0.50000000  0.17774955  0.75000000  1
  F  F8  1  0.21931228  0.19732329  0.40598609  1
  F  F9  1  0.21931228  0.80267671  0.90598609  1
  F  F10  1  0.25678860  0.06468691  0.90153136  1
  F  F11  1  0.25678860  0.93531309  0.40153136  1
  F  F12  1  0.24321140  0.56468691  0.90153136  1
  F  F13  1  0.24321140  0.43531309  0.40153136  1
  F  F14  1  0.28068772  0.30267671  0.90598609  1
  F  F15  1  0.28068772  0.69732329  0.40598609  1
  F  F16  1  0.71931228  0.69732329  0.09401391  1
  F  F17  1  0.71931228  0.30267671  0.59401391  1
  F  F18  1  0.75678860  0.43531309  0.09846864  1
  F  F19  1  0.75678860  0.56468691  0.59846864  1
  F  F20  1  0.74321140  0.06468691  0.59846864  1
  F  F21  1  0.74321140  0.93531309  0.09846864  1
  F  F22  1  0.78068772  0.19732329  0.09401391  1
  F  F23  1  0.78068772  0.80267671  0.59401391  1
