# generated using pymatgen
data_LiFeSiO4
_symmetry_space_group_name_H-M   'P 1'
_cell_length_a   8.43600789
_cell_length_b   5.23286082
_cell_length_c   8.57799879
_cell_angle_alpha   90.00000000
_cell_angle_beta   107.70964540
_cell_angle_gamma   90.00000000
_symmetry_Int_Tables_number   1
_chemical_formula_structural   LiFeSiO4
_chemical_formula_sum   'Li4 Fe4 Si4 O16'
_cell_volume   360.72596859
_cell_formula_units_Z   4
loop_
 _symmetry_equiv_pos_site_id
 _symmetry_equiv_pos_as_xyz
  1  'x, y, z'
loop_
 _atom_site_type_symbol
 _atom_site_label
 _atom_site_symmetry_multiplicity
 _atom_site_fract_x
 _atom_site_fract_y
 _atom_site_fract_z
 _atom_site_occupancy
  Li  Li0  1  0.09301456  0.83544699  0.98001698  1
  Li  Li1  1  0.26813475  0.32220543  0.50044661  1
  Li  Li2  1  0.59301456  0.16455301  0.98001698  1
  Li  Li3  1  0.76813475  0.67779457  0.50044661  1
  Fe  Fe4  1  0.00067757  0.67145973  0.25059344  1
  Fe  Fe5  1  0.33101274  0.82741489  0.73615206  1
  Fe  Fe6  1  0.50067757  0.32854027  0.25059344  1
  Fe  Fe7  1  0.83101274  0.17258511  0.73615206  1
  Si  Si8  1  0.21944010  0.32327343  0.86489929  1
  Si  Si9  1  0.37320224  0.82055222  0.36993778  1
  Si  Si10  1  0.71944010  0.67672657  0.86489929  1
  Si  Si11  1  0.87320224  0.17944778  0.36993778  1
  O  O12  1  0.05114925  0.18511083  0.88342707  1
  O  O13  1  0.03115786  0.33757515  0.34237859  1
  O  O14  1  0.19090889  0.63134678  0.82862204  1
  O  O15  1  0.26974401  0.18006521  0.71374415  1
  O  O16  1  0.20479818  0.77051951  0.21427357  1
  O  O17  1  0.32746813  0.69935650  0.52963838  1
  O  O18  1  0.55114925  0.81488917  0.88342707  1
  O  O19  1  0.41619078  0.12679458  0.39448464  1
  O  O20  1  0.37690094  0.27249372  0.03018340  1
  O  O21  1  0.53115786  0.66242485  0.34237859  1
  O  O22  1  0.69090889  0.36865322  0.82862204  1
  O  O23  1  0.76974401  0.81993479  0.71374415  1
  O  O24  1  0.70479818  0.22948049  0.21427357  1
  O  O25  1  0.82746813  0.30064350  0.52963838  1
  O  O26  1  0.91619078  0.87320542  0.39448464  1
  O  O27  1  0.87690094  0.72750628  0.03018340  1
