# generated using pymatgen
data_Li9Mn2Co5O16
_symmetry_space_group_name_H-M   'P 1'
_cell_length_a   2.90307819
_cell_length_b   19.41777050
_cell_length_c   5.10981248
_cell_angle_alpha   93.02646697
_cell_angle_beta   88.36016425
_cell_angle_gamma   86.97238248
_symmetry_Int_Tables_number   1
_chemical_formula_structural   Li9Mn2Co5O16
_chemical_formula_sum   'Li9 Mn2 Co5 O16'
_cell_volume   287.10107194
_cell_formula_units_Z   1
loop_
 _symmetry_equiv_pos_site_id
 _symmetry_equiv_pos_as_xyz
  1  'x, y, z'
loop_
 _atom_site_type_symbol
 _atom_site_label
 _atom_site_symmetry_multiplicity
 _atom_site_fract_x
 _atom_site_fract_y
 _atom_site_fract_z
 _atom_site_occupancy
  Li  Li0  1  0.94137444  0.11513766  0.66607558  1
  Li  Li1  1  0.31047192  0.37779044  0.55735133  1
  Li  Li2  1  0.68736413  0.62600448  0.43313635  1
  Li  Li3  1  0.06298552  0.88101549  0.32953579  1
  Li  Li4  1  0.45176447  0.11695102  0.18708740  1
  Li  Li5  1  0.81105506  0.37745507  0.06949998  1
  Li  Li6  1  0.18995600  0.62711901  0.93942335  1
  Li  Li7  1  0.55285551  0.87784657  0.81611041  1
  Li  Li8  1  0.49987131  0.99995128  0.49795506  1
  Mn  Mn9  1  -0.00039650  0.99991032  -0.00034851  1
  Mn  Mn10  1  0.37563901  0.25012730  0.87482262  1
  Co  Co11  1  0.75072698  0.50069176  0.75015042  1
  Co  Co12  1  0.12397209  0.75035290  0.62540398  1
  Co  Co13  1  0.87675029  0.24898367  0.37466873  1
  Co  Co14  1  0.24836371  0.50008880  0.24956780  1
  Co  Co15  1  0.62447818  0.75053139  0.12595784  1
  O  O16  1  0.48108517  0.05575618  0.85869477  1
  O  O17  1  0.86004774  0.30655209  0.73497123  1
  O  O18  1  0.22384262  0.55537908  0.58289054  1
  O  O19  1  0.57765593  0.80770533  0.47846734  1
  O  O20  1  0.96711673  0.05978179  0.31441772  1
  O  O21  1  0.34473677  0.30688507  0.20025379  1
  O  O22  1  0.68561508  0.55710089  0.09224037  1
  O  O23  1  0.07828897  0.80648256  0.97965755  1
  O  O24  1  0.40652042  0.19393597  0.55311197  1
  O  O25  1  0.81394103  0.44123413  0.40934832  1
  O  O26  1  0.16825396  0.69161154  0.27348226  1
  O  O27  1  0.51609207  0.94481833  0.14137545  1
  O  O28  1  0.88925344  0.19593452  0.01194063  1
  O  O29  1  0.27829285  0.44395912  0.91441695  1
  O  O30  1  0.67055250  0.69107835  0.77180601  1
  O  O31  1  0.03147260  0.94182788  0.68652698  1
