# generated using pymatgen
data_KFeH2S2O9
_symmetry_space_group_name_H-M   'P 1'
_cell_length_a   8.05544088
_cell_length_b   5.18518268
_cell_length_c   9.22409563
_cell_angle_alpha   90.00000000
_cell_angle_beta   102.22894818
_cell_angle_gamma   90.00000000
_symmetry_Int_Tables_number   1
_chemical_formula_structural   KFeH2S2O9
_chemical_formula_sum   'K2 Fe2 H4 S4 O18'
_cell_volume   376.53822505
_cell_formula_units_Z   2
loop_
 _symmetry_equiv_pos_site_id
 _symmetry_equiv_pos_as_xyz
  1  'x, y, z'
loop_
 _atom_site_type_symbol
 _atom_site_label
 _atom_site_symmetry_multiplicity
 _atom_site_fract_x
 _atom_site_fract_y
 _atom_site_fract_z
 _atom_site_occupancy
  K  K0  1  0.42525227  0.75000000  0.78551179  1
  K  K1  1  0.57474773  0.25000000  0.21448821  1
  Fe  Fe2  1  0.08879997  0.25000000  0.22317750  1
  Fe  Fe3  1  0.91120003  0.75000000  0.77682250  1
  H  H4  1  0.15790018  0.09437951  0.49538475  1
  H  H5  1  0.15790018  0.40562049  0.49538475  1
  H  H6  1  0.84209982  0.59437951  0.50461525  1
  H  H7  1  0.84209982  0.90562049  0.50461525  1
  S  S8  1  0.15670771  0.25000000  0.88287732  1
  S  S9  1  0.33419661  0.75000000  0.34628339  1
  S  S10  1  0.66580339  0.25000000  0.65371661  1
  S  S11  1  0.84329229  0.75000000  0.11712268  1
  O  O12  1  0.10408341  0.01591926  0.78802838  1
  O  O13  1  0.10408341  0.48408074  0.78802838  1
  O  O14  1  0.09810809  0.25000000  0.44909692  1
  O  O15  1  0.06122309  0.25000000  0.00459574  1
  O  O16  1  0.34089555  0.25000000  0.93679614  1
  O  O17  1  0.25580716  0.75000000  0.47729214  1
  O  O18  1  0.27279709  0.51641775  0.24996284  1
  O  O19  1  0.27279709  0.98358225  0.24996284  1
  O  O20  1  0.48076686  0.25000000  0.62075969  1
  O  O21  1  0.51923314  0.75000000  0.37924031  1
  O  O22  1  0.72720291  0.01641775  0.75003716  1
  O  O23  1  0.72720291  0.48358225  0.75003716  1
  O  O24  1  0.74419284  0.25000000  0.52270786  1
  O  O25  1  0.65910445  0.75000000  0.06320386  1
  O  O26  1  0.93877691  0.75000000  0.99540426  1
  O  O27  1  0.90189191  0.75000000  0.55090308  1
  O  O28  1  0.89591659  0.51591926  0.21197162  1
  O  O29  1  0.89591659  0.98408074  0.21197162  1
