# generated using pymatgen
data_V(Bi5O8)5
_symmetry_space_group_name_H-M   'P 1'
_cell_length_a   9.01914597
_cell_length_b   9.01914597
_cell_length_c   14.73432933
_cell_angle_alpha   90.02684742
_cell_angle_beta   89.97315258
_cell_angle_gamma   109.52700928
_symmetry_Int_Tables_number   1
_chemical_formula_structural   V(Bi5O8)5
_chemical_formula_sum   'V1 Bi25 O40'
_cell_volume   1129.62717800
_cell_formula_units_Z   1
loop_
 _symmetry_equiv_pos_site_id
 _symmetry_equiv_pos_as_xyz
  1  'x, y, z'
loop_
 _atom_site_type_symbol
 _atom_site_label
 _atom_site_symmetry_multiplicity
 _atom_site_fract_x
 _atom_site_fract_y
 _atom_site_fract_z
 _atom_site_occupancy
  V  V0  1  0.00098034  0.00098034  0.00000000  1
  Bi  Bi1  1  0.90926187  0.05498829  0.25131271  1
  Bi  Bi2  1  0.77300804  0.27652654  0.07293553  1
  Bi  Bi3  1  0.35644145  0.00905555  0.15218830  1
  Bi  Bi4  1  0.97625416  0.67422154  0.17173810  1
  Bi  Bi5  1  0.55564800  0.41689667  0.25226513  1
  Bi  Bi6  1  0.75508158  0.26145016  0.43132347  1
  Bi  Bi7  1  0.60422961  0.75761465  0.09865871  1
  Bi  Bi8  1  0.21877863  0.42490371  0.07765715  1
  Bi  Bi9  1  0.26422252  0.09398093  0.40410287  1
  Bi  Bi10  1  0.91022129  0.72648894  0.41607201  1
  Bi  Bi11  1  0.16599200  0.47148500  0.33505860  1
  Bi  Bi12  1  0.83717572  0.51108493  0.65221272  1
  Bi  Bi13  1  0.49698509  0.49698509  0.50000000  1
  Bi  Bi14  1  0.51108493  0.83717572  0.34778728  1
  Bi  Bi15  1  0.47148500  0.16599200  0.66494140  1
  Bi  Bi16  1  0.09398093  0.26422252  0.59589713  1
  Bi  Bi17  1  0.72648894  0.91022129  0.58392799  1
  Bi  Bi18  1  0.42490371  0.21877863  0.92234285  1
  Bi  Bi19  1  0.75761465  0.60422961  0.90134129  1
  Bi  Bi20  1  0.26145016  0.75508158  0.56867653  1
  Bi  Bi21  1  0.41689667  0.55564800  0.74773487  1
  Bi  Bi22  1  0.67422154  0.97625416  0.82826190  1
  Bi  Bi23  1  0.00905555  0.35644145  0.84781170  1
  Bi  Bi24  1  0.05498829  0.90926187  0.74868729  1
  Bi  Bi25  1  0.27652654  0.77300804  0.92706447  1
  O  O26  1  0.80655765  0.00099619  0.00015978  1
  O  O27  1  0.40265674  0.99847297  0.00079422  1
  O  O28  1  0.76532549  0.50457767  0.12344873  1
  O  O29  1  0.49735787  0.24536622  0.13063550  1
  O  O30  1  0.99328967  0.25850327  0.37188821  1
  O  O31  1  0.09852420  0.09886765  0.09707825  1
  O  O32  1  0.43011260  0.05055450  0.31649300  1
  O  O33  1  0.93982782  0.57873153  0.31131230  1
  O  O34  1  0.99847297  0.40265674  0.99920578  1
  O  O35  1  0.80420417  0.80382010  0.19525753  1
  O  O36  1  0.94832393  0.06105481  0.68940063  1
  O  O37  1  0.30502115  0.68219018  0.05613486  1
  O  O38  1  0.45170742  0.56268696  0.18279895  1
  O  O39  1  0.80970907  0.17833987  0.55602664  1
  O  O40  1  0.86222650  0.50141521  0.49975824  1
  O  O41  1  0.31472589  0.31459828  0.31333414  1
  O  O42  1  0.07200140  0.43848737  0.18672745  1
  O  O43  1  0.55931967  0.93094528  0.18048951  1
  O  O44  1  0.00099619  0.80655765  0.99984022  1
  O  O45  1  0.62352686  0.62416536  0.37472438  1
  O  O46  1  0.49828526  0.24381746  0.50077236  1
  O  O47  1  0.74281767  0.99391389  0.36690820  1
  O  O48  1  0.99391389  0.74281767  0.63309180  1
  O  O49  1  0.62416536  0.62352686  0.62527562  1
  O  O50  1  0.24381746  0.49828526  0.49922764  1
  O  O51  1  0.93094528  0.55931967  0.81951049  1
  O  O52  1  0.43848737  0.07200140  0.81327255  1
  O  O53  1  0.50141521  0.86222650  0.50024176  1
  O  O54  1  0.31459828  0.31472589  0.68666586  1
  O  O55  1  0.17833987  0.80970907  0.44397336  1
  O  O56  1  0.68219018  0.30502115  0.94386514  1
  O  O57  1  0.06105481  0.94832393  0.31059937  1
  O  O58  1  0.56268696  0.45170742  0.81720105  1
  O  O59  1  0.80382010  0.80420417  0.80474247  1
  O  O60  1  0.57873153  0.93982782  0.68868770  1
  O  O61  1  0.05055450  0.43011260  0.68350700  1
  O  O62  1  0.09886765  0.09852420  0.90292175  1
  O  O63  1  0.25850327  0.99328967  0.62811179  1
  O  O64  1  0.24536622  0.49735787  0.86936450  1
  O  O65  1  0.50457767  0.76532549  0.87655127  1
