# generated using pymatgen
data_Li3MnFeCo(PO4)3
_symmetry_space_group_name_H-M   'P 1'
_cell_length_a   10.47070123
_cell_length_b   6.09832533
_cell_length_c   14.31770078
_cell_angle_alpha   90.00000000
_cell_angle_beta   89.84570104
_cell_angle_gamma   90.00000000
_symmetry_Int_Tables_number   1
_chemical_formula_structural   Li3MnFeCo(PO4)3
_chemical_formula_sum   'Li12 Mn4 Fe4 Co4 P12 O48'
_cell_volume   914.23546442
_cell_formula_units_Z   4
loop_
 _symmetry_equiv_pos_site_id
 _symmetry_equiv_pos_as_xyz
  1  'x, y, z'
loop_
 _atom_site_type_symbol
 _atom_site_label
 _atom_site_symmetry_multiplicity
 _atom_site_fract_x
 _atom_site_fract_y
 _atom_site_fract_z
 _atom_site_occupancy
  Li  Li0  1  0.99815528  0.50043145  0.66692154  1
  Li  Li1  1  0.99990958  0.00058464  0.00003235  1
  Li  Li2  1  0.99990958  0.49941536  0.00003235  1
  Li  Li3  1  0.99934139  0.00111908  0.33334051  1
  Li  Li4  1  0.99934139  0.49888092  0.33334051  1
  Li  Li5  1  0.99815528  0.99956855  0.66692154  1
  Li  Li6  1  0.50087390  0.00010158  0.50057675  1
  Li  Li7  1  0.50087390  0.49989842  0.50057675  1
  Li  Li8  1  0.50127698  0.00153677  0.16679393  1
  Li  Li9  1  0.50127698  0.49846323  0.16679393  1
  Li  Li10  1  0.50078213  0.00044216  0.83323515  1
  Li  Li11  1  0.50078213  0.49955784  0.83323515  1
  Mn  Mn12  1  0.21834130  0.75000000  0.15986467  1
  Mn  Mn13  1  0.21855870  0.75000000  0.49310540  1
  Mn  Mn14  1  0.28179072  0.25000000  0.65953635  1
  Mn  Mn15  1  0.71974427  0.75000000  0.00709438  1
  Fe  Fe16  1  0.21783488  0.75000000  0.82518425  1
  Fe  Fe17  1  0.28042900  0.25000000  0.99282093  1
  Fe  Fe18  1  0.28148487  0.25000000  0.32574973  1
  Fe  Fe19  1  0.72001901  0.75000000  0.34134918  1
  Co  Co20  1  0.72004661  0.75000000  0.67331751  1
  Co  Co21  1  0.78114569  0.25000000  0.83920851  1
  Co  Co22  1  0.77953275  0.25000000  0.50735342  1
  Co  Co23  1  0.78031696  0.25000000  0.17315824  1
  P  P24  1  0.09318335  0.25000000  0.80747216  1
  P  P25  1  0.09356228  0.25000000  0.13824912  1
  P  P26  1  0.09266387  0.25000000  0.47140578  1
  P  P27  1  0.40747603  0.75000000  0.30626263  1
  P  P28  1  0.40790673  0.75000000  0.63966999  1
  P  P29  1  0.40474862  0.75000000  0.97183725  1
  P  P30  1  0.59537299  0.25000000  0.36053646  1
  P  P31  1  0.59405379  0.25000000  0.02822208  1
  P  P32  1  0.59737587  0.25000000  0.69438225  1
  P  P33  1  0.90567412  0.75000000  0.85935729  1
  P  P34  1  0.90434890  0.75000000  0.19465093  1
  P  P35  1  0.90334826  0.75000000  0.52754297  1
  O  O36  1  0.04087162  0.75000000  0.23702467  1
  O  O37  1  0.04004361  0.75000000  0.56955804  1
  O  O38  1  0.04224280  0.75000000  0.90146883  1
  O  O39  1  0.09593443  0.25000000  0.57879356  1
  O  O40  1  0.09675076  0.25000000  0.91419190  1
  O  O41  1  0.09746867  0.25000000  0.24598174  1
  O  O42  1  0.16397803  0.04928683  0.09306531  1
  O  O43  1  0.16397803  0.45071317  0.09306531  1
  O  O44  1  0.16343895  0.04908211  0.42627984  1
  O  O45  1  0.16343895  0.45091789  0.42627984  1
  O  O46  1  0.16389673  0.04691840  0.76323374  1
  O  O47  1  0.16389673  0.45308160  0.76323374  1
  O  O48  1  0.33786142  0.54855168  0.59467485  1
  O  O49  1  0.33786142  0.95144832  0.59467485  1
  O  O50  1  0.33645405  0.54718889  0.26302505  1
  O  O51  1  0.33645405  0.95281111  0.26302505  1
  O  O52  1  0.33383735  0.54713375  0.92827478  1
  O  O53  1  0.33383735  0.95286625  0.92827478  1
  O  O54  1  0.40562069  0.75000000  0.41381135  1
  O  O55  1  0.40425208  0.75000000  0.07918728  1
  O  O56  1  0.40297261  0.75000000  0.74691375  1
  O  O57  1  0.45774771  0.25000000  0.40200442  1
  O  O58  1  0.45629662  0.25000000  0.06783893  1
  O  O59  1  0.46045845  0.25000000  0.73647447  1
  O  O60  1  0.54429408  0.75000000  0.26395490  1
  O  O61  1  0.54172411  0.75000000  0.92961475  1
  O  O62  1  0.54603089  0.75000000  0.59903962  1
  O  O63  1  0.59778012  0.25000000  0.25339561  1
  O  O64  1  0.59835342  0.25000000  0.92060403  1
  O  O65  1  0.59788823  0.25000000  0.58660487  1
  O  O66  1  0.66446680  0.04913165  0.07392271  1
  O  O67  1  0.66619347  0.04758103  0.40528417  1
  O  O68  1  0.66802612  0.04673703  0.73846485  1
  O  O69  1  0.66802612  0.45326297  0.73846485  1
  O  O70  1  0.66446680  0.45086835  0.07392271  1
  O  O71  1  0.66619347  0.45241897  0.40528417  1
  O  O72  1  0.83515261  0.54580443  0.90347403  1
  O  O73  1  0.83515261  0.95419557  0.90347403  1
  O  O74  1  0.83313585  0.54603267  0.23822929  1
  O  O75  1  0.83214088  0.54686240  0.57189520  1
  O  O76  1  0.83313585  0.95396733  0.23822929  1
  O  O77  1  0.83214088  0.95313760  0.57189520  1
  O  O78  1  0.90334232  0.75000000  0.75185182  1
  O  O79  1  0.90288314  0.75000000  0.42036158  1
  O  O80  1  0.90487752  0.75000000  0.08741549  1
  O  O81  1  0.95604423  0.25000000  0.76499847  1
  O  O82  1  0.95492347  0.25000000  0.09877984  1
  O  O83  1  0.95439374  0.25000000  0.43134354  1
