# generated using pymatgen
data_Li9Mn2Co5O16
_symmetry_space_group_name_H-M   'P 1'
_cell_length_a   2.96188594
_cell_length_b   15.63392341
_cell_length_c   6.52280712
_cell_angle_alpha   89.43314257
_cell_angle_beta   77.07688816
_cell_angle_gamma   81.44571457
_symmetry_Int_Tables_number   1
_chemical_formula_structural   Li9Mn2Co5O16
_chemical_formula_sum   'Li9 Mn2 Co5 O16'
_cell_volume   291.03334289
_cell_formula_units_Z   1
loop_
 _symmetry_equiv_pos_site_id
 _symmetry_equiv_pos_as_xyz
  1  'x, y, z'
loop_
 _atom_site_type_symbol
 _atom_site_label
 _atom_site_symmetry_multiplicity
 _atom_site_fract_x
 _atom_site_fract_y
 _atom_site_fract_z
 _atom_site_occupancy
  Li  Li0  1  0.74784733  0.18826093  0.12489526  1
  Li  Li1  1  0.74738723  0.43867081  0.62520954  1
  Li  Li2  1  0.75788298  0.68555808  0.12639782  1
  Li  Li3  1  0.24595777  0.31312403  0.87560082  1
  Li  Li4  1  0.24103135  0.56217595  0.38348070  1
  Li  Li5  1  0.25966447  0.81099833  0.86034710  1
  Li  Li6  1  0.77098596  0.93032370  0.62142772  1
  Li  Li7  1  0.23737312  0.06632558  0.37907940  1
  Li  Li8  1  0.97856823  0.75342155  0.51055752  1
  Mn  Mn9  1  0.00567223  0.99940204  0.99891168  1
  Mn  Mn10  1  0.50674256  0.87015793  0.25908190  1
  Co  Co11  1  0.99417860  0.25082948  0.49376290  1
  Co  Co12  1  0.00221800  0.50154972  0.99963121  1
  Co  Co13  1  0.50281210  0.37493601  0.24275295  1
  Co  Co14  1  0.49615153  0.62971915  0.74225238  1
  Co  Co15  1  0.50023396  0.12704117  0.75192414  1
  O  O16  1  0.35037173  0.08858232  0.05897491  1
  O  O17  1  0.36719235  0.34020425  0.54587538  1
  O  O18  1  0.39391796  0.59297706  0.03885865  1
  O  O19  1  0.86863482  0.21333504  0.80330514  1
  O  O20  1  0.89415690  0.46707766  0.29364365  1
  O  O21  1  0.84862373  0.71052938  0.81223943  1
  O  O22  1  0.37931469  0.84711125  0.54120660  1
  O  O23  1  0.91528862  0.95794328  0.29679320  1
  O  O24  1  0.10420978  0.28613842  0.19292242  1
  O  O25  1  0.14736100  0.53408997  0.70759721  1
  O  O26  1  0.10031242  0.79151753  0.19610062  1
  O  O27  1  0.61699602  0.40931194  0.94924101  1
  O  O28  1  0.61358418  0.64959470  0.47187383  1
  O  O29  1  0.65530571  0.90853231  0.95276189  1
  O  O30  1  0.12941284  0.03846059  0.69787281  1
  O  O31  1  0.62060982  0.16210285  0.44542020  1
