# generated using pymatgen
data_LiVSiO4
_symmetry_space_group_name_H-M   'P 1'
_cell_length_a   4.80258074
_cell_length_b   10.37328056
_cell_length_c   5.81388912
_cell_angle_alpha   90.00014557
_cell_angle_beta   90.00005999
_cell_angle_gamma   89.99461582
_symmetry_Int_Tables_number   1
_chemical_formula_structural   LiVSiO4
_chemical_formula_sum   'Li4 V4 Si4 O16'
_cell_volume   289.63933493
_cell_formula_units_Z   4
loop_
 _symmetry_equiv_pos_site_id
 _symmetry_equiv_pos_as_xyz
  1  'x, y, z'
loop_
 _atom_site_type_symbol
 _atom_site_label
 _atom_site_symmetry_multiplicity
 _atom_site_fract_x
 _atom_site_fract_y
 _atom_site_fract_z
 _atom_site_occupancy
  Li  Li0  1  0.00002029  0.00008662  0.99994955  1
  Li  Li1  1  0.00001993  0.00008539  0.50004949  1
  Li  Li2  1  0.50002337  0.49991182  0.49998440  1
  Li  Li3  1  0.50002362  0.49991143  0.00001576  1
  V  V4  1  0.00740703  0.72689795  0.75000115  1
  V  V5  1  0.49260737  0.22693255  0.75000175  1
  V  V6  1  0.50741650  0.77308663  0.24999766  1
  V  V7  1  0.99261750  0.27308395  0.24999652  1
  Si  Si8  1  0.05905184  0.59216056  0.24999999  1
  Si  Si9  1  0.44108634  0.09220103  0.25000023  1
  Si  Si10  1  0.55894075  0.90781844  0.75000038  1
  Si  Si11  1  0.94100218  0.40782088  0.75000004  1
  O  O12  1  0.27567222  0.40130877  0.74999940  1
  O  O13  1  0.80766812  0.55196696  0.74999996  1
  O  O14  1  0.28403591  0.17379242  0.03528782  1
  O  O15  1  0.28403620  0.17379427  0.46471256  1
  O  O16  1  0.21597983  0.67381146  0.03530003  1
  O  O17  1  0.21597756  0.67381058  0.46470104  1
  O  O18  1  0.69219013  0.05192654  0.75000045  1
  O  O19  1  0.22420533  0.90129580  0.75000069  1
  O  O20  1  0.77575761  0.09870437  0.25000003  1
  O  O21  1  0.30780230  0.94805685  0.25000120  1
  O  O22  1  0.71590701  0.82616376  0.53531339  1
  O  O23  1  0.71590359  0.82616423  0.96468689  1
  O  O24  1  0.78399780  0.32622614  0.53528399  1
  O  O25  1  0.78399220  0.32622797  0.96471553  1
  O  O26  1  0.19233606  0.44805015  0.24999934  1
  O  O27  1  0.72432138  0.59870250  0.25000076  1
