# generated using pymatgen
data_LiVFeP2(HO5)2
_symmetry_space_group_name_H-M   'P 1'
_cell_length_a   10.62076937
_cell_length_b   7.44217538
_cell_length_c   5.22098155
_cell_angle_alpha   109.94809174
_cell_angle_beta   97.97318461
_cell_angle_gamma   105.75281766
_symmetry_Int_Tables_number   1
_chemical_formula_structural   LiVFeP2(HO5)2
_chemical_formula_sum   'Li2 V2 Fe2 P4 H4 O20'
_cell_volume   360.93426821
_cell_formula_units_Z   2
loop_
 _symmetry_equiv_pos_site_id
 _symmetry_equiv_pos_as_xyz
  1  'x, y, z'
loop_
 _atom_site_type_symbol
 _atom_site_label
 _atom_site_symmetry_multiplicity
 _atom_site_fract_x
 _atom_site_fract_y
 _atom_site_fract_z
 _atom_site_occupancy
  Li  Li0  1  0.20637293  0.85066529  0.77835858  1
  Li  Li1  1  0.79362707  0.14933471  0.22164142  1
  V  V2  1  0.00000000  0.50000000  0.00000000  1
  V  V3  1  0.50000000  0.50000000  0.00000000  1
  Fe  Fe4  1  0.00000000  0.00000000  0.00000000  1
  Fe  Fe5  1  0.50000000  0.00000000  0.00000000  1
  P  P6  1  0.17836293  0.22381051  0.67736125  1
  P  P7  1  0.32266038  0.76944326  0.31985066  1
  P  P8  1  0.67733962  0.23055674  0.68014934  1
  P  P9  1  0.82163707  0.77618949  0.32263875  1
  H  H10  1  0.03248078  0.34969056  0.35389298  1
  H  H11  1  0.48512149  0.65943245  0.65168123  1
  H  H12  1  0.51487851  0.34056755  0.34831877  1
  H  H13  1  0.96751922  0.65030944  0.64610702  1
  O  O14  1  0.02337505  0.71402905  0.84262544  1
  O  O15  1  0.09706185  0.37668955  0.74223508  1
  O  O16  1  0.17119168  0.65427580  0.29504083  1
  O  O17  1  0.12031864  0.07650725  0.36823587  1
  O  O18  1  0.16414786  0.10727079  0.87147281  1
  O  O19  1  0.33115936  0.87126751  0.10863934  1
  O  O20  1  0.37470789  0.92638842  0.62865179  1
  O  O21  1  0.32800058  0.34770169  0.72324846  1
  O  O22  1  0.40434018  0.62113003  0.27712821  1
  O  O23  1  0.51589563  0.71713407  0.85958363  1
  O  O24  1  0.48410437  0.28286593  0.14041637  1
  O  O25  1  0.59565982  0.37886997  0.72287179  1
  O  O26  1  0.67199942  0.65229831  0.27675154  1
  O  O27  1  0.62529211  0.07361158  0.37134821  1
  O  O28  1  0.66884064  0.12873249  0.89136066  1
  O  O29  1  0.83585214  0.89272921  0.12852719  1
  O  O30  1  0.87968136  0.92349275  0.63176413  1
  O  O31  1  0.82880832  0.34572420  0.70495917  1
  O  O32  1  0.90293815  0.62331045  0.25776492  1
  O  O33  1  0.97662495  0.28597095  0.15737456  1
