# generated using pymatgen
data_PWO5
_symmetry_space_group_name_H-M   'P 1'
_cell_length_a   5.38643360
_cell_length_b   7.41760921
_cell_length_c   8.14392870
_cell_angle_alpha   90.24968254
_cell_angle_beta   41.12462806
_cell_angle_gamma   107.56797030
_symmetry_Int_Tables_number   1
_chemical_formula_structural   PWO5
_chemical_formula_sum   'P2 W2 O10'
_cell_volume   190.68445494
_cell_formula_units_Z   2
loop_
 _symmetry_equiv_pos_site_id
 _symmetry_equiv_pos_as_xyz
  1  'x, y, z'
loop_
 _atom_site_type_symbol
 _atom_site_label
 _atom_site_symmetry_multiplicity
 _atom_site_fract_x
 _atom_site_fract_y
 _atom_site_fract_z
 _atom_site_occupancy
  P  P0  1  0.48076549  0.75237142  0.85037207  1
  P  P1  1  0.51512724  0.24088036  0.15254626  1
  W  W2  1  0.49887512  0.99660840  0.50072236  1
  W  W3  1  0.49801285  0.49639808  0.50179088  1
  O  O4  1  0.33421030  0.87884549  0.81249670  1
  O  O5  1  0.13629826  0.63646598  0.15023774  1
  O  O6  1  0.47765957  0.74154348  0.44841284  1
  O  O7  1  0.56753743  0.59970345  0.70238280  1
  O  O8  1  0.42500325  0.39192855  0.30300638  1
  O  O9  1  0.88269691  0.89399777  0.74378392  1
  O  O10  1  0.11531120  0.09914351  0.25699852  1
  O  O11  1  0.52176743  0.25190354  0.55299774  1
  O  O12  1  0.86004436  0.35744314  0.85291106  1
  O  O13  1  0.66285861  0.11446682  0.18944671  1
