# generated using pymatgen
data_LiVF4
_symmetry_space_group_name_H-M   'P 1'
_cell_length_a   4.69570618
_cell_length_b   5.71591349
_cell_length_c   10.31242011
_cell_angle_alpha   90.00000000
_cell_angle_beta   90.00000000
_cell_angle_gamma   90.00000000
_symmetry_Int_Tables_number   1
_chemical_formula_structural   LiVF4
_chemical_formula_sum   'Li4 V4 F16'
_cell_volume   276.78793694
_cell_formula_units_Z   4
loop_
 _symmetry_equiv_pos_site_id
 _symmetry_equiv_pos_as_xyz
  1  'x, y, z'
loop_
 _atom_site_type_symbol
 _atom_site_label
 _atom_site_symmetry_multiplicity
 _atom_site_fract_x
 _atom_site_fract_y
 _atom_site_fract_z
 _atom_site_occupancy
  Li  Li0  1  0.00000000  0.81481783  0.25000000  1
  Li  Li1  1  0.00000000  0.18518217  0.75000000  1
  Li  Li2  1  0.50000000  0.31481783  0.25000000  1
  Li  Li3  1  0.50000000  0.68518217  0.75000000  1
  V  V4  1  0.00000000  0.50000000  0.00000000  1
  V  V5  1  0.00000000  0.50000000  0.50000000  1
  V  V6  1  0.50000000  0.00000000  0.00000000  1
  V  V7  1  0.50000000  0.00000000  0.50000000  1
  F  F8  1  0.21327335  0.51864324  0.34209004  1
  F  F9  1  0.21327335  0.48135676  0.84209004  1
  F  F10  1  0.22793709  0.77290109  0.07645011  1
  F  F11  1  0.22793709  0.22709891  0.57645011  1
  F  F12  1  0.27206291  0.27290109  0.07645011  1
  F  F13  1  0.27206291  0.72709891  0.57645011  1
  F  F14  1  0.28672665  0.01864324  0.34209004  1
  F  F15  1  0.28672665  0.98135676  0.84209004  1
  F  F16  1  0.71327335  0.01864324  0.15790996  1
  F  F17  1  0.71327335  0.98135676  0.65790996  1
  F  F18  1  0.72793709  0.27290109  0.42354989  1
  F  F19  1  0.72793709  0.72709891  0.92354989  1
  F  F20  1  0.77206291  0.22709891  0.92354989  1
  F  F21  1  0.77206291  0.77290109  0.42354989  1
  F  F22  1  0.78672665  0.51864324  0.15790996  1
  F  F23  1  0.78672665  0.48135676  0.65790996  1
