# generated using pymatgen
data_LiVF4
_symmetry_space_group_name_H-M   'P 1'
_cell_length_a   7.77505340
_cell_length_b   5.04455790
_cell_length_c   7.45481420
_cell_angle_alpha   90.00000000
_cell_angle_beta   102.04750680
_cell_angle_gamma   90.00000000
_symmetry_Int_Tables_number   1
_chemical_formula_structural   LiVF4
_chemical_formula_sum   'Li4 V4 F16'
_cell_volume   285.95060062
_cell_formula_units_Z   4
loop_
 _symmetry_equiv_pos_site_id
 _symmetry_equiv_pos_as_xyz
  1  'x, y, z'
loop_
 _atom_site_type_symbol
 _atom_site_label
 _atom_site_symmetry_multiplicity
 _atom_site_fract_x
 _atom_site_fract_y
 _atom_site_fract_z
 _atom_site_occupancy
  Li  Li0  1  0.37475089  0.74355301  0.64071900  1
  Li  Li1  1  0.37475089  0.75644699  0.14071900  1
  Li  Li2  1  0.62524911  0.24355301  0.85928100  1
  Li  Li3  1  0.62524911  0.25644699  0.35928100  1
  V  V4  1  0.18290784  0.25446335  0.80893404  1
  V  V5  1  0.18290784  0.24553665  0.30893404  1
  V  V6  1  0.81709216  0.75446335  0.69106596  1
  V  V7  1  0.81709216  0.74553665  0.19106596  1
  F  F8  1  0.04216043  0.94423090  0.69486894  1
  F  F9  1  0.04216043  0.55576910  0.19486894  1
  F  F10  1  0.19332373  0.40883882  0.55963757  1
  F  F11  1  0.31370385  0.56212784  0.90647228  1
  F  F12  1  0.19332373  0.09116118  0.05963757  1
  F  F13  1  0.31370385  0.93787216  0.40647328  1
  F  F14  1  0.39841099  0.06361951  0.80012660  1
  F  F15  1  0.39841099  0.43638049  0.30012660  1
  F  F16  1  0.60158901  0.56361951  0.69987340  1
  F  F17  1  0.60158901  0.93638049  0.19987340  1
  F  F18  1  0.68629615  0.06212784  0.59352772  1
  F  F19  1  0.80667627  0.90883882  0.94036243  1
  F  F20  1  0.68629615  0.43787216  0.09352672  1
  F  F21  1  0.80667627  0.59116118  0.44036243  1
  F  F22  1  0.95783957  0.44423090  0.80513106  1
  F  F23  1  0.95783957  0.05576910  0.30513106  1
