# generated using pymatgen
data_WOF4
_symmetry_space_group_name_H-M   'P 1'
_cell_length_a   6.62488557
_cell_length_b   8.79526774
_cell_length_c   8.79526774
_cell_angle_alpha   98.15433412
_cell_angle_beta   112.12426008
_cell_angle_gamma   67.87573992
_symmetry_Int_Tables_number   1
_chemical_formula_structural   WOF4
_chemical_formula_sum   'W4 O4 F16'
_cell_volume   439.78941138
_cell_formula_units_Z   4
loop_
 _symmetry_equiv_pos_site_id
 _symmetry_equiv_pos_as_xyz
  1  'x, y, z'
loop_
 _atom_site_type_symbol
 _atom_site_label
 _atom_site_symmetry_multiplicity
 _atom_site_fract_x
 _atom_site_fract_y
 _atom_site_fract_z
 _atom_site_occupancy
  W  W0  1  0.93547737  0.27922750  0.17990403  1
  W  W1  1  0.78529513  0.17990403  0.72077250  1
  W  W2  1  0.24442666  0.82009597  0.27922750  1
  W  W3  1  0.03480084  0.72077250  0.82009597  1
  O  O4  1  0.08808401  0.05029292  0.22942030  1
  O  O5  1  0.14133629  0.77057970  0.05029292  1
  O  O6  1  0.86162307  0.22942030  0.94970708  1
  O  O7  1  0.90895663  0.94970708  0.77057970  1
  F  F8  1  0.65284012  0.26738500  0.17029133  1
  F  F9  1  0.21778617  0.29371972  0.19168121  1
  F  F10  1  0.71161559  0.12687826  0.49524679  1
  F  F11  1  0.78363221  0.50475321  0.12687826  1
  F  F12  1  0.00727016  0.32980481  0.40529926  1
  F  F13  1  0.39802910  0.59470074  0.32980481  1
  F  F14  1  0.48849511  0.19168121  0.70628028  1
  F  F15  1  0.07977488  0.17029133  0.73261500  1
  F  F16  1  0.51745121  0.82970867  0.26738500  1
  F  F17  1  0.97389504  0.80831879  0.29371972  1
  F  F18  1  0.66292404  0.40529926  0.67019519  1
  F  F19  1  0.93177670  0.67019519  0.59470074  1
  F  F20  1  0.16150615  0.49524679  0.87312174  1
  F  F21  1  0.34324706  0.87312174  0.50475321  1
  F  F22  1  0.31982368  0.70628028  0.80831879  1
  F  F23  1  0.74993279  0.73261500  0.82970867  1
