# generated using pymatgen
data_V3FeCu2(PO4)6
_symmetry_space_group_name_H-M   'P 1'
_cell_length_a   8.56377859
_cell_length_b   8.58861424
_cell_length_c   8.58861426
_cell_angle_alpha   60.00000110
_cell_angle_beta   59.90402151
_cell_angle_gamma   59.90402151
_symmetry_Int_Tables_number   1
_chemical_formula_structural   V3FeCu2(PO4)6
_chemical_formula_sum   'V3 Fe1 Cu2 P6 O24'
_cell_volume   446.03102417
_cell_formula_units_Z   1
loop_
 _symmetry_equiv_pos_site_id
 _symmetry_equiv_pos_as_xyz
  1  'x, y, z'
loop_
 _atom_site_type_symbol
 _atom_site_label
 _atom_site_symmetry_multiplicity
 _atom_site_fract_x
 _atom_site_fract_y
 _atom_site_fract_z
 _atom_site_occupancy
  V  V0  1  0.07131676  0.64289408  0.64289408  1
  V  V1  1  0.42677639  0.85774087  0.85774087  1
  V  V2  1  0.92801232  0.35732923  0.35732923  1
  Fe  Fe3  1  0.57128214  0.14290595  0.14290595  1
  Cu  Cu4  1  0.99611081  0.00129673  0.00129673  1
  Cu  Cu5  1  0.49876650  0.50041083  0.50041083  1
  P  P6  1  0.25082123  0.24980148  0.54036945  1
  P  P7  1  0.25082123  0.95900684  0.24980148  1
  P  P8  1  0.25082123  0.54036945  0.95900684  1
  P  P9  1  0.75110583  0.45881962  0.03995709  1
  P  P10  1  0.75110583  0.03995709  0.75011646  1
  P  P11  1  0.75110583  0.75011646  0.45881962  1
  O  O12  1  0.06710035  0.12334704  0.30500647  1
  O  O13  1  0.06710035  0.50454615  0.12334704  1
  O  O14  1  0.06710035  0.30500647  0.50454615  1
  O  O15  1  0.23913519  0.08292382  0.73541693  1
  O  O16  1  0.43217756  0.19650054  0.38089969  1
  O  O17  1  0.25521959  0.41763044  0.56165325  1
  O  O18  1  0.23913519  0.94252406  0.08292382  1
  O  O19  1  0.25521959  0.76549671  0.41763044  1
  O  O20  1  0.56745650  0.62277433  0.00420113  1
  O  O21  1  0.25521959  0.56165325  0.76549671  1
  O  O22  1  0.76650310  0.26677155  0.05344795  1
  O  O23  1  0.56745650  0.00420113  0.80556805  1
  O  O24  1  0.43217756  0.99042220  0.19650054  1
  O  O25  1  0.23913519  0.73541693  0.94252406  1
  O  O26  1  0.74056267  0.44452763  0.23332488  1
  O  O27  1  0.43217756  0.38089969  0.99042220  1
  O  O28  1  0.74056267  0.23332488  0.58158482  1
  O  O29  1  0.76650310  0.05344795  0.91327739  1
  O  O30  1  0.74056267  0.58158482  0.44452763  1
  O  O31  1  0.56745650  0.80556805  0.62277433  1
  O  O32  1  0.76650310  0.91327739  0.26677155  1
  O  O33  1  0.93249568  0.68993528  0.49990103  1
  O  O34  1  0.93249568  0.49990103  0.87766801  1
  O  O35  1  0.93249568  0.87766801  0.68993528  1
