# generated using pymatgen
data_Li4VFe3O8
_symmetry_space_group_name_H-M   'P 1'
_cell_length_a   5.96706026
_cell_length_b   5.96616740
_cell_length_c   8.47251015
_cell_angle_alpha   134.97850443
_cell_angle_beta   89.97931412
_cell_angle_gamma   119.86706067
_symmetry_Int_Tables_number   1
_chemical_formula_structural   Li4VFe3O8
_chemical_formula_sum   'Li4 V1 Fe3 O8'
_cell_volume   151.60568131
_cell_formula_units_Z   1
loop_
 _symmetry_equiv_pos_site_id
 _symmetry_equiv_pos_as_xyz
  1  'x, y, z'
loop_
 _atom_site_type_symbol
 _atom_site_label
 _atom_site_symmetry_multiplicity
 _atom_site_fract_x
 _atom_site_fract_y
 _atom_site_fract_z
 _atom_site_occupancy
  Li  Li0  1  0.49644337  0.50589524  0.50217980  1
  Li  Li1  1  0.00009897  0.00061473  0.50059655  1
  Li  Li2  1  0.99175115  0.49566689  0.49876606  1
  Li  Li3  1  0.49916604  0.00083474  0.50057223  1
  V  V4  1  0.99957547  0.00087392  0.00050113  1
  Fe  Fe5  1  0.49976377  0.00111692  0.00074319  1
  Fe  Fe6  1  0.49960192  0.49978367  0.99984497  1
  Fe  Fe7  1  0.00097304  0.50245619  0.00150448  1
  O  O8  1  0.01281034  0.52929496  0.77102685  1
  O  O9  1  0.51702006  0.03338698  0.77487654  1
  O  O10  1  0.01250670  0.02596832  0.76987461  1
  O  O11  1  0.51433398  0.52768421  0.76996729  1
  O  O12  1  0.48366795  0.96896885  0.22658083  1
  O  O13  1  0.98699254  0.47303770  0.23059129  1
  O  O14  1  0.48510050  0.47419376  0.23101624  1
  O  O15  1  0.98697721  0.97626893  0.23141296  1
