# generated using pymatgen
data_V3CrNi2(PO4)6
_symmetry_space_group_name_H-M   'P 1'
_cell_length_a   8.46686343
_cell_length_b   8.59776604
_cell_length_c   8.59776602
_cell_angle_alpha   60.00000081
_cell_angle_beta   59.48723662
_cell_angle_gamma   59.48723363
_symmetry_Int_Tables_number   1
_chemical_formula_structural   V3CrNi2(PO4)6
_chemical_formula_sum   'V3 Cr1 Ni2 P6 O24'
_cell_volume   439.10561252
_cell_formula_units_Z   1
loop_
 _symmetry_equiv_pos_site_id
 _symmetry_equiv_pos_as_xyz
  1  'x, y, z'
loop_
 _atom_site_type_symbol
 _atom_site_label
 _atom_site_symmetry_multiplicity
 _atom_site_fract_x
 _atom_site_fract_y
 _atom_site_fract_z
 _atom_site_occupancy
  V  V0  1  0.07223368  0.64258911  0.64258911  1
  V  V1  1  0.42670702  0.85776399  0.85776399  1
  V  V2  1  0.92525355  0.35824848  0.35824848  1
  Cr  Cr3  1  0.57671112  0.14109629  0.14109629  1
  Ni  Ni4  1  -0.00025979  0.00008660  0.00008660  1
  Ni  Ni5  1  0.49816989  0.50060970  0.50060970  1
  P  P6  1  0.25207973  0.24926404  0.54234015  1
  P  P7  1  0.25207973  0.95631507  0.24926404  1
  P  P8  1  0.25207973  0.54234015  0.95631507  1
  P  P9  1  0.74806775  0.45738062  0.04381742  1
  P  P10  1  0.74806775  0.04381742  0.75073421  1
  P  P11  1  0.74806775  0.75073421  0.45738062  1
  O  O12  1  0.06690292  0.11091774  0.31583342  1
  O  O13  1  0.06690292  0.50634491  0.11091774  1
  O  O14  1  0.06690292  0.31583342  0.50634491  1
  O  O15  1  0.23201025  0.08605542  0.74245427  1
  O  O16  1  0.43789152  0.18514476  0.38690887  1
  O  O17  1  0.26892487  0.41181097  0.56381240  1
  O  O18  1  0.23201025  0.93948006  0.08605542  1
  O  O19  1  0.26892487  0.75545176  0.41181097  1
  O  O20  1  0.56426051  0.61795576  -0.00055807  1
  O  O21  1  0.26892487  0.56381240  0.75545176  1
  O  O22  1  0.77766781  0.25985457  0.05270480  1
  O  O23  1  0.56426051  -0.00055807  0.81834180  1
  O  O24  1  0.43789152  0.99005485  0.18514476  1
  O  O25  1  0.23201025  0.74245427  0.93948006  1
  O  O26  1  0.71923636  0.44549979  0.24146799  1
  O  O27  1  0.43789152  0.38690887  0.99005485  1
  O  O28  1  0.71923636  0.24146799  0.59379586  1
  O  O29  1  0.77766781  0.05270480  0.90977382  1
  O  O30  1  0.71923636  0.59379586  0.44549979  1
  O  O31  1  0.56426051  0.81834180  0.61795576  1
  O  O32  1  0.77766781  0.90977382  0.25985457  1
  O  O33  1  0.93335144  0.68050263  0.50194041  1
  O  O34  1  0.93335144  0.50194041  0.88420552  1
  O  O35  1  0.93335144  0.88420552  0.68050263  1
