# generated using pymatgen
data_Ca3Ta2O8
_symmetry_space_group_name_H-M   'P 1'
_cell_length_a   9.75489537
_cell_length_b   9.75489537
_cell_length_c   9.75489537
_cell_angle_alpha   105.63945827
_cell_angle_beta   105.63945827
_cell_angle_gamma   117.44092878
_symmetry_Int_Tables_number   1
_chemical_formula_structural   Ca3Ta2O8
_chemical_formula_sum   'Ca12 Ta8 O32'
_cell_volume   704.06860553
_cell_formula_units_Z   4
loop_
 _symmetry_equiv_pos_site_id
 _symmetry_equiv_pos_as_xyz
  1  'x, y, z'
loop_
 _atom_site_type_symbol
 _atom_site_label
 _atom_site_symmetry_multiplicity
 _atom_site_fract_x
 _atom_site_fract_y
 _atom_site_fract_z
 _atom_site_occupancy
  Ca  Ca0  1  0.72608969  0.14885791  0.17607429  1
  Ca  Ca1  1  0.37500000  0.12500000  0.25000000  1
  Ca  Ca2  1  0.87500000  0.62500000  0.25000000  1
  Ca  Ca3  1  0.35114209  0.02721638  0.57723178  1
  Ca  Ca4  1  0.05001540  0.22608969  0.07723178  1
  Ca  Ca5  1  0.47278362  0.55001540  0.32392571  1
  Ca  Ca6  1  0.52721638  0.44998460  0.67607429  1
  Ca  Ca7  1  0.94998460  0.77391031  0.92276822  1
  Ca  Ca8  1  0.64885791  0.97278362  0.42276822  1
  Ca  Ca9  1  0.62500000  0.87500000  0.75000000  1
  Ca  Ca10  1  0.12500000  0.37500000  0.75000000  1
  Ca  Ca11  1  0.27391031  0.85114209  0.82392571  1
  Ta  Ta12  1  0.57022345  0.70594752  0.02571991  1
  Ta  Ta13  1  0.81977339  0.45549647  0.52571991  1
  Ta  Ta14  1  0.79405248  0.31977339  0.86427693  1
  Ta  Ta15  1  0.04450353  0.07022345  0.36427693  1
  Ta  Ta16  1  0.95549647  0.92977655  0.63572307  1
  Ta  Ta17  1  0.20594752  0.68022661  0.13572307  1
  Ta  Ta18  1  0.18022661  0.54450353  0.47428009  1
  Ta  Ta19  1  0.42977655  0.29405248  0.97428009  1
  O  O20  1  0.78688176  0.18713177  0.98029683  1
  O  O21  1  0.95005758  0.58728483  0.05887716  1
  O  O22  1  0.97159333  0.10881958  0.55887716  1
  O  O23  1  0.49978427  0.16957390  0.05976245  1
  O  O24  1  0.68713177  0.20683495  0.40025002  1
  O  O25  1  0.91271517  0.47159333  0.36277275  1
  O  O26  1  0.60881958  0.54994242  0.13722725  1
  O  O27  1  0.66957390  0.10981144  0.66978962  1
  O  O28  1  0.05997818  0.00021573  0.16978962  1
  O  O29  1  0.30658493  0.28688176  0.09974998  1
  O  O30  1  0.60981144  0.44002082  0.44023755  1
  O  O31  1  0.80817903  0.45726118  0.72547104  1
  O  O32  1  0.76820986  0.91729201  0.22547104  1
  O  O33  1  0.29316505  0.19341507  0.48029683  1
  O  O34  1  0.41729201  0.69182097  0.14908215  1
  O  O35  1  0.95726118  0.73179014  0.64908215  1
  O  O36  1  0.04273882  0.26820986  0.35091785  1
  O  O37  1  0.58270799  0.30817903  0.85091785  1
  O  O38  1  0.70683495  0.80658493  0.51970317  1
  O  O39  1  0.19182097  0.54273882  0.27452896  1
  O  O40  1  0.23179014  0.08270799  0.77452896  1
  O  O41  1  0.39018856  0.55997918  0.55976245  1
  O  O42  1  0.69341507  0.71311824  0.90025002  1
  O  O43  1  0.33042610  0.89018856  0.33021038  1
  O  O44  1  0.94002082  0.99978427  0.83021038  1
  O  O45  1  0.39118042  0.45005758  0.86277275  1
  O  O46  1  0.08728483  0.52840667  0.63722725  1
  O  O47  1  0.31286823  0.79316505  0.59974998  1
  O  O48  1  0.50021573  0.83042610  0.94023755  1
  O  O49  1  0.02840667  0.89118042  0.44112284  1
  O  O50  1  0.04994242  0.41271517  0.94112284  1
  O  O51  1  0.21311824  0.81286823  0.01970317  1
