# generated using pymatgen
data_Li5Fe(Ni2O5)2
_symmetry_space_group_name_H-M   'P 1'
_cell_length_a   2.90746623
_cell_length_b   2.90746631
_cell_length_c   24.02484024
_cell_angle_alpha   86.53093754
_cell_angle_beta   90.00000000
_cell_angle_gamma   60.00000084
_symmetry_Int_Tables_number   1
_chemical_formula_structural   Li5Fe(Ni2O5)2
_chemical_formula_sum   'Li5 Fe1 Ni4 O10'
_cell_volume   175.45180163
_cell_formula_units_Z   1
loop_
 _symmetry_equiv_pos_site_id
 _symmetry_equiv_pos_as_xyz
  1  'x, y, z'
loop_
 _atom_site_type_symbol
 _atom_site_label
 _atom_site_symmetry_multiplicity
 _atom_site_fract_x
 _atom_site_fract_y
 _atom_site_fract_z
 _atom_site_occupancy
  Li  Li0  1  0.10061969  0.79876162  0.30185808  1
  Li  Li1  1  0.50009808  0.99980385  0.50029423  1
  Li  Li2  1  0.29990192  0.40019615  0.89970577  1
  Li  Li3  1  0.69938031  0.60123838  0.09814192  1
  Li  Li4  1  0.90000000  0.20000000  0.70000000  1
  Fe  Fe5  1  0.40000000  0.20000000  0.20000000  1
  Ni  Ni6  1  0.99960430  0.00079040  0.99881390  1
  Ni  Ni7  1  0.20001082  0.59997836  0.60003245  1
  Ni  Ni8  1  0.59998918  0.80002164  0.79996755  1
  Ni  Ni9  1  0.80039570  0.39920960  0.40118610  1
  O  O10  1  0.25160539  0.49678821  0.75481718  1
  O  O11  1  0.45222308  0.09555384  0.35666824  1
  O  O12  1  0.05086245  0.89827511  0.15258734  1
  O  O13  1  0.14884228  0.70231644  0.44652584  1
  O  O14  1  0.34777692  0.30444616  0.04333176  1
  O  O15  1  0.65115772  0.69768356  0.95347416  1
  O  O16  1  0.85164205  0.29671590  0.55492615  1
  O  O17  1  0.94835795  0.10328410  0.84507385  1
  O  O18  1  0.74913755  0.50172489  0.24741266  1
  O  O19  1  0.54839461  0.90321179  0.64518282  1
