# generated using pymatgen
data_Y2GeO5
_symmetry_space_group_name_H-M   'P 1'
_cell_length_a   10.36176926
_cell_length_b   3.72970300
_cell_length_c   11.14398957
_cell_angle_alpha   90.00000000
_cell_angle_beta   90.00000000
_cell_angle_gamma   90.00000000
_symmetry_Int_Tables_number   1
_chemical_formula_structural   Y2GeO5
_chemical_formula_sum   'Y8 Ge4 O20'
_cell_volume   430.67420811
_cell_formula_units_Z   4
loop_
 _symmetry_equiv_pos_site_id
 _symmetry_equiv_pos_as_xyz
  1  'x, y, z'
loop_
 _atom_site_type_symbol
 _atom_site_label
 _atom_site_symmetry_multiplicity
 _atom_site_fract_x
 _atom_site_fract_y
 _atom_site_fract_z
 _atom_site_occupancy
  Y  Y0  1  0.11012146  0.25000000  0.22322949  1
  Y  Y1  1  0.13580998  0.25000000  0.55717651  1
  Y  Y2  1  0.36419002  0.75000000  0.05717651  1
  Y  Y3  1  0.38987854  0.75000000  0.72322949  1
  Y  Y4  1  0.61012146  0.25000000  0.27677051  1
  Y  Y5  1  0.63580998  0.25000000  0.94282349  1
  Y  Y6  1  0.86419002  0.75000000  0.44282349  1
  Y  Y7  1  0.88987854  0.75000000  0.77677051  1
  Ge  Ge8  1  0.17460714  0.25000000  0.88091035  1
  Ge  Ge9  1  0.32539286  0.75000000  0.38091035  1
  Ge  Ge10  1  0.67460714  0.25000000  0.61908965  1
  Ge  Ge11  1  0.82539286  0.75000000  0.11908965  1
  O  O12  1  0.00724711  0.75000000  0.60352664  1
  O  O13  1  0.00926151  0.25000000  0.84203046  1
  O  O14  1  0.22277663  0.25000000  0.03870006  1
  O  O15  1  0.23101138  0.75000000  0.88392491  1
  O  O16  1  0.24195704  0.75000000  0.23396040  1
  O  O17  1  0.25804296  0.25000000  0.73396040  1
  O  O18  1  0.26898862  0.25000000  0.38392491  1
  O  O19  1  0.27722337  0.75000000  0.53870006  1
  O  O20  1  0.49073849  0.75000000  0.34203046  1
  O  O21  1  0.49275289  0.25000000  0.10352664  1
  O  O22  1  0.50724711  0.75000000  0.89647336  1
  O  O23  1  0.50926151  0.25000000  0.65796954  1
  O  O24  1  0.72277663  0.25000000  0.46129994  1
  O  O25  1  0.73101138  0.75000000  0.61607509  1
  O  O26  1  0.74195704  0.75000000  0.26603960  1
  O  O27  1  0.75804296  0.25000000  0.76603960  1
  O  O28  1  0.76898862  0.25000000  0.11607509  1
  O  O29  1  0.77722337  0.75000000  0.96129994  1
  O  O30  1  0.99073849  0.75000000  0.15796954  1
  O  O31  1  0.99275289  0.25000000  0.39647336  1
