# generated using pymatgen
data_Sn2(SO4)3
_symmetry_space_group_name_H-M   'P 1'
_cell_length_a   8.72457698
_cell_length_b   12.63207720
_cell_length_c   9.28731516
_cell_angle_alpha   90.00000000
_cell_angle_beta   90.00000000
_cell_angle_gamma   90.35115127
_symmetry_Int_Tables_number   1
_chemical_formula_structural   Sn2(SO4)3
_chemical_formula_sum   'Sn8 S12 O48'
_cell_volume   1023.53141532
_cell_formula_units_Z   4
loop_
 _symmetry_equiv_pos_site_id
 _symmetry_equiv_pos_as_xyz
  1  'x, y, z'
loop_
 _atom_site_type_symbol
 _atom_site_label
 _atom_site_symmetry_multiplicity
 _atom_site_fract_x
 _atom_site_fract_y
 _atom_site_fract_z
 _atom_site_occupancy
  Sn  Sn0  1  0.25367731  0.89059608  0.03425358  1
  Sn  Sn1  1  0.24632269  0.60940392  0.53425358  1
  Sn  Sn2  1  0.25625304  0.38143763  0.97154252  1
  Sn  Sn3  1  0.24374696  0.11856237  0.47154252  1
  Sn  Sn4  1  0.75625304  0.88143763  0.52845748  1
  Sn  Sn5  1  0.74374696  0.61856237  0.02845748  1
  Sn  Sn6  1  0.75367731  0.39059608  0.46574642  1
  Sn  Sn7  1  0.74632269  0.10940392  0.96574642  1
  S  S8  1  0.04768585  0.48612456  0.26543969  1
  S  S9  1  0.11384324  0.82592353  0.36388205  1
  S  S10  1  0.10024362  0.13917900  0.10148408  1
  S  S11  1  0.38615676  0.67407647  0.86388205  1
  S  S12  1  0.39975638  0.36082100  0.60148408  1
  S  S13  1  0.45231415  0.01387544  0.76543969  1
  S  S14  1  0.54768585  0.98612456  0.23456031  1
  S  S15  1  0.60024362  0.63917900  0.39851592  1
  S  S16  1  0.61384324  0.32592353  0.13611795  1
  S  S17  1  0.89975638  0.86082100  0.89851592  1
  S  S18  1  0.88615676  0.17407647  0.63611795  1
  S  S19  1  0.95231415  0.51387544  0.73456031  1
  O  O20  1  0.03265019  0.45884131  0.85018008  1
  O  O21  1  0.06003617  0.90980030  0.90382070  1
  O  O22  1  0.05499519  0.59900422  0.66869678  1
  O  O23  1  0.03943494  0.21641099  0.60913225  1
  O  O24  1  0.08540881  0.56794513  0.37930850  1
  O  O25  1  0.15141016  0.80861682  0.20457050  1
  O  O26  1  0.13232471  0.93729818  0.40168747  1
  O  O27  1  0.11679276  0.21656460  0.98468933  1
  O  O28  1  0.12585172  0.18361612  0.24449659  1
  O  O29  1  0.18736172  0.43266986  0.21866012  1
  O  O30  1  0.23259385  0.76288145  0.44955354  1
  O  O31  1  0.26740615  0.73711855  0.94955354  1
  O  O32  1  0.21410847  0.05035593  0.07926056  1
  O  O33  1  0.28589153  0.44964407  0.57926056  1
  O  O34  1  0.31263828  0.06733014  0.71866012  1
  O  O35  1  0.37414828  0.31638388  0.74449659  1
  O  O36  1  0.36767529  0.56270182  0.90168747  1
  O  O37  1  0.38320724  0.28343540  0.48468933  1
  O  O38  1  0.34858984  0.69138318  0.70457050  1
  O  O39  1  0.41459119  0.93205487  0.87930850  1
  O  O40  1  0.44500481  0.90099578  0.16869678  1
  O  O41  1  0.43996383  0.59019970  0.40382070  1
  O  O42  1  0.46056506  0.28358901  0.10913225  1
  O  O43  1  0.46734981  0.04115869  0.35018008  1
  O  O44  1  0.53265019  0.95884131  0.64981992  1
  O  O45  1  0.53943494  0.71641099  0.89086775  1
  O  O46  1  0.56003617  0.40980030  0.59617930  1
  O  O47  1  0.55499519  0.09900422  0.83130322  1
  O  O48  1  0.58540881  0.06794513  0.12069150  1
  O  O49  1  0.65141016  0.30861682  0.29542950  1
  O  O50  1  0.61679276  0.71656460  0.51531067  1
  O  O51  1  0.63232471  0.43729818  0.09831253  1
  O  O52  1  0.62585172  0.68361612  0.25550341  1
  O  O53  1  0.68736172  0.93266986  0.28133988  1
  O  O54  1  0.71410847  0.55035593  0.42073944  1
  O  O55  1  0.78589153  0.94964407  0.92073944  1
  O  O56  1  0.73259385  0.26288145  0.05044646  1
  O  O57  1  0.76740615  0.23711855  0.55044646  1
  O  O58  1  0.81263828  0.56733014  0.78133988  1
  O  O59  1  0.87414828  0.81638388  0.75550341  1
  O  O60  1  0.88320724  0.78343540  0.01531067  1
  O  O61  1  0.86767529  0.06270182  0.59831253  1
  O  O62  1  0.84858984  0.19138318  0.79542950  1
  O  O63  1  0.91459119  0.43205487  0.62069150  1
  O  O64  1  0.96056506  0.78358901  0.39086775  1
  O  O65  1  0.94500481  0.40099578  0.33130322  1
  O  O66  1  0.93996383  0.09019970  0.09617930  1
  O  O67  1  0.96734981  0.54115869  0.14981992  1
