# generated using pymatgen
data_Na2MnPCO7
_symmetry_space_group_name_H-M   'P 1'
_cell_length_a   8.55763566
_cell_length_b   8.46700073
_cell_length_c   10.40545075
_cell_angle_alpha   71.34708485
_cell_angle_beta   108.20935074
_cell_angle_gamma   74.94144970
_symmetry_Int_Tables_number   1
_chemical_formula_structural   Na2MnPCO7
_chemical_formula_sum   'Na8 Mn4 P4 C4 O28'
_cell_volume   622.01085110
_cell_formula_units_Z   4
loop_
 _symmetry_equiv_pos_site_id
 _symmetry_equiv_pos_as_xyz
  1  'x, y, z'
loop_
 _atom_site_type_symbol
 _atom_site_label
 _atom_site_symmetry_multiplicity
 _atom_site_fract_x
 _atom_site_fract_y
 _atom_site_fract_z
 _atom_site_occupancy
  Na  Na0  1  0.00412105  0.00297511  0.75970481  1
  Na  Na1  1  0.50301124  0.51363674  0.74208097  1
  Na  Na2  1  0.23801654  0.24312382  0.74253639  1
  Na  Na3  1  0.74951225  0.74362529  0.76228448  1
  Na  Na4  1  0.24008143  0.26644759  0.24892072  1
  Na  Na5  1  0.49374948  0.50695913  0.24510283  1
  Na  Na6  1  0.00407250  0.97647420  0.25157998  1
  Na  Na7  1  0.53536884  0.20232199  0.08535831  1
  Mn  Mn8  1  0.58860931  0.16228485  0.64874829  1
  Mn  Mn9  1  0.08750210  0.66111785  0.64514624  1
  Mn  Mn10  1  0.90539457  0.35438442  0.34685527  1
  Mn  Mn11  1  0.41435953  0.84212289  0.35003289  1
  P  P12  1  0.77068969  0.47996856  0.57947354  1
  P  P13  1  0.26563110  0.98284103  0.57697545  1
  P  P14  1  0.73173253  0.02004622  0.42166802  1
  P  P15  1  0.23534995  0.51714418  0.41864898  1
  C  C16  1  0.70004972  0.05168214  0.92840180  1
  C  C17  1  0.20711022  0.54247195  0.92861482  1
  C  C18  1  0.79278767  0.45182532  0.07229674  1
  C  C19  1  0.29517536  0.95507918  0.07207614  1
  O  O20  1  0.22667132  0.02633822  0.93108378  1
  O  O21  1  0.72863590  0.51057522  0.93209125  1
  O  O22  1  0.27481305  0.47217649  0.85015162  1
  O  O23  1  0.76996358  0.97647079  0.85445534  1
  O  O24  1  0.54958870  0.19691473  0.83842519  1
  O  O25  1  0.06167053  0.68803713  0.84717304  1
  O  O26  1  0.94524174  0.49378202  0.66842297  1
  O  O27  1  0.75904707  0.30638840  0.67729254  1
  O  O28  1  0.43935027  0.99469976  0.66914831  1
  O  O29  1  0.25494867  0.80483249  0.66959280  1
  O  O30  1  0.74228485  0.01067273  0.57599754  1
  O  O31  1  0.09823012  0.14948763  0.54487556  1
  O  O32  1  0.60498246  0.64941155  0.54675483  1
  O  O33  1  0.24219652  0.50450871  0.57276948  1
  O  O34  1  0.75809537  0.48276608  0.42739609  1
  O  O35  1  0.90134816  0.85477994  0.45650504  1
  O  O36  1  0.40957816  0.35232214  0.45337088  1
  O  O37  1  0.25860956  0.99136956  0.42390591  1
  O  O38  1  0.55590359  0.01271030  0.32804452  1
  O  O39  1  0.73717612  0.19553093  0.32089861  1
  O  O40  1  0.07393655  0.49252230  0.32589951  1
  O  O41  1  0.24598386  0.69435305  0.32889028  1
  O  O42  1  0.94073169  0.30663925  0.16736981  1
  O  O43  1  0.43697901  0.80678228  0.16088319  1
  O  O44  1  0.71594383  0.52926809  0.14036717  1
  O  O45  1  0.22756604  0.03274100  0.14684008  1
  O  O46  1  0.76912386  0.99287333  0.06772814  1
  O  O47  1  0.28823633  0.46325041  0.07043386  1
