# generated using pymatgen
data_Na2MnPCO7
_symmetry_space_group_name_H-M   'P 1'
_cell_length_a   17.90277832
_cell_length_b   6.67627577
_cell_length_c   5.19453462
_cell_angle_alpha   89.86479649
_cell_angle_beta   88.78743983
_cell_angle_gamma   90.61614590
_symmetry_Int_Tables_number   1
_chemical_formula_structural   Na2MnPCO7
_chemical_formula_sum   'Na8 Mn4 P4 C4 O28'
_cell_volume   620.69395630
_cell_formula_units_Z   4
loop_
 _symmetry_equiv_pos_site_id
 _symmetry_equiv_pos_as_xyz
  1  'x, y, z'
loop_
 _atom_site_type_symbol
 _atom_site_label
 _atom_site_symmetry_multiplicity
 _atom_site_fract_x
 _atom_site_fract_y
 _atom_site_fract_z
 _atom_site_occupancy
  Na  Na0  1  0.12502937  0.00959602  0.24497258  1
  Na  Na1  1  0.12479864  0.48625304  0.24760663  1
  Na  Na2  1  0.38060262  0.50815481  0.75563260  1
  Na  Na3  1  0.38084351  0.99258418  0.75839387  1
  Na  Na4  1  0.62160388  0.00839815  0.24533825  1
  Na  Na5  1  0.62184711  0.49183492  0.24574667  1
  Na  Na6  1  0.87190908  0.99418183  0.75090197  1
  Na  Na7  1  0.95613716  0.72706042  0.23018364  1
  Mn  Mn8  1  0.17788809  0.74798362  0.77722518  1
  Mn  Mn9  1  0.32414085  0.25079174  0.22063488  1
  Mn  Mn10  1  0.67602779  0.75199497  0.77910907  1
  Mn  Mn11  1  0.82738625  0.26153047  0.21284171  1
  P  P12  1  0.21201808  0.24911681  0.70531807  1
  P  P13  1  0.28972614  0.75000263  0.29540137  1
  P  P14  1  0.71231404  0.25126576  0.71313362  1
  P  P15  1  0.78845515  0.75282141  0.29542611  1
  C  C16  1  0.03382237  0.75272140  0.72403555  1
  C  C17  1  0.46280426  0.25054244  0.27370163  1
  C  C18  1  0.53824188  0.74921638  0.72808849  1
  C  C19  1  0.96248449  0.24650083  0.26726952  1
  O  O20  1  0.03252650  0.24352928  0.28668320  1
  O  O21  1  0.07235068  0.74724934  0.94074662  1
  O  O22  1  0.07420182  0.74698512  0.51242900  1
  O  O23  1  0.16567810  0.05896290  0.77540142  1
  O  O24  1  0.16597704  0.43703292  0.77500364  1
  O  O25  1  0.22666740  0.24949173  0.40327245  1
  O  O26  1  0.21183461  0.74873801  0.16945576  1
  O  O27  1  0.28836116  0.25029142  0.83891567  1
  O  O28  1  0.27681755  0.75001204  0.59914647  1
  O  O29  1  0.33493679  0.56278222  0.22073321  1
  O  O30  1  0.33520786  0.93925050  0.21950929  1
  O  O31  1  0.41880292  0.25097697  0.47698436  1
  O  O32  1  0.42476288  0.25229452  0.05551602  1
  O  O33  1  0.46825318  0.75161155  0.72288328  1
  O  O34  1  0.53239265  0.24859178  0.27395225  1
  O  O35  1  0.57511329  0.74761465  0.94735544  1
  O  O36  1  0.58252729  0.74839535  0.52544280  1
  O  O37  1  0.66307624  0.06453163  0.77310594  1
  O  O38  1  0.66630476  0.43929207  0.77718388  1
  O  O39  1  0.73242910  0.25110271  0.41569917  1
  O  O40  1  0.71382375  0.75254214  0.15149303  1
  O  O41  1  0.78561326  0.24381362  0.86516777  1
  O  O42  1  0.76901628  0.76443330  0.59068669  1
  O  O43  1  0.83633528  0.56798561  0.23712698  1
  O  O44  1  0.83969989  0.93471116  0.22506643  1
  O  O45  1  0.91506883  0.24755288  0.46256362  1
  O  O46  1  0.92890456  0.25299511  0.04393192  1
  O  O47  1  0.96359657  0.76257562  0.73073232  1
