# generated using pymatgen
data_Na2LiTi3Al(PO4)6
_symmetry_space_group_name_H-M   'P 1'
_cell_length_a   8.57556570
_cell_length_b   8.82680724
_cell_length_c   8.60115092
_cell_angle_alpha   119.21801364
_cell_angle_beta   59.81702825
_cell_angle_gamma   119.44849060
_symmetry_Int_Tables_number   1
_chemical_formula_structural   Na2LiTi3Al(PO4)6
_chemical_formula_sum   'Na2 Li1 Ti3 Al1 P6 O24'
_cell_volume   464.29349911
_cell_formula_units_Z   1
loop_
 _symmetry_equiv_pos_site_id
 _symmetry_equiv_pos_as_xyz
  1  'x, y, z'
loop_
 _atom_site_type_symbol
 _atom_site_label
 _atom_site_symmetry_multiplicity
 _atom_site_fract_x
 _atom_site_fract_y
 _atom_site_fract_z
 _atom_site_occupancy
  Na  Na0  1  0.01438904  0.00145437  0.98935435  1
  Na  Na1  1  0.48772648  0.50291959  0.50316964  1
  Li  Li2  1  0.75782936  0.25617493  0.34607628  1
  Ti  Ti3  1  0.34802514  0.06136736  0.35255329  1
  Ti  Ti4  1  0.85651997  0.57104455  0.85674449  1
  Ti  Ti5  1  0.64189607  0.93134325  0.64246849  1
  Al  Al6  1  0.15051656  0.43710662  0.13953901  1
  P  P7  1  0.03691969  0.25278660  0.45741757  1
  P  P8  1  0.45856497  0.25246805  0.75438808  1
  P  P9  1  0.75667672  0.25195243  0.03354936  1
  P  P10  1  0.24874466  0.74276389  0.96213771  1
  P  P11  1  0.53297717  0.74828537  0.24857427  1
  P  P12  1  0.95894487  0.73908235  0.52979106  1
  O  O13  1  0.04513980  0.26453826  0.27977809  1
  O  O14  1  0.22261049  0.23783662  0.42837957  1
  O  O15  1  0.00675191  0.42454816  0.62997101  1
  O  O16  1  0.49105040  0.07810901  0.71770051  1
  O  O17  1  0.27507103  0.26769199  0.92403264  1
  O  O18  1  0.45305650  0.24085214  0.57023236  1
  O  O19  1  0.71894804  0.07923483  0.86443048  1
  O  O20  1  0.58627992  0.23924978  0.22349307  1
  O  O21  1  0.21225870  0.57376592  0.99645971  1
  O  O22  1  0.07800583  0.73784147  0.94028691  1
  O  O23  1  0.86525051  0.07839248  0.49226570  1
  O  O24  1  0.36171041  0.57936780  0.21489848  1
  O  O25  1  0.63402926  0.42372466  0.78512923  1
  O  O26  1  0.13221694  0.91469808  0.49507934  1
  O  O27  1  0.92421737  0.26565708  0.06757217  1
  O  O28  1  0.78724472  0.42274568  0.00203176  1
  O  O29  1  0.42338352  0.76107618  0.77886111  1
  O  O30  1  0.28837459  0.92073419  0.13038827  1
  O  O31  1  0.55811458  0.76259601  0.42236412  1
  O  O32  1  0.72059558  0.73829021  0.07661440  1
  O  O33  1  0.51304078  0.93050919  0.28670407  1
  O  O34  1  0.98529475  0.56398305  0.36485841  1
  O  O35  1  0.77699991  0.75911459  0.55679827  1
  O  O36  1  0.94062174  0.73669226  0.71690871  1
