# generated using pymatgen
data_Na5(WO3)7
_symmetry_space_group_name_H-M   'P 1'
_cell_length_a   11.81108604
_cell_length_b   6.79838363
_cell_length_c   5.64452338
_cell_angle_alpha   90.00000000
_cell_angle_beta   76.17540615
_cell_angle_gamma   100.98515572
_symmetry_Int_Tables_number   1
_chemical_formula_structural   Na5(WO3)7
_chemical_formula_sum   'Na5 W7 O21'
_cell_volume   431.54753662
_cell_formula_units_Z   1
loop_
 _symmetry_equiv_pos_site_id
 _symmetry_equiv_pos_as_xyz
  1  'x, y, z'
loop_
 _atom_site_type_symbol
 _atom_site_label
 _atom_site_symmetry_multiplicity
 _atom_site_fract_x
 _atom_site_fract_y
 _atom_site_fract_z
 _atom_site_occupancy
  Na  Na0  1  0.85643880  0.28298035  0.57178110  1
  Na  Na1  1  0.43025472  0.14215182  0.28487314  1
  Na  Na2  1  0.28571400  0.42857100  0.85714300  1
  Na  Na3  1  0.71499020  0.57416265  0.14250490  1
  Na  Na4  1  0.14117428  0.71499118  0.42941286  1
  W  W5  1  0.57387488  0.35616968  0.71306256  1
  W  W6  1  0.71439206  0.06797577  0.14280397  1
  W  W7  1  0.85703594  0.78916723  0.57148203  1
  W  W8  1  0.28571400  0.92857100  0.85714300  1
  W  W9  1  0.43104872  0.64395730  0.28447564  1
  W  W10  1  0.14037928  0.21318570  0.42981036  1
  W  W11  1  0.99755312  0.50097332  0.00122344  1
  O  O12  1  0.64473025  0.21456540  0.93341240  1
  O  O13  1  0.92669875  0.64257760  0.78087360  1
  O  O14  1  0.71152854  0.56401909  0.64423573  1
  O  O15  1  0.85990046  0.29312291  0.07005027  1
  O  O16  1  0.78571400  0.92857100  0.85714300  1
  O  O17  1  0.92669875  0.64257760  0.29242865  1
  O  O18  1  0.64473025  0.21456540  0.42185735  1
  O  O19  1  0.42710080  0.14508012  0.78645010  1
  O  O20  1  0.21625146  0.07490521  0.63390721  1
  O  O21  1  0.78571400  0.92857100  0.35714300  1
  O  O22  1  0.49588287  0.49536151  0.49276628  1
  O  O23  1  0.35517754  0.78223779  0.56444366  1
  O  O24  1  0.21625146  0.07490521  0.14984234  1
  O  O25  1  0.14432820  0.71206288  0.92783590  1
  O  O26  1  0.00328851  0.00712228  0.49835625  1
  O  O27  1  0.28571400  0.42857100  0.35714300  1
  O  O28  1  0.49588287  0.49536151  0.01135085  1
  O  O29  1  0.07554613  0.36178149  0.70293415  1
  O  O30  1  0.56814049  0.85002072  0.21592975  1
  O  O31  1  0.35517754  0.78223779  0.08037879  1
  O  O32  1  0.07554613  0.36178149  0.22151972  1
