# generated using pymatgen
data_LiVCrP2(O4F)2
_symmetry_space_group_name_H-M   'P 1'
_cell_length_a   7.93949467
_cell_length_b   6.87950588
_cell_length_c   7.35111278
_cell_angle_alpha   61.86608212
_cell_angle_beta   89.22999369
_cell_angle_gamma   92.03080070
_symmetry_Int_Tables_number   1
_chemical_formula_structural   LiVCrP2(O4F)2
_chemical_formula_sum   'Li2 V2 Cr2 P4 O16 F4'
_cell_volume   353.64680889
_cell_formula_units_Z   2
loop_
 _symmetry_equiv_pos_site_id
 _symmetry_equiv_pos_as_xyz
  1  'x, y, z'
loop_
 _atom_site_type_symbol
 _atom_site_label
 _atom_site_symmetry_multiplicity
 _atom_site_fract_x
 _atom_site_fract_y
 _atom_site_fract_z
 _atom_site_occupancy
  Li  Li0  1  0.67956903  0.06820089  0.18073707  1
  Li  Li1  1  0.32043097  0.93179911  0.81926293  1
  V  V2  1  0.00000000  0.00000000  0.00000000  1
  V  V3  1  0.50000000  0.50000000  0.00000000  1
  Cr  Cr4  1  0.00000000  0.00000000  0.50000000  1
  Cr  Cr5  1  0.50000000  0.50000000  0.50000000  1
  P  P6  1  0.16037782  0.51949445  0.75561069  1
  P  P7  1  0.66199399  0.01940168  0.75879489  1
  P  P8  1  0.33800601  0.98059832  0.24120511  1
  P  P9  1  0.83962218  0.48050555  0.24438931  1
  O  O10  1  0.23490046  0.01557740  0.39747455  1
  O  O11  1  0.43691443  0.20445710  0.08861139  1
  O  O12  1  0.07020356  0.29015966  0.91356723  1
  O  O13  1  0.01897015  0.67659654  0.66120956  1
  O  O14  1  0.26516299  0.47682703  0.60365427  1
  O  O15  1  0.51342665  0.17034357  0.66581063  1
  O  O16  1  0.23165112  0.91062093  0.10401317  1
  O  O17  1  0.27564495  0.59997852  0.88139673  1
  O  O18  1  0.72435505  0.40002148  0.11860327  1
  O  O19  1  0.76834888  0.08937907  0.89598683  1
  O  O20  1  0.48657335  0.82965643  0.33418937  1
  O  O21  1  0.73483701  0.52317297  0.39634573  1
  O  O22  1  0.98102985  0.32340346  0.33879044  1
  O  O23  1  0.92979644  0.70984034  0.08643277  1
  O  O24  1  0.56308557  0.79554290  0.91138861  1
  O  O25  1  0.76509954  0.98442260  0.60252545  1
  F  F26  1  0.09417743  0.02859536  0.73708245  1
  F  F27  1  0.41580242  0.46972184  0.26140413  1
  F  F28  1  0.58419758  0.53027816  0.73859587  1
  F  F29  1  0.90582257  0.97140464  0.26291755  1
