# generated using pymatgen
data_Li9Mn2Co5O16
_symmetry_space_group_name_H-M   'P 1'
_cell_length_a   2.89929796
_cell_length_b   5.12814357
_cell_length_c   19.59354341
_cell_angle_alpha   94.80436941
_cell_angle_beta   82.55756696
_cell_angle_gamma   91.58338688
_symmetry_Int_Tables_number   1
_chemical_formula_structural   Li9Mn2Co5O16
_chemical_formula_sum   'Li9 Mn2 Co5 O16'
_cell_volume   287.80646800
_cell_formula_units_Z   1
loop_
 _symmetry_equiv_pos_site_id
 _symmetry_equiv_pos_as_xyz
  1  'x, y, z'
loop_
 _atom_site_type_symbol
 _atom_site_label
 _atom_site_symmetry_multiplicity
 _atom_site_fract_x
 _atom_site_fract_y
 _atom_site_fract_z
 _atom_site_occupancy
  Li  Li0  1  0.88340381  0.39142814  0.11495076  1
  Li  Li1  1  0.12159236  0.63193759  0.37820760  1
  Li  Li2  1  0.37276523  0.87927057  0.62615461  1
  Li  Li3  1  0.61279746  0.12444087  0.87790014  1
  Li  Li4  1  0.39473443  0.86993135  0.11715552  1
  Li  Li5  1  0.62412485  0.11913776  0.37756177  1
  Li  Li6  1  0.87531037  0.37342743  0.62665889  1
  Li  Li7  1  0.12338877  0.61102626  0.88092029  1
  Li  Li8  1  0.50000130  0.50169209  0.99973587  1
  Mn  Mn9  1  0.99949877  0.00020282  0.99978271  1
  Mn  Mn10  1  0.25120745  0.25053300  0.25017560  1
  Co  Co11  1  0.49927173  0.49994414  0.50092904  1
  Co  Co12  1  0.74844892  0.74954853  0.75020579  1
  Co  Co13  1  0.75187790  0.74987703  0.24937722  1
  Co  Co14  1  0.99766706  0.00028910  0.50018617  1
  Co  Co15  1  0.24818325  0.25002811  0.75042407  1
  O  O16  1  0.45662701  0.16917944  0.05578850  1
  O  O17  1  0.70507042  0.41796149  0.30663494  1
  O  O18  1  0.93714699  0.69472885  0.55520825  1
  O  O19  1  0.17719407  0.92384207  0.80635220  1
  O  O20  1  0.93695533  0.71553859  0.05946274  1
  O  O21  1  0.19088872  0.95462726  0.30694166  1
  O  O22  1  0.40432665  0.18397459  0.55702802  1
  O  O23  1  0.67521474  0.42689906  0.80767263  1
  O  O24  1  0.31055964  0.54263267  0.19391236  1
  O  O25  1  0.59560926  0.81363809  0.44147715  1
  O  O26  1  0.82106013  0.07352175  0.69162344  1
  O  O27  1  0.06089802  0.28405720  0.94189639  1
  O  O28  1  0.79272766  0.08595419  0.19590770  1
  O  O29  1  0.06644530  0.30735784  0.44440041  1
  O  O30  1  0.32436871  0.57178334  0.69069818  1
  O  O31  1  0.54063367  0.83158877  0.94466938  1
