# generated using pymatgen
data_Li14MgCo13O28
_symmetry_space_group_name_H-M   'P 1'
_cell_length_a   8.07944515
_cell_length_b   8.56664706
_cell_length_c   7.53255769
_cell_angle_alpha   104.55279721
_cell_angle_beta   105.44522326
_cell_angle_gamma   103.15831124
_symmetry_Int_Tables_number   1
_chemical_formula_structural   Li14MgCo13O28
_chemical_formula_sum   'Li14 Mg1 Co13 O28'
_cell_volume   461.52570044
_cell_formula_units_Z   1
loop_
 _symmetry_equiv_pos_site_id
 _symmetry_equiv_pos_as_xyz
  1  'x, y, z'
loop_
 _atom_site_type_symbol
 _atom_site_label
 _atom_site_symmetry_multiplicity
 _atom_site_fract_x
 _atom_site_fract_y
 _atom_site_fract_z
 _atom_site_occupancy
  Li  Li0  1  0.28643586  0.21511970  0.93019541  1
  Li  Li1  1  0.07147387  0.42836493  0.85659652  1
  Li  Li2  1  0.42896276  0.07294742  0.64201413  1
  Li  Li3  1  0.85666057  0.64281525  0.78531314  1
  Li  Li4  1  0.21477300  0.28587369  0.57138858  1
  Li  Li5  1  0.35736227  0.14328275  0.28628875  1
  Li  Li6  1  0.00000000  0.50000000  0.50000000  1
  Li  Li7  1  0.64263773  0.85671725  0.71371125  1
  Li  Li8  1  0.14333943  0.35718475  0.21468686  1
  Li  Li9  1  0.78522700  0.71412631  0.42861142  1
  Li  Li10  1  0.50000000  0.00000000  0.00000000  1
  Li  Li11  1  0.57103724  0.92705258  0.35798587  1
  Li  Li12  1  0.92852613  0.57163507  0.14340348  1
  Li  Li13  1  0.71356414  0.78488030  0.06980459  1
  Mg  Mg14  1  0.50000000  0.50000000  0.50000000  1
  Co  Co15  1  0.78575371  0.21420545  0.92831915  1
  Co  Co16  1  0.92832270  0.07092471  0.64279832  1
  Co  Co17  1  0.57138592  0.42850564  0.85703187  1
  Co  Co18  1  0.35716734  0.64289457  0.78527433  1
  Co  Co19  1  0.71441652  0.28579206  0.57151375  1
  Co  Co20  1  0.14256291  0.85701757  0.71413570  1
  Co  Co21  1  0.85743709  0.14298243  0.28586430  1
  Co  Co22  1  0.64283266  0.35710543  0.21472567  1
  Co  Co23  1  0.00000000  0.00000000  0.00000000  1
  Co  Co24  1  0.28558348  0.71420794  0.42848625  1
  Co  Co25  1  0.42861408  0.57149436  0.14296813  1
  Co  Co26  1  0.07167730  0.92907529  0.35720168  1
  Co  Co27  1  0.21424629  0.78579455  0.07168085  1
  O  O28  1  0.55481243  0.23055279  0.93890575  1
  O  O29  1  0.01755042  0.19795345  0.91837386  1
  O  O30  1  0.33929973  0.44517801  0.86621366  1
  O  O31  1  0.16044832  0.05501030  0.63356442  1
  O  O32  1  0.69725979  0.08781404  0.65320228  1
  O  O33  1  0.80407271  0.41255912  0.84783869  1
  O  O34  1  0.59462368  0.63370419  0.79097933  1
  O  O35  1  0.23205749  0.98317792  0.98999734  1
  O  O36  1  0.48089585  0.29113524  0.58541001  1
  O  O37  1  0.12554823  0.65997761  0.79690205  1
  O  O38  1  0.94635000  0.26807626  0.56201229  1
  O  O39  1  0.08958798  0.12724227  0.27589516  1
  O  O40  1  0.37491938  0.84146801  0.70451851  1
  O  O41  1  0.74512207  0.48318768  0.49012125  1
  O  O42  1  0.25487793  0.51681232  0.50987875  1
  O  O43  1  0.91041202  0.87275773  0.72410484  1
  O  O44  1  0.62508062  0.15853199  0.29548149  1
  O  O45  1  0.05365000  0.73192374  0.43798771  1
  O  O46  1  0.51910415  0.70886476  0.41458999  1
  O  O47  1  0.76794251  0.01682208  0.01000266  1
  O  O48  1  0.40537632  0.36629581  0.20902067  1
  O  O49  1  0.87445177  0.34002239  0.20309795  1
  O  O50  1  0.30274021  0.91218596  0.34679772  1
  O  O51  1  0.83955168  0.94498970  0.36643558  1
  O  O52  1  0.19592729  0.58744088  0.15216131  1
  O  O53  1  0.66070027  0.55482199  0.13378634  1
  O  O54  1  0.44518757  0.76944721  0.06109425  1
  O  O55  1  0.98244958  0.80204655  0.08162614  1
