# generated using pymatgen
data_Ba2B2O5
_symmetry_space_group_name_H-M   'P 1'
_cell_length_a   11.05834559
_cell_length_b   4.24201267
_cell_length_c   13.46993445
_cell_angle_alpha   90.00000000
_cell_angle_beta   106.02801071
_cell_angle_gamma   90.00000000
_symmetry_Int_Tables_number   1
_chemical_formula_structural   Ba2B2O5
_chemical_formula_sum   'Ba8 B8 O20'
_cell_volume   607.30702046
_cell_formula_units_Z   4
loop_
 _symmetry_equiv_pos_site_id
 _symmetry_equiv_pos_as_xyz
  1  'x, y, z'
loop_
 _atom_site_type_symbol
 _atom_site_label
 _atom_site_symmetry_multiplicity
 _atom_site_fract_x
 _atom_site_fract_y
 _atom_site_fract_z
 _atom_site_occupancy
  Ba  Ba0  1  0.08571831  0.27336943  0.66211675  1
  Ba  Ba1  1  0.08571831  0.22663057  0.16211675  1
  Ba  Ba2  1  0.39475505  0.75538586  0.60734612  1
  Ba  Ba3  1  0.39475505  0.74461414  0.10734612  1
  Ba  Ba4  1  0.60524495  0.25538586  0.89265388  1
  Ba  Ba5  1  0.60524495  0.24461414  0.39265388  1
  Ba  Ba6  1  0.91428169  0.77336943  0.83788325  1
  Ba  Ba7  1  0.91428169  0.72663057  0.33788325  1
  B  B8  1  0.19328204  0.33955563  0.93078626  1
  B  B9  1  0.19328204  0.16044437  0.43078626  1
  B  B10  1  0.32524111  0.68868578  0.82594166  1
  B  B11  1  0.32524111  0.81131422  0.32594166  1
  B  B12  1  0.67475889  0.18868578  0.67405834  1
  B  B13  1  0.67475889  0.31131422  0.17405834  1
  B  B14  1  0.80671796  0.83955563  0.56921374  1
  B  B15  1  0.80671796  0.66044437  0.06921374  1
  O  O16  1  0.07918787  0.29522392  0.85931722  1
  O  O17  1  0.07918787  0.20477608  0.35931722  1
  O  O18  1  0.29262047  0.51981168  0.90749852  1
  O  O19  1  0.22331447  0.26823473  0.53050761  1
  O  O20  1  0.23771989  0.75892711  0.73446711  1
  O  O21  1  0.29262047  0.98018832  0.40749852  1
  O  O22  1  0.22331447  0.23176527  0.03050761  1
  O  O23  1  0.23771989  0.74107289  0.23446711  1
  O  O24  1  0.45050476  0.75892261  0.84490790  1
  O  O25  1  0.54949524  0.25892261  0.65509210  1
  O  O26  1  0.45050476  0.74107739  0.34490790  1
  O  O27  1  0.54949524  0.24107739  0.15509210  1
  O  O28  1  0.76228011  0.25892711  0.76553289  1
  O  O29  1  0.77668553  0.76823473  0.96949239  1
  O  O30  1  0.70737953  0.01981168  0.59250148  1
  O  O31  1  0.76228011  0.24107289  0.26553289  1
  O  O32  1  0.77668553  0.73176527  0.46949239  1
  O  O33  1  0.70737953  0.48018832  0.09250148  1
  O  O34  1  0.92081213  0.79522392  0.64068278  1
  O  O35  1  0.92081213  0.70477608  0.14068278  1
