# generated using pymatgen
data_Li4MnCrO6
_symmetry_space_group_name_H-M   'P 1'
_cell_length_a   5.02243439
_cell_length_b   8.68789199
_cell_length_c   9.75175994
_cell_angle_alpha   98.19491196
_cell_angle_beta   94.81953666
_cell_angle_gamma   89.70553711
_symmetry_Int_Tables_number   1
_chemical_formula_structural   Li4MnCrO6
_chemical_formula_sum   'Li16 Mn4 Cr4 O24'
_cell_volume   419.66771447
_cell_formula_units_Z   4
loop_
 _symmetry_equiv_pos_site_id
 _symmetry_equiv_pos_as_xyz
  1  'x, y, z'
loop_
 _atom_site_type_symbol
 _atom_site_label
 _atom_site_symmetry_multiplicity
 _atom_site_fract_x
 _atom_site_fract_y
 _atom_site_fract_z
 _atom_site_occupancy
  Li  Li0  1  0.99546197  0.16893980  0.50021696  1
  Li  Li1  1  0.87672130  0.37505890  0.74933392  1
  Li  Li2  1  0.75270533  0.24971738  0.99995332  1
  Li  Li3  1  0.74169966  0.91998778  -0.00002376  1
  Li  Li4  1  0.75919409  0.58074662  0.00046363  1
  Li  Li5  1  0.62411089  0.12223746  0.24989622  1
  Li  Li6  1  0.50259714  0.33135985  0.50053784  1
  Li  Li7  1  0.50362854  0.00112833  0.49966285  1
  Li  Li8  1  0.49085054  0.66742775  0.49871542  1
  Li  Li9  1  0.37320895  0.87481075  0.75044887  1
  Li  Li10  1  0.25422875  0.75029603  0.99973536  1
  Li  Li11  1  0.23954214  0.42089985  0.00000031  1
  Li  Li12  1  0.25425129  0.07886426  0.99904505  1
  Li  Li13  1  0.12394719  0.62273116  0.25010059  1
  Li  Li14  1  0.00498652  0.83044269  0.49996956  1
  Li  Li15  1  0.00227108  0.50103960  0.50014985  1
  Mn  Mn16  1  0.87693771  0.04317470  0.75129521  1
  Mn  Mn17  1  0.62565358  0.79178940  0.25028244  1
  Mn  Mn18  1  0.37319332  0.20660266  0.74904727  1
  Mn  Mn19  1  0.12518247  0.29197039  0.24989627  1
  Cr  Cr20  1  0.87093621  0.71222384  0.75106468  1
  Cr  Cr21  1  0.62281743  0.45529146  0.24969856  1
  Cr  Cr22  1  0.37785237  0.53807039  0.74890849  1
  Cr  Cr23  1  0.12311112  0.95515572  0.24980621  1
  O  O24  1  0.96654260  0.10738359  0.13847839  1
  O  O25  1  0.92873299  0.78740886  0.13890216  1
  O  O26  1  0.93288452  0.42673008  0.13419044  1
  O  O27  1  0.81638078  0.96399168  0.36321969  1
  O  O28  1  0.82265168  0.32548157  0.36325574  1
  O  O29  1  0.78473534  0.64386069  0.36209189  1
  O  O30  1  0.71735870  0.85796774  0.63915576  1
  O  O31  1  0.66908697  0.53563495  0.63713538  1
  O  O32  1  0.67688774  0.17847021  0.63672623  1
  O  O33  1  0.46772643  0.60694888  0.13830754  1
  O  O34  1  0.58052125  0.71407464  0.86269509  1
  O  O35  1  0.57309786  0.07200729  0.86346901  1
  O  O36  1  0.43295320  0.92657370  0.13461888  1
  O  O37  1  0.42845214  0.28754220  0.13856398  1
  O  O38  1  0.53249561  0.39191427  0.86161201  1
  O  O39  1  0.32293659  0.82491306  0.36362974  1
  O  O40  1  0.31617287  0.46384760  0.36286169  1
  O  O41  1  0.28476210  0.14368820  0.36165469  1
  O  O42  1  0.21127233  0.35298035  0.63716590  1
  O  O43  1  0.17444712  0.67678606  0.63613489  1
  O  O44  1  0.17852703  0.03426211  0.63859271  1
  O  O45  1  0.07636616  0.57433953  0.86420050  1
  O  O46  1  0.07169034  0.21559743  0.86137982  1
  O  O47  1  0.03822803  0.89762953  0.86375277  1
