# generated using pymatgen
data_Na2MnPCO7
_symmetry_space_group_name_H-M   'P 1'
_cell_length_a   8.89358014
_cell_length_b   8.46916832
_cell_length_c   8.55478413
_cell_angle_alpha   105.15370273
_cell_angle_beta   89.48837420
_cell_angle_gamma   88.65461774
_symmetry_Int_Tables_number   1
_chemical_formula_structural   Na2MnPCO7
_chemical_formula_sum   'Na8 Mn4 P4 C4 O28'
_cell_volume   621.70403143
_cell_formula_units_Z   4
loop_
 _symmetry_equiv_pos_site_id
 _symmetry_equiv_pos_as_xyz
  1  'x, y, z'
loop_
 _atom_site_type_symbol
 _atom_site_label
 _atom_site_symmetry_multiplicity
 _atom_site_fract_x
 _atom_site_fract_y
 _atom_site_fract_z
 _atom_site_occupancy
  Na  Na0  1  0.75915788  0.38210981  0.37606325  1
  Na  Na1  1  0.76141174  0.12311929  0.63078927  1
  Na  Na2  1  0.74326404  0.61645566  0.13395776  1
  Na  Na3  1  0.74277404  0.88506200  0.86776129  1
  Na  Na4  1  0.24458130  0.12942079  0.12866366  1
  Na  Na5  1  0.25217875  0.60268279  0.62237640  1
  Na  Na6  1  0.24889015  0.89052013  0.38442007  1
  Na  Na7  1  0.08519350  0.74540896  0.00741593  1
  Mn  Mn8  1  0.64674028  0.48415503  0.73630641  1
  Mn  Mn9  1  0.64741789  0.98593720  0.23435928  1
  Mn  Mn10  1  0.34978899  0.51702997  0.26124256  1
  Mn  Mn11  1  0.34674321  0.02838488  0.76788330  1
  P  P12  1  0.57939735  0.26796586  0.02010671  1
  P  P13  1  0.57736585  0.77252821  0.52115910  1
  P  P14  1  0.42075895  0.22767534  0.47533092  1
  P  P15  1  0.41933241  0.72989406  0.97799983  1
  C  C16  1  0.93017577  0.00677971  0.25776172  1
  C  C17  1  0.92696977  0.51564989  0.76350167  1
  C  C18  1  0.07194784  0.49134563  0.24124661  1
  C  C19  1  0.07237506  0.98832022  0.74341738  1
  O  O20  1  0.93107723  0.49177877  0.23887699  1
  O  O21  1  0.93237069  0.97617124  0.73692733  1
  O  O22  1  0.85340691  0.40366457  0.65592921  1
  O  O23  1  0.85181531  0.89682932  0.15097152  1
  O  O24  1  0.84854586  0.11187584  0.36234386  1
  O  O25  1  0.83628476  0.61536868  0.86915308  1
  O  O26  1  0.67616756  0.14220672  0.08121415  1
  O  O27  1  0.67097107  0.64201128  0.57744133  1
  O  O28  1  0.66955252  0.32453446  0.89067610  1
  O  O29  1  0.66824152  0.83128343  0.39231193  1
  O  O30  1  0.54664896  0.42152858  0.16933494  1
  O  O31  1  0.57577858  0.29137069  0.54514246  1
  O  O32  1  0.57282610  0.79839008  0.04469180  1
  O  O33  1  0.54470507  0.92299158  0.67286680  1
  O  O34  1  0.45456508  0.07990647  0.31777770  1
  O  O35  1  0.42703141  0.19538106  0.95673675  1
  O  O36  1  0.42419723  0.70412633  0.45207508  1
  O  O37  1  0.45540122  0.58190020  0.82608734  1
  O  O38  1  0.32753878  0.15666799  0.58980882  1
  O  O39  1  0.33070253  0.35963860  0.41987267  1
  O  O40  1  0.32630599  0.67613098  0.10770109  1
  O  O41  1  0.31898481  0.85556789  0.92261405  1
  O  O42  1  0.16123920  0.38747998  0.14385526  1
  O  O43  1  0.16796376  0.89100089  0.64291233  1
  O  O44  1  0.14001008  0.10000515  0.85450332  1
  O  O45  1  0.14650165  0.60633506  0.34657603  1
  O  O46  1  0.07186562  0.99877491  0.24756521  1
  O  O47  1  0.06611374  0.52700680  0.76474775  1
