# generated using pymatgen
data_Na5LiFe2P2(CO7)2
_symmetry_space_group_name_H-M   'P 1'
_cell_length_a   8.96068762
_cell_length_b   5.19137873
_cell_length_c   6.63074573
_cell_angle_alpha   90.19921978
_cell_angle_beta   89.29556515
_cell_angle_gamma   88.91445386
_symmetry_Int_Tables_number   1
_chemical_formula_structural   Na5LiFe2P2(CO7)2
_chemical_formula_sum   'Na5 Li1 Fe2 P2 C2 O14'
_cell_volume   308.37038121
_cell_formula_units_Z   1
loop_
 _symmetry_equiv_pos_site_id
 _symmetry_equiv_pos_as_xyz
  1  'x, y, z'
loop_
 _atom_site_type_symbol
 _atom_site_label
 _atom_site_symmetry_multiplicity
 _atom_site_fract_x
 _atom_site_fract_y
 _atom_site_fract_z
 _atom_site_occupancy
  Na  Na0  1  0.08320651  0.76335273  0.24672671  1
  Na  Na1  1  0.26296275  0.24805839  0.49783119  1
  Na  Na2  1  0.73698441  0.75046828  0.50197979  1
  Na  Na3  1  0.73723179  0.74993366  0.99756084  1
  Na  Na4  1  0.91877905  0.23652586  0.75166313  1
  Li  Li5  1  0.27146371  0.24634423  0.00482215  1
  Fe  Fe6  1  0.35191923  0.78242505  0.75229029  1
  Fe  Fe7  1  0.64553910  0.21820933  0.25010537  1
  P  P8  1  0.41139657  0.70279399  0.24722126  1
  P  P9  1  0.58402063  0.29941121  0.75417930  1
  C  C10  1  0.05921171  0.72610768  0.75240937  1
  C  C11  1  0.94492848  0.27118998  0.24481069  1
  O  O12  1  0.08945876  0.28410171  0.23527517  1
  O  O13  1  0.12205345  0.95071492  0.75104545  1
  O  O14  1  0.14313139  0.51839780  0.75741131  1
  O  O15  1  0.31634892  0.79642023  0.06460625  1
  O  O16  1  0.31717233  0.77806271  0.43929919  1
  O  O17  1  0.42850987  0.17449835  0.76427223  1
  O  O18  1  0.43003619  0.40279159  0.23657183  1
  O  O19  1  0.56400444  0.59827498  0.75096820  1
  O  O20  1  0.56558444  0.82911059  0.24982610  1
  O  O21  1  0.67658090  0.21368185  0.56337691  1
  O  O22  1  0.68248183  0.21995298  0.93749234  1
  O  O23  1  0.86168259  0.47955307  0.25016228  1
  O  O24  1  0.87999003  0.04841818  0.24957590  1
  O  O25  1  0.91532090  0.71119865  0.74851674  1
