# generated using pymatgen
data_Li4Mn(BO3)2
_symmetry_space_group_name_H-M   'P 1'
_cell_length_a   9.26095500
_cell_length_b   7.95808897
_cell_length_c   3.39789408
_cell_angle_alpha   89.99990253
_cell_angle_beta   89.99996266
_cell_angle_gamma   89.99970920
_symmetry_Int_Tables_number   1
_chemical_formula_structural   Li4Mn(BO3)2
_chemical_formula_sum   'Li8 Mn2 B4 O12'
_cell_volume   250.42310779
_cell_formula_units_Z   2
loop_
 _symmetry_equiv_pos_site_id
 _symmetry_equiv_pos_as_xyz
  1  'x, y, z'
loop_
 _atom_site_type_symbol
 _atom_site_label
 _atom_site_symmetry_multiplicity
 _atom_site_fract_x
 _atom_site_fract_y
 _atom_site_fract_z
 _atom_site_occupancy
  Li  Li0  1  0.04997753  0.17487156  0.50000050  1
  Li  Li1  1  0.19846031  0.01042914  0.00000084  1
  Li  Li2  1  0.30154711  0.51043048  0.50000074  1
  Li  Li3  1  0.45002354  0.67487756  -0.00000039  1
  Li  Li4  1  0.54997771  0.32512427  0.00000112  1
  Li  Li5  1  0.69845229  0.48957093  0.50000141  1
  Li  Li6  1  0.80154024  0.98957092  -0.00000017  1
  Li  Li7  1  0.95002443  0.82512814  0.50000040  1
  Mn  Mn8  1  0.99999314  0.49999431  0.99999111  1
  Mn  Mn9  1  0.50000223  -0.00000080  0.49998979  1
  B  B10  1  0.20607271  0.77048416  0.50000223  1
  B  B11  1  0.29395138  0.27047679  0.00000170  1
  B  B12  1  0.70604828  0.72952471  0.00000099  1
  B  B13  1  0.79392553  0.22951699  0.49999962  1
  O  O14  1  0.11690427  0.62551928  0.50000129  1
  O  O15  1  0.14432657  0.25259676  -0.00000047  1
  O  O16  1  0.14181539  0.92609546  0.50000100  1
  O  O17  1  0.35818881  0.42608814  0.00000150  1
  O  O18  1  0.35566803  0.75260434  0.50000327  1
  O  O19  1  0.38309591  0.12552169  0.00000153  1
  O  O20  1  0.61690435  0.87447865  0.00000063  1
  O  O21  1  0.64433210  0.24739658  0.49999803  1
  O  O22  1  0.64181246  0.57391302  0.00000289  1
  O  O23  1  0.85818749  0.07390386  0.50000122  1
  O  O24  1  0.85567273  0.74740217  0.00000009  1
  O  O25  1  0.88309547  0.37448089  0.49999914  1
