# generated using pymatgen
data_Li9Mn2Co5O16
_symmetry_space_group_name_H-M   'P 1'
_cell_length_a   2.90911199
_cell_length_b   5.09236936
_cell_length_c   19.64303763
_cell_angle_alpha   94.48464737
_cell_angle_beta   82.41940791
_cell_angle_gamma   91.40487637
_symmetry_Int_Tables_number   1
_chemical_formula_structural   Li9Mn2Co5O16
_chemical_formula_sum   'Li9 Mn2 Co5 O16'
_cell_volume   287.54123085
_cell_formula_units_Z   1
loop_
 _symmetry_equiv_pos_site_id
 _symmetry_equiv_pos_as_xyz
  1  'x, y, z'
loop_
 _atom_site_type_symbol
 _atom_site_label
 _atom_site_symmetry_multiplicity
 _atom_site_fract_x
 _atom_site_fract_y
 _atom_site_fract_z
 _atom_site_occupancy
  Li  Li0  1  0.85635381  0.35884546  0.13953075  1
  Li  Li1  1  0.13875889  0.63075892  0.37236876  1
  Li  Li2  1  0.37270788  0.87338657  0.62179888  1
  Li  Li3  1  0.63376169  0.13063706  0.87176419  1
  Li  Li4  1  0.35658543  0.87150085  0.13114635  1
  Li  Li5  1  0.63022266  0.14364398  0.36894226  1
  Li  Li6  1  0.87516207  0.36734474  0.62366317  1
  Li  Li7  1  0.12881015  0.62054913  0.87208017  1
  Li  Li8  1  0.24960199  0.24938651  0.25095950  1
  Mn  Mn9  1  0.99742903  0.99918674  0.99976213  1
  Mn  Mn10  1  0.75077186  0.75064989  0.25023218  1
  Co  Co11  1  0.50093817  0.50090766  0.49949364  1
  Co  Co12  1  0.74957768  0.74934300  0.74917007  1
  Co  Co13  1  0.49824687  0.49869386  0.00069845  1
  Co  Co14  1  0.00007007  0.00145878  0.49905533  1
  Co  Co15  1  0.25213428  0.24892633  0.75001863  1
  O  O16  1  0.45230347  0.16287803  0.05454535  1
  O  O17  1  0.69216380  0.46621745  0.30858725  1
  O  O18  1  0.92477903  0.67645902  0.55866567  1
  O  O19  1  0.19983679  0.94567022  0.80654359  1
  O  O20  1  0.94157676  0.70186830  0.05486335  1
  O  O21  1  0.20675404  0.91853308  0.30469753  1
  O  O22  1  0.42833693  0.17744035  0.55817642  1
  O  O23  1  0.65701548  0.44324576  0.80878346  1
  O  O24  1  0.29882946  0.57877066  0.19409412  1
  O  O25  1  0.57548660  0.82820564  0.44306113  1
  O  O26  1  0.84365893  0.05853175  0.69308232  1
  O  O27  1  0.05865245  0.29838246  0.94277484  1
  O  O28  1  0.80965082  0.03758568  0.19125609  1
  O  O29  1  0.07756787  0.32645749  0.44210536  1
  O  O30  1  0.29665301  0.55071395  0.69444735  1
  O  O31  1  0.54560204  0.83382067  0.94363168  1
