# generated using pymatgen
data_Li24Ti7Cr5O36
_symmetry_space_group_name_H-M   'P 1'
_cell_length_a   5.08396469
_cell_length_b   13.38236543
_cell_length_c   9.80677905
_cell_angle_alpha   97.04844346
_cell_angle_beta   95.05397790
_cell_angle_gamma   100.71444559
_symmetry_Int_Tables_number   1
_chemical_formula_structural   Li24Ti7Cr5O36
_chemical_formula_sum   'Li24 Ti7 Cr5 O36'
_cell_volume   646.40055170
_cell_formula_units_Z   1
loop_
 _symmetry_equiv_pos_site_id
 _symmetry_equiv_pos_as_xyz
  1  'x, y, z'
loop_
 _atom_site_type_symbol
 _atom_site_label
 _atom_site_symmetry_multiplicity
 _atom_site_fract_x
 _atom_site_fract_y
 _atom_site_fract_z
 _atom_site_occupancy
  Li  Li0  1  0.83871587  0.16502413  0.99986459  1
  Li  Li1  1  0.94943756  0.38853108  0.99918278  1
  Li  Li2  1  0.99981312  0.74968632  0.25010308  1
  Li  Li3  1  0.66715772  0.08430781  0.24999034  1
  Li  Li4  1  0.95153031  0.88722997  0.49987249  1
  Li  Li5  1  0.61809660  0.22066773  0.50262137  1
  Li  Li6  1  0.83671530  0.66519721  0.49927707  1
  Li  Li7  1  0.49950969  0.99992238  0.50045080  1
  Li  Li8  1  0.71140980  0.44767552  0.50006190  1
  Li  Li9  1  0.66702303  0.58358242  0.75014179  1
  Li  Li10  1  0.50682102  0.49780082  0.99936299  1
  Li  Li11  1  0.71302305  0.94641191  0.99888855  1
  Li  Li12  1  0.38044502  0.27944038  0.99839511  1
  Li  Li13  1  0.61391673  0.71956575  0.99815118  1
  Li  Li14  1  0.29020584  0.05545847  0.00195271  1
  Li  Li15  1  0.33383710  0.41778823  0.24987823  1
  Li  Li16  1  0.28218481  0.55290165  0.49994708  1
  Li  Li17  1  0.17139834  0.33142409  0.50169402  1
  Li  Li18  1  0.38649091  0.78155054  0.50179951  1
  Li  Li19  1  0.04407324  0.11326158  0.49856149  1
  Li  Li20  1  0.33280274  0.91557403  0.75025232  1
  Li  Li21  1  0.16230116  0.83413425  0.99955559  1
  Li  Li22  1  0.00125862  0.25064003  0.74980844  1
  Li  Li23  1  0.05050316  0.61310343  0.00194730  1
  Ti  Ti24  1  0.88862079  0.02508733  0.75029829  1
  Ti  Ti25  1  0.77745176  0.30399748  0.24967000  1
  Ti  Ti26  1  0.44079563  0.13927675  0.74827186  1
  Ti  Ti27  1  0.55560520  0.86009268  0.24984026  1
  Ti  Ti28  1  0.44248885  0.63550091  0.24981528  1
  Ti  Ti29  1  0.11101043  0.47530302  0.75223707  1
  Ti  Ti30  1  0.10933710  0.97413184  0.24915985  1
  Cr  Cr31  1  0.89060033  0.52766353  0.25062295  1
  Cr  Cr32  1  0.77430191  0.80121674  0.74930217  1
  Cr  Cr33  1  0.56004990  0.36127441  0.74951077  1
  Cr  Cr34  1  0.22605966  0.19687784  0.25084414  1
  Cr  Cr35  1  0.22475149  0.69791529  0.75036928  1
  O  O36  1  0.99945902  0.07371855  0.13803000  1
  O  O37  1  0.92769751  0.21594091  0.36678887  1
  O  O38  1  0.00237473  0.57336621  0.63733787  1
  O  O39  1  0.84730747  0.35697802  0.63752527  1
  O  O40  1  0.73545739  0.11767759  0.63420214  1
  O  O41  1  0.66764013  0.40641871  0.13861790  1
  O  O42  1  0.92326760  0.71671191  0.86414979  1
  O  O43  1  0.81255508  0.47877986  0.86330870  1
  O  O44  1  0.59767410  0.04830976  0.86609099  1
  O  O45  1  0.85623628  0.85690897  0.13606499  1
  O  O46  1  0.74120738  0.61615942  0.13586691  1
  O  O47  1  0.52716753  0.19086234  0.13592365  1
  O  O48  1  0.67017520  0.26565414  0.86218682  1
  O  O49  1  0.80991310  0.97711569  0.36325238  1
  O  O50  1  0.59271565  0.54694795  0.36686360  1
  O  O51  1  0.46910179  0.30840630  0.36181022  1
  O  O52  1  0.66739668  0.76144555  0.36364055  1
  O  O53  1  0.33508240  0.09812376  0.36155267  1
  O  O54  1  0.66460058  0.90177143  0.63789817  1
  O  O55  1  0.32845521  0.23768456  0.63726909  1
  O  O56  1  0.53118021  0.69201676  0.63795906  1
  O  O57  1  0.40524500  0.45159690  0.63555304  1
  O  O58  1  0.19027173  0.02276987  0.63597407  1
  O  O59  1  0.33111466  0.73675905  0.13615524  1
  O  O60  1  0.46754823  0.80729015  0.86173629  1
  O  O61  1  0.26792023  0.38152494  0.86350716  1
  O  O62  1  0.14345921  0.14286501  0.86337933  1
  O  O63  1  0.40224614  0.95179447  0.13372356  1
  O  O64  1  0.19254992  0.52165552  0.13630420  1
  O  O65  1  0.07482648  0.28318887  0.13529396  1
  O  O66  1  0.33382446  0.59801533  0.86279816  1
  O  O67  1  0.26374826  0.88219953  0.36592751  1
  O  O68  1  0.13630453  0.64101434  0.36180519  1
  O  O69  1  0.00012527  0.43073505  0.36240147  1
  O  O70  1  0.07586676  0.78253737  0.63579129  1
  O  O71  1  0.99854231  0.92583667  0.86160625  1
