# generated using pymatgen
data_Li4MnCrO6
_symmetry_space_group_name_H-M   'P 1'
_cell_length_a   5.01429615
_cell_length_b   8.73123834
_cell_length_c   9.77587818
_cell_angle_alpha   98.54163350
_cell_angle_beta   94.55007784
_cell_angle_gamma   90.09859906
_symmetry_Int_Tables_number   1
_chemical_formula_structural   Li4MnCrO6
_chemical_formula_sum   'Li16 Mn4 Cr4 O24'
_cell_volume   421.87708692
_cell_formula_units_Z   4
loop_
 _symmetry_equiv_pos_site_id
 _symmetry_equiv_pos_as_xyz
  1  'x, y, z'
loop_
 _atom_site_type_symbol
 _atom_site_label
 _atom_site_symmetry_multiplicity
 _atom_site_fract_x
 _atom_site_fract_y
 _atom_site_fract_z
 _atom_site_occupancy
  Li  Li0  1  0.98905423  0.16580962  0.50010290  1
  Li  Li1  1  0.87105219  0.37591773  0.75040946  1
  Li  Li2  1  0.75191403  0.24789384  0.99977950  1
  Li  Li3  1  0.74359864  0.91989823  0.99951300  1
  Li  Li4  1  0.75529759  0.58078370  0.99748501  1
  Li  Li5  1  0.62743543  0.12416586  0.24960172  1
  Li  Li6  1  0.50821381  0.33200786  0.49913065  1
  Li  Li7  1  0.50238142  0.99884554  0.50158098  1
  Li  Li8  1  0.49250620  0.66852893  0.50075072  1
  Li  Li9  1  0.37457917  0.87574875  0.74966859  1
  Li  Li10  1  0.24771714  0.75043704  0.99948203  1
  Li  Li11  1  0.24632064  0.42068886  0.00109312  1
  Li  Li12  1  0.25620206  0.07941892  0.99993029  1
  Li  Li13  1  0.12412291  0.62567402  0.25037940  1
  Li  Li14  1  0.00803222  0.83420217  0.50208310  1
  Li  Li15  1  0.00190036  0.50063359  0.49958003  1
  Mn  Mn16  1  0.87490614  0.70874886  0.74973504  1
  Mn  Mn17  1  0.87318132  0.03962399  0.74870160  1
  Mn  Mn18  1  0.37714375  0.54309951  0.75143173  1
  Mn  Mn19  1  0.12565426  0.29204504  0.24992656  1
  Cr  Cr20  1  0.61978546  0.78823371  0.24899663  1
  Cr  Cr21  1  0.63184493  0.45744278  0.25133494  1
  Cr  Cr22  1  0.36695994  0.21050843  0.75010342  1
  Cr  Cr23  1  0.12765968  0.96188239  0.24944970  1
  O  O24  1  0.96201188  0.11026366  0.13731473  1
  O  O25  1  0.92658352  0.78680875  0.13850581  1
  O  O26  1  0.93004336  0.42623050  0.13701606  1
  O  O27  1  0.82458090  0.96301417  0.36123191  1
  O  O28  1  0.82501435  0.32093966  0.36429773  1
  O  O29  1  0.78111077  0.63844839  0.36212112  1
  O  O30  1  0.71378521  0.85546046  0.63892332  1
  O  O31  1  0.67849777  0.53545218  0.63874907  1
  O  O32  1  0.67804020  0.17549577  0.63665800  1
  O  O33  1  0.46789663  0.60944820  0.13840674  1
  O  O34  1  0.57173070  0.71548187  0.86125514  1
  O  O35  1  0.57357207  0.07431349  0.86312811  1
  O  O36  1  0.41839528  0.92749696  0.13548456  1
  O  O37  1  0.42736790  0.28722060  0.13864927  1
  O  O38  1  0.53678017  0.39805185  0.86317235  1
  O  O39  1  0.33095652  0.82260310  0.36422034  1
  O  O40  1  0.31862710  0.46410527  0.36185034  1
  O  O41  1  0.28405949  0.14304535  0.36082077  1
  O  O42  1  0.22078848  0.35588326  0.63925319  1
  O  O43  1  0.17785116  0.67683830  0.63704743  1
  O  O44  1  0.17326937  0.03311283  0.63674730  1
  O  O45  1  0.07184949  0.57305201  0.86307999  1
  O  O46  1  0.07506694  0.21188352  0.86108288  1
  O  O47  1  0.03465623  0.89311145  0.86073070  1
