# generated using pymatgen
data_Li2Ni3BiO8
_symmetry_space_group_name_H-M   'P 1'
_cell_length_a   8.44027485
_cell_length_b   8.44107394
_cell_length_c   8.44098967
_cell_angle_alpha   89.99863833
_cell_angle_beta   90.00287145
_cell_angle_gamma   90.00349431
_symmetry_Int_Tables_number   1
_chemical_formula_structural   Li2Ni3BiO8
_chemical_formula_sum   'Li8 Ni12 Bi4 O32'
_cell_volume   601.37817295
_cell_formula_units_Z   4
loop_
 _symmetry_equiv_pos_site_id
 _symmetry_equiv_pos_as_xyz
  1  'x, y, z'
loop_
 _atom_site_type_symbol
 _atom_site_label
 _atom_site_symmetry_multiplicity
 _atom_site_fract_x
 _atom_site_fract_y
 _atom_site_fract_z
 _atom_site_occupancy
  Li  Li0  1  0.99967383  -0.00024684  -0.00022843  1
  Li  Li1  1  0.25031028  0.25022750  0.25030645  1
  Li  Li2  1  0.24977867  0.74966685  0.75027328  1
  Li  Li3  1  0.50025304  0.00035416  0.49971875  1
  Li  Li4  1  0.49964031  0.50039206  0.00035836  1
  Li  Li5  1  0.75032393  0.24965789  0.74962530  1
  Li  Li6  1  0.74974951  0.75024810  0.24967466  1
  Li  Li7  1  0.00029274  0.49973387  0.50030953  1
  Ni  Ni8  1  0.11539062  0.13452147  0.62500422  1
  Ni  Ni9  1  0.12497449  0.38453735  0.86552433  1
  Ni  Ni10  1  0.13460730  0.62503990  0.11546448  1
  Ni  Ni11  1  0.36541116  0.37499779  0.61546566  1
  Ni  Ni12  1  0.37493600  0.61549366  0.36539628  1
  Ni  Ni13  1  0.38454081  0.86544605  0.12496869  1
  Ni  Ni14  1  0.61551111  0.36545025  0.37497247  1
  Ni  Ni15  1  0.62496162  0.11543777  0.13455000  1
  Ni  Ni16  1  0.63453790  0.87498125  0.88450094  1
  Ni  Ni17  1  0.86546733  0.12495347  0.38457625  1
  Ni  Ni18  1  0.87500254  0.88458063  0.63455255  1
  Ni  Ni19  1  0.88458746  0.63459293  0.87500019  1
  Bi  Bi20  1  0.12506457  0.87492834  0.37504428  1
  Bi  Bi21  1  0.37493203  0.12506556  0.87504297  1
  Bi  Bi22  1  0.62508865  0.62505923  0.62496114  1
  Bi  Bi23  1  0.87493394  0.37495168  0.12496638  1
  O  O24  1  0.09475560  0.12719321  0.38276874  1
  O  O25  1  0.11727637  0.90521603  0.62730056  1
  O  O26  1  0.11483666  0.61479283  0.88523550  1
  O  O27  1  0.12267525  0.15522468  0.86732043  1
  O  O28  1  0.12723262  0.38272009  0.09483468  1
  O  O29  1  0.13516129  0.36473675  0.63524801  1
  O  O30  1  0.13273323  0.62273175  0.34476498  1
  O  O31  1  0.15525363  0.86729797  0.12276447  1
  O  O32  1  0.34467338  0.13276228  0.62280740  1
  O  O33  1  0.36722177  0.37727723  0.84484198  1
  O  O34  1  0.36468374  0.63527579  0.13520439  1
  O  O35  1  0.37281083  0.61725181  0.59469820  1
  O  O36  1  0.37730316  0.84475477  0.36724248  1
  O  O37  1  0.38525434  0.38526047  0.38521036  1
  O  O38  1  0.38276560  0.09471439  0.12725700  1
  O  O39  1  0.40521502  0.87278344  0.88270270  1
  O  O40  1  0.59479427  0.37279905  0.61729400  1
  O  O41  1  0.61727448  0.59478659  0.37271488  1
  O  O42  1  0.61476199  0.88515661  0.11474562  1
  O  O43  1  0.62270493  0.34476183  0.13269688  1
  O  O44  1  0.62722331  0.11725467  0.90523426  1
  O  O45  1  0.63526476  0.13524179  0.36479064  1
  O  O46  1  0.63274316  0.87729064  0.65518205  1
  O  O47  1  0.65526826  0.63273409  0.87722742  1
  O  O48  1  0.84479877  0.36725566  0.37722875  1
  O  O49  1  0.86721951  0.12274548  0.15531285  1
  O  O50  1  0.86477479  0.86485225  0.86476948  1
  O  O51  1  0.87277019  0.88269193  0.40525661  1
  O  O52  1  0.87731542  0.65532253  0.63277245  1
  O  O53  1  0.88523108  0.11473052  0.61474117  1
  O  O54  1  0.88270551  0.40522098  0.87272805  1
  O  O55  1  0.90532621  0.62722998  0.11721428  1
