# generated using pymatgen
data_Mn2P4O13
_symmetry_space_group_name_H-M   'P 1'
_cell_length_a   8.38444385
_cell_length_b   9.00230318
_cell_length_c   13.39916251
_cell_angle_alpha   90.00000000
_cell_angle_beta   107.87139284
_cell_angle_gamma   90.00000000
_symmetry_Int_Tables_number   1
_chemical_formula_structural   Mn2P4O13
_chemical_formula_sum   'Mn8 P16 O52'
_cell_volume   962.55910599
_cell_formula_units_Z   4
loop_
 _symmetry_equiv_pos_site_id
 _symmetry_equiv_pos_as_xyz
  1  'x, y, z'
loop_
 _atom_site_type_symbol
 _atom_site_label
 _atom_site_symmetry_multiplicity
 _atom_site_fract_x
 _atom_site_fract_y
 _atom_site_fract_z
 _atom_site_occupancy
  Mn  Mn0  1  0.03483386  0.99892847  0.72209658  1
  Mn  Mn1  1  0.03483386  0.50107153  0.22209658  1
  Mn  Mn2  1  0.44374661  0.00118949  0.73797438  1
  Mn  Mn3  1  0.55625339  0.50118949  0.76202562  1
  Mn  Mn4  1  0.44374661  0.49881051  0.23797438  1
  Mn  Mn5  1  0.55625339  0.99881051  0.26202562  1
  Mn  Mn6  1  0.96516614  0.49892847  0.77790342  1
  Mn  Mn7  1  0.96516614  0.00107153  0.27790342  1
  P  P8  1  0.14037619  0.24106924  0.92900040  1
  P  P9  1  0.27474775  0.72418127  0.84177691  1
  P  P10  1  0.22677914  0.29778282  0.65991932  1
  P  P11  1  0.14037619  0.25893076  0.42900040  1
  P  P12  1  0.50274286  0.25143246  0.93192016  1
  P  P13  1  0.27474775  0.77581873  0.34177691  1
  P  P14  1  0.22677914  0.20221718  0.15991932  1
  P  P15  1  0.49725714  0.75143246  0.56807984  1
  P  P16  1  0.50274286  0.24856754  0.43192016  1
  P  P17  1  0.77322086  0.79778282  0.84008068  1
  P  P18  1  0.72525225  0.22418127  0.65822309  1
  P  P19  1  0.49725714  0.74856754  0.06807984  1
  P  P20  1  0.85962381  0.74106924  0.57099960  1
  P  P21  1  0.77322086  0.70221718  0.34008068  1
  P  P22  1  0.72525225  0.27581873  0.15822309  1
  P  P23  1  0.85962381  0.75893076  0.07099960  1
  O  O24  1  0.02740433  0.37601669  0.90481073  1
  O  O25  1  0.10264565  0.11262956  0.85438370  1
  O  O26  1  0.11991765  0.64825827  0.85500982  1
  O  O27  1  0.12624231  0.36995474  0.72088565  1
  O  O28  1  0.02740433  0.12398331  0.40481073  1
  O  O29  1  0.12803650  0.32440557  0.53676087  1
  O  O30  1  0.33094726  0.30044163  0.95474140  1
  O  O31  1  0.23266218  0.86838261  0.77504853  1
  O  O32  1  0.24132005  0.12515723  0.67250695  1
  O  O33  1  0.10264565  0.38737044  0.35438370  1
  O  O34  1  0.37513380  0.79183682  0.95636655  1
  O  O35  1  0.11991765  0.85174173  0.35500982  1
  O  O36  1  0.12624231  0.13004526  0.22088565  1
  O  O37  1  0.38582165  0.62481782  0.80396694  1
  O  O38  1  0.46755235  0.11069500  0.86934922  1
  O  O39  1  0.40070309  0.36331116  0.67743674  1
  O  O40  1  0.12803650  0.17559443  0.03676087  1
  O  O41  1  0.33094726  0.19955837  0.45474140  1
  O  O42  1  0.23266218  0.63161739  0.27504853  1
  O  O43  1  0.24132005  0.37484277  0.17250695  1
  O  O44  1  0.42301155  0.88267355  0.60792931  1
  O  O45  1  0.37513380  0.70816318  0.45636655  1
  O  O46  1  0.57698845  0.38267355  0.89207069  1
  O  O47  1  0.59929691  0.86331116  0.82256326  1
  O  O48  1  0.53244765  0.61069500  0.63065078  1
  O  O49  1  0.38582165  0.87518218  0.30396694  1
  O  O50  1  0.61417835  0.12481782  0.69603306  1
  O  O51  1  0.46755235  0.38930500  0.36934922  1
  O  O52  1  0.40070309  0.13668884  0.17743674  1
  O  O53  1  0.42301155  0.61732645  0.10792931  1
  O  O54  1  0.62486620  0.29183682  0.54363345  1
  O  O55  1  0.57698845  0.11732645  0.39207069  1
  O  O56  1  0.75867995  0.62515723  0.82749305  1
  O  O57  1  0.76733782  0.36838261  0.72495147  1
  O  O58  1  0.66905274  0.80044163  0.54525860  1
  O  O59  1  0.87196350  0.82440557  0.96323913  1
  O  O60  1  0.59929691  0.63668884  0.32256326  1
  O  O61  1  0.53244765  0.88930500  0.13065078  1
  O  O62  1  0.61417835  0.37518218  0.19603306  1
  O  O63  1  0.87375769  0.86995474  0.77911435  1
  O  O64  1  0.88008235  0.14825827  0.64499018  1
  O  O65  1  0.62486620  0.20816318  0.04363345  1
  O  O66  1  0.89735435  0.61262956  0.64561630  1
  O  O67  1  0.75867995  0.87484277  0.32749305  1
  O  O68  1  0.76733782  0.13161739  0.22495147  1
  O  O69  1  0.66905274  0.69955837  0.04525860  1
  O  O70  1  0.87196350  0.67559443  0.46323913  1
  O  O71  1  0.97259567  0.87601669  0.59518927  1
  O  O72  1  0.87375769  0.63004526  0.27911435  1
  O  O73  1  0.88008235  0.35174173  0.14499018  1
  O  O74  1  0.89735435  0.88737044  0.14561630  1
  O  O75  1  0.97259567  0.62398331  0.09518927  1
