# generated using pymatgen
data_Ba6Li2Ti7Nb9O42
_symmetry_space_group_name_H-M   'P 1'
_cell_length_a   9.31560307
_cell_length_b   9.33369166
_cell_length_c   11.79164135
_cell_angle_alpha   89.91493706
_cell_angle_beta   90.03917806
_cell_angle_gamma   120.06852644
_symmetry_Int_Tables_number   1
_chemical_formula_structural   Ba6Li2Ti7Nb9O42
_chemical_formula_sum   'Ba6 Li2 Ti7 Nb9 O42'
_cell_volume   887.29602542
_cell_formula_units_Z   1
loop_
 _symmetry_equiv_pos_site_id
 _symmetry_equiv_pos_as_xyz
  1  'x, y, z'
loop_
 _atom_site_type_symbol
 _atom_site_label
 _atom_site_symmetry_multiplicity
 _atom_site_fract_x
 _atom_site_fract_y
 _atom_site_fract_z
 _atom_site_occupancy
  Ba  Ba0  1  0.00001481  0.59711456  0.24537690  1
  Ba  Ba1  1  0.99994948  0.41115537  0.75180225  1
  Ba  Ba2  1  0.40626379  0.40646662  0.24597937  1
  Ba  Ba3  1  0.60006217  0.59527707  0.75022004  1
  Ba  Ba4  1  0.39992180  0.99520561  0.75022133  1
  Ba  Ba5  1  0.59380414  0.00022598  0.24598301  1
  Li  Li6  1  0.00006476  0.00052801  0.23446543  1
  Li  Li7  1  0.99993943  0.99488912  0.74228091  1
  Ti  Ti8  1  0.00000271  0.74772594  0.91189559  1
  Ti  Ti9  1  0.00001459  0.75072148  0.59474117  1
  Ti  Ti10  1  0.00001791  0.24973802  0.08941559  1
  Ti  Ti11  1  0.24888101  0.24961615  0.59024428  1
  Ti  Ti12  1  0.24669021  0.99652603  0.08655177  1
  Ti  Ti13  1  0.75327748  0.74979232  0.08655211  1
  Ti  Ti14  1  0.75095462  0.00057285  0.59027410  1
  Nb  Nb15  1  -0.00002392  0.25348182  0.41046141  1
  Nb  Nb16  1  0.32944179  0.66685472  0.00545767  1
  Nb  Nb17  1  0.33386180  0.66680785  0.50852086  1
  Nb  Nb18  1  0.25144704  0.24988983  0.91120499  1
  Nb  Nb19  1  0.25089658  0.99863883  0.40982205  1
  Nb  Nb20  1  0.74927518  0.74782819  0.40986105  1
  Nb  Nb21  1  0.67051650  0.33739500  0.00544644  1
  Nb  Nb22  1  0.66611523  0.33270379  0.50854231  1
  Nb  Nb23  1  0.74850485  0.99841331  0.91116459  1
  O  O24  1  -0.00000130  0.80062958  0.07390209  1
  O  O25  1  0.00002718  0.79568313  0.42585498  1
  O  O26  1  0.99996586  0.79310240  0.75125492  1
  O  O27  1  0.16852319  0.68852416  0.60129296  1
  O  O28  1  0.16712277  0.68680700  0.90194359  1
  O  O29  1  0.99996549  0.20159048  0.24960150  1
  O  O30  1  -0.00001851  0.20041733  0.57667721  1
  O  O31  1  0.99998567  0.20522624  0.92511000  1
  O  O32  1  0.31264980  0.83234348  0.10269157  1
  O  O33  1  0.31579210  0.83157777  0.39839755  1
  O  O34  1  0.16806181  0.47931355  0.10102727  1
  O  O35  1  0.16903885  0.48478338  0.39823926  1
  O  O36  1  0.31447337  0.48383784  0.89885106  1
  O  O37  1  0.31203023  0.47934736  0.60099821  1
  O  O38  1  0.52125269  0.83295348  0.60104392  1
  O  O39  1  0.51467972  0.83192257  0.89708186  1
  O  O40  1  0.19694658  0.19745489  0.07662457  1
  O  O41  1  0.20486890  0.20471863  0.42567053  1
  O  O42  1  0.20041058  0.19987334  0.74958749  1
  O  O43  1  0.52189799  0.68937075  0.09722446  1
  O  O44  1  0.51618414  0.68475018  0.39863274  1
  O  O45  1  0.19861440  0.99975723  0.57677589  1
  O  O46  1  0.20287440  0.99980868  0.92517765  1
  O  O47  1  0.20046435  0.99847891  0.24926399  1
  O  O48  1  0.48527193  0.31723191  0.89708560  1
  O  O49  1  0.47884363  0.31174756  0.60098260  1
  O  O50  1  0.79957773  0.79810649  0.24929621  1
  O  O51  1  0.80156896  0.80136100  0.57679502  1
  O  O52  1  0.79706579  0.79688438  0.92520542  1
  O  O53  1  0.47813087  0.16748910  0.09721364  1
  O  O54  1  0.48387938  0.16856732  0.39854579  1
  O  O55  1  0.68420852  0.51582899  0.39841717  1
  O  O56  1  0.68738912  0.51973722  0.10271833  1
  O  O57  1  0.83154902  0.52004964  0.60121593  1
  O  O58  1  0.83282905  0.51966302  0.90192941  1
  O  O59  1  0.68802948  0.16731585  0.60107431  1
  O  O60  1  0.68547353  0.16934118  0.89887390  1
  O  O61  1  0.83100856  0.31581428  0.39825612  1
  O  O62  1  0.83195511  0.31127934  0.10101175  1
  O  O63  1  0.79951937  0.99944492  0.74958719  1
  O  O64  1  0.79494190  0.99987965  0.42574684  1
  O  O65  1  0.80305680  0.00051332  0.07663428  1
