# generated using pymatgen
data_Li2FePCO7
_symmetry_space_group_name_H-M   'P 1'
_cell_length_a   5.07988140
_cell_length_b   11.16778748
_cell_length_c   10.03253657
_cell_angle_alpha   73.90777865
_cell_angle_beta   96.35065346
_cell_angle_gamma   91.57498420
_symmetry_Int_Tables_number   1
_chemical_formula_structural   Li2FePCO7
_chemical_formula_sum   'Li8 Fe4 P4 C4 O28'
_cell_volume   543.49607972
_cell_formula_units_Z   4
loop_
 _symmetry_equiv_pos_site_id
 _symmetry_equiv_pos_as_xyz
  1  'x, y, z'
loop_
 _atom_site_type_symbol
 _atom_site_label
 _atom_site_symmetry_multiplicity
 _atom_site_fract_x
 _atom_site_fract_y
 _atom_site_fract_z
 _atom_site_occupancy
  Li  Li0  1  0.71568917  0.15380495  0.12014143  1
  Li  Li1  1  0.69305768  0.65647198  0.61223380  1
  Li  Li2  1  0.60214932  0.91286420  0.33288245  1
  Li  Li3  1  0.35756900  0.69631716  0.10295487  1
  Li  Li4  1  0.32906408  0.14767117  0.61462795  1
  Li  Li5  1  0.23369792  0.46160871  0.31295971  1
  Li  Li6  1  0.18603485  0.42864000  0.68039784  1
  Li  Li7  1  0.19830450  0.95342401  0.88761588  1
  Fe  Fe8  1  0.78061776  0.26364264  0.42087042  1
  Fe  Fe9  1  0.78512580  0.75871223  0.91885489  1
  Fe  Fe10  1  0.16637134  0.36000290  0.00310434  1
  Fe  Fe11  1  0.16055770  0.86160908  0.50734067  1
  P  P12  1  0.69961608  0.47481399  0.12326930  1
  P  P13  1  0.69871091  0.97763982  0.62463688  1
  P  P14  1  0.24900981  0.14359246  0.30266348  1
  P  P15  1  0.25047572  0.64784541  0.80215526  1
  C  C16  1  0.72942713  0.90586760  0.06594347  1
  C  C17  1  0.65182726  0.41505431  0.55142632  1
  C  C18  1  0.23457302  0.71285428  0.36744090  1
  C  C19  1  0.28458061  0.20613150  0.87739415  1
  O  O20  1  0.96094832  0.87328290  0.04277194  1
  O  O21  1  0.81995162  0.42777969  0.01316823  1
  O  O22  1  0.85726617  0.41842875  0.26888843  1
  O  O23  1  0.89977882  0.38715431  0.55034071  1
  O  O24  1  0.70741249  0.61952066  0.08648035  1
  O  O25  1  0.80669946  0.93203155  0.50733805  1
  O  O26  1  0.71705309  0.12160448  0.59197907  1
  O  O27  1  0.85885023  0.91580193  0.76596794  1
  O  O28  1  0.54457731  0.18637855  0.29444250  1
  O  O29  1  0.69183924  0.97398468  0.14341614  1
  O  O30  1  0.57068140  0.48655782  0.61599322  1
  O  O31  1  0.40122119  0.43738142  0.13246477  1
  O  O32  1  0.48210551  0.35828833  0.47832814  1
  O  O33  1  0.43181670  0.75564067  0.44242326  1
  O  O34  1  0.54424203  0.68950328  0.78738556  1
  O  O35  1  0.27983883  0.64021325  0.29538288  1
  O  O36  1  0.45270665  0.23252835  0.97254435  1
  O  O37  1  0.32178732  0.12369238  0.81501718  1
  O  O38  1  0.39837305  0.94463510  0.62929047  1
  O  O39  1  0.52794078  0.85782965  0.00056562  1
  O  O40  1  0.08302608  0.20296642  0.16223557  1
  O  O41  1  0.24901802  0.99956448  0.33741613  1
  O  O42  1  0.13147076  0.18524102  0.42080081  1
  O  O43  1  0.22979480  0.50534800  0.83398883  1
  O  O44  1  0.00335425  0.75462568  0.37577800  1
  O  O45  1  0.07908310  0.70590625  0.66181598  1
  O  O46  1  0.14795680  0.69354070  0.92070024  1
  O  O47  1  0.06754233  0.27458832  0.84764363  1
