# generated using pymatgen
data_Li2FePCO7
_symmetry_space_group_name_H-M   'P 1'
_cell_length_a   5.05965335
_cell_length_b   11.01609171
_cell_length_c   10.15763905
_cell_angle_alpha   74.28197065
_cell_angle_beta   96.94282986
_cell_angle_gamma   91.97331354
_symmetry_Int_Tables_number   1
_chemical_formula_structural   Li2FePCO7
_chemical_formula_sum   'Li8 Fe4 P4 C4 O28'
_cell_volume   540.99458141
_cell_formula_units_Z   4
loop_
 _symmetry_equiv_pos_site_id
 _symmetry_equiv_pos_as_xyz
  1  'x, y, z'
loop_
 _atom_site_type_symbol
 _atom_site_label
 _atom_site_symmetry_multiplicity
 _atom_site_fract_x
 _atom_site_fract_y
 _atom_site_fract_z
 _atom_site_occupancy
  Li  Li0  1  0.71004151  0.15233335  0.12893825  1
  Li  Li1  1  0.75007803  0.17480719  0.76962150  1
  Li  Li2  1  0.68709064  0.65796568  0.61660864  1
  Li  Li3  1  0.60379989  0.91000131  0.33594786  1
  Li  Li4  1  0.34236756  0.70647716  0.09874150  1
  Li  Li5  1  0.23641125  0.46386343  0.30584685  1
  Li  Li6  1  0.19565982  0.44128691  0.66513186  1
  Li  Li7  1  0.25846547  0.95807709  0.81833203  1
  Fe  Fe8  1  0.78489872  0.26237561  0.42471235  1
  Fe  Fe9  1  0.78655530  0.75768217  0.92215598  1
  Fe  Fe10  1  0.16150622  0.35393934  0.00983460  1
  Fe  Fe11  1  0.15936031  0.85876953  0.51223696  1
  P  P12  1  0.69903846  0.47490343  0.12780721  1
  P  P13  1  0.70000528  0.97714117  0.62904428  1
  P  P14  1  0.24729423  0.14145176  0.30666191  1
  P  P15  1  0.24560740  0.63942668  0.80532586  1
  C  C16  1  0.71923687  0.90374085  0.06641280  1
  C  C17  1  0.64503068  0.41751956  0.54824748  1
  C  C18  1  0.22810132  0.71260696  0.36831167  1
  C  C19  1  0.30076365  0.19844003  0.88661477  1
  O  O20  1  0.95143305  0.86518947  0.05329702  1
  O  O21  1  0.82287870  0.42634537  0.02045518  1
  O  O22  1  0.85724679  0.42102703  0.27187889  1
  O  O23  1  0.89338490  0.37933230  0.56380657  1
  O  O24  1  0.70037222  0.62107432  0.08845647  1
  O  O25  1  0.80361040  0.92985308  0.51349133  1
  O  O26  1  0.72898268  0.12208720  0.59957035  1
  O  O27  1  0.86725180  0.91789180  0.76964479  1
  O  O28  1  0.54664333  0.18242607  0.30008337  1
  O  O29  1  0.67486909  0.97118944  0.14418929  1
  O  O30  1  0.56261552  0.48809322  0.61492458  1
  O  O31  1  0.39960157  0.43408690  0.13429290  1
  O  O32  1  0.48499289  0.37118855  0.46314731  1
  O  O33  1  0.42749526  0.75318834  0.44589019  1
  O  O34  1  0.54192848  0.68058084  0.79403353  1
  O  O35  1  0.27271527  0.64504790  0.29068212  1
  O  O36  1  0.46076498  0.24461110  0.97184818  1
  O  O37  1  0.38315909  0.12779831  0.81996275  1
  O  O38  1  0.40359687  0.93609488  0.64016907  1
  O  O39  1  0.51944843  0.86299115  0.98918789  1
  O  O40  1  0.08876469  0.19539261  0.16271783  1
  O  O41  1  0.24623421  0.99528028  0.34590076  1
  O  O42  1  0.12350156  0.18990270  0.41411598  1
  O  O43  1  0.21686364  0.49445212  0.83492023  1
  O  O44  1  0.99581695  0.75146157  0.38088959  1
  O  O45  1  0.07794478  0.69863611  0.66482691  1
  O  O46  1  0.14248497  0.68683579  0.92091625  1
  O  O47  1  0.05257828  0.23688433  0.87080331  1
