# generated using pymatgen
data_Li9Mn2Co5O16
_symmetry_space_group_name_H-M   'P 1'
_cell_length_a   2.97297767
_cell_length_b   10.80010399
_cell_length_c   10.01133254
_cell_angle_alpha   114.46001333
_cell_angle_beta   90.06989726
_cell_angle_gamma   82.50829602
_symmetry_Int_Tables_number   1
_chemical_formula_structural   Li9Mn2Co5O16
_chemical_formula_sum   'Li9 Mn2 Co5 O16'
_cell_volume   289.60471924
_cell_formula_units_Z   1
loop_
 _symmetry_equiv_pos_site_id
 _symmetry_equiv_pos_as_xyz
  1  'x, y, z'
loop_
 _atom_site_type_symbol
 _atom_site_label
 _atom_site_symmetry_multiplicity
 _atom_site_fract_x
 _atom_site_fract_y
 _atom_site_fract_z
 _atom_site_occupancy
  Li  Li0  1  0.86005848  0.27020137  0.94581820  1
  Li  Li1  1  0.13616542  0.73773627  0.05930697  1
  Li  Li2  1  0.36991245  0.25974814  0.20000198  1
  Li  Li3  1  0.36940612  0.26052447  0.68751608  1
  Li  Li4  1  0.63360931  0.73896608  0.80955526  1
  Li  Li5  1  0.87513858  0.25226401  0.43959820  1
  Li  Li6  1  0.12277897  0.74317263  0.55422259  1
  Li  Li7  1  0.63036484  0.73853655  0.30495883  1
  Li  Li8  1  0.24836626  0.50068509  0.12524076  1
  Mn  Mn9  1  0.00886456  0.00183977  0.00451662  1
  Mn  Mn10  1  0.48940121  0.00130753  0.74731711  1
  Co  Co11  1  0.53095686  -0.00311812  0.25936052  1
  Co  Co12  1  0.74549673  0.50125243  0.36547415  1
  Co  Co13  1  0.97222933  -0.00099902  0.48891592  1
  Co  Co14  1  0.25032482  0.50019879  0.62498948  1
  Co  Co15  1  0.75456511  0.49772425  0.88384930  1
  O  O16  1  0.44797705  0.10902516  0.96391617  1
  O  O17  1  0.69299327  0.61661773  0.07090355  1
  O  O18  1  0.96468318  0.11088747  0.20720398  1
  O  O19  1  0.93542755  0.10898672  0.72317611  1
  O  O20  1  0.18099525  0.61694989  0.83003407  1
  O  O21  1  0.42698529  0.12100983  0.46968210  1
  O  O22  1  0.69086544  0.61337680  0.58128614  1
  O  O23  1  0.16707683  0.61662388  0.34603079  1
  O  O24  1  0.32122520  0.37998312  0.90258223  1
  O  O25  1  0.56580189  0.89046808  0.02568873  1
  O  O26  1  0.80863843  0.38175637  0.17848847  1
  O  O27  1  0.80919318  0.38843365  0.66887118  1
  O  O28  1  0.05089837  0.89498507  0.78777681  1
  O  O29  1  0.33237058  0.38608864  0.41955167  1
  O  O30  1  0.53408721  0.88948440  0.54497968  1
  O  O31  1  0.07314222  0.87528295  0.27918635  1
