# generated using pymatgen
data_Ba2LaCl7
_symmetry_space_group_name_H-M   'P 1'
_cell_length_a   10.79899471
_cell_length_b   16.01080488
_cell_length_c   7.07665587
_cell_angle_alpha   90.00000000
_cell_angle_beta   90.89578284
_cell_angle_gamma   90.00000000
_symmetry_Int_Tables_number   1
_chemical_formula_structural   Ba2LaCl7
_chemical_formula_sum   'Ba8 La4 Cl28'
_cell_volume   1223.40848919
_cell_formula_units_Z   4
loop_
 _symmetry_equiv_pos_site_id
 _symmetry_equiv_pos_as_xyz
  1  'x, y, z'
loop_
 _atom_site_type_symbol
 _atom_site_label
 _atom_site_symmetry_multiplicity
 _atom_site_fract_x
 _atom_site_fract_y
 _atom_site_fract_z
 _atom_site_occupancy
  Ba  Ba0  1  0.05036194  0.22109617  0.26939479  1
  Ba  Ba1  1  0.17573574  0.56174683  0.26861405  1
  Ba  Ba2  1  0.32426426  0.06174683  0.73138595  1
  Ba  Ba3  1  0.44963806  0.72109517  0.73060521  1
  Ba  Ba4  1  0.55036194  0.27890483  0.26939479  1
  Ba  Ba5  1  0.67573574  0.93825317  0.26861405  1
  Ba  Ba6  1  0.82426426  0.43825317  0.73138595  1
  Ba  Ba7  1  0.94963806  0.77890483  0.73060521  1
  La  La8  1  0.21742571  0.87357241  0.21907600  1
  La  La9  1  0.28257429  0.37357241  0.78092400  1
  La  La10  1  0.71742571  0.62642759  0.21907600  1
  La  La11  1  0.78257429  0.12642759  0.78092400  1
  Cl  Cl12  1  0.03744504  0.14183762  0.70326089  1
  Cl  Cl13  1  0.06624298  0.39653324  0.00453996  1
  Cl  Cl14  1  0.07967703  0.39616310  0.50636856  1
  Cl  Cl15  1  0.12335528  0.92893111  0.85944176  1
  Cl  Cl16  1  0.19529072  0.74015684  0.49458231  1
  Cl  Cl17  1  0.20560995  0.72405829  0.99646501  1
  Cl  Cl18  1  0.21253449  0.04480671  0.30257424  1
  Cl  Cl19  1  0.28746551  0.54480671  0.69742576  1
  Cl  Cl20  1  0.29439005  0.22405829  0.00353499  1
  Cl  Cl21  1  0.30470928  0.24015684  0.50541769  1
  Cl  Cl22  1  0.37664472  0.42893111  0.14055824  1
  Cl  Cl23  1  0.42032297  0.89616310  0.49363144  1
  Cl  Cl24  1  0.43375702  0.89653324  0.99546004  1
  Cl  Cl25  1  0.46255496  0.64183762  0.29673911  1
  Cl  Cl26  1  0.53744504  0.35816238  0.70326089  1
  Cl  Cl27  1  0.56624298  0.10346676  0.00453996  1
  Cl  Cl28  1  0.57967703  0.10383690  0.50636856  1
  Cl  Cl29  1  0.62335528  0.57106889  0.85944176  1
  Cl  Cl30  1  0.69529072  0.75984316  0.49458231  1
  Cl  Cl31  1  0.70560995  0.77594171  0.99646501  1
  Cl  Cl32  1  0.71253449  0.45519329  0.30257424  1
  Cl  Cl33  1  0.78746551  0.95519329  0.69742576  1
  Cl  Cl34  1  0.79439005  0.27594171  0.00353499  1
  Cl  Cl35  1  0.80470928  0.25984316  0.50541769  1
  Cl  Cl36  1  0.87664472  0.07106889  0.14055824  1
  Cl  Cl37  1  0.92032297  0.60383690  0.49363144  1
  Cl  Cl38  1  0.93375702  0.60346676  0.99546004  1
  Cl  Cl39  1  0.96255496  0.85816238  0.29673911  1
