# generated using pymatgen
data_Mn2PO5
_symmetry_space_group_name_H-M   'P 1'
_cell_length_a   7.46496114
_cell_length_b   8.55892171
_cell_length_c   6.16390931
_cell_angle_alpha   88.87508722
_cell_angle_beta   99.79937199
_cell_angle_gamma   106.15864909
_symmetry_Int_Tables_number   1
_chemical_formula_structural   Mn2PO5
_chemical_formula_sum   'Mn8 P4 O20'
_cell_volume   372.58742597
_cell_formula_units_Z   4
loop_
 _symmetry_equiv_pos_site_id
 _symmetry_equiv_pos_as_xyz
  1  'x, y, z'
loop_
 _atom_site_type_symbol
 _atom_site_label
 _atom_site_symmetry_multiplicity
 _atom_site_fract_x
 _atom_site_fract_y
 _atom_site_fract_z
 _atom_site_occupancy
  Mn  Mn0  1  0.20102486  0.80242821  0.53639875  1
  Mn  Mn1  1  0.16653207  0.79360540  0.02793864  1
  Mn  Mn2  1  0.36783416  0.55823898  0.32213060  1
  Mn  Mn3  1  0.39343376  0.12450318  0.86220634  1
  Mn  Mn4  1  0.60656624  0.87549682  0.13779366  1
  Mn  Mn5  1  0.63216584  0.44176102  0.67786940  1
  Mn  Mn6  1  0.83346793  0.20639460  0.97206136  1
  Mn  Mn7  1  0.79897514  0.19757179  0.46360125  1
  P  P8  1  0.20160432  0.43565580  0.79300074  1
  P  P9  1  0.21367292  0.16781099  0.30087094  1
  P  P10  1  0.78632708  0.83218901  0.69912906  1
  P  P11  1  0.79839568  0.56434420  0.20699926  1
  O  O12  1  0.97742175  0.78195149  0.74897672  1
  O  O13  1  0.98839973  0.70679931  0.24164273  1
  O  O14  1  0.01160027  0.29320069  0.75835727  1
  O  O15  1  0.02257825  0.21804851  0.25102328  1
  O  O16  1  0.21139741  0.54341096  0.58917445  1
  O  O17  1  0.35919469  0.88835967  0.85161623  1
  O  O18  1  0.20799303  0.53863236  0.99665623  1
  O  O19  1  0.37150058  0.80410536  0.27662585  1
  O  O20  1  0.21421669  0.05664512  0.49981750  1
  O  O21  1  0.36893598  0.35538200  0.82445770  1
  O  O22  1  0.22076924  0.07359947  0.08786592  1
  O  O23  1  0.38105441  0.32252610  0.34948733  1
  O  O24  1  0.61894559  0.67747390  0.65051267  1
  O  O25  1  0.77923076  0.92640053  0.91213408  1
  O  O26  1  0.63106402  0.64461800  0.17554230  1
  O  O27  1  0.78578331  0.94335488  0.50018250  1
  O  O28  1  0.62849942  0.19589464  0.72337415  1
  O  O29  1  0.79200697  0.46136764  0.00334377  1
  O  O30  1  0.64080531  0.11164033  0.14838377  1
  O  O31  1  0.78860259  0.45658904  0.41082555  1
