# generated using pymatgen
data_Li6Ti2O7
_symmetry_space_group_name_H-M   'P 1'
_cell_length_a   5.81150915
_cell_length_b   5.81150915
_cell_length_c   9.78877370
_cell_angle_alpha   80.24048430
_cell_angle_beta   99.75951570
_cell_angle_gamma   120.15995584
_symmetry_Int_Tables_number   1
_chemical_formula_structural   Li6Ti2O7
_chemical_formula_sum   'Li12 Ti4 O14'
_cell_volume   280.32723873
_cell_formula_units_Z   2
loop_
 _symmetry_equiv_pos_site_id
 _symmetry_equiv_pos_as_xyz
  1  'x, y, z'
loop_
 _atom_site_type_symbol
 _atom_site_label
 _atom_site_symmetry_multiplicity
 _atom_site_fract_x
 _atom_site_fract_y
 _atom_site_fract_z
 _atom_site_occupancy
  Li  Li0  1  0.32990705  0.92171387  0.88677406  1
  Li  Li1  1  0.07828613  0.67009295  0.38677406  1
  Li  Li2  1  0.79293557  0.92152289  0.90334234  1
  Li  Li3  1  0.32915129  0.47095841  0.88956510  1
  Li  Li4  1  0.07847711  0.20706443  0.40334234  1
  Li  Li5  1  0.52904159  0.67084871  0.38956510  1
  Li  Li6  1  0.47095841  0.32915129  0.61043490  1
  Li  Li7  1  0.92152289  0.79293557  0.59665766  1
  Li  Li8  1  0.67084871  0.52904159  0.11043490  1
  Li  Li9  1  0.20706443  0.07847711  0.09665766  1
  Li  Li10  1  0.92171387  0.32990705  0.61322594  1
  Li  Li11  1  0.67009295  0.07828613  0.11322594  1
  Ti  Ti12  1  0.42846474  0.79637047  0.63093159  1
  Ti  Ti13  1  0.20362953  0.57153526  0.13093159  1
  Ti  Ti14  1  0.79637047  0.42846474  0.86906841  1
  Ti  Ti15  1  0.57153526  0.20362953  0.36906841  1
  O  O16  1  0.14148766  0.64490199  0.74954359  1
  O  O17  1  0.99870985  0.27162437  0.99781326  1
  O  O18  1  0.35509801  0.85851234  0.24954359  1
  O  O19  1  0.72837563  0.00129015  0.49781326  1
  O  O20  1  0.26080298  0.50458394  0.52713676  1
  O  O21  1  0.65382099  0.65382099  0.75000000  1
  O  O22  1  0.49541606  0.73919702  0.02713676  1
  O  O23  1  0.50458394  0.26080298  0.97286324  1
  O  O24  1  0.34617901  0.34617901  0.25000000  1
  O  O25  1  0.73919702  0.49541606  0.47286324  1
  O  O26  1  0.27162437  0.99870985  0.50218674  1
  O  O27  1  0.64490199  0.14148766  0.75045641  1
  O  O28  1  0.00129015  0.72837563  0.00218674  1
  O  O29  1  0.85851234  0.35509801  0.25045641  1
