# generated using pymatgen
data_LiMn3(PO4)3
_symmetry_space_group_name_H-M   'P 1'
_cell_length_a   6.72827369
_cell_length_b   9.05897190
_cell_length_c   9.05898541
_cell_angle_alpha   95.69315458
_cell_angle_beta   64.52303232
_cell_angle_gamma   115.47531303
_symmetry_Int_Tables_number   1
_chemical_formula_structural   LiMn3(PO4)3
_chemical_formula_sum   'Li2 Mn6 P6 O24'
_cell_volume   447.49685663
_cell_formula_units_Z   2
loop_
 _symmetry_equiv_pos_site_id
 _symmetry_equiv_pos_as_xyz
  1  'x, y, z'
loop_
 _atom_site_type_symbol
 _atom_site_label
 _atom_site_symmetry_multiplicity
 _atom_site_fract_x
 _atom_site_fract_y
 _atom_site_fract_z
 _atom_site_occupancy
  Li  Li0  1  0.50000000  0.50000000  0.50000000  1
  Li  Li1  1  0.00000000  0.50000000  0.50000000  1
  Mn  Mn2  1  0.80457576  0.38512697  0.93275575  1
  Mn  Mn3  1  0.74999585  0.74089337  0.74091653  1
  Mn  Mn4  1  0.30449611  0.06725379  0.61485714  1
  Mn  Mn5  1  0.69550389  0.93274621  0.38514286  1
  Mn  Mn6  1  0.25000415  0.25910663  0.25908347  1
  Mn  Mn7  1  0.19542424  0.61487303  0.06724425  1
  P  P8  1  0.85230434  0.13455404  0.64930733  1
  P  P9  1  0.75001564  0.28756204  0.28755101  1
  P  P10  1  0.35231641  0.35069930  0.86544774  1
  P  P11  1  0.64768359  0.64930070  0.13455226  1
  P  P12  1  0.24998436  0.71243796  0.71244899  1
  P  P13  1  0.14769566  0.86544596  0.35069267  1
  O  O14  1  0.74359041  0.19220122  0.81856361  1
  O  O15  1  0.86456632  0.16599388  0.26608884  1
  O  O16  1  0.64209605  0.04446743  0.59039274  1
  O  O17  1  0.95467286  0.46346425  0.27348958  1
  O  O18  1  0.93784815  0.72069722  0.47932046  1
  O  O19  1  0.93056963  0.00271527  0.66932672  1
  O  O20  1  0.56944036  0.66933554  0.00271710  1
  O  O21  1  0.56215260  0.47933085  0.72069978  1
  O  O22  1  0.54537227  0.27353197  0.46344490  1
  O  O23  1  0.85790876  0.59038858  0.04447738  1
  O  O24  1  0.63546454  0.26608507  0.16597821  1
  O  O25  1  0.24359984  0.18145367  0.80778606  1
  O  O26  1  0.75640016  0.81854633  0.19221394  1
  O  O27  1  0.36453546  0.73391493  0.83402179  1
  O  O28  1  0.14209124  0.40961142  0.95552262  1
  O  O29  1  0.45462773  0.72646803  0.53655510  1
  O  O30  1  0.43784740  0.52066915  0.27930022  1
  O  O31  1  0.43055964  0.33066446  0.99728290  1
  O  O32  1  0.06943037  0.99728473  0.33067328  1
  O  O33  1  0.06215185  0.27930278  0.52067954  1
  O  O34  1  0.04532714  0.53653575  0.72651042  1
  O  O35  1  0.35790395  0.95553257  0.40960726  1
  O  O36  1  0.13543368  0.83400612  0.73391116  1
  O  O37  1  0.25640959  0.80779878  0.18143639  1
