# generated using pymatgen
data_Na3CuAsCO7
_symmetry_space_group_name_H-M   'P 1'
_cell_length_a   9.20655953
_cell_length_b   6.73838430
_cell_length_c   5.30529728
_cell_angle_alpha   90.00000000
_cell_angle_beta   87.00576491
_cell_angle_gamma   90.00000000
_symmetry_Int_Tables_number   1
_chemical_formula_structural   Na3CuAsCO7
_chemical_formula_sum   'Na6 Cu2 As2 C2 O14'
_cell_volume   328.67718565
_cell_formula_units_Z   2
loop_
 _symmetry_equiv_pos_site_id
 _symmetry_equiv_pos_as_xyz
  1  'x, y, z'
loop_
 _atom_site_type_symbol
 _atom_site_label
 _atom_site_symmetry_multiplicity
 _atom_site_fract_x
 _atom_site_fract_y
 _atom_site_fract_z
 _atom_site_occupancy
  Na  Na0  1  0.07926138  0.25000000  0.76881146  1
  Na  Na1  1  0.25773682  0.00288272  0.24553866  1
  Na  Na2  1  0.25773682  0.49711728  0.24553866  1
  Na  Na3  1  0.74226318  0.50288272  0.75446134  1
  Na  Na4  1  0.74226318  0.99711728  0.75446134  1
  Na  Na5  1  0.92073862  0.75000000  0.23118854  1
  Cu  Cu6  1  0.34747058  0.75000000  0.77984632  1
  Cu  Cu7  1  0.65252942  0.25000000  0.22015368  1
  As  As8  1  0.42088241  0.25000000  0.69238938  1
  As  As9  1  0.57911759  0.75000000  0.30761062  1
  C  C10  1  0.05780287  0.75000000  0.71648191  1
  C  C11  1  0.94219713  0.25000000  0.28351809  1
  O  O12  1  0.08274572  0.25000000  0.25855953  1
  O  O13  1  0.13237220  0.75000000  0.92137396  1
  O  O14  1  0.12479769  0.75000000  0.49723061  1
  O  O15  1  0.30788893  0.05127257  0.77500406  1
  O  O16  1  0.30788893  0.44872743  0.77500406  1
  O  O17  1  0.44797470  0.25000000  0.36382875  1
  O  O18  1  0.41596183  0.75000000  0.17457470  1
  O  O19  1  0.58403817  0.25000000  0.82542530  1
  O  O20  1  0.55202530  0.75000000  0.63617125  1
  O  O21  1  0.69211107  0.55127257  0.22499594  1
  O  O22  1  0.69211107  0.94872743  0.22499594  1
  O  O23  1  0.87520231  0.25000000  0.50276939  1
  O  O24  1  0.86762780  0.25000000  0.07862604  1
  O  O25  1  0.91725428  0.75000000  0.74144047  1
