# generated using pymatgen
data_Li3Fe2NiO6
_symmetry_space_group_name_H-M   'P 1'
_cell_length_a   15.59847232
_cell_length_b   9.90161886
_cell_length_c   9.90161885
_cell_angle_alpha   16.98448423
_cell_angle_beta   16.58515860
_cell_angle_gamma   16.58515863
_symmetry_Int_Tables_number   1
_chemical_formula_structural   Li3Fe2NiO6
_chemical_formula_sum   'Li3 Fe2 Ni1 O6'
_cell_volume   110.33255953
_cell_formula_units_Z   1
loop_
 _symmetry_equiv_pos_site_id
 _symmetry_equiv_pos_as_xyz
  1  'x, y, z'
loop_
 _atom_site_type_symbol
 _atom_site_label
 _atom_site_symmetry_multiplicity
 _atom_site_fract_x
 _atom_site_fract_y
 _atom_site_fract_z
 _atom_site_occupancy
  Li  Li0  1  0.16666700  0.50000000  0.50000000  1
  Li  Li1  1  0.50378298  0.49858982  0.49858982  1
  Li  Li2  1  0.82955002  0.50141018  0.50141018  1
  Fe  Fe3  1  0.00506528  0.99472569  0.99472569  1
  Fe  Fe4  1  0.32826772  0.00527431  0.00527431  1
  Ni  Ni5  1  0.66666700  0.00000000  0.00000000  1
  O  O6  1  0.24048275  0.26158361  0.26158361  1
  O  O7  1  0.57568653  0.26076022  0.26076022  1
  O  O8  1  0.09285025  0.73841639  0.73841639  1
  O  O9  1  0.90955743  0.26165236  0.26165236  1
  O  O10  1  0.42377557  0.73834764  0.73834764  1
  O  O11  1  0.75764647  0.73923978  0.73923978  1
