# generated using pymatgen
data_K3CrPCO7
_symmetry_space_group_name_H-M   'P 1'
_cell_length_a   9.95256528
_cell_length_b   6.77300386
_cell_length_c   5.73052312
_cell_angle_alpha   90.00000000
_cell_angle_beta   88.45311769
_cell_angle_gamma   90.00000000
_symmetry_Int_Tables_number   1
_chemical_formula_structural   K3CrPCO7
_chemical_formula_sum   'K6 Cr2 P2 C2 O14'
_cell_volume   386.14670075
_cell_formula_units_Z   2
loop_
 _symmetry_equiv_pos_site_id
 _symmetry_equiv_pos_as_xyz
  1  'x, y, z'
loop_
 _atom_site_type_symbol
 _atom_site_label
 _atom_site_symmetry_multiplicity
 _atom_site_fract_x
 _atom_site_fract_y
 _atom_site_fract_z
 _atom_site_occupancy
  K  K0  1  0.07894970  0.25000000  0.76032263  1
  K  K1  1  0.27049809  0.01090192  0.24917775  1
  K  K2  1  0.27049809  0.48909808  0.24917775  1
  K  K3  1  0.72950191  0.51090192  0.75082225  1
  K  K4  1  0.72950191  0.98909808  0.75082225  1
  K  K5  1  0.92105030  0.75000000  0.23967737  1
  Cr  Cr6  1  0.35871813  0.75000000  0.75865673  1
  Cr  Cr7  1  0.64128187  0.25000000  0.24134327  1
  P  P8  1  0.42486763  0.25000000  0.70375378  1
  P  P9  1  0.57513237  0.75000000  0.29624622  1
  C  C10  1  0.08076718  0.75000000  0.73093092  1
  C  C11  1  0.91923282  0.25000000  0.26906908  1
  O  O12  1  0.04841920  0.25000000  0.23996057  1
  O  O13  1  0.15847936  0.75000000  0.91344450  1
  O  O14  1  0.13712652  0.75000000  0.52376477  1
  O  O15  1  0.33369230  0.06456976  0.75298771  1
  O  O16  1  0.33369230  0.43543024  0.75298771  1
  O  O17  1  0.46497086  0.25000000  0.43730942  1
  O  O18  1  0.45095933  0.75000000  0.14285557  1
  O  O19  1  0.54904067  0.25000000  0.85714443  1
  O  O20  1  0.53502914  0.75000000  0.56269058  1
  O  O21  1  0.66630770  0.56456976  0.24701229  1
  O  O22  1  0.66630770  0.93543024  0.24701229  1
  O  O23  1  0.86287348  0.25000000  0.47623523  1
  O  O24  1  0.84152064  0.25000000  0.08655550  1
  O  O25  1  0.95158080  0.75000000  0.76003943  1
