# generated using pymatgen
data_Li3Fe(NiO3)2
_symmetry_space_group_name_H-M   'P 1'
_cell_length_a   15.53464030
_cell_length_b   9.86969175
_cell_length_c   9.86969167
_cell_angle_alpha   16.98155301
_cell_angle_beta   16.48467092
_cell_angle_gamma   16.48467136
_symmetry_Int_Tables_number   1
_chemical_formula_structural   Li3Fe(NiO3)2
_chemical_formula_sum   'Li3 Fe1 Ni2 O6'
_cell_volume   108.28288466
_cell_formula_units_Z   1
loop_
 _symmetry_equiv_pos_site_id
 _symmetry_equiv_pos_as_xyz
  1  'x, y, z'
loop_
 _atom_site_type_symbol
 _atom_site_label
 _atom_site_symmetry_multiplicity
 _atom_site_fract_x
 _atom_site_fract_y
 _atom_site_fract_z
 _atom_site_occupancy
  Li  Li0  1  0.16666700  0.50000000  0.50000000  1
  Li  Li1  1  0.50179101  0.49660024  0.49660024  1
  Li  Li2  1  0.83154299  0.50339976  0.50339976  1
  Fe  Fe3  1  0.66666700  0.00000000  0.00000000  1
  Ni  Ni4  1  0.33327853  0.99947300  0.99947300  1
  Ni  Ni5  1  0.00005447  0.00052700  0.00052700  1
  O  O6  1  0.24257623  0.26220680  0.26220680  1
  O  O7  1  0.09075677  0.73779320  0.73779320  1
  O  O8  1  0.42841882  0.73759323  0.73759323  1
  O  O9  1  0.57353496  0.26393500  0.26393500  1
  O  O10  1  0.90491418  0.26240677  0.26240677  1
  O  O11  1  0.75979804  0.73606500  0.73606500  1
