# generated using pymatgen
data_Li9Mn2Co5O16
_symmetry_space_group_name_H-M   'P 1'
_cell_length_a   5.12187062
_cell_length_b   7.79287826
_cell_length_c   7.79287817
_cell_angle_alpha   96.64227174
_cell_angle_beta   76.51499048
_cell_angle_gamma   76.51499335
_symmetry_Int_Tables_number   1
_chemical_formula_structural   Li9Mn2Co5O16
_chemical_formula_sum   'Li9 Mn2 Co5 O16'
_cell_volume   289.33693403
_cell_formula_units_Z   1
loop_
 _symmetry_equiv_pos_site_id
 _symmetry_equiv_pos_as_xyz
  1  'x, y, z'
loop_
 _atom_site_type_symbol
 _atom_site_label
 _atom_site_symmetry_multiplicity
 _atom_site_fract_x
 _atom_site_fract_y
 _atom_site_fract_z
 _atom_site_occupancy
  Li  Li0  1  0.99907237  0.11512897  0.37333357  1
  Li  Li1  1  0.00092763  0.62666643  0.88487103  1
  Li  Li2  1  0.51470161  0.99027487  0.49027487  1
  Li  Li3  1  0.48529839  0.50972513  0.00972513  1
  Li  Li4  1  0.99907237  0.87333357  0.61512897  1
  Li  Li5  1  0.00092763  0.38487103  0.12666643  1
  Li  Li6  1  0.50000000  0.75000000  0.75000000  1
  Li  Li7  1  0.50000000  0.25000000  0.25000000  1
  Li  Li8  1  0.00000000  0.75000000  0.25000000  1
  Mn  Mn9  1  0.00000000  0.99481973  0.00518027  1
  Mn  Mn10  1  1.00000000  0.50518027  0.49481973  1
  Co  Co11  1  0.50000000  0.87055320  0.12944680  1
  Co  Co12  1  0.50000000  0.37491503  0.62508497  1
  Co  Co13  1  0.00000000  0.25000000  0.75000000  1
  Co  Co14  1  0.50000000  0.62944680  0.37055320  1
  Co  Co15  1  0.50000000  0.12508497  0.87491503  1
  O  O16  1  0.76592419  0.00497077  0.23344636  1
  O  O17  1  0.76582384  0.48963726  0.73496949  1
  O  O18  1  0.27852769  0.86587921  0.36587921  1
  O  O19  1  0.26540582  0.36487987  0.86487987  1
  O  O20  1  0.76592419  0.73344636  0.50497077  1
  O  O21  1  0.76582384  0.23496949  0.98963726  1
  O  O22  1  0.24807770  0.60787549  0.60446259  1
  O  O23  1  0.24807770  0.10446259  0.10787549  1
  O  O24  1  0.23417616  0.26503051  0.51036274  1
  O  O25  1  0.23407581  0.76655364  0.99502923  1
  O  O26  1  0.73459418  0.13512013  0.63512013  1
  O  O27  1  0.72147231  0.63412079  0.13412079  1
  O  O28  1  0.23417616  0.01036274  0.76503051  1
  O  O29  1  0.23407581  0.49502923  0.26655364  1
  O  O30  1  0.75192230  0.89212451  0.89553741  1
  O  O31  1  0.75192230  0.39553741  0.39212451  1
