# generated using pymatgen
data_KPWCO7
_symmetry_space_group_name_H-M   'P 1'
_cell_length_a   10.57929021
_cell_length_b   6.53952996
_cell_length_c   5.34160112
_cell_angle_alpha   90.00000000
_cell_angle_beta   87.66085291
_cell_angle_gamma   90.00000000
_symmetry_Int_Tables_number   1
_chemical_formula_structural   KPWCO7
_chemical_formula_sum   'K2 P2 W2 C2 O14'
_cell_volume   369.24318515
_cell_formula_units_Z   2
loop_
 _symmetry_equiv_pos_site_id
 _symmetry_equiv_pos_as_xyz
  1  'x, y, z'
loop_
 _atom_site_type_symbol
 _atom_site_label
 _atom_site_symmetry_multiplicity
 _atom_site_fract_x
 _atom_site_fract_y
 _atom_site_fract_z
 _atom_site_occupancy
  K  K0  1  0.20902066  0.39305058  0.24014475  1
  K  K1  1  0.79097934  0.89305058  0.75985525  1
  P  P2  1  0.43592008  0.27478470  0.73185472  1
  P  P3  1  0.56407992  0.77478470  0.26814528  1
  W  W4  1  0.34864344  0.77675093  0.77345900  1
  W  W5  1  0.65135656  0.27675093  0.22654100  1
  C  C6  1  0.11297855  0.73732845  0.71131511  1
  C  C7  1  0.88702145  0.23732845  0.28868489  1
  O  O8  1  0.99887382  0.20972255  0.33335533  1
  O  O9  1  0.16231623  0.75436839  0.93487983  1
  O  O10  1  0.20815703  0.74983689  0.52589678  1
  O  O11  1  0.34724828  0.08809110  0.78487509  1
  O  O12  1  0.34883858  0.46118027  0.79467146  1
  O  O13  1  0.45248304  0.77012637  0.09293879  1
  O  O14  1  0.48013925  0.28261077  0.45453645  1
  O  O15  1  0.51986075  0.78261077  0.54546355  1
  O  O16  1  0.54751696  0.27012637  0.90706121  1
  O  O17  1  0.65116142  0.96118027  0.20532854  1
  O  O18  1  0.65275172  0.58809110  0.21512491  1
  O  O19  1  0.79184297  0.24983689  0.47410322  1
  O  O20  1  0.83768377  0.25436839  0.06512017  1
  O  O21  1  0.00112618  0.70972255  0.66664467  1
