# generated using pymatgen
data_Li7Ti12Fe5O32
_symmetry_space_group_name_H-M   'P 1'
_cell_length_a   8.51010791
_cell_length_b   8.49327743
_cell_length_c   8.55350806
_cell_angle_alpha   90.09094474
_cell_angle_beta   90.02093362
_cell_angle_gamma   90.06225143
_symmetry_Int_Tables_number   1
_chemical_formula_structural   Li7Ti12Fe5O32
_chemical_formula_sum   'Li7 Ti12 Fe5 O32'
_cell_volume   618.23532086
_cell_formula_units_Z   1
loop_
 _symmetry_equiv_pos_site_id
 _symmetry_equiv_pos_as_xyz
  1  'x, y, z'
loop_
 _atom_site_type_symbol
 _atom_site_label
 _atom_site_symmetry_multiplicity
 _atom_site_fract_x
 _atom_site_fract_y
 _atom_site_fract_z
 _atom_site_occupancy
  Li  Li0  1  0.00231832  0.49825191  0.50250688  1
  Li  Li1  1  0.12464984  0.87498736  0.37557113  1
  Li  Li2  1  0.37526671  0.12457201  0.87548732  1
  Li  Li3  1  0.49836778  0.50220604  0.00248205  1
  Li  Li4  1  0.50275032  0.00188136  0.49797793  1
  Li  Li5  1  0.62429796  0.62405370  0.62444980  1
  Li  Li6  1  0.87559170  0.37574143  0.12476429  1
  Ti  Ti7  1  0.12267972  0.62515660  0.13637047  1
  Ti  Ti8  1  0.13178242  0.37272496  0.87785158  1
  Ti  Ti9  1  0.13603673  0.12171363  0.62187294  1
  Ti  Ti10  1  0.37244786  0.87526303  0.13216095  1
  Ti  Ti11  1  0.37235248  0.63224001  0.37951544  1
  Ti  Ti12  1  0.37997764  0.37293926  0.63261625  1
  Ti  Ti13  1  0.61670915  0.87299612  0.86465407  1
  Ti  Ti14  1  0.62059048  0.13402140  0.12184173  1
  Ti  Ti15  1  0.63304492  0.38024164  0.37134042  1
  Ti  Ti16  1  0.86431127  0.61686782  0.87283805  1
  Ti  Ti17  1  0.87192570  0.86392286  0.61700191  1
  Ti  Ti18  1  0.87584644  0.13100483  0.37151608  1
  Fe  Fe19  1  0.24863595  0.74947307  0.75008718  1
  Fe  Fe20  1  0.25159478  0.25045244  0.25112898  1
  Fe  Fe21  1  0.74939601  0.74919737  0.24795726  1
  Fe  Fe22  1  0.74988426  0.24882758  0.74910304  1
  Fe  Fe23  1  0.00002579  0.00171398  0.99933062  1
  O  O24  1  0.10640610  0.12579126  0.39236139  1
  O  O25  1  0.11221183  0.61172936  0.88931786  1
  O  O26  1  0.10801290  0.89412070  0.62470207  1
  O  O27  1  0.12579269  0.38937848  0.10358759  1
  O  O28  1  0.12352105  0.14324396  0.85693253  1
  O  O29  1  0.14026022  0.62399321  0.35515698  1
  O  O30  1  0.13963565  0.36080673  0.63922829  1
  O  O31  1  0.14201869  0.86070006  0.12612223  1
  O  O32  1  0.35573437  0.14030689  0.62366701  1
  O  O33  1  0.36103017  0.63706292  0.14089595  1
  O  O34  1  0.35940968  0.37733508  0.85417526  1
  O  O35  1  0.37725609  0.85635184  0.35778526  1
  O  O36  1  0.37381764  0.60944060  0.60483384  1
  O  O37  1  0.39001253  0.10820197  0.12317986  1
  O  O38  1  0.38722506  0.38823057  0.38999631  1
  O  O39  1  0.39376833  0.87224925  0.89260183  1
  O  O40  1  0.60490489  0.37219454  0.60777510  1
  O  O41  1  0.61324882  0.88879553  0.11049608  1
  O  O42  1  0.60984930  0.60571467  0.37635851  1
  O  O43  1  0.62477617  0.10939291  0.89524464  1
  O  O44  1  0.62391896  0.35662381  0.14318579  1
  O  O45  1  0.64197431  0.87678552  0.64572878  1
  O  O46  1  0.63880044  0.13852042  0.35971328  1
  O  O47  1  0.64512715  0.64174428  0.87583090  1
  O  O48  1  0.85590183  0.35936431  0.37657158  1
  O  O49  1  0.86259005  0.86278457  0.86038076  1
  O  O50  1  0.86047983  0.12304139  0.14624738  1
  O  O51  1  0.87660961  0.64429345  0.64292164  1
  O  O52  1  0.87187925  0.89066764  0.39513415  1
  O  O53  1  0.89168239  0.39275423  0.87346208  1
  O  O54  1  0.88841987  0.11254150  0.60996437  1
  O  O55  1  0.89323691  0.62540696  0.10603635  1
