# generated using pymatgen
data_InH12S2NO12
_symmetry_space_group_name_H-M   'P 1'
_cell_length_a   9.26740283
_cell_length_b   10.71385003
_cell_length_c   10.95729525
_cell_angle_alpha   90.00000000
_cell_angle_beta   90.00000000
_cell_angle_gamma   102.12543987
_symmetry_Int_Tables_number   1
_chemical_formula_structural   InH12S2NO12
_chemical_formula_sum   'In4 H48 S8 N4 O48'
_cell_volume   1063.67308798
_cell_formula_units_Z   4
loop_
 _symmetry_equiv_pos_site_id
 _symmetry_equiv_pos_as_xyz
  1  'x, y, z'
loop_
 _atom_site_type_symbol
 _atom_site_label
 _atom_site_symmetry_multiplicity
 _atom_site_fract_x
 _atom_site_fract_y
 _atom_site_fract_z
 _atom_site_occupancy
  In  In0  1  0.15344163  0.28911484  0.86828204  1
  In  In1  1  0.34814346  0.70913195  0.13568677  1
  In  In2  1  0.65185654  0.29086805  0.63568677  1
  In  In3  1  0.84655837  0.71088516  0.36828204  1
  H  H4  1  0.07193943  0.83177154  0.52449079  1
  H  H5  1  0.07589802  0.91211848  0.81228644  1
  H  H6  1  0.07199346  0.82934927  0.92719965  1
  H  H7  1  0.14279806  0.58962819  0.31775072  1
  H  H8  1  0.20192385  0.63382270  0.68961718  1
  H  H9  1  0.05913167  0.09304410  0.03805411  1
  H  H10  1  0.22893744  0.75053869  0.79192107  1
  H  H11  1  0.12879745  0.26794929  0.29942668  1
  H  H12  1  0.18062233  0.36911081  0.18512951  1
  H  H13  1  0.28833457  0.91277431  0.59449246  1
  H  H14  1  0.18849042  0.39818396  0.62924790  1
  H  H15  1  0.30811857  0.87127294  0.46025987  1
  H  H16  1  0.30752618  0.60663562  0.37274080  1
  H  H17  1  0.30878167  0.62321046  0.81205305  1
  H  H18  1  0.18604859  0.15847312  0.53733224  1
  H  H19  1  0.20549830  0.08201588  0.41935502  1
  H  H20  1  0.37449845  0.72809880  0.70294086  1
  H  H21  1  0.27565192  0.25121114  0.21051422  1
  H  H22  1  0.29363267  0.37361368  0.30657998  1
  H  H23  1  0.44119830  0.90869131  0.96953183  1
  H  H24  1  0.35400223  0.41778234  0.68301580  1
  H  H25  1  0.56119683  0.90417545  0.69944238  1
  H  H26  1  0.57015701  0.82974492  0.98027039  1
  H  H27  1  0.56304784  0.82937174  0.57970025  1
  H  H28  1  0.43695216  0.17062826  0.07970025  1
  H  H29  1  0.42984299  0.17025508  0.48027039  1
  H  H30  1  0.43880317  0.09582455  0.19944238  1
  H  H31  1  0.64599777  0.58221766  0.18301580  1
  H  H32  1  0.55880170  0.09130869  0.46953183  1
  H  H33  1  0.70636733  0.62638632  0.80657998  1
  H  H34  1  0.72434808  0.74878886  0.71051422  1
  H  H35  1  0.62550155  0.27190120  0.20294086  1
  H  H36  1  0.79450170  0.91798412  0.91935502  1
  H  H37  1  0.81395141  0.84152688  0.03733224  1
  H  H38  1  0.69121833  0.37678954  0.31205305  1
  H  H39  1  0.69247382  0.39336438  0.87274080  1
  H  H40  1  0.69188143  0.12872706  0.96025987  1
  H  H41  1  0.81150958  0.60181604  0.12924790  1
  H  H42  1  0.71166543  0.08722569  0.09449246  1
  H  H43  1  0.81937767  0.63088919  0.68512951  1
  H  H44  1  0.87120255  0.73205071  0.79942668  1
  H  H45  1  0.77106256  0.24946131  0.29192107  1
  H  H46  1  0.94086833  0.90695590  0.53805411  1
  H  H47  1  0.79807615  0.36617730  0.18961718  1
  H  H48  1  0.85720194  0.41037181  0.81775072  1
  H  H49  1  0.92800654  0.17065073  0.42719965  1
  H  H50  1  0.92410198  0.08788152  0.31228644  1
  H  H51  1  0.92806057  0.16822846  0.02449079  1
  S  S52  1  0.11280560  0.89704123  0.20056822  1
  S  S53  1  0.03186950  0.52720866  0.01723177  1
  S  S54  1  0.47015963  0.47259698  0.98533357  1
  S  S55  1  0.38962107  0.10073156  0.80750966  1
  S  S56  1  0.61037893  0.89926844  0.30750966  1
  S  S57  1  0.52984037  0.52740302  0.48533357  1
  S  S58  1  0.96813050  0.47279134  0.51723177  1
  S  S59  1  0.88719440  0.10295877  0.70056822  1
  N  N60  1  0.27860071  0.68407368  0.74866634  1
  N  N61  1  0.21962206  0.31525515  0.25058169  1
  N  N62  1  0.78037794  0.68474485  0.75058169  1
  N  N63  1  0.72139929  0.31592632  0.24866634  1
  O  O64  1  0.04712468  0.92849882  0.08403212  1
  O  O65  1  0.03124077  0.76706585  0.24358977  1
  O  O66  1  0.11228058  0.99438313  0.29373001  1
  O  O67  1  0.07226619  0.82375193  0.83795354  1
  O  O68  1  0.02584914  0.45224106  0.12968128  1
  O  O69  1  0.03062937  0.44160238  0.90545135  1
  O  O70  1  0.09266747  0.40857817  0.50415743  1
  O  O71  1  0.04095093  0.18042995  0.02572814  1
  O  O72  1  0.17550713  0.62616966  0.00918205  1
  O  O73  1  0.24198624  0.85259065  0.53049481  1
  O  O74  1  0.27009225  0.88306854  0.17804036  1
  O  O75  1  0.24840543  0.60014929  0.29523616  1
  O  O76  1  0.24825511  0.40059665  0.70648245  1
  O  O77  1  0.25612900  0.15236884  0.47213748  1
  O  O78  1  0.23156408  0.11320499  0.82997041  1
  O  O79  1  0.32651487  0.37331560  0.99387317  1
  O  O80  1  0.45840121  0.82074208  0.98064468  1
  O  O81  1  0.40465330  0.59077301  0.49925065  1
  O  O82  1  0.54179810  0.92663757  0.42411700  1
  O  O83  1  0.47135227  0.55831522  0.09745706  1
  O  O84  1  0.53258295  0.77051520  0.26011707  1
  O  O85  1  0.47537367  0.54670623  0.87274418  1
  O  O86  1  0.61005743  0.00072234  0.21784595  1
  O  O87  1  0.43414161  0.18087394  0.16862662  1
  O  O88  1  0.56585839  0.81912606  0.66862662  1
  O  O89  1  0.38994257  0.99927766  0.71784595  1
  O  O90  1  0.52462633  0.45329377  0.37274418  1
  O  O91  1  0.46741705  0.22948480  0.76011707  1
  O  O92  1  0.52864773  0.44168478  0.59745706  1
  O  O93  1  0.45820190  0.07336243  0.92411700  1
  O  O94  1  0.59534670  0.40922699  0.99925065  1
  O  O95  1  0.54159879  0.17925792  0.48064468  1
  O  O96  1  0.67348513  0.62668440  0.49387317  1
  O  O97  1  0.76843592  0.88679501  0.32997041  1
  O  O98  1  0.74387100  0.84763116  0.97213748  1
  O  O99  1  0.75174489  0.59940335  0.20648245  1
  O  O100  1  0.75159457  0.39985071  0.79523616  1
  O  O101  1  0.72990775  0.11693146  0.67804036  1
  O  O102  1  0.75801376  0.14740935  0.03049481  1
  O  O103  1  0.82449287  0.37383034  0.50918205  1
  O  O104  1  0.95904907  0.81957005  0.52572814  1
  O  O105  1  0.90733253  0.59142183  0.00415743  1
  O  O106  1  0.96937063  0.55839762  0.40545135  1
  O  O107  1  0.97415086  0.54775894  0.62968128  1
  O  O108  1  0.92773381  0.17624807  0.33795354  1
  O  O109  1  0.88771942  0.00561687  0.79373001  1
  O  O110  1  0.96875923  0.23293415  0.74358977  1
  O  O111  1  0.95287532  0.07150118  0.58403212  1
