# generated using pymatgen
data_Na5LiFe2P2(CO7)2
_symmetry_space_group_name_H-M   'P 1'
_cell_length_a   8.99867891
_cell_length_b   6.59733668
_cell_length_c   10.39942676
_cell_angle_alpha   90.17925764
_cell_angle_beta   89.01207164
_cell_angle_gamma   89.30067325
_symmetry_Int_Tables_number   1
_chemical_formula_structural   Na5LiFe2P2(CO7)2
_chemical_formula_sum   'Na10 Li2 Fe4 P4 C4 O28'
_cell_volume   617.24484072
_cell_formula_units_Z   2
loop_
 _symmetry_equiv_pos_site_id
 _symmetry_equiv_pos_as_xyz
  1  'x, y, z'
loop_
 _atom_site_type_symbol
 _atom_site_label
 _atom_site_symmetry_multiplicity
 _atom_site_fract_x
 _atom_site_fract_y
 _atom_site_fract_z
 _atom_site_occupancy
  Na  Na0  1  0.08289601  0.24576731  0.88092208  1
  Na  Na1  1  0.08256662  0.24797155  0.37948256  1
  Na  Na2  1  0.26019622  0.00110007  0.62454842  1
  Na  Na3  1  0.26102189  0.49952493  0.62398435  1
  Na  Na4  1  0.26032746  0.49847700  0.12464541  1
  Na  Na5  1  0.73967254  0.50152300  0.87535459  1
  Na  Na6  1  0.73897811  0.50047507  0.37601565  1
  Na  Na7  1  0.73980378  0.99889993  0.37545158  1
  Na  Na8  1  0.91743338  0.75202845  0.62051744  1
  Na  Na9  1  0.91710499  0.75423269  0.11907792  1
  Li  Li10  1  0.26918407  0.00436728  0.12326318  1
  Li  Li11  1  0.73081593  0.99563272  0.87673682  1
  Fe  Fe12  1  0.35475543  0.75168639  0.89390961  1
  Fe  Fe13  1  0.35498201  0.75050187  0.39145817  1
  Fe  Fe14  1  0.64501799  0.24949813  0.60854183  1
  Fe  Fe15  1  0.64524457  0.24831361  0.10609039  1
  P  P16  1  0.41642241  0.24601522  0.85090303  1
  P  P17  1  0.41229063  0.24675870  0.34864853  1
  P  P18  1  0.58770937  0.75324130  0.65135147  1
  P  P19  1  0.58357759  0.75398378  0.14909697  1
  C  C20  1  0.05616807  0.75647214  0.86691875  1
  C  C21  1  0.06083434  0.75214018  0.36455869  1
  C  C22  1  0.93916566  0.24785982  0.63544131  1
  C  C23  1  0.94383193  0.24352786  0.13308125  1
  O  O24  1  0.08275219  0.25200210  0.64338493  1
  O  O25  1  0.08806583  0.23327660  0.13974463  1
  O  O26  1  0.12068102  0.75113164  0.97793095  1
  O  O27  1  0.12288524  0.75127348  0.47689971  1
  O  O28  1  0.13848748  0.75096959  0.76248777  1
  O  O29  1  0.14426617  0.75672602  0.26105015  1
  O  O30  1  0.31859075  0.06353362  0.89467390  1
  O  O31  1  0.32597412  0.43905485  0.89417837  1
  O  O32  1  0.31833937  0.06229153  0.39417446  1
  O  O33  1  0.31797210  0.43856405  0.38815792  1
  O  O34  1  0.43266228  0.24693062  0.70159149  1
  O  O35  1  0.43406733  0.75025310  0.58808138  1
  O  O36  1  0.42917483  0.23772209  0.19889397  1
  O  O37  1  0.42726190  0.76463260  0.08930141  1
  O  O38  1  0.57273810  0.23536740  0.91069859  1
  O  O39  1  0.57082517  0.76227791  0.80110603  1
  O  O40  1  0.56593267  0.24974690  0.41191862  1
  O  O41  1  0.56733772  0.75306938  0.29840851  1
  O  O42  1  0.68202790  0.56143595  0.61184208  1
  O  O43  1  0.68166063  0.93770847  0.60582554  1
  O  O44  1  0.67402588  0.56094515  0.10582163  1
  O  O45  1  0.68140925  0.93646638  0.10532610  1
  O  O46  1  0.85573383  0.24327398  0.73894985  1
  O  O47  1  0.86151252  0.24903041  0.23751223  1
  O  O48  1  0.87711476  0.24872552  0.52310029  1
  O  O49  1  0.87931898  0.24886836  0.02206905  1
  O  O50  1  0.91193417  0.76672340  0.86025537  1
  O  O51  1  0.91724781  0.74799790  0.35661507  1
