# generated using pymatgen
data_Zr2(PO4)3
_symmetry_space_group_name_H-M   'P 1'
_cell_length_a   9.06872092
_cell_length_b   9.11602211
_cell_length_c   12.68272930
_cell_angle_alpha   90.00000000
_cell_angle_beta   90.56000209
_cell_angle_gamma   90.00000000
_symmetry_Int_Tables_number   1
_chemical_formula_structural   Zr2(PO4)3
_chemical_formula_sum   'Zr8 P12 O48'
_cell_volume   1048.43952700
_cell_formula_units_Z   4
loop_
 _symmetry_equiv_pos_site_id
 _symmetry_equiv_pos_as_xyz
  1  'x, y, z'
loop_
 _atom_site_type_symbol
 _atom_site_label
 _atom_site_symmetry_multiplicity
 _atom_site_fract_x
 _atom_site_fract_y
 _atom_site_fract_z
 _atom_site_occupancy
  Zr  Zr0  1  0.24976865  0.47060263  0.88006712  1
  Zr  Zr1  1  0.24943048  0.53658042  0.38128579  1
  Zr  Zr2  1  0.25023135  0.97060263  0.61993288  1
  Zr  Zr3  1  0.25056952  0.03658042  0.11871421  1
  Zr  Zr4  1  0.74943048  0.96341958  0.88128579  1
  Zr  Zr5  1  0.74976865  0.02939737  0.38006712  1
  Zr  Zr6  1  0.75056952  0.46341958  0.61871421  1
  Zr  Zr7  1  0.75023135  0.52939737  0.11993288  1
  P  P8  1  0.03107938  0.25093788  0.49373219  1
  P  P9  1  0.10742738  0.11474784  0.85627382  1
  P  P10  1  0.11155758  0.39590035  0.14227453  1
  P  P11  1  0.38844242  0.89590035  0.35772547  1
  P  P12  1  0.39257262  0.61474784  0.64372618  1
  P  P13  1  0.46892062  0.75093788  0.00626781  1
  P  P14  1  0.53107938  0.24906212  0.99373219  1
  P  P15  1  0.60742738  0.38525216  0.35627382  1
  P  P16  1  0.61155758  0.10409965  0.64227453  1
  P  P17  1  0.88844242  0.60409965  0.85772547  1
  P  P18  1  0.89257262  0.88525216  0.14372618  1
  P  P19  1  0.96892062  0.74906212  0.50626781  1
  O  O20  1  0.05835092  0.59845386  0.86281198  1
  O  O21  1  0.06296578  0.65351921  0.43254742  1
  O  O22  1  0.06930532  0.83328790  0.58427031  1
  O  O23  1  0.05913159  0.91865732  0.15263464  1
  O  O24  1  0.12042858  0.14329227  0.56251042  1
  O  O25  1  0.13329401  0.27994230  0.83728732  1
  O  O26  1  0.16392094  0.07099296  0.96635184  1
  O  O27  1  0.13806903  0.34791938  0.43126658  1
  O  O28  1  0.16797567  0.49931332  0.22983123  1
  O  O29  1  0.18983933  0.02382435  0.77229570  1
  O  O30  1  0.15912169  0.23666519  0.16528091  1
  O  O31  1  0.17483016  0.44503577  0.03606350  1
  O  O32  1  0.31016067  0.52382435  0.72770430  1
  O  O33  1  0.32516984  0.94503577  0.46393650  1
  O  O34  1  0.34087831  0.73666519  0.33471909  1
  O  O35  1  0.33202433  0.99931332  0.27016877  1
  O  O36  1  0.33607906  0.57099296  0.53364816  1
  O  O37  1  0.36193097  0.84791938  0.06873342  1
  O  O38  1  0.36670599  0.77994230  0.66271268  1
  O  O39  1  0.37957142  0.64329227  0.93748958  1
  O  O40  1  0.43069568  0.33328790  0.91572969  1
  O  O41  1  0.44086841  0.41865732  0.34736536  1
  O  O42  1  0.44164908  0.09845386  0.63718802  1
  O  O43  1  0.43703422  0.15351921  0.06745258  1
  O  O44  1  0.56296578  0.84648079  0.93254742  1
  O  O45  1  0.55835092  0.90154614  0.36281198  1
  O  O46  1  0.55913159  0.58134268  0.65263464  1
  O  O47  1  0.56930532  0.66671210  0.08427031  1
  O  O48  1  0.62042858  0.35670773  0.06251042  1
  O  O49  1  0.63329401  0.22005770  0.33728732  1
  O  O50  1  0.63806903  0.15208062  0.93126658  1
  O  O51  1  0.66392094  0.42900704  0.46635184  1
  O  O52  1  0.66797567  0.00068668  0.72983223  1
  O  O53  1  0.65912169  0.26333481  0.66528091  1
  O  O54  1  0.67483016  0.05496423  0.53606350  1
  O  O55  1  0.68983933  0.47617565  0.27229570  1
  O  O56  1  0.82516984  0.55496423  0.96393650  1
  O  O57  1  0.84087831  0.76333481  0.83471909  1
  O  O58  1  0.81016067  0.97617565  0.22770430  1
  O  O59  1  0.83202433  0.50068668  0.77016777  1
  O  O60  1  0.86193097  0.65208062  0.56873342  1
  O  O61  1  0.83607906  0.92900704  0.03364816  1
  O  O62  1  0.86670599  0.72005770  0.16271268  1
  O  O63  1  0.87957142  0.85670773  0.43748958  1
  O  O64  1  0.94086841  0.08134268  0.84736536  1
  O  O65  1  0.93069468  0.16671210  0.41572969  1
  O  O66  1  0.93703422  0.34648079  0.56745258  1
  O  O67  1  0.94164908  0.40154614  0.13718802  1
