# generated using pymatgen
data_MnZn4O5
_symmetry_space_group_name_H-M   'P 1'
_cell_length_a   3.31757387
_cell_length_b   12.69421817
_cell_length_c   6.29443886
_cell_angle_alpha   86.83227780
_cell_angle_beta   105.29433169
_cell_angle_gamma   90.01876280
_symmetry_Int_Tables_number   1
_chemical_formula_structural   MnZn4O5
_chemical_formula_sum   'Mn2 Zn8 O10'
_cell_volume   255.27706438
_cell_formula_units_Z   2
loop_
 _symmetry_equiv_pos_site_id
 _symmetry_equiv_pos_as_xyz
  1  'x, y, z'
loop_
 _atom_site_type_symbol
 _atom_site_label
 _atom_site_symmetry_multiplicity
 _atom_site_fract_x
 _atom_site_fract_y
 _atom_site_fract_z
 _atom_site_occupancy
  Mn  Mn0  1  0.14066711  0.76880246  0.26808741  1
  Mn  Mn1  1  0.92470020  0.36521978  0.86882322  1
  Zn  Zn2  1  0.06634201  0.13087021  0.13903887  1
  Zn  Zn3  1  0.26021492  0.53387304  0.53494346  1
  Zn  Zn4  1  0.46894833  0.93480307  0.93198694  1
  Zn  Zn5  1  0.33678093  0.16515993  0.66919898  1
  Zn  Zn6  1  0.67079359  0.33156388  0.33681336  1
  Zn  Zn7  1  0.87241183  0.73199002  0.73778193  1
  Zn  Zn8  1  0.73404579  0.96811968  0.47112290  1
  Zn  Zn9  1  0.52653294  0.56616807  0.06872111  1
  O  O10  1  0.21989554  0.05669007  0.44196391  1
  O  O11  1  0.01091232  0.65474728  0.03634411  1
  O  O12  1  0.40900779  0.46180266  0.83652181  1
  O  O13  1  0.48379906  0.09114867  0.97315331  1
  O  O14  1  0.29208390  0.68959170  0.57855664  1
  O  O15  1  0.09182118  0.28722358  0.18041343  1
  O  O16  1  0.81899682  0.25294045  0.63362088  1
  O  O17  1  0.62415000  0.86517478  0.23588718  1
  O  O18  1  0.67918396  0.48957013  0.37214261  1
  O  O19  1  0.88845079  0.88976654  0.77196094  1
