# generated using pymatgen
data_K2H2OsCCl5O2
_symmetry_space_group_name_H-M   'P 1'
_cell_length_a   13.81117943
_cell_length_b   7.21945624
_cell_length_c   22.47010342
_cell_angle_alpha   90.00000000
_cell_angle_beta   98.77679655
_cell_angle_gamma   90.00000000
_symmetry_Int_Tables_number   1
_chemical_formula_structural   K2H2OsCCl5O2
_chemical_formula_sum   'K16 H16 Os8 C8 Cl40 O16'
_cell_volume   2214.24075838
_cell_formula_units_Z   8
loop_
 _symmetry_equiv_pos_site_id
 _symmetry_equiv_pos_as_xyz
  1  'x, y, z'
loop_
 _atom_site_type_symbol
 _atom_site_label
 _atom_site_symmetry_multiplicity
 _atom_site_fract_x
 _atom_site_fract_y
 _atom_site_fract_z
 _atom_site_occupancy
  K  K0  1  0.13979680  0.40639640  0.79201487  1
  K  K1  1  0.15192143  0.12060583  0.50393860  1
  K  K2  1  0.13979680  0.09360360  0.29201487  1
  K  K3  1  0.32171571  0.91217032  0.78381266  1
  K  K4  1  0.15192143  0.37939417  0.00393860  1
  K  K5  1  0.35669110  0.64490788  0.50856579  1
  K  K6  1  0.32171571  0.58782968  0.28381266  1
  K  K7  1  0.35669110  0.85509212  0.00856579  1
  K  K8  1  0.64330890  0.14490788  0.99143421  1
  K  K9  1  0.67828429  0.41217032  0.71618734  1
  K  K10  1  0.64330890  0.35509212  0.49143421  1
  K  K11  1  0.84807857  0.62060583  0.99606140  1
  K  K12  1  0.67828429  0.08782968  0.21618734  1
  K  K13  1  0.86020320  0.90639640  0.70798513  1
  K  K14  1  0.84807857  0.87939417  0.49606140  1
  K  K15  1  0.86020320  0.59360360  0.20798513  1
  H  H16  1  0.13855938  0.09147584  0.69632402  1
  H  H17  1  0.22674748  0.21485638  0.68687689  1
  H  H18  1  0.13855938  0.40852416  0.19632402  1
  H  H19  1  0.27447059  0.57091052  0.69432947  1
  H  H20  1  0.35093841  0.49469668  0.74513857  1
  H  H21  1  0.22674748  0.28514362  0.18687689  1
  H  H22  1  0.27447059  0.92908948  0.19432947  1
  H  H23  1  0.35093841  0.00530332  0.24513857  1
  H  H24  1  0.64906159  0.99469668  0.75486143  1
  H  H25  1  0.72552941  0.07091052  0.80567053  1
  H  H26  1  0.77325252  0.71485638  0.81312311  1
  H  H27  1  0.64906159  0.50530332  0.25486143  1
  H  H28  1  0.72552941  0.42908948  0.30567053  1
  H  H29  1  0.86144062  0.59147584  0.80367598  1
  H  H30  1  0.77325252  0.78514362  0.31312311  1
  H  H31  1  0.86144062  0.90852416  0.30367598  1
  Os  Os32  1  0.08298597  0.84124582  0.88962382  1
  Os  Os33  1  0.08298597  0.65875418  0.38962382  1
  Os  Os34  1  0.42539107  0.15961824  0.61285480  1
  Os  Os35  1  0.57460893  0.65961824  0.88714520  1
  Os  Os36  1  0.42539107  0.34038176  0.11285480  1
  Os  Os37  1  0.57460893  0.84038176  0.38714520  1
  Os  Os38  1  0.91701403  0.34124582  0.61037618  1
  Os  Os39  1  0.91701403  0.15875418  0.11037618  1
  C  C40  1  0.02472631  0.49437971  0.62397685  1
  C  C41  1  0.02472631  0.00562029  0.12397685  1
  C  C42  1  0.47142981  0.49640019  0.87488382  1
  C  C43  1  0.52857019  0.99640019  0.62511618  1
  C  C44  1  0.47142981  0.00359981  0.37488382  1
  C  C45  1  0.52857019  0.50359981  0.12511618  1
  C  C46  1  0.97527369  0.99437971  0.87602315  1
  C  C47  1  0.97527369  0.50562029  0.37602315  1
  Cl  Cl48  1  0.09885983  0.83362549  0.99561450  1
  Cl  Cl49  1  0.00868632  0.05707622  0.61201630  1
  Cl  Cl50  1  0.07748154  0.82537807  0.78259787  1
  Cl  Cl51  1  0.19218823  0.09844958  0.89481119  1
  Cl  Cl52  1  0.09885983  0.66637451  0.49561450  1
  Cl  Cl53  1  0.00868632  0.44292378  0.11201630  1
  Cl  Cl54  1  0.07748154  0.67462193  0.28259787  1
  Cl  Cl55  1  0.23266977  0.64378948  0.89976533  1
  Cl  Cl56  1  0.19218823  0.40155042  0.39481119  1
  Cl  Cl57  1  0.27847427  0.36986087  0.60291547  1
  Cl  Cl58  1  0.23266977  0.85621052  0.39976533  1
  Cl  Cl59  1  0.31418259  0.91120939  0.61989984  1
  Cl  Cl60  1  0.27847427  0.13013913  0.10291547  1
  Cl  Cl61  1  0.47870190  0.93082928  0.89915748  1
  Cl  Cl62  1  0.39394748  0.13737283  0.50665343  1
  Cl  Cl63  1  0.44857050  0.21439087  0.71903351  1
  Cl  Cl64  1  0.31418259  0.58879061  0.11989984  1
  Cl  Cl65  1  0.55142950  0.71439087  0.78096649  1
  Cl  Cl66  1  0.60605252  0.63737283  0.99334657  1
  Cl  Cl67  1  0.52129810  0.43082928  0.60084252  1
  Cl  Cl68  1  0.47870190  0.56917072  0.39915748  1
  Cl  Cl69  1  0.39394748  0.36262717  0.00665343  1
  Cl  Cl70  1  0.44857050  0.28560913  0.21903351  1
  Cl  Cl71  1  0.68581741  0.41120939  0.88010016  1
  Cl  Cl72  1  0.55142950  0.78560913  0.28096649  1
  Cl  Cl73  1  0.60605252  0.86262717  0.49334657  1
  Cl  Cl74  1  0.52129810  0.06917072  0.10084252  1
  Cl  Cl75  1  0.72152573  0.86986087  0.89708453  1
  Cl  Cl76  1  0.68581741  0.08879061  0.38010016  1
  Cl  Cl77  1  0.76733023  0.14378948  0.60023467  1
  Cl  Cl78  1  0.72152573  0.63013913  0.39708453  1
  Cl  Cl79  1  0.80781177  0.59844958  0.60518881  1
  Cl  Cl80  1  0.76733023  0.35621052  0.10023467  1
  Cl  Cl81  1  0.92251846  0.32537807  0.71740213  1
  Cl  Cl82  1  0.99131368  0.55707622  0.88798370  1
  Cl  Cl83  1  0.90114017  0.33362549  0.50438550  1
  Cl  Cl84  1  0.80781177  0.90155042  0.10518881  1
  Cl  Cl85  1  0.92251846  0.17462193  0.21740213  1
  Cl  Cl86  1  0.99131368  0.94292378  0.38798370  1
  Cl  Cl87  1  0.90114017  0.16637451  0.00438550  1
  O  O88  1  0.09017834  0.59616543  0.63830703  1
  O  O89  1  0.19546837  0.15545620  0.71846682  1
  O  O90  1  0.09017834  0.90383457  0.13830703  1
  O  O91  1  0.29091148  0.56905993  0.73833330  1
  O  O92  1  0.19546837  0.34454380  0.21846682  1
  O  O93  1  0.40880783  0.38731154  0.86215578  1
  O  O94  1  0.29091148  0.93094007  0.23833330  1
  O  O95  1  0.40880783  0.11268846  0.36215578  1
  O  O96  1  0.59119217  0.88731154  0.63784422  1
  O  O97  1  0.70908852  0.06905993  0.76166670  1
  O  O98  1  0.59119217  0.61268846  0.13784422  1
  O  O99  1  0.80453163  0.65545620  0.78153318  1
  O  O100  1  0.70908852  0.43094007  0.26166670  1
  O  O101  1  0.90982166  0.09616543  0.86169297  1
  O  O102  1  0.80453163  0.84454380  0.28153318  1
  O  O103  1  0.90982166  0.40383457  0.36169297  1
