# generated using pymatgen
data_RbLiMn3O4
_symmetry_space_group_name_H-M   'P 1'
_cell_length_a   6.29675657
_cell_length_b   8.11884716
_cell_length_c   8.12093237
_cell_angle_alpha   96.73893120
_cell_angle_beta   79.42707226
_cell_angle_gamma   78.79029892
_symmetry_Int_Tables_number   1
_chemical_formula_structural   RbLiMn3O4
_chemical_formula_sum   'Rb3 Li3 Mn9 O12'
_cell_volume   395.25468293
_cell_formula_units_Z   3
loop_
 _symmetry_equiv_pos_site_id
 _symmetry_equiv_pos_as_xyz
  1  'x, y, z'
loop_
 _atom_site_type_symbol
 _atom_site_label
 _atom_site_symmetry_multiplicity
 _atom_site_fract_x
 _atom_site_fract_y
 _atom_site_fract_z
 _atom_site_occupancy
  Rb  Rb0  1  0.00362958  0.66976013  0.66615617  1
  Rb  Rb1  1  0.00045321  0.00829312  0.99916782  1
  Rb  Rb2  1  0.99395938  0.32976081  0.32717770  1
  Li  Li3  1  0.43813694  0.85147821  0.67028044  1
  Li  Li4  1  0.55909836  0.15102229  0.33051682  1
  Li  Li5  1  0.81624964  0.41882878  0.97281994  1
  Mn  Mn6  1  0.55386401  0.81024610  0.99341080  1
  Mn  Mn7  1  0.79541701  0.76602060  0.31226583  1
  Mn  Mn8  1  0.19712126  0.91469782  0.36345490  1
  Mn  Mn9  1  0.17519572  0.57519228  0.02593206  1
  Mn  Mn10  1  0.45413570  0.50827064  0.32742259  1
  Mn  Mn11  1  0.55623358  0.48676501  0.67051495  1
  Mn  Mn12  1  0.80030165  0.08885785  0.63844898  1
  Mn  Mn13  1  0.18854599  0.24246789  0.69137052  1
  Mn  Mn14  1  0.46120334  0.18640924  0.00489639  1
  O  O15  1  0.82931460  0.67010597  0.05356193  1
  O  O16  1  0.61615725  0.97744583  0.81165888  1
  O  O17  1  0.61357948  0.65011036  0.48173196  1
  O  O18  1  0.63352128  0.31675892  0.14084196  1
  O  O19  1  0.16126439  0.99239812  0.62134393  1
  O  O20  1  0.16462517  0.66159226  0.28509708  1
  O  O21  1  0.83474410  0.33783591  0.71763986  1
  O  O22  1  0.83756409  0.00925631  0.37942830  1
  O  O23  1  0.36677763  0.68576824  0.85692009  1
  O  O24  1  0.38404757  0.35146510  0.52125730  1
  O  O25  1  0.38903044  0.01651169  0.18754936  1
  O  O26  1  0.17583063  0.32267750  0.94913247  1
