# generated using pymatgen
data_Na3Sb(PO4)2
_symmetry_space_group_name_H-M   'P 1'
_cell_length_a   20.12593782
_cell_length_b   5.39379949
_cell_length_c   14.12780683
_cell_angle_alpha   90.00000000
_cell_angle_beta   69.57077285
_cell_angle_gamma   90.00000000
_symmetry_Int_Tables_number   1
_chemical_formula_structural   Na3Sb(PO4)2
_chemical_formula_sum   'Na24 Sb8 P16 O64'
_cell_volume   1437.18769693
_cell_formula_units_Z   8
loop_
 _symmetry_equiv_pos_site_id
 _symmetry_equiv_pos_as_xyz
  1  'x, y, z'
loop_
 _atom_site_type_symbol
 _atom_site_label
 _atom_site_symmetry_multiplicity
 _atom_site_fract_x
 _atom_site_fract_y
 _atom_site_fract_z
 _atom_site_occupancy
  Na  Na0  1  0.03508408  0.74349704  0.31137327  1
  Na  Na1  1  0.13612972  0.24920631  0.20119821  1
  Na  Na2  1  0.19971143  0.70473697  0.05398107  1
  Na  Na3  1  0.03508408  0.75650296  0.81137327  1
  Na  Na4  1  0.13612972  0.25079369  0.70119821  1
  Na  Na5  1  0.19971143  0.79526303  0.55398107  1
  Na  Na6  1  0.30227242  0.24319021  0.25029127  1
  Na  Na7  1  0.36171418  0.75473470  0.33926510  1
  Na  Na8  1  0.30227242  0.25680979  0.75029127  1
  Na  Na9  1  0.46541102  0.24511475  0.34488511  1
  Na  Na10  1  0.36171418  0.74526530  0.83926510  1
  Na  Na11  1  0.53458898  0.74511475  0.15511489  1
  Na  Na12  1  0.46541102  0.25488525  0.84488511  1
  Na  Na13  1  0.63828582  0.25473470  0.16073490  1
  Na  Na14  1  0.53458898  0.75488525  0.65511489  1
  Na  Na15  1  0.69772758  0.74319021  0.24970873  1
  Na  Na16  1  0.63828582  0.24526530  0.66073490  1
  Na  Na17  1  0.69772758  0.75680979  0.74970873  1
  Na  Na18  1  0.80028857  0.20473697  0.44601893  1
  Na  Na19  1  0.86387028  0.74920631  0.29880179  1
  Na  Na20  1  0.96491592  0.24349704  0.18862673  1
  Na  Na21  1  0.80028857  0.29526303  0.94601893  1
  Na  Na22  1  0.86387028  0.75079369  0.79880179  1
  Na  Na23  1  0.96491592  0.25650296  0.68862673  1
  Sb  Sb24  1  0.12502152  0.31205179  0.46346613  1
  Sb  Sb25  1  0.12502152  0.18794821  0.96346613  1
  Sb  Sb26  1  0.37671838  0.70299551  0.08735482  1
  Sb  Sb27  1  0.37671838  0.79700449  0.58735482  1
  Sb  Sb28  1  0.62328162  0.20299551  0.41264518  1
  Sb  Sb29  1  0.62328162  0.29700449  0.91264518  1
  Sb  Sb30  1  0.87497848  0.81205179  0.03653387  1
  Sb  Sb31  1  0.87497848  0.68794821  0.53653387  1
  P  P32  1  0.04158171  0.72589067  0.07895794  1
  P  P33  1  0.04158171  0.77410933  0.57895794  1
  P  P34  1  0.20859724  0.77045754  0.28779672  1
  P  P35  1  0.20859724  0.72954246  0.78779672  1
  P  P36  1  0.29188372  0.27882653  0.49627027  1
  P  P37  1  0.46027491  0.23139104  0.11881964  1
  P  P38  1  0.29188372  0.22117347  0.99627027  1
  P  P39  1  0.46027491  0.26860896  0.61881964  1
  P  P40  1  0.53972509  0.73139104  0.38118036  1
  P  P41  1  0.70811628  0.77882653  0.00372973  1
  P  P42  1  0.53972509  0.76860896  0.88118036  1
  P  P43  1  0.70811628  0.72117347  0.50372973  1
  P  P44  1  0.79140276  0.27045754  0.21220328  1
  P  P45  1  0.79140276  0.22954246  0.71220328  1
  P  P46  1  0.95841829  0.22589067  0.42104206  1
  P  P47  1  0.95841829  0.27410933  0.92104206  1
  O  O48  1  0.08430367  0.48368288  0.08342794  1
  O  O49  1  0.09105011  0.95364804  0.09086365  1
  O  O50  1  0.02485396  0.23309156  0.32500257  1
  O  O51  1  0.03193185  0.74181901  0.47782225  1
  O  O52  1  0.20933745  0.26577557  0.01554854  1
  O  O53  1  0.16353347  0.65708897  0.23140298  1
  O  O54  1  0.08430367  0.01631712  0.58342794  1
  O  O55  1  0.09105011  0.54635196  0.59086365  1
  O  O56  1  0.02485396  0.26690844  0.82500257  1
  O  O57  1  0.19423100  0.05127393  0.30568039  1
  O  O58  1  0.03193185  0.75818099  0.97782225  1
  O  O59  1  0.19888306  0.63296451  0.38919907  1
  O  O60  1  0.30297044  0.94015353  0.00675789  1
  O  O61  1  0.30395459  0.36857467  0.08361071  1
  O  O62  1  0.20933745  0.23422443  0.51554854  1
  O  O63  1  0.16353347  0.84291103  0.73140298  1
  O  O64  1  0.29187529  0.74149220  0.22616893  1
  O  O65  1  0.19423100  0.44872607  0.80568039  1
  O  O66  1  0.19888306  0.86703549  0.88919907  1
  O  O67  1  0.30297044  0.55984647  0.50675789  1
  O  O68  1  0.33715106  0.17901191  0.39201765  1
  O  O69  1  0.30395459  0.13142533  0.58361071  1
  O  O70  1  0.41439947  0.99562496  0.16840580  1
  O  O71  1  0.41378167  0.46495764  0.17792256  1
  O  O72  1  0.29187529  0.75850780  0.72616893  1
  O  O73  1  0.47063562  0.25493852  0.00746052  1
  O  O74  1  0.47311140  0.73003514  0.35163126  1
  O  O75  1  0.33715106  0.32098809  0.89201765  1
  O  O76  1  0.52688860  0.23003514  0.14836874  1
  O  O77  1  0.41439947  0.50437504  0.66840580  1
  O  O78  1  0.41378167  0.03504236  0.67792256  1
  O  O79  1  0.47063562  0.24506148  0.50746052  1
  O  O80  1  0.52936438  0.75493852  0.49253948  1
  O  O81  1  0.58621833  0.96495764  0.32207744  1
  O  O82  1  0.58560053  0.49562496  0.33159420  1
  O  O83  1  0.47311140  0.76996486  0.85163126  1
  O  O84  1  0.66284894  0.67901191  0.10798235  1
  O  O85  1  0.52688860  0.26996486  0.64836874  1
  O  O86  1  0.52936438  0.74506148  0.99253948  1
  O  O87  1  0.70812471  0.24149220  0.27383107  1
  O  O88  1  0.58621833  0.53504236  0.82207744  1
  O  O89  1  0.58560053  0.00437504  0.83159420  1
  O  O90  1  0.69604541  0.86857467  0.41638929  1
  O  O91  1  0.66284894  0.82098809  0.60798235  1
  O  O92  1  0.69702956  0.44015353  0.49324211  1
  O  O93  1  0.80111694  0.13296451  0.11080093  1
  O  O94  1  0.80576900  0.55127393  0.19431961  1
  O  O95  1  0.70812471  0.25850780  0.77383107  1
  O  O96  1  0.83646653  0.15708897  0.26859702  1
  O  O97  1  0.79066255  0.76577557  0.48445146  1
  O  O98  1  0.69604541  0.63142533  0.91638929  1
  O  O99  1  0.69702956  0.05984647  0.99324211  1
  O  O100  1  0.80111694  0.36703549  0.61080093  1
  O  O101  1  0.96806815  0.24181901  0.02217775  1
  O  O102  1  0.80576900  0.94872607  0.69431961  1
  O  O103  1  0.97514604  0.73309156  0.17499743  1
  O  O104  1  0.90894989  0.45364804  0.40913635  1
  O  O105  1  0.91569633  0.98368288  0.41657206  1
  O  O106  1  0.83646653  0.34291103  0.76859702  1
  O  O107  1  0.79066255  0.73422443  0.98445146  1
  O  O108  1  0.96806815  0.25818099  0.52217775  1
  O  O109  1  0.97514604  0.76690844  0.67499743  1
  O  O110  1  0.90894989  0.04635196  0.90913635  1
  O  O111  1  0.91569633  0.51631712  0.91657206  1
