# generated using pymatgen
data_Ti2(PO4)3
_symmetry_space_group_name_H-M   'P 1'
_cell_length_a   8.67705731
_cell_length_b   8.67705731
_cell_length_c   8.67705760
_cell_angle_alpha   60.27150872
_cell_angle_beta   60.27150872
_cell_angle_gamma   60.27150319
_symmetry_Int_Tables_number   1
_chemical_formula_structural   Ti2(PO4)3
_chemical_formula_sum   'Ti4 P6 O24'
_cell_volume   464.79670103
_cell_formula_units_Z   2
loop_
 _symmetry_equiv_pos_site_id
 _symmetry_equiv_pos_as_xyz
  1  'x, y, z'
loop_
 _atom_site_type_symbol
 _atom_site_label
 _atom_site_symmetry_multiplicity
 _atom_site_fract_x
 _atom_site_fract_y
 _atom_site_fract_z
 _atom_site_occupancy
  Ti  Ti0  1  0.36370713  0.36370713  0.36370713  1
  Ti  Ti1  1  0.63629287  0.63629287  0.63629287  1
  Ti  Ti2  1  0.86370713  0.86370713  0.86370713  1
  Ti  Ti3  1  0.13629287  0.13629287  0.13629287  1
  P  P4  1  0.03323003  0.75000000  0.46676997  1
  P  P5  1  0.53323003  0.96676997  0.25000000  1
  P  P6  1  0.25000000  0.53323003  0.96676997  1
  P  P7  1  0.75000000  0.46676997  0.03323003  1
  P  P8  1  0.46676997  0.03323003  0.75000000  1
  P  P9  1  0.96676997  0.25000000  0.53323003  1
  O  O10  1  0.05751064  0.91711030  0.28191366  1
  O  O11  1  0.08288970  0.71808634  0.94248936  1
  O  O12  1  0.63316662  0.99825248  0.79629335  1
  O  O13  1  0.50174752  0.86683338  0.70370665  1
  O  O14  1  0.21808634  0.58288970  0.44248936  1
  O  O15  1  0.55751064  0.78191366  0.41711030  1
  O  O16  1  0.71808634  0.94248936  0.08288970  1
  O  O17  1  0.00174752  0.20370665  0.36683338  1
  O  O18  1  0.29629335  0.49825248  0.13316662  1
  O  O19  1  0.13316662  0.29629335  0.49825248  1
  O  O20  1  0.20370665  0.36683338  0.00174752  1
  O  O21  1  0.41711030  0.55751064  0.78191366  1
  O  O22  1  0.58288970  0.44248936  0.21808634  1
  O  O23  1  0.79629335  0.63316662  0.99825248  1
  O  O24  1  0.86683338  0.70370665  0.50174752  1
  O  O25  1  0.99825248  0.79629335  0.63316662  1
  O  O26  1  0.70370665  0.50174752  0.86683338  1
  O  O27  1  0.28191366  0.05751064  0.91711030  1
  O  O28  1  0.44248936  0.21808634  0.58288970  1
  O  O29  1  0.78191366  0.41711030  0.55751064  1
  O  O30  1  0.49825248  0.13316662  0.29629335  1
  O  O31  1  0.36683338  0.00174752  0.20370665  1
  O  O32  1  0.91711030  0.28191366  0.05751064  1
  O  O33  1  0.94248936  0.08288970  0.71808634  1
