# generated using pymatgen
data_LiCuBO3
_symmetry_space_group_name_H-M   'P 1'
_cell_length_a   8.10697907
_cell_length_b   8.15614732
_cell_length_c   3.11858397
_cell_angle_alpha   90.00000000
_cell_angle_beta   90.00000000
_cell_angle_gamma   120.11037512
_symmetry_Int_Tables_number   1
_chemical_formula_structural   LiCuBO3
_chemical_formula_sum   'Li3 Cu3 B3 O9'
_cell_volume   178.38079050
_cell_formula_units_Z   3
loop_
 _symmetry_equiv_pos_site_id
 _symmetry_equiv_pos_as_xyz
  1  'x, y, z'
loop_
 _atom_site_type_symbol
 _atom_site_label
 _atom_site_symmetry_multiplicity
 _atom_site_fract_x
 _atom_site_fract_y
 _atom_site_fract_z
 _atom_site_occupancy
  Li  Li0  1  0.31638681  0.29486658  0.50000000  1
  Li  Li1  1  0.97788344  0.68349402  0.50000000  1
  Li  Li2  1  0.70507821  0.02083222  0.50000000  1
  Cu  Cu3  1  0.01161504  0.37221632  -0.00000000  1
  Cu  Cu4  1  0.36279110  0.99279745  -0.00000000  1
  Cu  Cu5  1  0.62759744  0.63979363  -0.00000000  1
  B  B6  1  0.33373901  0.66675013  0.50000000  1
  B  B7  1  0.00081935  0.00128023  -0.00000000  1
  B  B8  1  0.66624639  0.33304957  0.00000000  1
  O  O9  1  0.09120444  0.89509093  -0.00000000  1
  O  O10  1  0.13626419  0.55216998  0.50000000  1
  O  O11  1  0.41591431  0.86047006  0.50000000  1
  O  O12  1  0.10717133  0.19642581  0.00000000  1
  O  O13  1  0.44630393  0.58224732  0.50000000  1
  O  O14  1  0.80458759  0.91089836  -0.00000000  1
  O  O15  1  0.47308122  0.26771538  0.00000000  1
  O  O16  1  0.79340689  0.52474664  -0.00000000  1
  O  O17  1  0.72990832  0.20515637  -0.00000000  1
