# generated using pymatgen
data_Mg(NO3)2
_symmetry_space_group_name_H-M   'P 1'
_cell_length_a   7.53533763
_cell_length_b   15.32750275
_cell_length_c   7.46552242
_cell_angle_alpha   90.00000000
_cell_angle_beta   90.00000000
_cell_angle_gamma   90.00000000
_symmetry_Int_Tables_number   1
_chemical_formula_structural   Mg(NO3)2
_chemical_formula_sum   'Mg8 N16 O48'
_cell_volume   862.25222347
_cell_formula_units_Z   8
loop_
 _symmetry_equiv_pos_site_id
 _symmetry_equiv_pos_as_xyz
  1  'x, y, z'
loop_
 _atom_site_type_symbol
 _atom_site_label
 _atom_site_symmetry_multiplicity
 _atom_site_fract_x
 _atom_site_fract_y
 _atom_site_fract_z
 _atom_site_occupancy
  Mg  Mg0  1  0.01966683  0.37773665  0.78784450  1
  Mg  Mg1  1  0.02611428  0.87358639  0.75561284  1
  Mg  Mg2  1  0.47388572  0.87358639  0.25561284  1
  Mg  Mg3  1  0.48033317  0.37773665  0.28784450  1
  Mg  Mg4  1  0.51966683  0.62226335  0.78784450  1
  Mg  Mg5  1  0.52611428  0.12641361  0.75561284  1
  Mg  Mg6  1  0.97388572  0.12641361  0.25561284  1
  Mg  Mg7  1  0.98033317  0.62226335  0.28784450  1
  N  N8  1  0.13833811  0.78569019  0.09363149  1
  N  N9  1  0.15979276  0.29351780  0.12959642  1
  N  N10  1  0.17003894  0.55170409  0.93752466  1
  N  N11  1  0.17669670  0.04700362  0.92039658  1
  N  N12  1  0.32330330  0.04700362  0.42039658  1
  N  N13  1  0.32996106  0.55170409  0.43752466  1
  N  N14  1  0.34020724  0.29351780  0.62959642  1
  N  N15  1  0.36166189  0.78569019  0.59363149  1
  N  N16  1  0.63833811  0.21430981  0.09363149  1
  N  N17  1  0.65979276  0.70648220  0.12959642  1
  N  N18  1  0.67003894  0.44829591  0.93752466  1
  N  N19  1  0.67669670  0.95299638  0.92039658  1
  N  N20  1  0.82330330  0.95299638  0.42039658  1
  N  N21  1  0.82996106  0.44829591  0.43752466  1
  N  N22  1  0.84020724  0.70648220  0.62959642  1
  N  N23  1  0.86166189  0.21430981  0.59363149  1
  O  O24  1  0.04183806  0.77184280  0.95851980  1
  O  O25  1  0.05117990  0.05016305  0.03153028  1
  O  O26  1  0.03935826  0.55649500  0.04263633  1
  O  O27  1  0.04154545  0.23694729  0.10105566  1
  O  O28  1  0.14000570  0.73384893  0.22476239  1
  O  O29  1  0.15747585  0.36450712  0.04343344  1
  O  O30  1  0.17215889  0.49528785  0.81413450  1
  O  O31  1  0.17992652  0.98674344  0.80448375  1
  O  O32  1  0.23506360  0.85338216  0.09671267  1
  O  O33  1  0.20093453  0.60365947  0.45430122  1
  O  O34  1  0.20075395  0.10313298  0.42340814  1
  O  O35  1  0.21895242  0.28015252  0.74228831  1
  O  O36  1  0.28104758  0.28015252  0.24228831  1
  O  O37  1  0.29924605  0.10313298  0.92340814  1
  O  O38  1  0.29906547  0.60365947  0.95430122  1
  O  O39  1  0.26493640  0.85338216  0.59671267  1
  O  O40  1  0.32007348  0.98674344  0.30448375  1
  O  O41  1  0.32784111  0.49528785  0.31413450  1
  O  O42  1  0.34252415  0.36450712  0.54343344  1
  O  O43  1  0.35999430  0.73384893  0.72476239  1
  O  O44  1  0.45845455  0.23694729  0.60105566  1
  O  O45  1  0.46064174  0.55649500  0.54263633  1
  O  O46  1  0.44882010  0.05016305  0.53153028  1
  O  O47  1  0.45816194  0.77184280  0.45851980  1
  O  O48  1  0.54183806  0.22815720  0.95851980  1
  O  O49  1  0.55117990  0.94983695  0.03153028  1
  O  O50  1  0.53935826  0.44350500  0.04263633  1
  O  O51  1  0.54154545  0.76305271  0.10105566  1
  O  O52  1  0.64000570  0.26615107  0.22476239  1
  O  O53  1  0.65747585  0.63549288  0.04343344  1
  O  O54  1  0.67215889  0.50471215  0.81413450  1
  O  O55  1  0.67992652  0.01325656  0.80448375  1
  O  O56  1  0.73506360  0.14661784  0.09671267  1
  O  O57  1  0.70093453  0.39634053  0.45430122  1
  O  O58  1  0.70075395  0.89686702  0.42340814  1
  O  O59  1  0.71895242  0.71984748  0.74228831  1
  O  O60  1  0.78104758  0.71984748  0.24228831  1
  O  O61  1  0.79924605  0.89686702  0.92340814  1
  O  O62  1  0.79906547  0.39634053  0.95430122  1
  O  O63  1  0.76493640  0.14661784  0.59671267  1
  O  O64  1  0.82007348  0.01325656  0.30448375  1
  O  O65  1  0.82784111  0.50471215  0.31413450  1
  O  O66  1  0.84252415  0.63549288  0.54343344  1
  O  O67  1  0.85999430  0.26615107  0.72476239  1
  O  O68  1  0.95845455  0.76305271  0.60105566  1
  O  O69  1  0.96064174  0.44350500  0.54263633  1
  O  O70  1  0.94882010  0.94983695  0.53153028  1
  O  O71  1  0.95816194  0.22815720  0.45851980  1
