# generated using pymatgen
data_Ti3Mn2Fe(PO4)6
_symmetry_space_group_name_H-M   'P 1'
_cell_length_a   8.65999405
_cell_length_b   8.65999322
_cell_length_c   8.65999399
_cell_angle_alpha   60.19751294
_cell_angle_beta   60.19750961
_cell_angle_gamma   60.19751354
_symmetry_Int_Tables_number   1
_chemical_formula_structural   Ti3Mn2Fe(PO4)6
_chemical_formula_sum   'Ti3 Mn2 Fe1 P6 O24'
_cell_volume   461.29185029
_cell_formula_units_Z   1
loop_
 _symmetry_equiv_pos_site_id
 _symmetry_equiv_pos_as_xyz
  1  'x, y, z'
loop_
 _atom_site_type_symbol
 _atom_site_label
 _atom_site_symmetry_multiplicity
 _atom_site_fract_x
 _atom_site_fract_y
 _atom_site_fract_z
 _atom_site_occupancy
  Ti  Ti0  1  0.14411056  0.14411056  0.14411056  1
  Ti  Ti1  1  0.35397058  0.35397058  0.35397058  1
  Ti  Ti2  1  0.64735342  0.64735342  0.64735342  1
  Mn  Mn3  1  0.99598956  0.99598956  0.99598956  1
  Mn  Mn4  1  0.49949609  0.49949609  0.49949609  1
  Fe  Fe5  1  0.85479919  0.85479919  0.85479919  1
  P  P6  1  0.25290376  0.54182437  0.95589287  1
  P  P7  1  0.54182437  0.95589287  0.25290376  1
  P  P8  1  0.95589287  0.25290376  0.54182437  1
  P  P9  1  0.04684549  0.75193023  0.45501482  1
  P  P10  1  0.45501482  0.04684549  0.75193023  1
  P  P11  1  0.75193023  0.45501482  0.04684549  1
  O  O12  1  0.11492296  0.32399748  0.48698466  1
  O  O13  1  0.32399748  0.48698466  0.11492296  1
  O  O14  1  0.06068810  0.91236499  0.25867651  1
  O  O15  1  0.48698466  0.11492296  0.32399748  1
  O  O16  1  0.01715076  0.80988860  0.60678043  1
  O  O17  1  0.23857070  0.58553324  0.43052437  1
  O  O18  1  0.25867651  0.06068810  0.91236499  1
  O  O19  1  0.43052437  0.23857070  0.58553324  1
  O  O20  1  0.19027827  0.37894105  0.00184028  1
  O  O21  1  0.58553324  0.43052437  0.23857070  1
  O  O22  1  0.09552736  0.73176161  0.94721131  1
  O  O23  1  0.37894105  0.00184028  0.19027827  1
  O  O24  1  0.60678043  0.01715076  0.80988860  1
  O  O25  1  0.91236499  0.25867651  0.06068810  1
  O  O26  1  0.41843025  0.55238275  0.76392549  1
  O  O27  1  0.80988860  0.60678043  0.01715076  1
  O  O28  1  0.55238275  0.76392549  0.41843025  1
  O  O29  1  0.73176161  0.94721131  0.09552736  1
  O  O30  1  0.76392549  0.41843025  0.55238275  1
  O  O31  1  0.00184028  0.19027827  0.37894105  1
  O  O32  1  0.50200646  0.88065873  0.69082169  1
  O  O33  1  0.94721131  0.09552736  0.73176161  1
  O  O34  1  0.69082169  0.50200646  0.88065873  1
  O  O35  1  0.88065873  0.69082169  0.50200646  1
