# generated using pymatgen
data_Na2MnPCO7
_symmetry_space_group_name_H-M   'P 1'
_cell_length_a   8.48874676
_cell_length_b   8.54695010
_cell_length_c   10.42771549
_cell_angle_alpha   71.37055475
_cell_angle_beta   108.53790874
_cell_angle_gamma   75.69294964
_symmetry_Int_Tables_number   1
_chemical_formula_structural   Na2MnPCO7
_chemical_formula_sum   'Na8 Mn4 P4 C4 O28'
_cell_volume   626.44437609
_cell_formula_units_Z   4
loop_
 _symmetry_equiv_pos_site_id
 _symmetry_equiv_pos_as_xyz
  1  'x, y, z'
loop_
 _atom_site_type_symbol
 _atom_site_label
 _atom_site_symmetry_multiplicity
 _atom_site_fract_x
 _atom_site_fract_y
 _atom_site_fract_z
 _atom_site_occupancy
  Na  Na0  1  0.00661202  0.99888076  0.75911549  1
  Na  Na1  1  0.23765071  0.24842909  0.74545758  1
  Na  Na2  1  0.73338835  0.74164309  0.75178314  1
  Na  Na3  1  0.76020310  0.74528708  0.24465622  1
  Na  Na4  1  0.24434445  0.25951655  0.24936651  1
  Na  Na5  1  0.48747835  0.50791454  0.24679659  1
  Na  Na6  1  0.00614342  0.99011283  0.24585899  1
  Na  Na7  1  0.53960159  0.22915680  0.06965364  1
  Mn  Mn8  1  0.58445245  0.16992402  0.64860953  1
  Mn  Mn9  1  0.10125288  0.65896208  0.65008851  1
  Mn  Mn10  1  0.90772308  0.34192164  0.35057895  1
  Mn  Mn11  1  0.41480327  0.83652233  0.35512395  1
  P  P12  1  0.77037697  0.47684523  0.57893434  1
  P  P13  1  0.26801508  0.98686072  0.57950283  1
  P  P14  1  0.73605116  0.01166953  0.42342904  1
  P  P15  1  0.22946267  0.52266649  0.42004641  1
  C  C16  1  0.69751059  0.04932603  0.92972209  1
  C  C17  1  0.20290037  0.54369741  0.92573007  1
  C  C18  1  0.79717424  0.45158193  0.07558444  1
  C  C19  1  0.29959456  0.95272347  0.07527770  1
  O  O20  1  0.23075445  0.02465285  0.93483172  1
  O  O21  1  0.73766435  0.51329004  0.93808690  1
  O  O22  1  0.27648465  0.47060220  0.85412910  1
  O  O23  1  0.77130898  0.98449683  0.85380710  1
  O  O24  1  0.54794966  0.18724233  0.84922588  1
  O  O25  1  0.05908675  0.68865755  0.83735859  1
  O  O26  1  0.94537111  0.48503132  0.67382945  1
  O  O27  1  0.75255572  0.30276244  0.66507716  1
  O  O28  1  0.44294188  0.00422277  0.66865440  1
  O  O29  1  0.24860908  0.82194708  0.67500630  1
  O  O30  1  0.74139429  0.00562564  0.57403163  1
  O  O31  1  0.10221968  0.15670568  0.54237134  1
  O  O32  1  0.60775417  0.64753014  0.54051922  1
  O  O33  1  0.23173838  0.51178584  0.57127054  1
  O  O34  1  0.76401675  0.48464627  0.42500823  1
  O  O35  1  0.90380610  0.84722585  0.45613514  1
  O  O36  1  0.39702235  0.35579207  0.45386669  1
  O  O37  1  0.26237134  0.98944342  0.42829440  1
  O  O38  1  0.56146760  0.00104482  0.32472979  1
  O  O39  1  0.74108246  0.18649306  0.32290535  1
  O  O40  1  0.05843737  0.51094604  0.32188398  1
  O  O41  1  0.24796393  0.69457208  0.33051874  1
  O  O42  1  0.94212596  0.30355642  0.17244698  1
  O  O43  1  0.44501696  0.80756419  0.16230662  1
  O  O44  1  0.72011692  0.52407574  0.14743435  1
  O  O45  1  0.22957498  0.02281368  0.15162081  1
  O  O46  1  0.77100781  0.98008029  0.07298749  1
  O  O47  1  0.27514206  0.47172575  0.06790710  1
