# generated using pymatgen
data_Li2FePO4F
_symmetry_space_group_name_H-M   'P 1'
_cell_length_a   10.66171749
_cell_length_b   6.50756191
_cell_length_c   11.08516819
_cell_angle_alpha   90.00000000
_cell_angle_beta   90.00000000
_cell_angle_gamma   90.00000000
_symmetry_Int_Tables_number   1
_chemical_formula_structural   Li2FePO4F
_chemical_formula_sum   'Li16 Fe8 P8 O32 F8'
_cell_volume   769.10877415
_cell_formula_units_Z   8
loop_
 _symmetry_equiv_pos_site_id
 _symmetry_equiv_pos_as_xyz
  1  'x, y, z'
loop_
 _atom_site_type_symbol
 _atom_site_label
 _atom_site_symmetry_multiplicity
 _atom_site_fract_x
 _atom_site_fract_y
 _atom_site_fract_z
 _atom_site_occupancy
  Li  Li0  1  0.02612657  0.75000000  0.27209435  1
  Li  Li1  1  0.23020550  0.25000000  0.08341203  1
  Li  Li2  1  0.24066105  0.51003208  0.33367771  1
  Li  Li3  1  0.24066105  0.98996792  0.33367771  1
  Li  Li4  1  0.25933895  0.01003208  0.83367771  1
  Li  Li5  1  0.25933895  0.48996792  0.83367771  1
  Li  Li6  1  0.26979450  0.75000000  0.58341203  1
  Li  Li7  1  0.47387343  0.25000000  0.77209435  1
  Li  Li8  1  0.52612657  0.75000000  0.22790565  1
  Li  Li9  1  0.73020550  0.25000000  0.41658797  1
  Li  Li10  1  0.74066105  0.51003208  0.16632229  1
  Li  Li11  1  0.74066105  0.98996792  0.16632229  1
  Li  Li12  1  0.75933895  0.01003208  0.66632229  1
  Li  Li13  1  0.75933895  0.48996792  0.66632229  1
  Li  Li14  1  0.76979450  0.75000000  0.91658797  1
  Li  Li15  1  0.97387343  0.25000000  0.72790565  1
  Fe  Fe16  1  0.00000000  0.00000000  0.00000000  1
  Fe  Fe17  1  0.00000000  0.50000000  0.00000000  1
  Fe  Fe18  1  0.00000000  0.00000000  0.50000000  1
  Fe  Fe19  1  0.00000000  0.50000000  0.50000000  1
  Fe  Fe20  1  0.50000000  0.00000000  0.50000000  1
  Fe  Fe21  1  0.50000000  0.50000000  0.50000000  1
  Fe  Fe22  1  0.50000000  0.00000000  0.00000000  1
  Fe  Fe23  1  0.50000000  0.50000000  0.00000000  1
  P  P24  1  0.02171142  0.75000000  0.74472028  1
  P  P25  1  0.24375195  0.75000000  0.07993435  1
  P  P26  1  0.25624805  0.25000000  0.57993435  1
  P  P27  1  0.47828858  0.25000000  0.24472028  1
  P  P28  1  0.52171142  0.75000000  0.75527972  1
  P  P29  1  0.74375195  0.75000000  0.42006565  1
  P  P30  1  0.75624805  0.25000000  0.92006565  1
  P  P31  1  0.97828858  0.25000000  0.25527972  1
  O  O32  1  0.02932246  0.25000000  0.12342931  1
  O  O33  1  0.03331617  0.05631887  0.31931057  1
  O  O34  1  0.03331617  0.44368113  0.31931057  1
  O  O35  1  0.11160799  0.25000000  0.55771886  1
  O  O36  1  0.16788774  0.75000000  0.74440377  1
  O  O37  1  0.19049786  0.55397522  0.01659241  1
  O  O38  1  0.19049786  0.94602478  0.01659241  1
  O  O39  1  0.21574831  0.75000000  0.21642906  1
  O  O40  1  0.28425169  0.25000000  0.71642906  1
  O  O41  1  0.30950214  0.05397522  0.51659241  1
  O  O42  1  0.30950214  0.44602478  0.51659241  1
  O  O43  1  0.33211226  0.25000000  0.24440377  1
  O  O44  1  0.38839201  0.75000000  0.05771886  1
  O  O45  1  0.46668383  0.55631887  0.81931057  1
  O  O46  1  0.46668383  0.94368113  0.81931057  1
  O  O47  1  0.47067754  0.75000000  0.62342931  1
  O  O48  1  0.52932246  0.25000000  0.37657069  1
  O  O49  1  0.53331617  0.05631887  0.18068943  1
  O  O50  1  0.53331617  0.44368113  0.18068943  1
  O  O51  1  0.61160799  0.25000000  0.94228114  1
  O  O52  1  0.66788774  0.75000000  0.75559623  1
  O  O53  1  0.69049786  0.55397522  0.48340759  1
  O  O54  1  0.69049786  0.94602478  0.48340759  1
  O  O55  1  0.71574831  0.75000000  0.28357094  1
  O  O56  1  0.78425169  0.25000000  0.78357094  1
  O  O57  1  0.80950214  0.05397522  0.98340759  1
  O  O58  1  0.80950214  0.44602478  0.98340759  1
  O  O59  1  0.83211226  0.25000000  0.25559623  1
  O  O60  1  0.88839201  0.75000000  0.44228114  1
  O  O61  1  0.96668383  0.55631887  0.68068943  1
  O  O62  1  0.96668383  0.94368113  0.68068943  1
  O  O63  1  0.97067754  0.75000000  0.87657069  1
  F  F64  1  0.05378382  0.25000000  0.87919708  1
  F  F65  1  0.13437180  0.75000000  0.46716677  1
  F  F66  1  0.36562820  0.25000000  0.96716677  1
  F  F67  1  0.44621618  0.75000000  0.37919708  1
  F  F68  1  0.55378382  0.25000000  0.62080292  1
  F  F69  1  0.63437180  0.75000000  0.03283323  1
  F  F70  1  0.86562820  0.25000000  0.53283323  1
  F  F71  1  0.94621618  0.75000000  0.12080292  1
