# generated using pymatgen
data_Na9Fe10(SiO3)20
_symmetry_space_group_name_H-M   'P 1'
_cell_length_a   9.81706240
_cell_length_b   11.26339334
_cell_length_c   10.38444232
_cell_angle_alpha   94.91152954
_cell_angle_beta   80.92505360
_cell_angle_gamma   81.69502798
_symmetry_Int_Tables_number   1
_chemical_formula_structural   Na9Fe10(SiO3)20
_chemical_formula_sum   'Na9 Fe10 Si20 O60'
_cell_volume   1115.05463103
_cell_formula_units_Z   1
loop_
 _symmetry_equiv_pos_site_id
 _symmetry_equiv_pos_as_xyz
  1  'x, y, z'
loop_
 _atom_site_type_symbol
 _atom_site_label
 _atom_site_symmetry_multiplicity
 _atom_site_fract_x
 _atom_site_fract_y
 _atom_site_fract_z
 _atom_site_occupancy
  Na  Na0  1  0.00935041  0.98158586  0.71321366  1
  Na  Na1  1  0.19099781  0.61834492  0.48683620  1
  Na  Na2  1  0.20953472  0.58121747  0.91322242  1
  Na  Na3  1  0.39091766  0.21857613  0.68756444  1
  Na  Na4  1  0.60870216  0.78191151  0.31274271  1
  Na  Na5  1  0.58971761  0.81931452  0.88784194  1
  Na  Na6  1  0.79040354  0.41836928  0.08755562  1
  Na  Na7  1  0.80957016  0.38100298  0.51205358  1
  Na  Na8  1  0.99118636  0.01882240  0.28710950  1
  Fe  Fe9  1  0.13108010  0.73984717  0.23058664  1
  Fe  Fe10  1  0.27303097  0.45417105  0.16843022  1
  Fe  Fe11  1  0.07116397  0.86019033  0.96954075  1
  Fe  Fe12  1  0.33036482  0.33904055  0.42834103  1
  Fe  Fe13  1  0.46884498  0.06214753  0.36422676  1
  Fe  Fe14  1  0.52905276  0.94157756  0.63050941  1
  Fe  Fe15  1  0.67045791  0.65951408  0.56883646  1
  Fe  Fe16  1  0.72895972  0.53993662  0.83146519  1
  Fe  Fe17  1  0.92965931  0.14058623  0.03113585  1
  Fe  Fe18  1  0.86919322  0.25924298  0.76946297  1
  Si  Si19  1  0.07573378  0.26916526  0.27565285  1
  Si  Si20  1  0.13860946  0.14058270  0.51877945  1
  Si  Si21  1  0.06104773  0.45925038  0.68134990  1
  Si  Si22  1  0.12552132  0.33014155  0.92347133  1
  Si  Si23  1  0.26259359  0.06047646  0.88356680  1
  Si  Si24  1  0.27493669  0.86988676  0.47604465  1
  Si  Si25  1  0.32632034  0.93181751  0.12282669  1
  Si  Si26  1  0.33896216  0.74074944  0.71858178  1
  Si  Si27  1  0.46048362  0.65953357  0.08174832  1
  Si  Si28  1  0.47413216  0.46932792  0.67673938  1
  Si  Si29  1  0.52572948  0.53058595  0.32334471  1
  Si  Si30  1  0.53800624  0.33895048  0.91933624  1
  Si  Si31  1  0.66013680  0.25904931  0.28061611  1
  Si  Si32  1  0.67190637  0.07044617  0.87836721  1
  Si  Si33  1  0.72551818  0.13068502  0.52304108  1
  Si  Si34  1  0.73909918  0.94059004  0.11814185  1
  Si  Si35  1  0.87469343  0.66938984  0.07646108  1
  Si  Si36  1  0.93957606  0.54017178  0.31838332  1
  Si  Si37  1  0.86129877  0.85935812  0.48106522  1
  Si  Si38  1  0.92546378  0.73059164  0.72394097  1
  O  O39  1  0.05123287  0.17750782  0.15640200  1
  O  O40  1  0.05055047  0.19554320  0.40770269  1
  O  O41  1  0.02890328  0.71303352  0.06442373  1
  O  O42  1  0.04897733  0.18130607  0.66426894  1
  O  O43  1  0.14816687  0.42260261  0.04371493  1
  O  O44  1  0.09768216  0.57612776  0.29054786  1
  O  O45  1  0.10367541  0.02434014  0.90956295  1
  O  O46  1  0.04740902  0.60909928  0.70122762  1
  O  O47  1  0.15104942  0.41864276  0.53597995  1
  O  O48  1  0.22742985  0.31590630  0.26832404  1
  O  O49  1  0.17160565  0.88715999  0.13532340  1
  O  O50  1  0.14947014  0.40508213  0.79241359  1
  O  O51  1  0.34498079  0.01963773  0.24804190  1
  O  O52  1  0.15228342  0.99081946  0.49894642  1
  O  O53  1  0.29696482  0.17601307  0.49174565  1
  O  O54  1  0.30223101  0.62359187  0.10973703  1
  O  O55  1  0.24686766  0.20949424  0.89816600  1
  O  O56  1  0.25191765  0.77696604  0.35691290  1
  O  O57  1  0.35048133  0.01901112  0.73627791  1
  O  O58  1  0.25039290  0.79611031  0.60804535  1
  O  O59  1  0.37123201  0.48758935  0.33582891  1
  O  O60  1  0.35199773  0.00089519  0.98977514  1
  O  O61  1  0.24950313  0.78035765  0.86414964  1
  O  O62  1  0.45206093  0.38646664  0.06445809  1
  O  O63  1  0.35258902  0.59099546  0.69825080  1
  O  O64  1  0.50206846  0.22510618  0.31360032  1
  O  O65  1  0.44742801  0.80918515  0.10219975  1
  O  O66  1  0.45072388  0.37738092  0.55687618  1
  O  O67  1  0.44951241  0.39589892  0.80872563  1
  O  O68  1  0.42926139  0.91383545  0.46506651  1
  O  O69  1  0.57114444  0.08698064  0.53525083  1
  O  O70  1  0.55009819  0.60464250  0.19184180  1
  O  O71  1  0.54866101  0.62278586  0.44333141  1
  O  O72  1  0.55186982  0.19107007  0.89447635  1
  O  O73  1  0.49734579  0.77633882  0.69083870  1
  O  O74  1  0.64724808  0.40891317  0.30111338  1
  O  O75  1  0.54994095  0.61959294  0.93580563  1
  O  O76  1  0.75066254  0.21873922  0.13579421  1
  O  O77  1  0.65197345  0.99262826  0.00620787  1
  O  O78  1  0.62866464  0.51269682  0.66453318  1
  O  O79  1  0.75011134  0.20391687  0.39105038  1
  O  O80  1  0.64980507  0.98129817  0.26418755  1
  O  O81  1  0.74877641  0.22289624  0.64264102  1
  O  O82  1  0.75273186  0.79075537  0.09929409  1
  O  O83  1  0.69670708  0.37574808  0.89086409  1
  O  O84  1  0.70288234  0.82388523  0.50895115  1
  O  O85  1  0.84738551  0.00899298  0.50152927  1
  O  O86  1  0.65084734  0.97761735  0.75653494  1
  O  O87  1  0.85031143  0.59563310  0.20826815  1
  O  O88  1  0.82759823  0.11283405  0.86509937  1
  O  O89  1  0.77108428  0.68698171  0.73552740  1
  O  O90  1  0.84991830  0.58100517  0.46411563  1
  O  O91  1  0.95270071  0.39059854  0.29791802  1
  O  O92  1  0.89755378  0.97602042  0.09138683  1
  O  O93  1  0.90259956  0.42394590  0.70904413  1
  O  O94  1  0.85150783  0.57725129  0.95652537  1
  O  O95  1  0.95072092  0.81868148  0.33541683  1
  O  O96  1  0.97061711  0.28746307  0.93548684  1
  O  O97  1  0.94980045  0.80416734  0.59178907  1
  O  O98  1  0.94881514  0.82267193  0.84356540  1
