# generated using pymatgen
data_Na6MnO4
_symmetry_space_group_name_H-M   'P 1'
_cell_length_a   7.58982545
_cell_length_b   7.58984122
_cell_length_c   5.52013952
_cell_angle_alpha   90.00055746
_cell_angle_beta   89.99990395
_cell_angle_gamma   90.00052805
_symmetry_Int_Tables_number   1
_chemical_formula_structural   Na6MnO4
_chemical_formula_sum   'Na12 Mn2 O8'
_cell_volume   317.99078381
_cell_formula_units_Z   2
loop_
 _symmetry_equiv_pos_site_id
 _symmetry_equiv_pos_as_xyz
  1  'x, y, z'
loop_
 _atom_site_type_symbol
 _atom_site_label
 _atom_site_symmetry_multiplicity
 _atom_site_fract_x
 _atom_site_fract_y
 _atom_site_fract_z
 _atom_site_occupancy
  Na  Na0  1  0.03700666  0.53699321  0.75000862  1
  Na  Na1  1  0.03700610  0.96300935  0.74997973  1
  Na  Na2  1  0.25001087  0.25001666  0.66720095  1
  Na  Na3  1  0.25000626  0.25002181  0.16720091  1
  Na  Na4  1  0.46302169  0.53701756  0.74999291  1
  Na  Na5  1  0.46300424  0.96300124  0.74999445  1
  Na  Na6  1  0.53702050  0.03700819  0.24999335  1
  Na  Na7  1  0.53700878  0.46301054  0.24999071  1
  Na  Na8  1  0.75002018  0.75000248  0.33277531  1
  Na  Na9  1  0.75001210  0.75001386  0.83277375  1
  Na  Na10  1  0.96301476  0.03701987  0.24997537  1
  Na  Na11  1  0.96300068  0.46300004  0.24999644  1
  Mn  Mn12  1  0.25000225  0.75000707  0.25004405  1
  Mn  Mn13  1  0.74999584  0.24999557  0.75001867  1
  O  O14  1  0.99840289  0.25000450  0.93645473  1
  O  O15  1  0.25001222  0.99842186  0.43645712  1
  O  O16  1  0.25000365  0.50160672  0.43647348  1
  O  O17  1  0.50159367  0.25000878  0.93645657  1
  O  O18  1  0.49840228  0.75000294  0.06355796  1
  O  O19  1  0.75000961  0.00161033  0.56354531  1
  O  O20  1  0.75000599  0.49839594  0.56355611  1
  O  O21  1  0.00161679  0.75000949  0.06355348  1
