# generated using pymatgen
data_Li3SbH18S4O9
_symmetry_space_group_name_H-M   'P 1'
_cell_length_a   11.53979262
_cell_length_b   11.53979262
_cell_length_c   11.53979262
_cell_angle_alpha   90.00000000
_cell_angle_beta   90.00000000
_cell_angle_gamma   90.00000000
_symmetry_Int_Tables_number   1
_chemical_formula_structural   Li3SbH18S4O9
_chemical_formula_sum   'Li12 Sb4 H72 S16 O36'
_cell_volume   1536.71741411
_cell_formula_units_Z   4
loop_
 _symmetry_equiv_pos_site_id
 _symmetry_equiv_pos_as_xyz
  1  'x, y, z'
loop_
 _atom_site_type_symbol
 _atom_site_label
 _atom_site_symmetry_multiplicity
 _atom_site_fract_x
 _atom_site_fract_y
 _atom_site_fract_z
 _atom_site_occupancy
  Li  Li0  1  0.04973844  0.54973844  0.95026156  1
  Li  Li1  1  0.09047727  0.90952273  0.40952273  1
  Li  Li2  1  0.20512559  0.70512559  0.79487441  1
  Li  Li3  1  0.29487441  0.29487441  0.29487441  1
  Li  Li4  1  0.40952273  0.09047727  0.90952273  1
  Li  Li5  1  0.45026156  0.45026156  0.45026156  1
  Li  Li6  1  0.54973844  0.95026156  0.04973844  1
  Li  Li7  1  0.59047727  0.59047727  0.59047727  1
  Li  Li8  1  0.70512559  0.79487441  0.20512559  1
  Li  Li9  1  0.79487441  0.20512559  0.70512559  1
  Li  Li10  1  0.90952273  0.40952273  0.09047727  1
  Li  Li11  1  0.95026156  0.04973844  0.54973844  1
  Sb  Sb12  1  0.03837323  0.03837323  0.03837323  1
  Sb  Sb13  1  0.46162677  0.96162677  0.53837323  1
  Sb  Sb14  1  0.53837323  0.46162677  0.96162677  1
  Sb  Sb15  1  0.96162677  0.53837323  0.46162677  1
  H  H16  1  0.01572838  0.25197014  0.65652941  1
  H  H17  1  0.02718918  0.30515145  0.92757817  1
  H  H18  1  0.03741838  0.16505622  0.75886238  1
  H  H19  1  0.05583470  0.22697395  0.26730934  1
  H  H20  1  0.06493406  0.31050551  0.37296588  1
  H  H21  1  0.07701385  0.86814557  0.63737396  1
  H  H22  1  0.07242183  0.52718918  0.19484855  1
  H  H23  1  0.12703412  0.93506594  0.81050551  1
  H  H24  1  0.13737396  0.42298615  0.13185443  1
  H  H25  1  0.13185443  0.13737396  0.42298615  1
  H  H26  1  0.15652941  0.48427162  0.74802986  1
  H  H27  1  0.16505622  0.75886238  0.03741838  1
  H  H28  1  0.18949449  0.62703412  0.56493406  1
  H  H29  1  0.19484855  0.07242183  0.52718918  1
  H  H30  1  0.22697395  0.26730934  0.05583470  1
  H  H31  1  0.23269066  0.94416530  0.72697395  1
  H  H32  1  0.24113762  0.53741838  0.33494378  1
  H  H33  1  0.24802986  0.34347059  0.51572838  1
  H  H34  1  0.25197014  0.65652941  0.01572838  1
  H  H35  1  0.25886238  0.46258162  0.83494378  1
  H  H36  1  0.26730934  0.05583470  0.22697395  1
  H  H37  1  0.27302605  0.73269066  0.55583470  1
  H  H38  1  0.30515145  0.92757817  0.02718918  1
  H  H39  1  0.31050551  0.37296588  0.06493406  1
  H  H40  1  0.33494378  0.24113762  0.53741838  1
  H  H41  1  0.34347059  0.51572838  0.24802986  1
  H  H42  1  0.36814557  0.86262604  0.92298615  1
  H  H43  1  0.36262604  0.57701385  0.63185443  1
  H  H44  1  0.37296588  0.06493406  0.31050551  1
  H  H45  1  0.42757817  0.47281082  0.69484855  1
  H  H46  1  0.42298615  0.13185443  0.13737396  1
  H  H47  1  0.43506594  0.68949449  0.87296588  1
  H  H48  1  0.44416530  0.77302605  0.76730934  1
  H  H49  1  0.46258162  0.83494378  0.25886238  1
  H  H50  1  0.47281082  0.69484855  0.42757817  1
  H  H51  1  0.48427162  0.74802986  0.15652941  1
  H  H52  1  0.51572838  0.24802986  0.34347059  1
  H  H53  1  0.52718918  0.19484855  0.07242183  1
  H  H54  1  0.53741838  0.33494378  0.24113762  1
  H  H55  1  0.55583470  0.27302605  0.73269066  1
  H  H56  1  0.56493406  0.18949449  0.62703412  1
  H  H57  1  0.57701385  0.63185443  0.36262604  1
  H  H58  1  0.57242183  0.97281082  0.80515145  1
  H  H59  1  0.62703412  0.56493406  0.18949449  1
  H  H60  1  0.63737396  0.07701385  0.86814557  1
  H  H61  1  0.63185443  0.36262604  0.57701385  1
  H  H62  1  0.65652941  0.01572838  0.25197014  1
  H  H63  1  0.66505622  0.74113762  0.96258162  1
  H  H64  1  0.68949449  0.87296588  0.43506594  1
  H  H65  1  0.69484855  0.42757817  0.47281082  1
  H  H66  1  0.72697395  0.23269066  0.94416530  1
  H  H67  1  0.73269066  0.55583470  0.27302605  1
  H  H68  1  0.74113762  0.96258162  0.66505622  1
  H  H69  1  0.74802986  0.15652941  0.48427162  1
  H  H70  1  0.75197014  0.84347059  0.98427162  1
  H  H71  1  0.75886238  0.03741838  0.16505622  1
  H  H72  1  0.76730934  0.44416530  0.77302605  1
  H  H73  1  0.77302605  0.76730934  0.44416530  1
  H  H74  1  0.80515145  0.57242183  0.97281082  1
  H  H75  1  0.81050551  0.12703412  0.93506594  1
  H  H76  1  0.83494378  0.25886238  0.46258162  1
  H  H77  1  0.84347059  0.98427162  0.75197014  1
  H  H78  1  0.86814557  0.63737396  0.07701385  1
  H  H79  1  0.86262604  0.92298615  0.36814557  1
  H  H80  1  0.87296588  0.43506594  0.68949449  1
  H  H81  1  0.92757817  0.02718918  0.30515145  1
  H  H82  1  0.92298615  0.36814557  0.86262604  1
  H  H83  1  0.93506594  0.81050551  0.12703412  1
  H  H84  1  0.94416530  0.72697395  0.23269066  1
  H  H85  1  0.96258162  0.66505622  0.74113762  1
  H  H86  1  0.97281082  0.80515145  0.57242183  1
  H  H87  1  0.98427162  0.75197014  0.84347059  1
  S  S88  1  0.08015281  0.41984719  0.58015281  1
  S  S89  1  0.08259358  0.65551405  0.34516082  1
  S  S90  1  0.15483918  0.91740642  0.15551405  1
  S  S91  1  0.15551405  0.15483918  0.91740642  1
  S  S92  1  0.34448595  0.84516082  0.41740642  1
  S  S93  1  0.34516082  0.08259358  0.65551405  1
  S  S94  1  0.41740642  0.34448595  0.84516082  1
  S  S95  1  0.41984719  0.58015281  0.08015281  1
  S  S96  1  0.58015281  0.08015281  0.41984719  1
  S  S97  1  0.58259358  0.84448595  0.65483918  1
  S  S98  1  0.65483918  0.58259358  0.84448595  1
  S  S99  1  0.65551405  0.34516082  0.08259358  1
  S  S100  1  0.84448595  0.65483918  0.58259358  1
  S  S101  1  0.84516082  0.41740642  0.34448595  1
  S  S102  1  0.91740642  0.15551405  0.15483918  1
  S  S103  1  0.91984719  0.91984719  0.91984719  1
  O  O104  1  0.01370878  0.67929684  0.80852122  1
  O  O105  1  0.02581586  0.87242450  0.56818543  1
  O  O106  1  0.06818543  0.47418414  0.12757550  1
  O  O107  1  0.11119413  0.25565385  0.32707147  1
  O  O108  1  0.12757550  0.06818543  0.47418414  1
  O  O109  1  0.17292853  0.88880587  0.75565385  1
  O  O110  1  0.17929684  0.69147878  0.98629122  1
  O  O111  1  0.19147878  0.51370878  0.82070316  1
  O  O112  1  0.24434615  0.67292853  0.61119413  1
  O  O113  1  0.25565385  0.32707147  0.11119413  1
  O  O114  1  0.30852122  0.48629122  0.32070316  1
  O  O115  1  0.32070316  0.30852122  0.48629122  1
  O  O116  1  0.32707147  0.11119413  0.25565385  1
  O  O117  1  0.37242450  0.93181457  0.97418414  1
  O  O118  1  0.38880587  0.74434615  0.82707147  1
  O  O119  1  0.43181457  0.52581586  0.62757550  1
  O  O120  1  0.47418414  0.12757550  0.06818543  1
  O  O121  1  0.48629122  0.32070316  0.30852122  1
  O  O122  1  0.51370878  0.82070316  0.19147878  1
  O  O123  1  0.52581586  0.62757550  0.43181457  1
  O  O124  1  0.56818543  0.02581586  0.87242450  1
  O  O125  1  0.61119413  0.24434615  0.67292853  1
  O  O126  1  0.62757550  0.43181457  0.52581586  1
  O  O127  1  0.67292853  0.61119413  0.24434615  1
  O  O128  1  0.67929684  0.80852122  0.01370878  1
  O  O129  1  0.69147878  0.98629122  0.17929684  1
  O  O130  1  0.74434615  0.82707147  0.38880587  1
  O  O131  1  0.75565385  0.17292853  0.88880587  1
  O  O132  1  0.80852122  0.01370878  0.67929684  1
  O  O133  1  0.82070316  0.19147878  0.51370878  1
  O  O134  1  0.82707147  0.38880587  0.74434615  1
  O  O135  1  0.87242450  0.56818543  0.02581586  1
  O  O136  1  0.88880587  0.75565385  0.17292853  1
  O  O137  1  0.93181457  0.97418414  0.37242450  1
  O  O138  1  0.97418414  0.37242450  0.93181457  1
  O  O139  1  0.98629122  0.17929684  0.69147878  1
