# generated using pymatgen
data_Cu5Sn4
_symmetry_space_group_name_H-M   'P 1'
_cell_length_a   7.32459806
_cell_length_b   10.03382545
_cell_length_c   9.98812276
_cell_angle_alpha   118.01966079
_cell_angle_beta   90.00000000
_cell_angle_gamma   90.00000000
_symmetry_Int_Tables_number   1
_chemical_formula_structural   Cu5Sn4
_chemical_formula_sum   'Cu20 Sn16'
_cell_volume   648.02217318
_cell_formula_units_Z   4
loop_
 _symmetry_equiv_pos_site_id
 _symmetry_equiv_pos_as_xyz
  1  'x, y, z'
loop_
 _atom_site_type_symbol
 _atom_site_label
 _atom_site_symmetry_multiplicity
 _atom_site_fract_x
 _atom_site_fract_y
 _atom_site_fract_z
 _atom_site_occupancy
  Cu  Cu0  1  0.77670141  0.94439596  0.05685563  1
  Cu  Cu1  1  0.27670141  0.05560404  0.44314437  1
  Cu  Cu2  1  0.22329859  0.05560404  0.94314437  1
  Cu  Cu3  1  0.72329859  0.94439596  0.55685563  1
  Cu  Cu4  1  0.25596276  0.81019726  0.18659596  1
  Cu  Cu5  1  0.75596276  0.18980274  0.31340404  1
  Cu  Cu6  1  0.74403724  0.18980274  0.81340404  1
  Cu  Cu7  1  0.24403724  0.81019726  0.68659596  1
  Cu  Cu8  1  0.72321839  0.68374244  0.31634934  1
  Cu  Cu9  1  0.22321839  0.31625756  0.18365066  1
  Cu  Cu10  1  0.27678161  0.31625756  0.68365066  1
  Cu  Cu11  1  0.77678161  0.68374244  0.81634934  1
  Cu  Cu12  1  0.24283857  0.57041072  0.43142030  1
  Cu  Cu13  1  0.74283857  0.42958928  0.06857970  1
  Cu  Cu14  1  0.75716143  0.42958928  0.56857970  1
  Cu  Cu15  1  0.25716143  0.57041072  0.93142030  1
  Cu  Cu16  1  0.08922805  0.80892480  0.93784303  1
  Cu  Cu17  1  0.58922805  0.19107520  0.56215697  1
  Cu  Cu18  1  0.91077195  0.19107520  0.06215697  1
  Cu  Cu19  1  0.41077195  0.80892480  0.43784303  1
  Sn  Sn20  1  0.59947394  0.92924683  0.28437837  1
  Sn  Sn21  1  0.09947394  0.07075317  0.21562163  1
  Sn  Sn22  1  0.40052606  0.07075317  0.71562163  1
  Sn  Sn23  1  0.90052606  0.92924683  0.78437837  1
  Sn  Sn24  1  0.05150511  0.81662901  0.43531703  1
  Sn  Sn25  1  0.55150511  0.18337099  0.06468297  1
  Sn  Sn26  1  0.94849489  0.18337099  0.56468297  1
  Sn  Sn27  1  0.44849489  0.81662901  0.93531703  1
  Sn  Sn28  1  0.58683311  0.67643372  0.57733474  1
  Sn  Sn29  1  0.08683311  0.32356628  0.92266526  1
  Sn  Sn30  1  0.41316689  0.32356628  0.42266526  1
  Sn  Sn31  1  0.91316689  0.67643372  0.07733474  1
  Sn  Sn32  1  0.09758696  0.54404709  0.66874641  1
  Sn  Sn33  1  0.59758696  0.45595291  0.83125359  1
  Sn  Sn34  1  0.90241304  0.45595291  0.33125359  1
  Sn  Sn35  1  0.40241304  0.54404709  0.16874641  1
