# generated using pymatgen
data_BaCe2O4
_symmetry_space_group_name_H-M   'P 1'
_cell_length_a   3.64031386
_cell_length_b   10.63589381
_cell_length_c   12.57892521
_cell_angle_alpha   90.00000000
_cell_angle_beta   90.00000000
_cell_angle_gamma   90.00000000
_symmetry_Int_Tables_number   1
_chemical_formula_structural   BaCe2O4
_chemical_formula_sum   'Ba4 Ce8 O16'
_cell_volume   487.03072125
_cell_formula_units_Z   4
loop_
 _symmetry_equiv_pos_site_id
 _symmetry_equiv_pos_as_xyz
  1  'x, y, z'
loop_
 _atom_site_type_symbol
 _atom_site_label
 _atom_site_symmetry_multiplicity
 _atom_site_fract_x
 _atom_site_fract_y
 _atom_site_fract_z
 _atom_site_occupancy
  Ba  Ba0  1  0.75000000  0.24988019  0.14675089  1
  Ba  Ba1  1  0.75000000  0.74988019  0.35324911  1
  Ba  Ba2  1  0.25000000  0.75011981  0.85324911  1
  Ba  Ba3  1  0.25000000  0.25011981  0.64675089  1
  Ce  Ce4  1  0.75000000  0.42391026  0.88805986  1
  Ce  Ce5  1  0.75000000  0.92391026  0.61194014  1
  Ce  Ce6  1  0.25000000  0.57608974  0.11194014  1
  Ce  Ce7  1  0.25000000  0.07608974  0.38805986  1
  Ce  Ce8  1  0.75000000  0.91826890  0.11080812  1
  Ce  Ce9  1  0.75000000  0.41826890  0.38919188  1
  Ce  Ce10  1  0.25000000  0.08173110  0.88919188  1
  Ce  Ce11  1  0.25000000  0.58173110  0.61080812  1
  O  O12  1  0.75000000  0.21498885  0.82594656  1
  O  O13  1  0.75000000  0.71498885  0.67405344  1
  O  O14  1  0.25000000  0.78501115  0.17405344  1
  O  O15  1  0.25000000  0.28501115  0.32594656  1
  O  O16  1  0.75000000  0.12208876  0.51486475  1
  O  O17  1  0.75000000  0.62208876  0.98513525  1
  O  O18  1  0.25000000  0.87791124  0.48513525  1
  O  O19  1  0.25000000  0.37791124  0.01486475  1
  O  O20  1  0.75000000  0.01235004  0.28374439  1
  O  O21  1  0.75000000  0.51235004  0.21625561  1
  O  O22  1  0.25000000  0.98764996  0.71625561  1
  O  O23  1  0.25000000  0.48764996  0.78374439  1
  O  O24  1  0.75000000  0.43340879  0.57628081  1
  O  O25  1  0.75000000  0.93340879  0.92371919  1
  O  O26  1  0.25000000  0.56659121  0.42371919  1
  O  O27  1  0.25000000  0.06659121  0.07628081  1
