# generated using pymatgen
data_Li32Ti11Cr5O48
_symmetry_space_group_name_H-M   'P 1'
_cell_length_a   5.07931650
_cell_length_b   5.07436705
_cell_length_c   38.68112809
_cell_angle_alpha   88.94991180
_cell_angle_beta   91.14748881
_cell_angle_gamma   60.12249413
_symmetry_Int_Tables_number   1
_chemical_formula_structural   Li32Ti11Cr5O48
_chemical_formula_sum   'Li32 Ti11 Cr5 O48'
_cell_volume   863.83935764
_cell_formula_units_Z   1
loop_
 _symmetry_equiv_pos_site_id
 _symmetry_equiv_pos_as_xyz
  1  'x, y, z'
loop_
 _atom_site_type_symbol
 _atom_site_label
 _atom_site_symmetry_multiplicity
 _atom_site_fract_x
 _atom_site_fract_y
 _atom_site_fract_z
 _atom_site_occupancy
  Li  Li0  1  0.09067836  0.08667160  0.24977926  1
  Li  Li1  1  0.00328483  0.50302662  0.00011635  1
  Li  Li2  1  0.06065034  0.44115871  0.18746874  1
  Li  Li3  1  0.12324561  0.37282474  0.37501857  1
  Li  Li4  1  0.19062202  0.31100856  0.56249811  1
  Li  Li5  1  0.25010362  0.24642418  0.75019514  1
  Li  Li6  1  0.31241030  0.18763069  0.93747440  1
  Li  Li7  1  0.03811589  0.78160241  0.12496078  1
  Li  Li8  1  0.37806893  0.12523887  0.12496826  1
  Li  Li9  1  0.16638835  0.65949784  0.50019331  1
  Li  Li10  1  0.28183779  0.54275855  0.87462262  1
  Li  Li11  1  0.43753890  0.06246394  0.31245027  1
  Li  Li12  1  0.49514662  0.99762606  0.50007829  1
  Li  Li13  1  0.40924239  0.41502544  0.24983969  1
  Li  Li14  1  0.53211989  0.29028231  0.62473074  1
  Li  Li15  1  0.22088743  0.95952721  0.62505226  1
  Li  Li16  1  0.33746174  0.83741320  0.00012264  1
  Li  Li17  1  0.65948128  0.16008592  0.00017015  1
  Li  Li18  1  0.78758294  0.03590911  0.37498954  1
  Li  Li19  1  0.46375767  0.71595020  0.37510447  1
  Li  Li20  1  0.58429802  0.59597421  0.75006525  1
  Li  Li21  1  0.56254737  0.93766368  0.68752259  1
  Li  Li22  1  0.70921851  0.46818884  0.12497968  1
  Li  Li23  1  0.83735555  0.34183643  0.50000107  1
  Li  Li24  1  0.62417337  0.87257470  0.87485108  1
  Li  Li25  1  0.96840825  0.20918928  0.87497365  1
  Li  Li26  1  0.68956280  0.81435205  0.06251306  1
  Li  Li27  1  0.74910870  0.74764400  0.24983594  1
  Li  Li28  1  0.81247523  0.68704589  0.43753081  1
  Li  Li29  1  0.87173865  0.62491418  0.62491122  1
  Li  Li30  1  0.93598305  0.56560562  0.81251543  1
  Li  Li31  1  0.91529843  0.90716448  0.75034303  1
  Ti  Ti32  1  0.01762283  0.14343184  0.06255932  1
  Ti  Ti33  1  0.10516053  0.72985336  0.31245608  1
  Ti  Ti34  1  0.22970018  0.60463040  0.68753619  1
  Ti  Ti35  1  0.47967528  0.35487350  0.43744776  1
  Ti  Ti36  1  0.60692523  0.22575450  0.81264475  1
  Ti  Ti37  1  0.73241706  0.09990015  0.18759782  1
  Ti  Ti38  1  0.64486090  0.51963359  0.93753463  1
  Ti  Ti39  1  0.76989643  0.39475377  0.31242701  1
  Ti  Ti40  1  0.89439369  0.26974697  0.68754169  1
  Ti  Ti41  1  0.85104099  0.98191139  0.56240363  1
  Ti  Ti42  1  0.97957351  0.85518931  0.93750621  1
  Cr  Cr43  1  0.14368181  0.01806719  0.43758899  1
  Cr  Cr44  1  0.35678243  0.48119923  0.06252778  1
  Cr  Cr45  1  0.26830797  0.89845021  0.81248875  1
  Cr  Cr46  1  0.39336673  0.77320914  0.18725224  1
  Cr  Cr47  1  0.52335672  0.64340451  0.56247945  1
  O  O48  1  0.09074059  0.05387918  0.34074671  1
  O  O49  1  0.06463737  0.08243284  0.15934011  1
  O  O50  1  0.07160493  0.42805299  0.28346696  1
  O  O51  1  0.19618593  0.30368950  0.65857373  1
  O  O52  1  0.05840767  0.44688601  0.09094780  1
  O  O53  1  0.17813246  0.31914892  0.46628006  1
  O  O54  1  0.30166906  0.18937551  0.84111610  1
  O  O55  1  0.32213998  0.18272174  0.03418860  1
  O  O56  1  0.44194159  0.05311135  0.40889992  1
  O  O57  1  0.06648945  0.78628329  0.21598418  1
  O  O58  1  0.42623051  0.06410546  0.21600518  1
  O  O59  1  0.20214289  0.65915046  0.59044316  1
  O  O60  1  0.32103702  0.53415120  0.96576357  1
  O  O61  1  0.03172450  0.82553639  0.03396143  1
  O  O62  1  0.15986794  0.70103352  0.40935250  1
  O  O63  1  0.28438436  0.57678816  0.78462137  1
  O  O64  1  0.21562789  0.92877893  0.71596573  1
  O  O65  1  0.18398049  0.96079414  0.53473660  1
  O  O66  1  0.30333875  0.84122325  0.90910271  1
  O  O67  1  0.44645448  0.40930064  0.34089751  1
  O  O68  1  0.57152311  0.28474371  0.71604539  1
  O  O69  1  0.40909687  0.45140384  0.15962404  1
  O  O70  1  0.53636836  0.31721250  0.53392790  1
  O  O71  1  0.65931616  0.19639271  0.90897967  1
  O  O72  1  0.34277571  0.79374250  0.09061659  1
  O  O73  1  0.46448810  0.68016125  0.46571344  1
  O  O74  1  0.58612637  0.55885869  0.84038469  1
  O  O75  1  0.42871017  0.71569009  0.28410636  1
  O  O76  1  0.55347134  0.59072578  0.65921926  1
  O  O77  1  0.70115740  0.15729002  0.09118728  1
  O  O78  1  0.82802115  0.03466643  0.46570562  1
  O  O79  1  0.78384481  0.07148449  0.28397413  1
  O  O80  1  0.71062443  0.43400070  0.21527911  1
  O  O81  1  0.83312647  0.31357733  0.59054727  1
  O  O82  1  0.96498730  0.17901926  0.96594260  1
  O  O83  1  0.66875410  0.46755093  0.03441750  1
  O  O84  1  0.80392021  0.33973760  0.40930310  1
  O  O85  1  0.57463288  0.92937039  0.78345627  1
  O  O86  1  0.93862359  0.20822998  0.78456726  1
  O  O87  1  0.55485230  0.94968218  0.59160810  1
  O  O88  1  0.67827404  0.82169510  0.96643829  1
  O  O89  1  0.69967813  0.80476204  0.15820694  1
  O  O90  1  0.81425019  0.67635657  0.53391078  1
  O  O91  1  0.94627960  0.55329857  0.90846073  1
  O  O92  1  0.80348863  0.69691830  0.34141635  1
  O  O93  1  0.92886527  0.57147858  0.71658278  1
  O  O94  1  0.94267839  0.91088135  0.84101354  1
  O  O95  1  0.90977390  0.94633804  0.65909938  1
