# generated using pymatgen
data_Li2Cr2O7
_symmetry_space_group_name_H-M   'P 1'
_cell_length_a   5.72791967
_cell_length_b   5.72791967
_cell_length_c   9.98118160
_cell_angle_alpha   75.69702344
_cell_angle_beta   104.30297656
_cell_angle_gamma   83.83125906
_symmetry_Int_Tables_number   1
_chemical_formula_structural   Li2Cr2O7
_chemical_formula_sum   'Li4 Cr4 O14'
_cell_volume   302.49545813
_cell_formula_units_Z   2
loop_
 _symmetry_equiv_pos_site_id
 _symmetry_equiv_pos_as_xyz
  1  'x, y, z'
loop_
 _atom_site_type_symbol
 _atom_site_label
 _atom_site_symmetry_multiplicity
 _atom_site_fract_x
 _atom_site_fract_y
 _atom_site_fract_z
 _atom_site_occupancy
  Li  Li0  1  0.34443245  0.29188451  0.99021642  1
  Li  Li1  1  0.29188451  0.34443245  0.50978358  1
  Li  Li2  1  0.70811549  0.65556755  0.49021642  1
  Li  Li3  1  0.65556755  0.70811549  0.00978358  1
  Cr  Cr4  1  0.18992242  0.79021404  0.70756409  1
  Cr  Cr5  1  0.20978596  0.81007758  0.20756409  1
  Cr  Cr6  1  0.79021404  0.18992242  0.79243591  1
  Cr  Cr7  1  0.81007758  0.20978596  0.29243591  1
  O  O8  1  0.32362751  0.98221278  0.61601454  1
  O  O9  1  0.06950469  0.61868172  0.60929755  1
  O  O10  1  0.38791682  0.61924054  0.85963797  1
  O  O11  1  0.01778722  0.67637249  0.11601454  1
  O  O12  1  0.95300128  0.95300128  0.75000000  1
  O  O13  1  0.38131828  0.93049531  0.10929755  1
  O  O14  1  0.38075946  0.61208318  0.35963797  1
  O  O15  1  0.61924054  0.38791682  0.64036203  1
  O  O16  1  0.61868172  0.06950469  0.89070245  1
  O  O17  1  0.04699872  0.04699872  0.25000000  1
  O  O18  1  0.98221278  0.32362751  0.88398546  1
  O  O19  1  0.61208318  0.38075946  0.14036203  1
  O  O20  1  0.93049531  0.38131828  0.39070245  1
  O  O21  1  0.67637249  0.01778722  0.38398546  1
