# generated using pymatgen
data_Li12MnV7(PO4)12
_symmetry_space_group_name_H-M   'P 1'
_cell_length_a   8.73467500
_cell_length_b   12.16786685
_cell_length_c   8.74860854
_cell_angle_alpha   90.17214046
_cell_angle_beta   89.66432451
_cell_angle_gamma   90.84762701
_symmetry_Int_Tables_number   1
_chemical_formula_structural   Li12MnV7(PO4)12
_chemical_formula_sum   'Li12 Mn1 V7 P12 O48'
_cell_volume   929.70112068
_cell_formula_units_Z   1
loop_
 _symmetry_equiv_pos_site_id
 _symmetry_equiv_pos_as_xyz
  1  'x, y, z'
loop_
 _atom_site_type_symbol
 _atom_site_label
 _atom_site_symmetry_multiplicity
 _atom_site_fract_x
 _atom_site_fract_y
 _atom_site_fract_z
 _atom_site_occupancy
  Li  Li0  1  0.07317719  0.69745390  0.08126125  1
  Li  Li1  1  0.08069530  0.76343813  0.69765413  1
  Li  Li2  1  0.20684542  0.17448646  0.78365990  1
  Li  Li3  1  0.29203732  0.32583576  0.28171406  1
  Li  Li4  1  0.41639422  0.73793659  0.19775576  1
  Li  Li5  1  0.42717381  0.80256636  0.58064970  1
  Li  Li6  1  0.57425916  0.19649383  0.41779355  1
  Li  Li7  1  0.58399836  0.26263389  0.80256089  1
  Li  Li8  1  0.70898314  0.67572756  0.71765312  1
  Li  Li9  1  0.79198530  0.82661322  0.21842684  1
  Li  Li10  1  0.91623415  0.23687894  0.30256298  1
  Li  Li11  1  0.92659586  0.30248646  0.91924578  1
  Mn  Mn12  1  0.75299331  0.89162462  0.53896102  1
  V  V13  1  0.24694053  0.60995779  0.53015148  1
  V  V14  1  0.25334284  0.89022407  0.02927801  1
  V  V15  1  0.24692741  0.10905748  0.46211256  1
  V  V16  1  0.25288399  0.38952920  0.96203616  1
  V  V17  1  0.74730377  0.61028214  0.03792009  1
  V  V18  1  0.74662639  0.10896918  0.96967186  1
  V  V19  1  0.75319709  0.39060309  0.47009184  1
  P  P20  1  0.03637409  0.49304581  0.24791717  1
  P  P21  1  0.10341666  0.85127819  0.38280925  1
  P  P22  1  0.10514425  0.14875580  0.10480244  1
  P  P23  1  0.39413746  0.35137048  0.60477596  1
  P  P24  1  0.39735231  0.64800678  0.88261296  1
  P  P25  1  0.46291317  0.00805604  0.74767718  1
  P  P26  1  0.53558175  0.99301760  0.24863121  1
  P  P27  1  0.60272339  0.35193397  0.11722816  1
  P  P28  1  0.60585080  0.64924403  0.39571454  1
  P  P29  1  0.89566774  0.84984467  0.89731254  1
  P  P30  1  0.89654412  0.14777101  0.61681578  1
  P  P31  1  0.96431956  0.50682645  0.75249137  1
  O  O32  1  0.04935180  0.43386920  0.86707983  1
  O  O33  1  0.07436756  0.85211201  0.88870709  1
  O  O34  1  0.06998119  0.59696427  0.68176256  1
  O  O35  1  0.07051313  0.16933596  0.59458162  1
  O  O36  1  0.10802487  0.57175574  0.36564879  1
  O  O37  1  0.14358401  0.81805842  0.21535372  1
  O  O38  1  0.14585946  0.97207017  0.41171174  1
  O  O39  1  0.14495585  0.23924525  0.98272947  1
  O  O40  1  0.15958876  0.18736998  0.26581253  1
  O  O41  1  0.16941213  0.43144491  0.16861211  1
  O  O42  1  0.17293176  0.04246696  0.05096857  1
  O  O43  1  0.19437946  0.78152849  0.50107943  1
  O  O44  1  0.30518066  0.71853771  0.00108995  1
  O  O45  1  0.32690638  0.45807302  0.55181232  1
  O  O46  1  0.32984469  0.06924093  0.66941480  1
  O  O47  1  0.33909047  0.31345593  0.76585036  1
  O  O48  1  0.35539826  0.52732593  0.91066575  1
  O  O49  1  0.35848391  0.68136003  0.71480355  1
  O  O50  1  0.35444391  0.26065977  0.48264984  1
  O  O51  1  0.39240187  0.92915760  0.86529359  1
  O  O52  1  0.42756979  0.90376591  0.17875403  1
  O  O53  1  0.42741265  0.64802821  0.38643995  1
  O  O54  1  0.42939277  0.33091802  0.09538618  1
  O  O55  1  0.45001898  0.06573643  0.36627149  1
  O  O56  1  0.54692330  0.93382777  0.63122545  1
  O  O57  1  0.57056620  0.66949501  0.90399428  1
  O  O58  1  0.57274165  0.35258549  0.61469172  1
  O  O59  1  0.56933165  0.09762083  0.81770592  1
  O  O60  1  0.60378226  0.07471155  0.13146915  1
  O  O61  1  0.64551642  0.73976238  0.51906216  1
  O  O62  1  0.64115824  0.31859815  0.28518237  1
  O  O63  1  0.64469601  0.47252690  0.08870071  1
  O  O64  1  0.65997566  0.68649305  0.23441986  1
  O  O65  1  0.66825244  0.93225966  0.32278613  1
  O  O66  1  0.67290015  0.54196590  0.44803872  1
  O  O67  1  0.69504179  0.28127784  0.99902868  1
  O  O68  1  0.80495750  0.21797126  0.49933974  1
  O  O69  1  0.82738130  0.95769782  0.94888510  1
  O  O70  1  0.83077457  0.56806717  0.83226066  1
  O  O71  1  0.84386645  0.80847047  0.73873126  1
  O  O72  1  0.85627355  0.76079491  0.02170316  1
  O  O73  1  0.85985632  0.02540633  0.59176126  1
  O  O74  1  0.85787159  0.18243551  0.78465800  1
  O  O75  1  0.89254618  0.42784348  0.63472048  1
  O  O76  1  0.92939542  0.82969153  0.40315225  1
  O  O77  1  0.93014941  0.40265708  0.31873498  1
  O  O78  1  0.92644023  0.14779785  0.11434674  1
  O  O79  1  0.95188855  0.56561269  0.13297943  1
