# generated using pymatgen
data_Na6(NiO2)7
_symmetry_space_group_name_H-M   'P 1'
_cell_length_a   6.98543799
_cell_length_b   6.98543821
_cell_length_c   6.98543821
_cell_angle_alpha   67.90541702
_cell_angle_beta   67.90541230
_cell_angle_gamma   67.90541243
_symmetry_Int_Tables_number   1
_chemical_formula_structural   Na6(NiO2)7
_chemical_formula_sum   'Na6 Ni7 O14'
_cell_volume   281.49541066
_cell_formula_units_Z   1
loop_
 _symmetry_equiv_pos_site_id
 _symmetry_equiv_pos_as_xyz
  1  'x, y, z'
loop_
 _atom_site_type_symbol
 _atom_site_label
 _atom_site_symmetry_multiplicity
 _atom_site_fract_x
 _atom_site_fract_y
 _atom_site_fract_z
 _atom_site_occupancy
  Na  Na0  1  0.86595763  0.72441209  0.41888447  1
  Na  Na1  1  0.58111553  0.13404237  0.27558791  1
  Na  Na2  1  0.72441209  0.41888447  0.86595763  1
  Na  Na3  1  0.27558791  0.58111553  0.13404237  1
  Na  Na4  1  0.41888447  0.86595763  0.72441209  1
  Na  Na5  1  0.13404237  0.27558791  0.58111553  1
  Ni  Ni6  1  0.92382539  0.35434864  0.21880214  1
  Ni  Ni7  1  0.64565136  0.78119786  0.07617461  1
  Ni  Ni8  1  0.78119786  0.07617461  0.64565136  1
  Ni  Ni9  1  0.50000000  0.50000000  0.50000000  1
  Ni  Ni10  1  0.21880214  0.92382539  0.35434864  1
  Ni  Ni11  1  0.35434864  0.21880214  0.92382539  1
  Ni  Ni12  1  0.07617461  0.64565136  0.78119786  1
  O  O13  1  0.89957755  0.06616627  0.35119874  1
  O  O14  1  0.93383373  0.64880126  0.10042245  1
  O  O15  1  0.61978325  0.46831132  0.21521862  1
  O  O16  1  0.78478138  0.38021675  0.53168868  1
  O  O17  1  0.23047506  0.23047506  0.23047506  1
  O  O18  1  0.53168868  0.78478138  0.38021675  1
  O  O19  1  0.46831132  0.21521862  0.61978325  1
  O  O20  1  0.64880126  0.10042245  0.93383373  1
  O  O21  1  0.35119874  0.89957755  0.06616627  1
  O  O22  1  0.76952494  0.76952494  0.76952494  1
  O  O23  1  0.38021675  0.53168868  0.78478138  1
  O  O24  1  0.21521862  0.61978325  0.46831132  1
  O  O25  1  0.06616627  0.35119874  0.89957755  1
  O  O26  1  0.10042245  0.93383373  0.64880126  1
