# generated using pymatgen
data_Li4TiCr2Ni3(PO4)6
_symmetry_space_group_name_H-M   'P 1'
_cell_length_a   8.73023429
_cell_length_b   8.55232909
_cell_length_c   8.52796426
_cell_angle_alpha   61.75017001
_cell_angle_beta   61.17218580
_cell_angle_gamma   61.20763080
_symmetry_Int_Tables_number   1
_chemical_formula_structural   Li4TiCr2Ni3(PO4)6
_chemical_formula_sum   'Li4 Ti1 Cr2 Ni3 P6 O24'
_cell_volume   464.13331758
_cell_formula_units_Z   1
loop_
 _symmetry_equiv_pos_site_id
 _symmetry_equiv_pos_as_xyz
  1  'x, y, z'
loop_
 _atom_site_type_symbol
 _atom_site_label
 _atom_site_symmetry_multiplicity
 _atom_site_fract_x
 _atom_site_fract_y
 _atom_site_fract_z
 _atom_site_occupancy
  Li  Li0  1  0.74515475  0.14988385  0.36090779  1
  Li  Li1  1  0.30249411  0.85638861  0.64327562  1
  Li  Li2  1  0.63902154  0.30000272  0.85018200  1
  Li  Li3  1  0.84645180  0.63473223  0.29604600  1
  Ti  Ti4  1  0.85020530  0.84711411  0.84969081  1
  Cr  Cr5  1  0.01204162  0.00466454  0.99178847  1
  Cr  Cr6  1  0.48736401  0.50753901  0.50073191  1
  Ni  Ni7  1  0.14336947  0.14822964  0.14683634  1
  Ni  Ni8  1  0.35614618  0.35326844  0.35374161  1
  Ni  Ni9  1  0.64855168  0.64775566  0.64902643  1
  P  P10  1  0.24363160  0.54588180  0.96029577  1
  P  P11  1  0.54761099  0.95705955  0.24920856  1
  P  P12  1  0.95443909  0.23978473  0.54582791  1
  P  P13  1  0.04493673  0.74445668  0.44020807  1
  P  P14  1  0.45236738  0.05037545  0.75030277  1
  P  P15  1  0.74816659  0.44728036  0.04537371  1
  O  O16  1  0.13342427  0.25945024  0.50870042  1
  O  O17  1  0.30347534  0.52310901  0.11113384  1
  O  O18  1  0.06279152  0.90904023  0.25241047  1
  O  O19  1  0.55545650  0.10726833  0.29325573  1
  O  O20  1  0.98282869  0.81375458  0.61188638  1
  O  O21  1  0.22762388  0.58412758  0.44611223  1
  O  O22  1  0.26436668  0.08780801  0.90117580  1
  O  O23  1  0.47649168  0.23076720  0.57925892  1
  O  O24  1  0.15339665  0.40923435  0.01138687  1
  O  O25  1  0.59950824  0.44573701  0.24344520  1
  O  O26  1  0.10308025  0.75972268  0.90710902  1
  O  O27  1  0.38944027  0.02160450  0.18383744  1
  O  O28  1  0.61885616  0.98528601  0.82000585  1
  O  O29  1  0.89912015  0.24954631  0.07268557  1
  O  O30  1  0.41098102  0.54359245  0.76521703  1
  O  O31  1  0.82118717  0.60982130  0.98091595  1
  O  O32  1  0.54258330  0.76654347  0.42122970  1
  O  O33  1  0.74703831  0.89015075  0.10240196  1
  O  O34  1  0.77448947  0.41630414  0.55806174  1
  O  O35  1  0.96052486  0.17321338  0.40489124  1
  O  O36  1  0.47817682  0.89423058  0.69010824  1
  O  O37  1  0.90511394  0.09649496  0.75933530  1
  O  O38  1  0.67938808  0.47625033  0.89744938  1
  O  O39  1  0.88870192  0.68952519  0.46754193  1
