# generated using pymatgen
data_NaLi3Ti2Fe2(PO4)6
_symmetry_space_group_name_H-M   'P 1'
_cell_length_a   8.47470185
_cell_length_b   8.96034268
_cell_length_c   8.47470159
_cell_angle_alpha   118.22273966
_cell_angle_beta   60.00000292
_cell_angle_gamma   118.22273878
_symmetry_Int_Tables_number   1
_chemical_formula_structural   NaLi3Ti2Fe2(PO4)6
_chemical_formula_sum   'Na1 Li3 Ti2 Fe2 P6 O24'
_cell_volume   466.89263614
_cell_formula_units_Z   1
loop_
 _symmetry_equiv_pos_site_id
 _symmetry_equiv_pos_as_xyz
  1  'x, y, z'
loop_
 _atom_site_type_symbol
 _atom_site_label
 _atom_site_symmetry_multiplicity
 _atom_site_fract_x
 _atom_site_fract_y
 _atom_site_fract_z
 _atom_site_occupancy
  Na  Na0  1  0.50449350  0.51347950  0.50449350  1
  Li  Li1  1  0.32538935  0.14147568  0.07757591  1
  Li  Li2  1  0.07757591  0.14147568  0.73850942  1
  Li  Li3  1  0.73850942  0.14147568  0.32538935  1
  Ti  Ti4  1  0.14673977  0.44022031  0.14673977  1
  Ti  Ti5  1  0.85736458  0.57209275  0.85736458  1
  Fe  Fe6  1  0.64606226  0.93818778  0.64606226  1
  Fe  Fe7  1  0.34753839  0.04261416  0.34753839  1
  P  P8  1  0.03204179  0.24739663  0.46411157  1
  P  P9  1  0.53993926  0.74749270  0.25032876  1
  P  P10  1  0.25032876  0.74749270  0.95722468  1
  P  P11  1  0.75124327  0.24739663  0.03204179  1
  P  P12  1  0.46411157  0.24739663  0.75124327  1
  P  P13  1  0.95722468  0.74749270  0.53993926  1
  O  O14  1  0.24721992  0.91444173  0.13691170  1
  O  O15  1  0.13691170  0.91444173  0.53031012  1
  O  O16  1  0.99901682  0.42227977  0.61824928  1
  O  O17  1  0.12245688  0.26669964  0.25951235  1
  O  O18  1  0.09922319  0.72220802  0.88981000  1
  O  O19  1  0.53031012  0.91444173  0.24721992  1
  O  O20  1  0.37710459  0.57833937  0.19487380  1
  O  O21  1  0.17695306  0.21026009  0.49200337  1
  O  O22  1  0.52000889  0.76768338  0.44907345  1
  O  O23  1  0.19487380  0.57833937  0.00636098  1
  O  O24  1  0.73317584  0.72220802  0.09922319  1
  O  O25  1  0.44907345  0.76768338  0.79860104  1
  O  O26  1  0.54130366  0.21026009  0.17695306  1
  O  O27  1  0.25951235  0.26669964  0.88473041  1
  O  O28  1  0.80501367  0.42227977  0.99901682  1
  O  O29  1  0.49200337  0.21026009  0.54130366  1
  O  O30  1  0.79860104  0.76768338  0.52000889  1
  O  O31  1  0.61824928  0.42227977  0.80501367  1
  O  O32  1  0.47194052  0.09612549  0.78664155  1
  O  O33  1  0.88473041  0.26669964  0.12245688  1
  O  O34  1  0.88981000  0.72220802  0.73317584  1
  O  O35  1  0.00636098  0.57833937  0.37710459  1
  O  O36  1  0.83754342  0.09612549  0.47194052  1
  O  O37  1  0.78664155  0.09612549  0.83754342  1
