# generated using pymatgen
data_RbNaO
_symmetry_space_group_name_H-M   'P 1'
_cell_length_a   4.12994118
_cell_length_b   4.12994118
_cell_length_c   6.65049675
_cell_angle_alpha   90.00000000
_cell_angle_beta   90.00000000
_cell_angle_gamma   90.00000000
_symmetry_Int_Tables_number   1
_chemical_formula_structural   RbNaO
_chemical_formula_sum   'Rb2 Na2 O2'
_cell_volume   113.43362687
_cell_formula_units_Z   2
loop_
 _symmetry_equiv_pos_site_id
 _symmetry_equiv_pos_as_xyz
  1  'x, y, z'
loop_
 _atom_site_type_symbol
 _atom_site_label
 _atom_site_symmetry_multiplicity
 _atom_site_fract_x
 _atom_site_fract_y
 _atom_site_fract_z
 _atom_site_occupancy
  O  O0  1  0.75000000  0.75000000  0.80535300  1
  O  O1  1  0.25000000  0.25000000  0.19464700  1
  Na  Na2  1  0.75000000  0.25000000  0.00000000  1
  Na  Na3  1  0.25000000  0.75000000  0.00000000  1
  Rb  Rb4  1  0.25000000  0.25000000  0.64254212  1
  Rb  Rb5  1  0.75000000  0.75000000  0.35745788  1
