# generated using pymatgen
data_Li4Ti4Fe5O18
_symmetry_space_group_name_H-M   'P 1'
_cell_length_a   9.26965260
_cell_length_b   25.11248212
_cell_length_c   2.94053238
_cell_angle_alpha   90.13912754
_cell_angle_beta   89.66537442
_cell_angle_gamma   89.70438021
_symmetry_Int_Tables_number   1
_chemical_formula_structural   Li4Ti4Fe5O18
_chemical_formula_sum   'Li8 Ti8 Fe10 O36'
_cell_volume   684.48599257
_cell_formula_units_Z   2
loop_
 _symmetry_equiv_pos_site_id
 _symmetry_equiv_pos_as_xyz
  1  'x, y, z'
loop_
 _atom_site_type_symbol
 _atom_site_label
 _atom_site_symmetry_multiplicity
 _atom_site_fract_x
 _atom_site_fract_y
 _atom_site_fract_z
 _atom_site_occupancy
  Li  Li0  1  0.20187525  0.98305191  0.99935273  1
  Li  Li1  1  0.19482381  0.18062727  0.99945775  1
  Li  Li2  1  0.31063799  0.68219167  0.99968643  1
  Li  Li3  1  0.30002922  0.49365198  0.99660999  1
  Li  Li4  1  0.69388586  0.51002149  0.00217877  1
  Li  Li5  1  0.69149888  0.31949621  0.00093301  1
  Li  Li6  1  0.80197700  0.82039500  0.00550136  1
  Li  Li7  1  0.79807102  0.01283989  0.99954067  1
  Ti  Ti8  1  0.99577284  0.09903128  0.00093495  1
  Ti  Ti9  1  0.16243000  0.80746662  0.50271635  1
  Ti  Ti10  1  0.33228306  0.31107647  0.50130326  1
  Ti  Ti11  1  0.50813640  0.59788849  0.00049161  1
  Ti  Ti12  1  0.49097405  0.40132368  0.00055026  1
  Ti  Ti13  1  0.66934174  0.68865027  0.49960598  1
  Ti  Ti14  1  0.83892592  0.19239490  0.50120238  1
  Ti  Ti15  1  0.00431911  0.90006585  0.00366027  1
  Fe  Fe16  1  0.00052567  0.50313963  0.00016002  1
  Fe  Fe17  1  0.98828983  0.31237405  0.00028212  1
  Fe  Fe18  1  0.15850121  0.58612287  0.50008085  1
  Fe  Fe19  1  0.34705762  0.08451096  0.49560910  1
  Fe  Fe20  1  0.50686209  0.80555373  0.99755553  1
  Fe  Fe21  1  0.50014095  0.99900179  0.98583735  1
  Fe  Fe22  1  0.49400843  0.19425909  0.00147688  1
  Fe  Fe23  1  0.65529419  0.91542335  0.50685892  1
  Fe  Fe24  1  0.84007106  0.41493533  0.50088613  1
  Fe  Fe25  1  0.01186131  0.68846388  0.99993298  1
  O  O26  1  0.97420778  0.41547353  0.00399590  1
  O  O27  1  0.01257802  0.58217584  0.00179857  1
  O  O28  1  0.06784915  0.94380077  0.51055360  1
  O  O29  1  0.03941256  0.15606117  0.49724526  1
  O  O30  1  0.14948450  0.66570507  0.49901287  1
  O  O31  1  0.10622656  0.75966334  0.00360559  1
  O  O32  1  0.14718617  0.50212639  0.49905204  1
  O  O33  1  0.12827566  0.29906022  0.49948224  1
  O  O34  1  0.18871610  0.85784062  0.00566852  1
  O  O35  1  0.19434051  0.08062615  0.99755757  1
  O  O36  1  0.31007050  0.57926666  0.99944450  1
  O  O37  1  0.30891519  0.36203790  0.00210975  1
  O  O38  1  0.36634342  0.79106102  0.50019052  1
  O  O39  1  0.36049445  0.00124457  0.49002204  1
  O  O40  1  0.38349683  0.26194370  -0.00012601  1
  O  O41  1  0.36651331  0.16476841  0.50128333  1
  O  O42  1  0.46621415  0.65430413  0.50176601  1
  O  O43  1  0.44009812  0.44529825  0.50175760  1
  O  O44  1  0.48961028  0.07469428  0.99310314  1
  O  O45  1  0.51276321  0.92417096  0.97135251  1
  O  O46  1  0.56951511  0.55402518  0.49824099  1
  O  O47  1  0.53531112  0.34502814  0.49750867  1
  O  O48  1  0.63151719  0.83671306  0.49685956  1
  O  O49  1  0.61734729  0.73914168  0.00057154  1
  O  O50  1  0.64080936  0.99656207  0.48863784  1
  O  O51  1  0.63266510  0.20884955  0.50084826  1
  O  O52  1  0.69321115  0.63936560  0.99810826  1
  O  O53  1  0.70043198  0.41771677  0.99623670  1
  O  O54  1  0.80391204  0.91879721  0.02669710  1
  O  O55  1  0.81115180  0.14343368  0.00056464  1
  O  O56  1  0.87257630  0.70198912  0.50093962  1
  O  O57  1  0.84698943  0.49181791  0.50167129  1
  O  O58  1  0.89196404  0.24236096  0.00014199  1
  O  O59  1  0.85191244  0.33760913  0.49987749  1
  O  O60  1  0.95991047  0.84454963  0.51244624  1
  O  O61  1  0.93038519  0.05676270  0.49937360  1
