# generated using pymatgen
data_Cu3Si
_symmetry_space_group_name_H-M   'P 1'
_cell_length_a   5.15985632
_cell_length_b   5.15993585
_cell_length_c   4.14149964
_cell_angle_alpha   89.99465600
_cell_angle_beta   90.00632096
_cell_angle_gamma   119.99547413
_symmetry_Int_Tables_number   1
_chemical_formula_structural   Cu3Si
_chemical_formula_sum   'Cu6 Si2'
_cell_volume   95.49705344
_cell_formula_units_Z   2
loop_
 _symmetry_equiv_pos_site_id
 _symmetry_equiv_pos_as_xyz
  1  'x, y, z'
loop_
 _atom_site_type_symbol
 _atom_site_label
 _atom_site_symmetry_multiplicity
 _atom_site_fract_x
 _atom_site_fract_y
 _atom_site_fract_z
 _atom_site_occupancy
  Cu  Cu0  1  0.16769888  0.33540620  0.25002290  1
  Cu  Cu1  1  0.66459627  0.83230212  0.25001975  1
  Cu  Cu2  1  0.16769826  0.83230148  0.24996522  1
  Cu  Cu3  1  0.83233896  0.66467085  0.74997264  1
  Cu  Cu4  1  0.33533264  0.16766005  0.74997784  1
  Cu  Cu5  1  0.83233727  0.16766091  0.75003654  1
  Si  Si6  1  0.33334057  0.66665313  0.75000979  1
  Si  Si7  1  0.66665415  0.33334126  0.24999131  1
