# generated using pymatgen
data_Ti6O
_symmetry_space_group_name_H-M   'P 1'
_cell_length_a   5.11325227
_cell_length_b   5.11325227
_cell_length_c   9.49941777
_cell_angle_alpha   90.00000000
_cell_angle_beta   90.00000000
_cell_angle_gamma   119.99999996
_symmetry_Int_Tables_number   1
_chemical_formula_structural   Ti6O
_chemical_formula_sum   'Ti12 O2'
_cell_volume   215.09091095
_cell_formula_units_Z   2
loop_
 _symmetry_equiv_pos_site_id
 _symmetry_equiv_pos_as_xyz
  1  'x, y, z'
loop_
 _atom_site_type_symbol
 _atom_site_label
 _atom_site_symmetry_multiplicity
 _atom_site_fract_x
 _atom_site_fract_y
 _atom_site_fract_z
 _atom_site_occupancy
  O  O0  1  0.00000000  0.00000000  0.50000000  1
  O  O1  1  0.00000000  0.00000000  0.00000000  1
  Ti  Ti2  1  0.66840515  0.66840515  0.13042099  1
  Ti  Ti3  1  0.00000000  0.66840515  0.36957901  1
  Ti  Ti4  1  0.66840515  0.00000000  0.36957901  1
  Ti  Ti5  1  0.33159485  0.33159485  0.36957901  1
  Ti  Ti6  1  0.66840515  0.00000000  0.86957901  1
  Ti  Ti7  1  0.00000000  0.66840515  0.86957901  1
  Ti  Ti8  1  0.33159485  0.33159485  0.86957901  1
  Ti  Ti9  1  0.00000000  0.33159485  0.63042099  1
  Ti  Ti10  1  0.33159485  0.00000000  0.63042099  1
  Ti  Ti11  1  0.66840515  0.66840515  0.63042099  1
  Ti  Ti12  1  0.00000000  0.33159485  0.13042099  1
  Ti  Ti13  1  0.33159485  0.00000000  0.13042099  1
