# generated using pymatgen
data_YbCeZn2
_symmetry_space_group_name_H-M   'P 1'
_cell_length_a   5.13376907
_cell_length_b   5.13374365
_cell_length_c   5.13374340
_cell_angle_alpha   60.00012202
_cell_angle_beta   60.00014662
_cell_angle_gamma   60.00014179
_symmetry_Int_Tables_number   1
_chemical_formula_structural   YbCeZn2
_chemical_formula_sum   'Yb1 Ce1 Zn2'
_cell_volume   95.67335736
_cell_formula_units_Z   1
loop_
 _symmetry_equiv_pos_site_id
 _symmetry_equiv_pos_as_xyz
  1  'x, y, z'
loop_
 _atom_site_type_symbol
 _atom_site_label
 _atom_site_symmetry_multiplicity
 _atom_site_fract_x
 _atom_site_fract_y
 _atom_site_fract_z
 _atom_site_occupancy
  Yb  Yb0  1  0.74999990  0.74999992  0.75000011  1
  Ce  Ce1  1  0.24999941  0.25000039  0.24999985  1
  Zn  Zn2  1  0.00000031  -0.00000011  0.99999987  1
  Zn  Zn3  1  0.49999938  0.49999880  0.49999916  1
