# generated using pymatgen
data_K3BAs2
_symmetry_space_group_name_H-M   'P 1'
_cell_length_a   6.71906159
_cell_length_b   6.71906159
_cell_length_c   9.15415863
_cell_angle_alpha   74.93929819
_cell_angle_beta   74.93929815
_cell_angle_gamma   86.14102909
_symmetry_Int_Tables_number   1
_chemical_formula_structural   K3BAs2
_chemical_formula_sum   'K6 B2 As4'
_cell_volume   385.36842340
_cell_formula_units_Z   2
loop_
 _symmetry_equiv_pos_site_id
 _symmetry_equiv_pos_as_xyz
  1  'x, y, z'
loop_
 _atom_site_type_symbol
 _atom_site_label
 _atom_site_symmetry_multiplicity
 _atom_site_fract_x
 _atom_site_fract_y
 _atom_site_fract_z
 _atom_site_occupancy
  B  B0  1  0.28410405  0.71589595  0.25000000  1
  B  B1  1  0.71589595  0.28410405  0.75000000  1
  K  K2  1  0.74869692  0.85512858  0.97982668  1
  K  K3  1  0.85512858  0.74869692  0.47982668  1
  K  K4  1  0.35661527  0.64338473  0.75000000  1
  K  K5  1  0.64338473  0.35661527  0.25000000  1
  K  K6  1  0.14487142  0.25130308  0.52017332  1
  K  K7  1  0.25130308  0.14487142  0.02017332  1
  As  As8  1  0.41438745  0.85722494  0.35349046  1
  As  As9  1  0.14277506  0.58561255  0.14650954  1
  As  As10  1  0.85722494  0.41438745  0.85349046  1
  As  As11  1  0.58561255  0.14277506  0.64650954  1
