# generated using pymatgen
data_Li4Mn5CuO12
_symmetry_space_group_name_H-M   'P 1'
_cell_length_a   5.09163574
_cell_length_b   5.15589947
_cell_length_c   10.30300163
_cell_angle_alpha   90.79742001
_cell_angle_beta   91.61514405
_cell_angle_gamma   60.41146837
_symmetry_Int_Tables_number   1
_chemical_formula_structural   Li4Mn5CuO12
_chemical_formula_sum   'Li4 Mn5 Cu1 O12'
_cell_volume   235.10906814
_cell_formula_units_Z   1
loop_
 _symmetry_equiv_pos_site_id
 _symmetry_equiv_pos_as_xyz
  1  'x, y, z'
loop_
 _atom_site_type_symbol
 _atom_site_label
 _atom_site_symmetry_multiplicity
 _atom_site_fract_x
 _atom_site_fract_y
 _atom_site_fract_z
 _atom_site_occupancy
  Li  Li0  1  0.15923034  0.50444016  0.75025229  1
  Li  Li1  1  0.33632950  0.50444016  0.24974771  1
  Li  Li2  1  0.66367050  0.49555984  0.75025229  1
  Li  Li3  1  0.84076966  0.49555984  0.24974771  1
  Mn  Mn4  1  0.16400594  0.67198813  0.50000000  1
  Mn  Mn5  1  0.66439977  0.67120146  1.00000000  1
  Mn  Mn6  1  0.33560023  0.32879854  0.00000000  1
  Mn  Mn7  1  0.83599406  0.32801187  0.50000000  1
  Mn  Mn8  1  0.50000000  0.00000000  0.50000000  1
  Cu  Cu9  1  0.00000000  0.00000000  0.00000000  1
  O  O10  1  0.00647028  0.62701964  0.10663554  1
  O  O11  1  0.36651009  0.62701964  0.89336446  1
  O  O12  1  0.15489374  0.36263363  0.39307449  1
  O  O13  1  0.51752738  0.63736637  0.39307449  1
  O  O14  1  0.48247262  0.36263363  0.60692551  1
  O  O15  1  0.17568945  0.00000000  0.59330507  1
  O  O16  1  0.84510626  0.63736637  0.60692551  1
  O  O17  1  0.63348991  0.37298036  0.10663554  1
  O  O18  1  0.33965244  0.00000000  0.09244660  1
  O  O19  1  0.99352972  0.37298036  0.89336446  1
  O  O20  1  0.66034756  1.00000000  0.90755340  1
  O  O21  1  0.82431055  1.00000000  0.40669493  1
