# generated using pymatgen
data_Ba3Er2Cu2PtO10
_symmetry_space_group_name_H-M   'P 1'
_cell_length_a   5.85798213
_cell_length_b   6.92003695
_cell_length_c   7.49914094
_cell_angle_alpha   104.24652803
_cell_angle_beta   90.00000000
_cell_angle_gamma   115.04072503
_symmetry_Int_Tables_number   1
_chemical_formula_structural   Ba3Er2Cu2PtO10
_chemical_formula_sum   'Ba3 Er2 Cu2 Pt1 O10'
_cell_volume   265.06757066
_cell_formula_units_Z   1
loop_
 _symmetry_equiv_pos_site_id
 _symmetry_equiv_pos_as_xyz
  1  'x, y, z'
loop_
 _atom_site_type_symbol
 _atom_site_label
 _atom_site_symmetry_multiplicity
 _atom_site_fract_x
 _atom_site_fract_y
 _atom_site_fract_z
 _atom_site_occupancy
  O  O0  1  0.66842515  0.33685029  0.55552674  1
  O  O1  1  0.33157485  0.66314971  0.44447326  1
  O  O2  1  0.54430861  0.63198198  0.87706859  1
  O  O3  1  0.91232662  0.36801802  0.12293141  1
  O  O4  1  0.45569139  0.36801802  0.12293141  1
  O  O5  1  0.08767338  0.63198198  0.87706859  1
  O  O6  1  0.70156943  0.96392768  0.28037618  1
  O  O7  1  0.73764174  0.03607232  0.71962382  1
  O  O8  1  0.26235826  0.96392768  0.28037618  1
  O  O9  1  0.29843057  0.03607232  0.71962382  1
  Cu  Cu10  1  0.58890133  0.17780265  0.19728124  1
  Cu  Cu11  1  0.41109867  0.82219735  0.80271876  1
  Ba  Ba12  1  0.00000000  0.00000000  0.00000000  1
  Ba  Ba13  1  0.84596279  0.69192559  0.45493665  1
  Ba  Ba14  1  0.15403721  0.30807441  0.54506335  1
  Er  Er15  1  0.68923856  0.37847713  0.87440875  1
  Er  Er16  1  0.31076144  0.62152287  0.12559125  1
  Pt  Pt17  1  0.50000000  0.00000000  0.50000000  1
