# generated using pymatgen
data_Li4Mn3V3(CuO8)2
_symmetry_space_group_name_H-M   'P 1'
_cell_length_a   5.86660154
_cell_length_b   5.81012503
_cell_length_c   9.71209045
_cell_angle_alpha   90.12668889
_cell_angle_beta   93.45145767
_cell_angle_gamma   119.51739941
_symmetry_Int_Tables_number   1
_chemical_formula_structural   Li4Mn3V3(CuO8)2
_chemical_formula_sum   'Li4 Mn3 V3 Cu2 O16'
_cell_volume   287.35973240
_cell_formula_units_Z   1
loop_
 _symmetry_equiv_pos_site_id
 _symmetry_equiv_pos_as_xyz
  1  'x, y, z'
loop_
 _atom_site_type_symbol
 _atom_site_label
 _atom_site_symmetry_multiplicity
 _atom_site_fract_x
 _atom_site_fract_y
 _atom_site_fract_z
 _atom_site_occupancy
  Li  Li0  1  0.35173876  0.67573346  0.89110460  1
  Li  Li1  1  0.95880154  0.97922749  0.99554139  1
  Li  Li2  1  0.97249233  0.98515285  0.49706494  1
  Li  Li3  1  0.68539490  0.34302207  0.39325656  1
  Mn  Mn4  1  0.66009498  0.83045989  0.21522888  1
  Mn  Mn5  1  0.83351304  0.66125426  0.71489436  1
  Mn  Mn6  1  0.83274353  0.17076016  0.71524276  1
  V  V7  1  0.17091977  0.83560721  0.21427740  1
  V  V8  1  0.17041028  0.33547155  0.21402658  1
  V  V9  1  0.33232075  0.16633425  0.71218177  1
  Cu  Cu10  1  0.33565831  0.66851128  0.49291271  1
  Cu  Cu11  1  0.67283911  0.33701533  0.98884655  1
  O  O12  1  0.14934343  0.83655203  0.60889410  1
  O  O13  1  0.05606467  0.52855062  0.33415200  1
  O  O14  1  0.32965845  0.66469722  0.10646838  1
  O  O15  1  0.00145002  0.00145193  0.31466859  1
  O  O16  1  0.00595634  0.00231648  0.81391586  1
  O  O17  1  0.15061577  0.30976525  0.60996871  1
  O  O18  1  0.49741494  0.97565878  0.32614691  1
  O  O19  1  0.49727325  0.52399624  0.32737871  1
  O  O20  1  0.28719683  0.14380322  0.10814670  1
  O  O21  1  0.67206328  0.83618843  0.60580742  1
  O  O22  1  0.53782697  0.49162407  0.83306679  1
  O  O23  1  0.53533928  0.04645742  0.83245746  1
  O  O24  1  0.66000889  0.32993535  0.60718498  1
  O  O25  1  0.82763755  0.66976834  0.10689708  1
  O  O26  1  0.98805087  0.49311326  0.82135886  1
  O  O27  1  0.82717220  0.15786757  0.10674797  1
