# generated using pymatgen
data_ReH6CN3O4
_symmetry_space_group_name_H-M   'P 1'
_cell_length_a   5.05466211
_cell_length_b   7.86407524
_cell_length_c   8.60249107
_cell_angle_alpha   74.81281348
_cell_angle_beta   88.75122104
_cell_angle_gamma   81.26969571
_symmetry_Int_Tables_number   1
_chemical_formula_structural   ReH6CN3O4
_chemical_formula_sum   'Re2 H12 C2 N6 O8'
_cell_volume   326.12705961
_cell_formula_units_Z   2
loop_
 _symmetry_equiv_pos_site_id
 _symmetry_equiv_pos_as_xyz
  1  'x, y, z'
loop_
 _atom_site_type_symbol
 _atom_site_label
 _atom_site_symmetry_multiplicity
 _atom_site_fract_x
 _atom_site_fract_y
 _atom_site_fract_z
 _atom_site_occupancy
  Re  Re0  1  0.99721703  0.74544431  0.31493063  1
  Re  Re1  1  0.00278492  0.25455848  0.68506388  1
  H  H2  1  0.79859788  0.39852369  0.03546684  1
  H  H3  1  0.50406030  0.75401673  0.05840444  1
  H  H4  1  0.31219110  0.10932812  0.08219571  1
  H  H5  1  0.81561979  0.39160478  0.23975820  1
  H  H6  1  0.31834002  0.10765454  0.34834910  1
  H  H7  1  0.51851533  0.23313259  0.42068331  1
  H  H8  1  0.48148636  0.76686704  0.57931602  1
  H  H9  1  0.68165897  0.89234531  0.65165036  1
  H  H10  1  0.18438148  0.60839474  0.76024247  1
  H  H11  1  0.68780889  0.89067121  0.91780494  1
  H  H12  1  0.49594029  0.24598205  0.94159603  1
  H  H13  1  0.20140380  0.60147506  0.96453330  1
  C  C14  1  0.54730183  0.24788645  0.17876124  1
  C  C15  1  0.45269837  0.75211458  0.82123921  1
  N  N16  1  0.44960566  0.19459770  0.05809936  1
  N  N17  1  0.72064777  0.36503063  0.14767130  1
  N  N18  1  0.46829753  0.18290936  0.32969316  1
  N  N19  1  0.53170187  0.81709108  0.67030600  1
  N  N20  1  0.27935254  0.63496849  0.85232900  1
  N  N21  1  0.55039630  0.80540169  0.94190042  1
  O  O22  1  0.13834477  0.60687576  0.19409398  1
  O  O23  1  0.06429521  0.96337657  0.23420704  1
  O  O24  1  0.64852514  0.75567527  0.31482498  1
  O  O25  1  0.87546280  0.33612987  0.48679320  1
  O  O26  1  0.12453452  0.66387113  0.51320653  1
  O  O27  1  0.35147310  0.24432445  0.68517575  1
  O  O28  1  0.93570310  0.03662231  0.76579542  1
  O  O29  1  0.86165432  0.39312401  0.80590616  1
