# generated using pymatgen
data_Pm3Y
_symmetry_space_group_name_H-M   'P 1'
_cell_length_a   5.14009031
_cell_length_b   5.14007242
_cell_length_c   5.14010166
_cell_angle_alpha   90.00000479
_cell_angle_beta   89.99988719
_cell_angle_gamma   89.99976012
_symmetry_Int_Tables_number   1
_chemical_formula_structural   Pm3Y
_chemical_formula_sum   'Pm3 Y1'
_cell_volume   135.80372920
_cell_formula_units_Z   1
loop_
 _symmetry_equiv_pos_site_id
 _symmetry_equiv_pos_as_xyz
  1  'x, y, z'
loop_
 _atom_site_type_symbol
 _atom_site_label
 _atom_site_symmetry_multiplicity
 _atom_site_fract_x
 _atom_site_fract_y
 _atom_site_fract_z
 _atom_site_occupancy
  Pm  Pm0  1  -0.00000031  0.49999989  0.49999864  1
  Pm  Pm1  1  0.49999883  0.99999982  0.49999921  1
  Pm  Pm2  1  0.49999905  0.49999826  -0.00000004  1
  Y  Y3  1  0.00000043  0.00000003  0.00000019  1
