# generated using pymatgen
data_Li4Nb3V2Ni3O16
_symmetry_space_group_name_H-M   'P 1'
_cell_length_a   6.06381198
_cell_length_b   6.09766682
_cell_length_c   9.74245220
_cell_angle_alpha   90.34629908
_cell_angle_beta   89.90427335
_cell_angle_gamma   120.39413732
_symmetry_Int_Tables_number   1
_chemical_formula_structural   Li4Nb3V2Ni3O16
_chemical_formula_sum   'Li4 Nb3 V2 Ni3 O16'
_cell_volume   310.71431466
_cell_formula_units_Z   1
loop_
 _symmetry_equiv_pos_site_id
 _symmetry_equiv_pos_as_xyz
  1  'x, y, z'
loop_
 _atom_site_type_symbol
 _atom_site_label
 _atom_site_symmetry_multiplicity
 _atom_site_fract_x
 _atom_site_fract_y
 _atom_site_fract_z
 _atom_site_occupancy
  Li  Li0  1  0.32625518  0.66395511  0.88410030  1
  Li  Li1  1  0.96068203  0.97808461  0.98225727  1
  Li  Li2  1  0.99787182  0.99731188  0.50642469  1
  Li  Li3  1  0.65957114  0.33112781  0.40351752  1
  Nb  Nb4  1  0.17684642  0.83773321  0.21237312  1
  Nb  Nb5  1  0.16856150  0.33757070  0.21555134  1
  Nb  Nb6  1  0.35189316  0.18076321  0.72153102  1
  V  V7  1  0.35744402  0.67926720  0.50300171  1
  V  V8  1  0.69255051  0.34587397  0.97681068  1
  Ni  Ni9  1  0.66166356  0.82900512  0.21612886  1
  Ni  Ni10  1  0.83980201  0.65531447  0.71163634  1
  Ni  Ni11  1  0.83777853  0.18270941  0.71172667  1
  O  O12  1  0.18138380  0.83595527  0.59420359  1
  O  O13  1  0.03265623  0.51604781  0.33452664  1
  O  O14  1  0.32093499  0.65902248  0.10039600  1
  O  O15  1  0.00835825  0.00273490  0.31774491  1
  O  O16  1  0.00042800  0.00159217  0.79769160  1
  O  O17  1  0.18195675  0.34506823  0.59454726  1
  O  O18  1  0.46417240  0.95493622  0.34312722  1
  O  O19  1  0.46544512  0.51040094  0.34338151  1
  O  O20  1  0.33233192  0.16510053  0.10527505  1
  O  O21  1  0.65268948  0.82698391  0.58559849  1
  O  O22  1  0.50680512  0.47611600  0.84466307  1
  O  O23  1  0.50282039  0.03664365  0.84893664  1
  O  O24  1  0.65075152  0.32291360  0.59902225  1
  O  O25  1  0.85126638  0.67275914  0.10349237  1
  O  O26  1  0.96269803  0.48300048  0.84728224  1
  O  O27  1  0.85438272  0.17230696  0.10289165  1
