# generated using pymatgen
data_Li2La3Ti2Nb2O13
_symmetry_space_group_name_H-M   'P 1'
_cell_length_a   4.00568050
_cell_length_b   17.08054340
_cell_length_c   4.00574245
_cell_angle_alpha   83.25844041
_cell_angle_beta   89.95681282
_cell_angle_gamma   96.74119132
_symmetry_Int_Tables_number   1
_chemical_formula_structural   Li2La3Ti2Nb2O13
_chemical_formula_sum   'Li2 La3 Ti2 Nb2 O13'
_cell_volume   270.26368192
_cell_formula_units_Z   1
loop_
 _symmetry_equiv_pos_site_id
 _symmetry_equiv_pos_as_xyz
  1  'x, y, z'
loop_
 _atom_site_type_symbol
 _atom_site_label
 _atom_site_symmetry_multiplicity
 _atom_site_fract_x
 _atom_site_fract_y
 _atom_site_fract_z
 _atom_site_occupancy
  Li  Li0  1  0.24993531  0.49995577  0.24993839  1
  Li  Li1  1  0.75003974  0.49995323  0.75004310  1
  La  La2  1  0.49924898  0.00001926  0.50112919  1
  La  La3  1  0.61954369  0.23871478  0.38043116  1
  La  La4  1  0.38054571  0.76136352  0.61943842  1
  Ti  Ti5  1  0.05831210  0.11651046  0.94172109  1
  Ti  Ti6  1  0.94169337  0.88350842  0.05830033  1
  Nb  Nb7  1  0.18014417  0.35955084  0.81981537  1
  Nb  Nb8  1  0.81990520  0.64045548  0.18009101  1
  O  O9  1  0.00025187  0.00001637  0.99963207  1
  O  O10  1  0.05820219  0.11611530  0.44184240  1
  O  O11  1  0.55817395  0.11611275  0.94180096  1
  O  O12  1  0.11692165  0.23343348  0.88308750  1
  O  O13  1  0.17109541  0.34140339  0.32903658  1
  O  O14  1  0.67095190  0.34140187  0.82890739  1
  O  O15  1  0.23614122  0.47250010  0.76384838  1
  O  O16  1  0.76387946  0.52750539  0.23610213  1
  O  O17  1  0.32906550  0.65855369  0.17103162  1
  O  O18  1  0.82896128  0.65855545  0.67091136  1
  O  O19  1  0.88302463  0.76655052  0.11694778  1
  O  O20  1  0.44190168  0.88390968  0.05788011  1
  O  O21  1  0.94206300  0.88391126  0.55806467  1
