# generated using pymatgen
data_Li2V2(PO4)3
_symmetry_space_group_name_H-M   'P 1'
_cell_length_a   8.65231492
_cell_length_b   12.18821316
_cell_length_c   8.72342746
_cell_angle_alpha   90.10199922
_cell_angle_beta   90.58628099
_cell_angle_gamma   90.02658638
_symmetry_Int_Tables_number   1
_chemical_formula_structural   Li2V2(PO4)3
_chemical_formula_sum   'Li8 V8 P12 O48'
_cell_volume   919.89029621
_cell_formula_units_Z   4
loop_
 _symmetry_equiv_pos_site_id
 _symmetry_equiv_pos_as_xyz
  1  'x, y, z'
loop_
 _atom_site_type_symbol
 _atom_site_label
 _atom_site_symmetry_multiplicity
 _atom_site_fract_x
 _atom_site_fract_y
 _atom_site_fract_z
 _atom_site_occupancy
  Li  Li0  1  0.22490904  0.18087583  0.77339472  1
  Li  Li1  1  0.28569483  0.68218446  0.22577300  1
  Li  Li2  1  0.28820534  0.31670704  0.27133385  1
  Li  Li3  1  0.69377545  0.68768232  0.73420320  1
  Li  Li4  1  0.78198867  0.17945712  0.27661001  1
  Li  Li5  1  0.78234020  0.81885075  0.22558560  1
  Li  Li6  1  0.92002133  0.29796881  0.91081135  1
  Li  Li7  1  0.96220688  0.72044090  0.58668631  1
  V  V8  1  0.25447960  0.38625497  0.95957339  1
  V  V9  1  0.25804560  0.61743949  0.54149412  1
  V  V10  1  0.25284431  0.11159955  0.45916419  1
  V  V11  1  0.25086098  0.88437582  0.02951658  1
  V  V12  1  0.74221908  0.11455775  0.95812844  1
  V  V13  1  0.74411990  0.88946251  0.53830220  1
  V  V14  1  0.74880548  0.38297130  0.46796747  1
  V  V15  1  0.75421344  0.61261464  0.04268366  1
  P  P16  1  0.03876942  0.49741359  0.25206427  1
  P  P17  1  0.10491568  0.14376982  0.10269437  1
  P  P18  1  0.10729242  0.85436541  0.39144287  1
  P  P19  1  0.39471919  0.35260742  0.60052320  1
  P  P20  1  0.39594052  0.64737173  0.89750593  1
  P  P21  1  0.45847312  0.99786788  0.74925987  1
  P  P22  1  0.53462090  0.99896341  0.24906368  1
  P  P23  1  0.61170675  0.35379245  0.10672496  1
  P  P24  1  0.61180493  0.64358276  0.39564339  1
  P  P25  1  0.89424861  0.85218882  0.89945877  1
  P  P26  1  0.89907885  0.14792677  0.60580600  1
  P  P27  1  0.95605184  0.50294135  0.74854132  1
  O  O28  1  0.05208188  0.58100463  0.64942192  1
  O  O29  1  0.04911752  0.42765021  0.85699382  1
  O  O30  1  0.07940691  0.15576289  0.59062497  1
  O  O31  1  0.07290841  0.84371827  0.91730648  1
  O  O32  1  0.15725211  0.02841224  0.06004234  1
  O  O33  1  0.15729309  0.97211177  0.43289472  1
  O  O34  1  0.16625500  0.17685170  0.26486616  1
  O  O35  1  0.16340953  0.82344247  0.22866549  1
  O  O36  1  0.14145079  0.41740028  0.16059723  1
  O  O37  1  0.14527300  0.57850410  0.33857993  1
  O  O38  1  0.16329043  0.22639833  0.97933717  1
  O  O39  1  0.16854434  0.77174647  0.51143022  1
  O  O40  1  0.32414546  0.26943926  0.48200817  1
  O  O41  1  0.32477198  0.72952105  0.01452889  1
  O  O42  1  0.34911959  0.07545471  0.65562099  1
  O  O43  1  0.35452182  0.92293411  0.84693948  1
  O  O44  1  0.36153323  0.67580708  0.73027928  1
  O  O45  1  0.34589726  0.31923780  0.76399275  1
  O  O46  1  0.34217667  0.46815182  0.56025574  1
  O  O47  1  0.34379882  0.53275209  0.94349583  1
  O  O48  1  0.43584155  0.66068745  0.39440940  1
  O  O49  1  0.43457544  0.34053267  0.10011169  1
  O  O50  1  0.43543786  0.06955948  0.35878902  1
  O  O51  1  0.42919637  0.92863953  0.14371229  1
  O  O52  1  0.55404739  0.92348120  0.64722970  1
  O  O53  1  0.55287613  0.07589123  0.85148080  1
  O  O54  1  0.57336999  0.34453284  0.58454508  1
  O  O55  1  0.57609814  0.65635754  0.91819318  1
  O  O56  1  0.66047477  0.47266028  0.07040579  1
  O  O57  1  0.65725241  0.52587609  0.43389127  1
  O  O58  1  0.66497926  0.32160948  0.27175436  1
  O  O59  1  0.67101179  0.67659816  0.23301890  1
  O  O60  1  0.63879422  0.07922708  0.16376059  1
  O  O61  1  0.63776495  0.91679709  0.33725103  1
  O  O62  1  0.69492789  0.27792968  0.99117204  1
  O  O63  1  0.69388697  0.71967514  0.51608949  1
  O  O64  1  0.82723095  0.22873548  0.48684081  1
  O  O65  1  0.82403619  0.77065807  0.01713859  1
  O  O66  1  0.85669376  0.42323940  0.65240067  1
  O  O67  1  0.84434960  0.57951989  0.83932314  1
  O  O68  1  0.86102837  0.17975337  0.77190311  1
  O  O69  1  0.85086295  0.81493531  0.73352416  1
  O  O70  1  0.84442329  0.03280003  0.56280120  1
  O  O71  1  0.83895305  0.96724753  0.93357007  1
  O  O72  1  0.92822913  0.84365956  0.39666058  1
  O  O73  1  0.92647490  0.15500872  0.10454065  1
  O  O74  1  0.93373982  0.42925880  0.35588409  1
  O  O75  1  0.93796165  0.56982290  0.14175704  1
