# generated using pymatgen
data_Mg(NiO2)2
_symmetry_space_group_name_H-M   'P 1'
_cell_length_a   5.91560815
_cell_length_b   5.94918119
_cell_length_c   5.94752549
_cell_angle_alpha   89.50846328
_cell_angle_beta   120.47137859
_cell_angle_gamma   120.44374060
_symmetry_Int_Tables_number   1
_chemical_formula_structural   Mg(NiO2)2
_chemical_formula_sum   'Mg2 Ni4 O8'
_cell_volume   146.58372112
_cell_formula_units_Z   2
loop_
 _symmetry_equiv_pos_site_id
 _symmetry_equiv_pos_as_xyz
  1  'x, y, z'
loop_
 _atom_site_type_symbol
 _atom_site_label
 _atom_site_symmetry_multiplicity
 _atom_site_fract_x
 _atom_site_fract_y
 _atom_site_fract_z
 _atom_site_occupancy
  Mg  Mg0  1  0.24986335  0.12487806  0.87576540  1
  Mg  Mg1  1  0.75013775  0.87512456  0.12423510  1
  Ni  Ni2  1  0.49999978  0.99999937  0.50000042  1
  Ni  Ni3  1  0.49999981  0.49999958  0.49999955  1
  Ni  Ni4  1  0.00000020  0.49999955  0.99999953  1
  Ni  Ni5  1  0.99999955  0.49999939  0.49999889  1
  O  O6  1  0.03196957  0.74443143  0.25882903  1
  O  O7  1  0.48094304  0.74874058  0.71303296  1
  O  O8  1  0.46765812  0.72235545  0.25433529  1
  O  O9  1  0.98069056  0.71440163  0.72802959  1
  O  O10  1  0.53234295  0.27764432  0.74566584  1
  O  O11  1  0.51905485  0.25125752  0.28696657  1
  O  O12  1  0.01931097  0.28560080  0.27197074  1
  O  O13  1  0.96803051  0.25556877  0.74117110  1
