# generated using pymatgen
data_Te3As2
_symmetry_space_group_name_H-M   'P 1'
_cell_length_a   10.37431563
_cell_length_b   10.37431563
_cell_length_c   10.37431564
_cell_angle_alpha   22.73438171
_cell_angle_beta   22.73438173
_cell_angle_gamma   22.73438170
_symmetry_Int_Tables_number   1
_chemical_formula_structural   Te3As2
_chemical_formula_sum   'Te3 As2'
_cell_volume   146.31048899
_cell_formula_units_Z   1
loop_
 _symmetry_equiv_pos_site_id
 _symmetry_equiv_pos_as_xyz
  1  'x, y, z'
loop_
 _atom_site_type_symbol
 _atom_site_label
 _atom_site_symmetry_multiplicity
 _atom_site_fract_x
 _atom_site_fract_y
 _atom_site_fract_z
 _atom_site_occupancy
  As  As0  1  0.60489191  0.60489191  0.60489191  1
  As  As1  1  0.39384124  0.39384124  0.39384124  1
  Te  Te2  1  0.21856155  0.21856155  0.21856155  1
  Te  Te3  1  0.78017310  0.78017310  0.78017310  1
  Te  Te4  1  0.99936553  0.99936553  0.99936553  1
