# generated using pymatgen
data_KCrCl3
_symmetry_space_group_name_H-M   'P 1'
_cell_length_a   4.97061632
_cell_length_b   4.97752223
_cell_length_c   4.97831683
_cell_angle_alpha   89.87045904
_cell_angle_beta   89.71352097
_cell_angle_gamma   89.98703330
_symmetry_Int_Tables_number   1
_chemical_formula_structural   KCrCl3
_chemical_formula_sum   'K1 Cr1 Cl3'
_cell_volume   123.16843800
_cell_formula_units_Z   1
loop_
 _symmetry_equiv_pos_site_id
 _symmetry_equiv_pos_as_xyz
  1  'x, y, z'
loop_
 _atom_site_type_symbol
 _atom_site_label
 _atom_site_symmetry_multiplicity
 _atom_site_fract_x
 _atom_site_fract_y
 _atom_site_fract_z
 _atom_site_occupancy
  K  K0  1  0.99675834  0.99901741  0.99897270  1
  Cr  Cr1  1  0.48506982  0.50038390  0.49654213  1
  Cl  Cl2  1  0.48536451  0.00002544  0.49503086  1
  Cl  Cl3  1  0.98504235  0.50254611  0.50249022  1
  Cl  Cl4  1  0.48776599  0.49802713  0.99696409  1
