# generated using pymatgen
data_LiV2P2O9
_symmetry_space_group_name_H-M   'P 1'
_cell_length_a   6.38197449
_cell_length_b   7.71325156
_cell_length_c   13.93807280
_cell_angle_alpha   90.00000000
_cell_angle_beta   90.00000000
_cell_angle_gamma   90.00000000
_symmetry_Int_Tables_number   1
_chemical_formula_structural   LiV2P2O9
_chemical_formula_sum   'Li4 V8 P8 O36'
_cell_volume   686.11243128
_cell_formula_units_Z   4
loop_
 _symmetry_equiv_pos_site_id
 _symmetry_equiv_pos_as_xyz
  1  'x, y, z'
loop_
 _atom_site_type_symbol
 _atom_site_label
 _atom_site_symmetry_multiplicity
 _atom_site_fract_x
 _atom_site_fract_y
 _atom_site_fract_z
 _atom_site_occupancy
  Li  Li0  1  0.75000000  0.95310774  0.76648006  1
  Li  Li1  1  0.75000000  0.54689226  0.26648006  1
  Li  Li2  1  0.25000100  0.45310674  0.73351994  1
  Li  Li3  1  0.25000100  0.04689226  0.23351994  1
  V  V4  1  0.75000000  0.35036583  0.88112097  1
  V  V5  1  0.25000100  0.64963417  0.11887903  1
  V  V6  1  0.25000100  0.85036583  0.61887903  1
  V  V7  1  0.75000000  0.14963417  0.38112097  1
  V  V8  1  0.50000000  0.00000000  -0.00000000  1
  V  V9  1  0.50000000  0.50000000  0.50000000  1
  V  V10  1  -0.00000000  0.50000000  0.50000000  1
  V  V11  1  -0.00000000  0.00000000  -0.00000000  1
  P  P12  1  0.25000100  0.35184089  0.93554895  1
  P  P13  1  0.75000000  0.64815911  0.06445205  1
  P  P14  1  0.75000000  0.85184089  0.56445105  1
  P  P15  1  0.25000100  0.14816011  0.43554895  1
  P  P16  1  0.75000000  0.38395813  0.69235649  1
  P  P17  1  0.75000000  0.11604187  0.19235649  1
  P  P18  1  0.25000100  0.88395813  0.80764351  1
  P  P19  1  0.25000100  0.61604087  0.30764351  1
  O  O20  1  0.04732362  0.59651627  0.36856794  1
  O  O21  1  0.54732262  0.40348273  0.63143206  1
  O  O22  1  0.95267638  0.09651627  0.13143206  1
  O  O23  1  0.45267638  0.90348373  0.86856794  1
  O  O24  1  0.95267638  0.40348273  0.63143206  1
  O  O25  1  0.45267638  0.59651627  0.36856794  1
  O  O26  1  0.04732362  0.90348373  0.86856794  1
  O  O27  1  0.54732262  0.09651627  0.13143206  1
  O  O28  1  0.25000100  0.33411901  0.48201891  1
  O  O29  1  0.75000000  0.66588199  0.51798109  1
  O  O30  1  0.75000000  0.83411801  0.01798009  1
  O  O31  1  0.25000100  0.16588199  0.98201891  1
  O  O32  1  0.75000000  0.14699457  0.94687287  1
  O  O33  1  0.25000100  0.85300543  0.05312613  1
  O  O34  1  0.25000100  0.64699457  0.55312613  1
  O  O35  1  0.75000000  0.35300643  0.44687387  1
  O  O36  1  0.75000000  0.21229968  0.75118770  1
  O  O37  1  0.25000100  0.78770032  0.24881330  1
  O  O38  1  0.25000100  0.71229968  0.74881230  1
  O  O39  1  0.75000000  0.28770132  0.25118670  1
  O  O40  1  0.44033790  0.13364159  0.36852548  1
  O  O41  1  0.94033790  0.86635841  0.63147452  1
  O  O42  1  0.55966210  0.63364059  0.13147452  1
  O  O43  1  0.05966210  0.36635841  0.86852548  1
  O  O44  1  0.55966210  0.86635841  0.63147452  1
  O  O45  1  0.05966210  0.13364159  0.36852548  1
  O  O46  1  0.44033790  0.36635841  0.86852548  1
  O  O47  1  0.94033790  0.63364059  0.13147452  1
  O  O48  1  0.75000000  0.51510428  0.98396177  1
  O  O49  1  0.25000100  0.02103307  0.72524259  1
  O  O50  1  0.25000100  0.47896593  0.22524259  1
  O  O51  1  0.75000000  0.52103307  0.77475741  1
  O  O52  1  0.75000000  0.98489572  0.48396177  1
  O  O53  1  0.25000100  0.01510428  0.51603823  1
  O  O54  1  0.25000100  0.48489472  0.01603723  1
  O  O55  1  0.75000000  0.97896693  0.27475741  1
