# generated using pymatgen
data_Ba2ZnFe2F14
_symmetry_space_group_name_H-M   'P 1'
_cell_length_a   5.73742988
_cell_length_b   9.54175761
_cell_length_c   10.12251728
_cell_angle_alpha   90.00000000
_cell_angle_beta   90.00000000
_cell_angle_gamma   94.19785084
_symmetry_Int_Tables_number   1
_chemical_formula_structural   Ba2ZnFe2F14
_chemical_formula_sum   'Ba4 Zn2 Fe4 F28'
_cell_volume   552.67219718
_cell_formula_units_Z   2
loop_
 _symmetry_equiv_pos_site_id
 _symmetry_equiv_pos_as_xyz
  1  'x, y, z'
loop_
 _atom_site_type_symbol
 _atom_site_label
 _atom_site_symmetry_multiplicity
 _atom_site_fract_x
 _atom_site_fract_y
 _atom_site_fract_z
 _atom_site_occupancy
  Ba  Ba0  1  0.26473924  0.49710338  0.29220190  1
  Ba  Ba1  1  0.75587625  0.00525850  0.79955715  1
  Ba  Ba2  1  0.75587625  0.50525850  0.70044285  1
  Ba  Ba3  1  0.26473924  0.99710338  0.20779810  1
  Zn  Zn4  1  0.30932349  0.69463048  0.89326640  1
  Zn  Zn5  1  0.30932349  0.19463048  0.60673360  1
  Fe  Fe6  1  0.19118862  0.81162952  0.60002700  1
  Fe  Fe7  1  0.80350888  0.19283085  0.38117560  1
  Fe  Fe8  1  0.19118862  0.31162952  0.89997300  1
  Fe  Fe9  1  0.80350888  0.69283085  0.11882440  1
  F  F10  1  0.10225926  0.13191849  0.45745268  1
  F  F11  1  0.33778121  0.36786841  0.05782084  1
  F  F12  1  0.46787534  0.75280108  0.71302500  1
  F  F13  1  0.51719717  0.24197518  0.30576694  1
  F  F14  1  0.87958022  0.36649325  0.44875111  1
  F  F15  1  0.28600414  0.50119399  0.81433978  1
  F  F16  1  0.03453336  0.75307975  0.78379730  1
  F  F17  1  0.09974663  0.12440003  0.95583348  1
  F  F18  1  0.33778121  0.86786841  0.44217916  1
  F  F19  1  0.51719717  0.74197518  0.19423306  1
  F  F20  1  0.10225926  0.63191849  0.04254732  1
  F  F21  1  0.89380781  0.88003237  0.57714142  1
  F  F22  1  0.99525750  0.74261271  0.26401579  1
  F  F23  1  0.39208769  0.88588964  0.95867017  1
  F  F24  1  0.09974663  0.62440003  0.54416652  1
  F  F25  1  0.87958022  0.86649325  0.05124889  1
  F  F26  1  0.99525750  0.24261271  0.23598421  1
  F  F27  1  0.89380781  0.38003237  0.92285858  1
  F  F28  1  0.58027022  0.57935317  0.46985181  1
  F  F29  1  0.63633012  0.64198094  0.95685219  1
  F  F30  1  0.58027022  0.07935317  0.03014819  1
  F  F31  1  0.03453336  0.25307975  0.71620270  1
  F  F32  1  0.39208769  0.38588964  0.54132983  1
  F  F33  1  0.75208985  0.01836828  0.31190608  1
  F  F34  1  0.75208985  0.51836828  0.18809392  1
  F  F35  1  0.28600414  0.00119399  0.68566022  1
  F  F36  1  0.63633012  0.14198094  0.54314781  1
  F  F37  1  0.46787534  0.25280108  0.78697500  1
