# generated using pymatgen
data_Li2Co3NiO8
_symmetry_space_group_name_H-M   'P 1'
_cell_length_a   5.71120601
_cell_length_b   5.71120649
_cell_length_c   5.71120612
_cell_angle_alpha   59.77463579
_cell_angle_beta   59.77463519
_cell_angle_gamma   59.77463183
_symmetry_Int_Tables_number   1
_chemical_formula_structural   Li2Co3NiO8
_chemical_formula_sum   'Li2 Co3 Ni1 O8'
_cell_volume   131.05108546
_cell_formula_units_Z   1
loop_
 _symmetry_equiv_pos_site_id
 _symmetry_equiv_pos_as_xyz
  1  'x, y, z'
loop_
 _atom_site_type_symbol
 _atom_site_label
 _atom_site_symmetry_multiplicity
 _atom_site_fract_x
 _atom_site_fract_y
 _atom_site_fract_z
 _atom_site_occupancy
  Li  Li0  1  0.12383629  0.12383629  0.12383629  1
  Li  Li1  1  0.49816357  0.49816357  0.49816357  1
  Co  Co2  1  0.01041134  0.49917183  0.49917183  1
  Co  Co3  1  0.49917183  0.49917183  0.01041134  1
  Co  Co4  1  0.49917183  0.01041134  0.49917183  1
  Ni  Ni5  1  0.88138017  0.88138017  0.88138017  1
  O  O6  1  0.26400395  0.26400395  0.26400395  1
  O  O7  1  0.24524213  0.71452363  0.24524213  1
  O  O8  1  0.24524213  0.24524213  0.71452363  1
  O  O9  1  0.71452363  0.24524213  0.24524213  1
  O  O10  1  0.28390678  0.74608740  0.74608740  1
  O  O11  1  0.74608740  0.74608740  0.28390678  1
  O  O12  1  0.74608740  0.28390678  0.74608740  1
  O  O13  1  0.74277256  0.74277256  0.74277256  1
