# generated using pymatgen
data_Ba4CaCr4Cu2F28
_symmetry_space_group_name_H-M   'P 1'
_cell_length_a   5.40375149
_cell_length_b   7.57836631
_cell_length_c   15.03294062
_cell_angle_alpha   91.27508893
_cell_angle_beta   90.02561084
_cell_angle_gamma   110.89289473
_symmetry_Int_Tables_number   1
_chemical_formula_structural   Ba4CaCr4Cu2F28
_chemical_formula_sum   'Ba4 Ca1 Cr4 Cu2 F28'
_cell_volume   574.97950315
_cell_formula_units_Z   1
loop_
 _symmetry_equiv_pos_site_id
 _symmetry_equiv_pos_as_xyz
  1  'x, y, z'
loop_
 _atom_site_type_symbol
 _atom_site_label
 _atom_site_symmetry_multiplicity
 _atom_site_fract_x
 _atom_site_fract_y
 _atom_site_fract_z
 _atom_site_occupancy
  Ba  Ba0  1  0.11738669  0.37438176  0.62206370  1
  Ba  Ba1  1  0.25678315  0.36156033  0.12625547  1
  Ba  Ba2  1  0.89424592  0.63629931  0.37340303  1
  Ba  Ba3  1  0.74286846  0.62712322  0.87809253  1
  Ca  Ca4  1  0.42363609  0.00160924  0.74920793  1
  Cr  Cr5  1  0.14062524  0.23945780  0.37227415  1
  Cr  Cr6  1  0.10130335  0.24363079  0.87419407  1
  Cr  Cr7  1  0.85361168  0.75572374  0.62502887  1
  Cr  Cr8  1  0.89897700  0.75947806  0.12756614  1
  Cu  Cu9  1  0.50052099  0.00279563  0.00102603  1
  Cu  Cu10  1  0.50078210  0.99928170  0.49764404  1
  F  F11  1  0.84345482  0.50514680  0.09554238  1
  F  F12  1  0.15875695  0.50602204  0.89886983  1
  F  F13  1  0.08505654  0.01274337  0.65345556  1
  F  F14  1  0.07119897  0.98621053  0.84528442  1
  F  F15  1  0.29571430  0.17042589  0.47789756  1
  F  F16  1  0.58524529  0.76526220  0.70933663  1
  F  F17  1  0.82575906  0.23532756  0.78920556  1
  F  F18  1  0.64615562  0.49455700  0.59975994  1
  F  F19  1  0.93612479  0.00117146  0.15077143  1
  F  F20  1  0.88742262  0.27597260  0.45220382  1
  F  F21  1  0.40354451  0.28061708  0.95275617  1
  F  F22  1  0.61864493  0.10997040  0.61239118  1
  F  F23  1  0.92765772  0.99632056  0.35063458  1
  F  F24  1  0.15198125  0.75002899  0.20493593  1
  F  F25  1  0.64446732  0.66500453  0.21896869  1
  F  F26  1  0.34083384  0.49151448  0.40393342  1
  F  F27  1  0.87841573  0.17439695  0.97974162  1
  F  F28  1  0.61040313  0.72373963  0.04719912  1
  F  F29  1  0.98352843  0.33407755  0.28045869  1
  F  F30  1  0.03033716  0.67784379  0.72289267  1
  F  F31  1  0.50742433  0.89293925  0.88621642  1
  F  F32  1  0.49773767  0.11740488  0.10994692  1
  F  F33  1  0.11787000  0.71549363  0.54729281  1
  F  F34  1  0.70340600  0.82693058  0.51910701  1
  F  F35  1  0.12380072  0.82803542  0.02217528  1
  F  F36  1  0.35924792  0.31961414  0.77693227  1
  F  F37  1  0.40064818  0.24260290  0.29554694  1
  F  F38  1  0.37457354  0.88184621  0.38977422  1
