# generated using pymatgen
data_MgSiO3
_symmetry_space_group_name_H-M   'P 1'
_cell_length_a   18.68860862
_cell_length_b   8.96474753
_cell_length_c   5.27939653
_cell_angle_alpha   90.00000000
_cell_angle_beta   95.23159046
_cell_angle_gamma   90.00000000
_symmetry_Int_Tables_number   1
_chemical_formula_structural   MgSiO3
_chemical_formula_sum   'Mg16 Si16 O48'
_cell_volume   880.81841470
_cell_formula_units_Z   16
loop_
 _symmetry_equiv_pos_site_id
 _symmetry_equiv_pos_as_xyz
  1  'x, y, z'
loop_
 _atom_site_type_symbol
 _atom_site_label
 _atom_site_symmetry_multiplicity
 _atom_site_fract_x
 _atom_site_fract_y
 _atom_site_fract_z
 _atom_site_occupancy
  Mg  Mg0  1  0.81288760  0.90184587  0.43310426  1
  Mg  Mg1  1  0.81288760  0.09815413  0.93310426  1
  Mg  Mg2  1  0.81621842  0.25974715  0.43804101  1
  Mg  Mg3  1  0.81621842  0.74025285  0.93804101  1
  Mg  Mg4  1  0.56358398  0.59962908  0.81315410  1
  Mg  Mg5  1  0.56358398  0.40037092  0.31315410  1
  Mg  Mg6  1  0.56408813  0.24455285  0.81461967  1
  Mg  Mg7  1  0.56408813  0.75544715  0.31461967  1
  Mg  Mg8  1  0.31238024  0.90038760  0.18053813  1
  Mg  Mg9  1  0.31238024  0.09961240  0.68053813  1
  Mg  Mg10  1  0.31084517  0.25894293  0.18223736  1
  Mg  Mg11  1  0.31084517  0.74105707  0.68223736  1
  Mg  Mg12  1  0.06057517  0.59841863  0.24134564  1
  Mg  Mg13  1  0.06057517  0.40158137  0.74134564  1
  Mg  Mg14  1  0.05843877  0.76171923  0.73499027  1
  Mg  Mg15  1  0.05843877  0.23828077  0.23499027  1
  Si  Si16  1  0.96316520  0.08631831  0.64515817  1
  Si  Si17  1  0.96316520  0.91368169  0.14515817  1
  Si  Si18  1  0.91107262  0.58659033  0.53018446  1
  Si  Si19  1  0.91107262  0.41340967  0.03018446  1
  Si  Si20  1  0.71120355  0.58928966  0.19533749  1
  Si  Si21  1  0.71120355  0.41071034  0.69533749  1
  Si  Si22  1  0.66686526  0.90917725  0.72123005  1
  Si  Si23  1  0.66686526  0.09082275  0.22123005  1
  Si  Si24  1  0.41608771  0.41118995  0.92690363  1
  Si  Si25  1  0.41608771  0.58881005  0.42690363  1
  Si  Si26  1  0.46077778  0.91030191  0.89314247  1
  Si  Si27  1  0.46077778  0.08969809  0.39314247  1
  Si  Si28  1  0.16385847  0.91003930  0.47173303  1
  Si  Si29  1  0.16385847  0.08996070  0.97173303  1
  Si  Si30  1  0.20647425  0.59007639  0.94760971  1
  Si  Si31  1  0.20647425  0.40992361  0.44760971  1
  O  O32  1  0.87510114  0.08944689  0.62000025  1
  O  O33  1  0.87510114  0.91055311  0.12000025  1
  O  O34  1  0.00378492  0.23104812  0.54868573  1
  O  O35  1  0.00378492  0.76895188  0.04868573  1
  O  O36  1  0.98855449  0.94599311  0.45697872  1
  O  O37  1  0.98855449  0.05400689  0.95697872  1
  O  O38  1  0.99911774  0.59008488  0.55552088  1
  O  O39  1  0.99911774  0.40991512  0.05552088  1
  O  O40  1  0.88576275  0.44643421  0.71861218  1
  O  O41  1  0.88576275  0.55356579  0.21861218  1
  O  O42  1  0.87025651  0.26854661  0.12501632  1
  O  O43  1  0.87025651  0.73145339  0.62501632  1
  O  O44  1  0.62340379  0.58860969  0.16574936  1
  O  O45  1  0.62340379  0.41139031  0.66574936  1
  O  O46  1  0.75099584  0.74738754  0.22964917  1
  O  O47  1  0.75099584  0.25261246  0.72964917  1
  O  O48  1  0.74091803  0.53242189  0.91954070  1
  O  O49  1  0.74091803  0.46757811  0.41954070  1
  O  O50  1  0.75488125  0.90790425  0.74807281  1
  O  O51  1  0.75488125  0.09209575  0.24807281  1
  O  O52  1  0.62612963  0.75412634  0.64564898  1
  O  O53  1  0.62612963  0.24587366  0.14564898  1
  O  O54  1  0.63804221  0.02573683  0.48737021  1
  O  O55  1  0.63804221  0.97426317  0.98737021  1
  O  O56  1  0.50391398  0.59087401  0.45840230  1
  O  O57  1  0.50391398  0.40912599  0.95840230  1
  O  O58  1  0.37198522  0.25857770  0.88192809  1
  O  O59  1  0.37198522  0.74142230  0.38192809  1
  O  O60  1  0.38881169  0.53722516  0.70819319  1
  O  O61  1  0.38881169  0.46277484  0.20819319  1
  O  O62  1  0.37266595  0.90704322  0.86887239  1
  O  O63  1  0.37266595  0.09295678  0.36887239  1
  O  O64  1  0.50280566  0.24136752  0.48240221  1
  O  O65  1  0.50280566  0.75863248  0.98240221  1
  O  O66  1  0.48806116  0.96373987  0.61556544  1
  O  O67  1  0.48806116  0.03626013  0.11556544  1
  O  O68  1  0.25157493  0.91030340  0.49176518  1
  O  O69  1  0.25157493  0.08969660  0.99176518  1
  O  O70  1  0.12339562  0.24793553  0.94174722  1
  O  O71  1  0.12339562  0.75206447  0.44174722  1
  O  O72  1  0.13369821  0.96988626  0.74496195  1
  O  O73  1  0.13369821  0.03011374  0.24496195  1
  O  O74  1  0.11880025  0.59227272  0.92719486  1
  O  O75  1  0.11880025  0.40772728  0.42719486  1
  O  O76  1  0.24966541  0.74507434  0.98143339  1
  O  O77  1  0.24966541  0.25492566  0.48143339  1
  O  O78  1  0.23515231  0.53086835  0.67335801  1
  O  O79  1  0.23515231  0.46913165  0.17335801  1
