# generated using pymatgen
data_KBe2B3O7
_symmetry_space_group_name_H-M   'P 1'
_cell_length_a   4.41721991
_cell_length_b   7.72051843
_cell_length_c   17.69876504
_cell_angle_alpha   90.00000000
_cell_angle_beta   90.00000000
_cell_angle_gamma   90.00000000
_symmetry_Int_Tables_number   1
_chemical_formula_structural   KBe2B3O7
_chemical_formula_sum   'K4 Be8 B12 O28'
_cell_volume   603.58501460
_cell_formula_units_Z   4
loop_
 _symmetry_equiv_pos_site_id
 _symmetry_equiv_pos_as_xyz
  1  'x, y, z'
loop_
 _atom_site_type_symbol
 _atom_site_label
 _atom_site_symmetry_multiplicity
 _atom_site_fract_x
 _atom_site_fract_y
 _atom_site_fract_z
 _atom_site_occupancy
  K  K0  1  0.10582077  -0.00000000  0.36271061  1
  K  K1  1  0.60582077  0.50000000  0.63728939  1
  K  K2  1  0.17724387  0.50000000  0.14710596  1
  K  K3  1  0.67724387  -0.00000000  0.85289404  1
  Be  Be4  1  0.62605907  0.31189632  0.45848652  1
  Be  Be5  1  0.62605907  0.68810368  0.45848652  1
  Be  Be6  1  0.12605907  0.18810368  0.54151348  1
  Be  Be7  1  0.12605907  0.81189632  0.54151348  1
  Be  Be8  1  0.77094297  0.17593362  0.03735864  1
  Be  Be9  1  0.77094297  0.82406638  0.03735864  1
  Be  Be10  1  0.27094297  0.32406638  0.96264136  1
  Be  Be11  1  0.27094297  0.67593362  0.96264136  1
  B  B12  1  0.12428796  0.50000000  0.48023837  1
  B  B13  1  0.62428796  -0.00000000  0.51976163  1
  B  B14  1  0.26559863  -0.00000000  0.00903409  1
  B  B15  1  0.76559863  0.50000000  0.99096591  1
  B  B16  1  0.54538361  0.33999128  0.31543259  1
  B  B17  1  0.54538361  0.66000872  0.31543259  1
  B  B18  1  0.04538361  0.16000872  0.68456741  1
  B  B19  1  0.04538361  0.83999128  0.68456741  1
  B  B20  1  0.67126714  0.16491758  0.19270369  1
  B  B21  1  0.67126714  0.83508242  0.19270369  1
  B  B22  1  0.17126714  0.33508242  0.80729631  1
  B  B23  1  0.17126714  0.66491758  0.80729631  1
  O  O24  1  0.81191419  0.50000000  0.47275026  1
  O  O25  1  0.31191419  -0.00000000  0.52724974  1
  O  O26  1  0.27527723  0.34306613  0.48713748  1
  O  O27  1  0.27527723  0.65693387  0.48713748  1
  O  O28  1  0.77527723  0.15693387  0.51286252  1
  O  O29  1  0.77527723  0.84306613  0.51286252  1
  O  O30  1  0.95387249  -0.00000000  0.00972633  1
  O  O31  1  0.45387249  0.50000000  0.99027367  1
  O  O32  1  0.42008953  0.15527149  0.00706141  1
  O  O33  1  0.42008953  0.84472851  0.00706141  1
  O  O34  1  0.92008953  0.34472851  0.99293859  1
  O  O35  1  0.92008953  0.65527149  0.99293859  1
  O  O36  1  0.63738505  0.23872194  0.37273856  1
  O  O37  1  0.63738505  0.76127806  0.37273856  1
  O  O38  1  0.13738505  0.26127806  0.62726144  1
  O  O39  1  0.13738505  0.73872194  0.62726144  1
  O  O40  1  0.40796485  0.50000000  0.33072926  1
  O  O41  1  0.90796485  -0.00000000  0.66927074  1
  O  O42  1  0.57326456  0.30202668  0.23886882  1
  O  O43  1  0.57326456  0.69797332  0.23886882  1
  O  O44  1  0.07326456  0.19797332  0.76113118  1
  O  O45  1  0.07326456  0.80202668  0.76113118  1
  O  O46  1  0.63168689  -0.00000000  0.22411460  1
  O  O47  1  0.13168689  0.50000000  0.77588540  1
  O  O48  1  0.78388104  0.20641619  0.12546646  1
  O  O49  1  0.78388104  0.79358381  0.12546646  1
  O  O50  1  0.28388104  0.29358381  0.87453354  1
  O  O51  1  0.28388104  0.70641619  0.87453354  1
