# generated using pymatgen
data_Zr2Ga(PO4)3
_symmetry_space_group_name_H-M   'P 1'
_cell_length_a   8.87680883
_cell_length_b   8.87680907
_cell_length_c   9.54693028
_cell_angle_alpha   62.29600119
_cell_angle_beta   62.29599941
_cell_angle_gamma   59.99999916
_symmetry_Int_Tables_number   1
_chemical_formula_structural   Zr2Ga(PO4)3
_chemical_formula_sum   'Zr4 Ga2 P6 O24'
_cell_volume   549.65853762
_cell_formula_units_Z   2
loop_
 _symmetry_equiv_pos_site_id
 _symmetry_equiv_pos_as_xyz
  1  'x, y, z'
loop_
 _atom_site_type_symbol
 _atom_site_label
 _atom_site_symmetry_multiplicity
 _atom_site_fract_x
 _atom_site_fract_y
 _atom_site_fract_z
 _atom_site_occupancy
  Zr  Zr0  1  0.35068869  0.35068869  0.94793393  1
  Zr  Zr1  1  0.85068869  0.85068869  0.44793393  1
  Zr  Zr2  1  0.64931131  0.64931131  0.05206607  1
  Zr  Zr3  1  0.14931131  0.14931131  0.55206607  1
  Ga  Ga4  1  0.50000000  0.50000000  0.50000000  1
  Ga  Ga5  1  -0.00000000  -0.00000000  -0.00000000  1
  P  P6  1  0.25000000  0.96250389  0.25000000  1
  P  P7  1  0.53749611  0.25000000  0.25000000  1
  P  P8  1  0.96250389  0.53749611  0.25000000  1
  P  P9  1  0.46250389  0.75000000  0.75000000  1
  P  P10  1  0.03749611  0.46250389  0.75000000  1
  P  P11  1  0.75000000  0.03749611  0.75000000  1
  O  O12  1  0.26095294  0.13180779  0.09630139  1
  O  O13  1  0.51093788  0.26095294  0.09630139  1
  O  O14  1  0.13180779  0.51093788  0.09630139  1
  O  O15  1  0.63180779  0.76095294  0.59630139  1
  O  O16  1  0.01093788  0.63180779  0.59630139  1
  O  O17  1  0.76095294  0.01093788  0.59630139  1
  O  O18  1  0.73904706  0.86819221  0.90369861  1
  O  O19  1  0.48906212  0.73904706  0.90369861  1
  O  O20  1  0.86819221  0.48906212  0.90369861  1
  O  O21  1  0.36819221  0.23904706  0.40369861  1
  O  O22  1  0.98906212  0.36819221  0.40369861  1
  O  O23  1  0.23904706  0.98906212  0.40369861  1
  O  O24  1  0.57804237  0.20620008  0.78553440  1
  O  O25  1  0.43022316  0.57804237  0.78553440  1
  O  O26  1  0.20620008  0.43022316  0.78553440  1
  O  O27  1  0.70620008  0.07804237  0.28553440  1
  O  O28  1  0.93022316  0.70620008  0.28553440  1
  O  O29  1  0.07804237  0.93022316  0.28553440  1
  O  O30  1  0.42195763  0.79379992  0.21446560  1
  O  O31  1  0.56977684  0.42195763  0.21446560  1
  O  O32  1  0.79379992  0.56977684  0.21446560  1
  O  O33  1  0.29379992  0.92195763  0.71446560  1
  O  O34  1  0.06977684  0.29379992  0.71446560  1
  O  O35  1  0.92195763  0.06977684  0.71446560  1
