# generated using pymatgen
data_Ca2AlNiO5
_symmetry_space_group_name_H-M   'P 1'
_cell_length_a   5.24290024
_cell_length_b   5.65244788
_cell_length_c   8.19788371
_cell_angle_alpha   110.21136514
_cell_angle_beta   108.64380748
_cell_angle_gamma   90.02113760
_symmetry_Int_Tables_number   1
_chemical_formula_structural   Ca2AlNiO5
_chemical_formula_sum   'Ca4 Al2 Ni2 O10'
_cell_volume   214.33865140
_cell_formula_units_Z   2
loop_
 _symmetry_equiv_pos_site_id
 _symmetry_equiv_pos_as_xyz
  1  'x, y, z'
loop_
 _atom_site_type_symbol
 _atom_site_label
 _atom_site_symmetry_multiplicity
 _atom_site_fract_x
 _atom_site_fract_y
 _atom_site_fract_z
 _atom_site_occupancy
  Ca  Ca0  1  0.11676658  0.64250723  0.21833014  1
  Ca  Ca1  1  0.39793586  0.92373086  0.78144408  1
  Ca  Ca2  1  0.89872291  0.35714993  0.78142364  1
  Ca  Ca3  1  0.61598884  0.07556093  0.21766571  1
  Al  Al4  1  0.28991190  0.32738514  0.49936216  1
  Al  Al5  1  0.79039178  0.67138718  0.50006065  1
  Ni  Ni6  1  0.49459144  0.49972550  0.99970118  1
  Ni  Ni7  1  0.99438335  0.99974475  0.99955567  1
  O  O8  1  0.62685476  0.39242315  0.49979179  1
  O  O9  1  0.12691565  0.60632471  0.49977680  1
  O  O10  1  0.61572827  0.71864768  0.29364985  1
  O  O11  1  0.32102973  0.28043029  0.70580844  1
  O  O12  1  0.11497096  0.07479043  0.29155028  1
  O  O13  1  0.82359678  0.92446842  0.70771736  1
  O  O14  1  0.23278089  0.73778188  0.96432866  1
  O  O15  1  0.26778500  0.26292038  0.03573272  1
  O  O16  1  0.76752273  0.27342204  0.03544392  1
  O  O17  1  0.73157459  0.72576251  0.96319594  1
