# generated using pymatgen
data_LiEuO2
_symmetry_space_group_name_H-M   'P 1'
_cell_length_a   11.47968625
_cell_length_b   3.48349708
_cell_length_c   5.41251853
_cell_angle_alpha   90.00000000
_cell_angle_beta   90.00000000
_cell_angle_gamma   90.00000000
_symmetry_Int_Tables_number   1
_chemical_formula_structural   LiEuO2
_chemical_formula_sum   'Li4 Eu4 O8'
_cell_volume   216.44365824
_cell_formula_units_Z   4
loop_
 _symmetry_equiv_pos_site_id
 _symmetry_equiv_pos_as_xyz
  1  'x, y, z'
loop_
 _atom_site_type_symbol
 _atom_site_label
 _atom_site_symmetry_multiplicity
 _atom_site_fract_x
 _atom_site_fract_y
 _atom_site_fract_z
 _atom_site_occupancy
  Eu  Eu0  1  0.86050137  0.25000000  0.45762966  1
  Eu  Eu1  1  0.36050137  0.25000000  0.04237034  1
  Eu  Eu2  1  0.13949863  0.75000000  0.54237034  1
  Eu  Eu3  1  0.63949863  0.75000000  0.95762966  1
  Li  Li4  1  0.56557767  0.25000000  0.40377173  1
  Li  Li5  1  0.06557767  0.25000000  0.09622827  1
  Li  Li6  1  0.43442233  0.75000000  0.59622827  1
  Li  Li7  1  0.93442233  0.75000000  0.90377173  1
  O  O8  1  0.52519947  0.25000000  0.75376745  1
  O  O9  1  0.02519947  0.25000000  0.74623255  1
  O  O10  1  0.47480053  0.75000000  0.24623255  1
  O  O11  1  0.97480053  0.75000000  0.25376745  1
  O  O12  1  0.70234188  0.25000000  0.19977586  1
  O  O13  1  0.20234188  0.25000000  0.30022414  1
  O  O14  1  0.29765812  0.75000000  0.80022414  1
  O  O15  1  0.79765812  0.75000000  0.69977586  1
