# generated using pymatgen
data_Mo3W(SeS3)2
_symmetry_space_group_name_H-M   'P 1'
_cell_length_a   3.22059355
_cell_length_b   3.22055771
_cell_length_c   36.36268400
_cell_angle_alpha   90.00005848
_cell_angle_beta   90.00000000
_cell_angle_gamma   120.00036825
_symmetry_Int_Tables_number   1
_chemical_formula_structural   Mo3W(SeS3)2
_chemical_formula_sum   'Mo3 W1 Se2 S6'
_cell_volume   326.62690549
_cell_formula_units_Z   1
loop_
 _symmetry_equiv_pos_site_id
 _symmetry_equiv_pos_as_xyz
  1  'x, y, z'
loop_
 _atom_site_type_symbol
 _atom_site_label
 _atom_site_symmetry_multiplicity
 _atom_site_fract_x
 _atom_site_fract_y
 _atom_site_fract_z
 _atom_site_occupancy
  Mo  Mo0  1  0.33331020  0.66662040  0.09391525  1
  Mo  Mo1  1  0.66668776  0.33337552  0.28180378  1
  Mo  Mo2  1  0.66669027  0.33338054  0.65753745  1
  W  W3  1  0.33330862  0.66661725  0.46966837  1
  Se  Se4  1  0.33335202  0.66670504  0.32882583  1
  Se  Se5  1  0.33335256  0.66670611  0.23473898  1
  S  S6  1  0.33335585  0.66671270  0.70034283  1
  S  S7  1  0.66664753  0.33329406  0.05111488  1
  S  S8  1  0.66664622  0.33329144  0.42673716  1
  S  S9  1  0.66664785  0.33329470  0.13670936  1
  S  S10  1  0.66664564  0.33329028  0.51261181  1
  S  S11  1  0.33335548  0.66671195  0.61474231  1
