# generated using pymatgen
data_LiMg15
_symmetry_space_group_name_H-M   'P 1'
_cell_length_a   6.36615898
_cell_length_b   6.36615847
_cell_length_c   10.32589386
_cell_angle_alpha   90.00000000
_cell_angle_beta   90.00000000
_cell_angle_gamma   120.00000266
_symmetry_Int_Tables_number   1
_chemical_formula_structural   LiMg15
_chemical_formula_sum   'Li1 Mg15'
_cell_volume   362.42087251
_cell_formula_units_Z   1
loop_
 _symmetry_equiv_pos_site_id
 _symmetry_equiv_pos_as_xyz
  1  'x, y, z'
loop_
 _atom_site_type_symbol
 _atom_site_label
 _atom_site_symmetry_multiplicity
 _atom_site_fract_x
 _atom_site_fract_y
 _atom_site_fract_z
 _atom_site_occupancy
  Li  Li0  1  0.16666700  0.33333300  0.12500000  1
  Mg  Mg1  1  0.16666700  0.33333300  0.62500000  1
  Mg  Mg2  1  0.16695571  0.83347736  0.12500000  1
  Mg  Mg3  1  0.16673189  0.83336544  0.62500000  1
  Mg  Mg4  1  0.66652264  0.33304429  0.12500000  1
  Mg  Mg5  1  0.66663456  0.33326811  0.62500000  1
  Mg  Mg6  1  0.66652264  0.83347736  0.12500000  1
  Mg  Mg7  1  0.66663456  0.83336544  0.62500000  1
  Mg  Mg8  1  0.33286594  0.16713406  0.37490097  1
  Mg  Mg9  1  0.33286594  0.16713406  0.87509903  1
  Mg  Mg10  1  0.33286594  0.66573289  0.37490097  1
  Mg  Mg11  1  0.33286594  0.66573289  0.87509903  1
  Mg  Mg12  1  0.83426711  0.16713406  0.37490097  1
  Mg  Mg13  1  0.83426711  0.16713406  0.87509903  1
  Mg  Mg14  1  0.83333300  0.66666700  0.37526925  1
  Mg  Mg15  1  0.83333300  0.66666700  0.87473075  1
