# generated using pymatgen
data_Li2Co3SnO8
_symmetry_space_group_name_H-M   'P 1'
_cell_length_a   8.49847009
_cell_length_b   8.49294136
_cell_length_c   8.50869945
_cell_angle_alpha   89.92493622
_cell_angle_beta   90.03207920
_cell_angle_gamma   89.89612697
_symmetry_Int_Tables_number   1
_chemical_formula_structural   Li2Co3SnO8
_chemical_formula_sum   'Li8 Co12 Sn4 O32'
_cell_volume   614.13083594
_cell_formula_units_Z   4
loop_
 _symmetry_equiv_pos_site_id
 _symmetry_equiv_pos_as_xyz
  1  'x, y, z'
loop_
 _atom_site_type_symbol
 _atom_site_label
 _atom_site_symmetry_multiplicity
 _atom_site_fract_x
 _atom_site_fract_y
 _atom_site_fract_z
 _atom_site_occupancy
  Li  Li0  1  0.00304342  0.00174748  0.00268203  1
  Li  Li1  1  0.24613681  0.24907672  0.24748280  1
  Li  Li2  1  0.25097478  0.75184530  0.74825423  1
  Li  Li3  1  0.50082222  0.99831389  0.50244298  1
  Li  Li4  1  0.50215468  0.49800156  0.99834435  1
  Li  Li5  1  0.74734766  0.25125902  0.75030417  1
  Li  Li6  1  0.75121962  0.74942420  0.25237264  1
  Li  Li7  1  0.99870148  0.50048541  0.49789870  1
  Co  Co8  1  0.11388390  0.13624904  0.62429541  1
  Co  Co9  1  0.12434764  0.38362952  0.86616095  1
  Co  Co10  1  0.13315933  0.62516644  0.11628379  1
  Co  Co11  1  0.36554631  0.37433070  0.61551975  1
  Co  Co12  1  0.37533799  0.61417534  0.36495387  1
  Co  Co13  1  0.38413165  0.86645536  0.12559651  1
  Co  Co14  1  0.61696460  0.36517037  0.37682366  1
  Co  Co15  1  0.62543057  0.11453132  0.13585451  1
  Co  Co16  1  0.63516609  0.87549236  0.88485441  1
  Co  Co17  1  0.86863876  0.12493697  0.38128968  1
  Co  Co18  1  0.87357471  0.88457901  0.63319070  1
  Co  Co19  1  0.88459132  0.63511604  0.87441464  1
  Sn  Sn20  1  0.12409932  0.87502001  0.37498619  1
  Sn  Sn21  1  0.37480370  0.12480755  0.87505548  1
  Sn  Sn22  1  0.62542087  0.62487588  0.62474731  1
  Sn  Sn23  1  0.87482998  0.37524320  0.12611613  1
  O  O24  1  0.09245254  0.12241870  0.38296982  1
  O  O25  1  0.11073781  0.89994113  0.62058348  1
  O  O26  1  0.11504575  0.61564197  0.88508693  1
  O  O27  1  0.12842645  0.14711365  0.86393407  1
  O  O28  1  0.12131722  0.38886644  0.10320330  1
  O  O29  1  0.13333188  0.36496193  0.63448983  1
  O  O30  1  0.13447479  0.63009369  0.35240894  1
  O  O31  1  0.14784800  0.86210787  0.12856269  1
  O  O32  1  0.35332621  0.13727325  0.62868984  1
  O  O33  1  0.36209440  0.37127234  0.85177410  1
  O  O34  1  0.36501210  0.63511585  0.13442572  1
  O  O35  1  0.37922586  0.61236027  0.60224713  1
  O  O36  1  0.37020393  0.85449038  0.36194648  1
  O  O37  1  0.38352945  0.38229850  0.38566280  1
  O  O38  1  0.38577074  0.10276551  0.12169410  1
  O  O39  1  0.39799891  0.87843150  0.88857946  1
  O  O40  1  0.60315034  0.37820397  0.61192400  1
  O  O41  1  0.61607558  0.60135733  0.37950071  1
  O  O42  1  0.61456138  0.88467504  0.11702221  1
  O  O43  1  0.62879975  0.35084691  0.14039014  1
  O  O44  1  0.62122350  0.11322285  0.89790078  1
  O  O45  1  0.64792760  0.13193840  0.37040141  1
  O  O46  1  0.63796899  0.87143531  0.64713411  1
  O  O47  1  0.64799999  0.63691344  0.87052708  1
  O  O48  1  0.85768571  0.35210319  0.37227187  1
  O  O49  1  0.86613983  0.12767214  0.15708718  1
  O  O50  1  0.86503298  0.86800880  0.86570764  1
  O  O51  1  0.87765254  0.89761415  0.39272980  1
  O  O52  1  0.87099239  0.64790399  0.63437163  1
  O  O53  1  0.87931955  0.11793174  0.60168175  1
  O  O54  1  0.88764932  0.39467478  0.88049480  1
  O  O55  1  0.89670009  0.62055131  0.11481233  1
