# generated using pymatgen
data_Mo3W(SeS3)2
_symmetry_space_group_name_H-M   'P 1'
_cell_length_a   3.22109747
_cell_length_b   3.22109537
_cell_length_c   36.30738842
_cell_angle_alpha   90.00012473
_cell_angle_beta   90.00000000
_cell_angle_gamma   120.00002151
_symmetry_Int_Tables_number   1
_chemical_formula_structural   Mo3W(SeS3)2
_chemical_formula_sum   'Mo3 W1 Se2 S6'
_cell_volume   326.23683762
_cell_formula_units_Z   1
loop_
 _symmetry_equiv_pos_site_id
 _symmetry_equiv_pos_as_xyz
  1  'x, y, z'
loop_
 _atom_site_type_symbol
 _atom_site_label
 _atom_site_symmetry_multiplicity
 _atom_site_fract_x
 _atom_site_fract_y
 _atom_site_fract_z
 _atom_site_occupancy
  Mo  Mo0  1  0.33330917  0.66661834  0.09390884  1
  Mo  Mo1  1  0.33330762  0.66661524  0.46964762  1
  Mo  Mo2  1  0.66669051  0.33338103  0.28180662  1
  W  W3  1  0.66669054  0.33338108  0.65754014  1
  Se  Se4  1  0.66664514  0.33328928  0.04680261  1
  Se  Se5  1  0.66664728  0.33329357  0.14101608  1
  S  S6  1  0.33335684  0.66671468  0.32458050  1
  S  S7  1  0.33335331  0.66670761  0.70051693  1
  S  S8  1  0.66664578  0.33329056  0.42688934  1
  S  S9  1  0.66664636  0.33329173  0.51243755  1
  S  S10  1  0.33335383  0.66670867  0.23903641  1
  S  S11  1  0.33335361  0.66670821  0.61456536  1
