# generated using pymatgen
data_ReGe2
_symmetry_space_group_name_H-M   'P 1'
_cell_length_a   3.20370995
_cell_length_b   4.85885939
_cell_length_c   6.96665496
_cell_angle_alpha   77.66462369
_cell_angle_beta   76.70694805
_cell_angle_gamma   70.75081835
_symmetry_Int_Tables_number   1
_chemical_formula_structural   ReGe2
_chemical_formula_sum   'Re2 Ge4'
_cell_volume   98.51212069
_cell_formula_units_Z   2
loop_
 _symmetry_equiv_pos_site_id
 _symmetry_equiv_pos_as_xyz
  1  'x, y, z'
loop_
 _atom_site_type_symbol
 _atom_site_label
 _atom_site_symmetry_multiplicity
 _atom_site_fract_x
 _atom_site_fract_y
 _atom_site_fract_z
 _atom_site_occupancy
  Re  Re0  1  0.85003681  0.11030980  0.18961659  1
  Re  Re1  1  0.14996319  0.88969020  0.81038341  1
  Ge  Ge2  1  0.85215917  0.75774021  0.53794145  1
  Ge  Ge3  1  0.14784083  0.24225979  0.46205855  1
  Ge  Ge4  1  0.59987188  0.68622351  0.11403272  1
  Ge  Ge5  1  0.40012812  0.31377649  0.88596728  1
