# generated using pymatgen
data_MoWSeS3
_symmetry_space_group_name_H-M   'P 1'
_cell_length_a   3.21987231
_cell_length_b   3.21983031
_cell_length_c   36.38393514
_cell_angle_alpha   89.99990233
_cell_angle_beta   90.00000000
_cell_angle_gamma   120.00043157
_symmetry_Int_Tables_number   1
_chemical_formula_structural   MoWSeS3
_chemical_formula_sum   'Mo2 W2 Se2 S6'
_cell_volume   326.67059666
_cell_formula_units_Z   2
loop_
 _symmetry_equiv_pos_site_id
 _symmetry_equiv_pos_as_xyz
  1  'x, y, z'
loop_
 _atom_site_type_symbol
 _atom_site_label
 _atom_site_symmetry_multiplicity
 _atom_site_fract_x
 _atom_site_fract_y
 _atom_site_fract_z
 _atom_site_occupancy
  Mo  Mo0  1  0.33331141  0.66662282  0.09391810  1
  Mo  Mo1  1  0.66669135  0.33338270  0.65754854  1
  W  W2  1  0.33330857  0.66661714  0.46964667  1
  W  W3  1  0.66668691  0.33337382  0.28179591  1
  Se  Se4  1  0.33335865  0.66671830  0.70460428  1
  Se  Se5  1  0.33335779  0.66671658  0.61050163  1
  S  S6  1  0.33335517  0.66671133  0.32474478  1
  S  S7  1  0.66664595  0.33329090  0.05110428  1
  S  S8  1  0.66664357  0.33328614  0.42670570  1
  S  S9  1  0.66664544  0.33328988  0.13673168  1
  S  S10  1  0.66664196  0.33328292  0.51260175  1
  S  S11  1  0.33335324  0.66670747  0.23884467  1
