# generated using pymatgen
data_Mo3W(SeS3)2
_symmetry_space_group_name_H-M   'P 1'
_cell_length_a   3.22041756
_cell_length_b   3.22038257
_cell_length_c   36.34893145
_cell_angle_alpha   89.99998096
_cell_angle_beta   90.00000000
_cell_angle_gamma   120.00035946
_symmetry_Int_Tables_number   1
_chemical_formula_structural   Mo3W(SeS3)2
_chemical_formula_sum   'Mo3 W1 Se2 S6'
_cell_volume   326.46780550
_cell_formula_units_Z   1
loop_
 _symmetry_equiv_pos_site_id
 _symmetry_equiv_pos_as_xyz
  1  'x, y, z'
loop_
 _atom_site_type_symbol
 _atom_site_label
 _atom_site_symmetry_multiplicity
 _atom_site_fract_x
 _atom_site_fract_y
 _atom_site_fract_z
 _atom_site_occupancy
  Mo  Mo0  1  0.33331227  0.66662453  0.09391202  1
  Mo  Mo1  1  0.33331044  0.66662088  0.46964391  1
  Mo  Mo2  1  0.66668806  0.33337612  0.65755396  1
  W  W3  1  0.66668934  0.33337869  0.28179101  1
  Se  Se4  1  0.33335152  0.66670403  0.70462999  1
  Se  Se5  1  0.33335212  0.66670524  0.61047929  1
  S  S6  1  0.33335719  0.66671537  0.32475172  1
  S  S7  1  0.66664709  0.33329318  0.05110873  1
  S  S8  1  0.66664590  0.33329081  0.42686398  1
  S  S9  1  0.66664693  0.33329287  0.13672236  1
  S  S10  1  0.66664490  0.33328880  0.51244879  1
  S  S11  1  0.33335424  0.66670949  0.23884226  1
