# generated using pymatgen
data_Mo2Se3S
_symmetry_space_group_name_H-M   'P 1'
_cell_length_a   3.28754416
_cell_length_b   3.28750702
_cell_length_c   37.30858275
_cell_angle_alpha   90.00008240
_cell_angle_beta   90.00000000
_cell_angle_gamma   120.00037374
_symmetry_Int_Tables_number   1
_chemical_formula_structural   Mo2Se3S
_chemical_formula_sum   'Mo4 Se6 S2'
_cell_volume   349.20144452
_cell_formula_units_Z   2
loop_
 _symmetry_equiv_pos_site_id
 _symmetry_equiv_pos_as_xyz
  1  'x, y, z'
loop_
 _atom_site_type_symbol
 _atom_site_label
 _atom_site_symmetry_multiplicity
 _atom_site_fract_x
 _atom_site_fract_y
 _atom_site_fract_z
 _atom_site_occupancy
  Mo  Mo0  1  0.33330769  0.66661537  0.09391682  1
  Mo  Mo1  1  0.33331008  0.66662016  0.46963315  1
  Mo  Mo2  1  0.66668825  0.33337650  0.28177742  1
  Mo  Mo3  1  0.66668940  0.33337881  0.65755233  1
  Se  Se4  1  0.33335092  0.66670284  0.70274975  1
  Se  Se5  1  0.66664699  0.33329299  0.04871873  1
  Se  Se6  1  0.66664869  0.33329638  0.42444724  1
  Se  Se7  1  0.66664670  0.33329240  0.13914442  1
  Se  Se8  1  0.66664823  0.33329545  0.51486881  1
  Se  Se9  1  0.33335111  0.66670323  0.61232697  1
  S  S10  1  0.33335781  0.66671663  0.32297828  1
  S  S11  1  0.33335413  0.66670925  0.24063409  1
