# generated using pymatgen
data_Mo2Se3S
_symmetry_space_group_name_H-M   'P 1'
_cell_length_a   3.28982282
_cell_length_b   3.28984322
_cell_length_c   37.29562854
_cell_angle_alpha   90.00107430
_cell_angle_beta   90.00000000
_cell_angle_gamma   119.99979489
_symmetry_Int_Tables_number   1
_chemical_formula_structural   Mo2Se3S
_chemical_formula_sum   'Mo4 Se6 S2'
_cell_volume   349.57242743
_cell_formula_units_Z   2
loop_
 _symmetry_equiv_pos_site_id
 _symmetry_equiv_pos_as_xyz
  1  'x, y, z'
loop_
 _atom_site_type_symbol
 _atom_site_label
 _atom_site_symmetry_multiplicity
 _atom_site_fract_x
 _atom_site_fract_y
 _atom_site_fract_z
 _atom_site_occupancy
  Mo  Mo0  1  0.33331149  0.66662298  0.09391328  1
  Mo  Mo1  1  0.33330837  0.66661674  0.46964819  1
  Mo  Mo2  1  0.66669435  0.33338869  0.28179511  1
  Mo  Mo3  1  0.66669241  0.33338482  0.65755309  1
  Se  Se4  1  0.33335319  0.66670738  0.32697164  1
  Se  Se5  1  0.33335122  0.66670343  0.70271648  1
  Se  Se6  1  0.66663153  0.33326207  0.42447757  1
  Se  Se7  1  0.66665283  0.33330466  0.51484870  1
  Se  Se8  1  0.33335097  0.66670294  0.23661777  1
  Se  Se9  1  0.33335182  0.66670464  0.61235171  1
  S  S10  1  0.66665126  0.33330152  0.05283366  1
  S  S11  1  0.66665056  0.33330012  0.13502079  1
