# generated using pymatgen
data_MoW3(Se3S)2
_symmetry_space_group_name_H-M   'P 1'
_cell_length_a   3.28977203
_cell_length_b   3.28975432
_cell_length_c   37.89392703
_cell_angle_alpha   90.00127659
_cell_angle_beta   89.99989858
_cell_angle_gamma   120.00016601
_symmetry_Int_Tables_number   1
_chemical_formula_structural   MoW3(Se3S)2
_chemical_formula_sum   'Mo1 W3 Se6 S2'
_cell_volume   355.16387833
_cell_formula_units_Z   1
loop_
 _symmetry_equiv_pos_site_id
 _symmetry_equiv_pos_as_xyz
  1  'x, y, z'
loop_
 _atom_site_type_symbol
 _atom_site_label
 _atom_site_symmetry_multiplicity
 _atom_site_fract_x
 _atom_site_fract_y
 _atom_site_fract_z
 _atom_site_occupancy
  Mo  Mo0  1  0.66669431  0.33338947  0.28179938  1
  W  W1  1  0.33331156  0.66662222  0.09389340  1
  W  W2  1  0.33331553  0.66663014  0.46966651  1
  W  W3  1  0.66669366  0.33338818  0.65753461  1
  Se  Se4  1  0.33335463  0.66670982  0.32629860  1
  Se  Se5  1  0.33335821  0.66671688  0.70227487  1
  Se  Se6  1  0.66664687  0.33329351  0.04919069  1
  Se  Se7  1  0.66662839  0.33325647  0.13865697  1
  Se  Se8  1  0.33335277  0.66670602  0.23731452  1
  Se  Se9  1  0.33335311  0.66670675  0.61279185  1
  S  S10  1  0.66664458  0.33328847  0.42902176  1
  S  S11  1  0.66664636  0.33329206  0.51030483  1
