# generated using pymatgen
data_MoW3(Se3S)2
_symmetry_space_group_name_H-M   'P 1'
_cell_length_a   3.28652124
_cell_length_b   3.28648956
_cell_length_c   37.40032348
_cell_angle_alpha   90.00011959
_cell_angle_beta   90.00000000
_cell_angle_gamma   120.00031890
_symmetry_Int_Tables_number   1
_chemical_formula_structural   MoW3(Se3S)2
_chemical_formula_sum   'Mo1 W3 Se6 S2'
_cell_volume   349.84308547
_cell_formula_units_Z   1
loop_
 _symmetry_equiv_pos_site_id
 _symmetry_equiv_pos_as_xyz
  1  'x, y, z'
loop_
 _atom_site_type_symbol
 _atom_site_label
 _atom_site_symmetry_multiplicity
 _atom_site_fract_x
 _atom_site_fract_y
 _atom_site_fract_z
 _atom_site_occupancy
  Mo  Mo0  1  0.33331344  0.66662688  0.46965739  1
  W  W1  1  0.33331425  0.66662850  0.09391775  1
  W  W2  1  0.66668955  0.33337911  0.28179216  1
  W  W3  1  0.66669075  0.33338150  0.65754507  1
  Se  Se4  1  0.33335598  0.66671296  0.32714939  1
  Se  Se5  1  0.33335507  0.66671114  0.70290689  1
  Se  Se6  1  0.66664153  0.33328207  0.42458793  1
  Se  Se7  1  0.66663938  0.33327776  0.51474496  1
  Se  Se8  1  0.33334763  0.66669626  0.23643937  1
  Se  Se9  1  0.33335453  0.66671006  0.61216516  1
  S  S10  1  0.66664862  0.33329625  0.05273702  1
  S  S11  1  0.66664926  0.33329752  0.13510492  1
