# generated using pymatgen
data_MoW3(Se3S)2
_symmetry_space_group_name_H-M   'P 1'
_cell_length_a   3.28672049
_cell_length_b   3.28667447
_cell_length_c   37.38919945
_cell_angle_alpha   89.99997324
_cell_angle_beta   90.00000000
_cell_angle_gamma   120.00046326
_symmetry_Int_Tables_number   1
_chemical_formula_structural   MoW3(Se3S)2
_chemical_formula_sum   'Mo1 W3 Se6 S2'
_cell_volume   349.77940508
_cell_formula_units_Z   1
loop_
 _symmetry_equiv_pos_site_id
 _symmetry_equiv_pos_as_xyz
  1  'x, y, z'
loop_
 _atom_site_type_symbol
 _atom_site_label
 _atom_site_symmetry_multiplicity
 _atom_site_fract_x
 _atom_site_fract_y
 _atom_site_fract_z
 _atom_site_occupancy
  Mo  Mo0  1  0.33331120  0.66662240  0.09390945  1
  W  W1  1  0.33330967  0.66661934  0.46966375  1
  W  W2  1  0.66668876  0.33337752  0.28181290  1
  W  W3  1  0.66669028  0.33338056  0.65753446  1
  Se  Se4  1  0.33335874  0.66671849  0.32716052  1
  Se  Se5  1  0.33335389  0.66670878  0.70290169  1
  Se  Se6  1  0.66664817  0.33329533  0.04882542  1
  Se  Se7  1  0.66664879  0.33329658  0.13900278  1
  Se  Se8  1  0.33334970  0.66670041  0.23645242  1
  Se  Se9  1  0.33335354  0.66670807  0.61215885  1
  S  S10  1  0.66664509  0.33328917  0.42845184  1
  S  S11  1  0.66664217  0.33328335  0.51087392  1
