# generated using pymatgen
data_Mo3W(Se3S)2
_symmetry_space_group_name_H-M   'P 1'
_cell_length_a   3.28639395
_cell_length_b   3.28635222
_cell_length_c   37.33540243
_cell_angle_alpha   90.00068972
_cell_angle_beta   89.99987394
_cell_angle_gamma   120.00037681
_symmetry_Int_Tables_number   1
_chemical_formula_structural   Mo3W(Se3S)2
_chemical_formula_sum   'Mo3 W1 Se6 S2'
_cell_volume   349.20748945
_cell_formula_units_Z   1
loop_
 _symmetry_equiv_pos_site_id
 _symmetry_equiv_pos_as_xyz
  1  'x, y, z'
loop_
 _atom_site_type_symbol
 _atom_site_label
 _atom_site_symmetry_multiplicity
 _atom_site_fract_x
 _atom_site_fract_y
 _atom_site_fract_z
 _atom_site_occupancy
  Mo  Mo0  1  0.33330972  0.66661825  0.09390415  1
  Mo  Mo1  1  0.66668777  0.33337523  0.28179553  1
  Mo  Mo2  1  0.66669109  0.33338161  0.65753895  1
  W  W3  1  0.33331247  0.66662352  0.46965933  1
  Se  Se4  1  0.33335968  0.66671923  0.32698173  1
  Se  Se5  1  0.33335455  0.66670884  0.70271272  1
  Se  Se6  1  0.66664696  0.33329222  0.04874333  1
  Se  Se7  1  0.66663463  0.33326774  0.13909323  1
  Se  Se8  1  0.33335185  0.66670357  0.23663913  1
  Se  Se9  1  0.33336061  0.66673166  0.61234999  1
  S  S10  1  0.66664685  0.33329210  0.42838477  1
  S  S11  1  0.66664383  0.33328602  0.51094514  1
