# generated using pymatgen
data_MoWSe3S
_symmetry_space_group_name_H-M   'P 1'
_cell_length_a   3.28652517
_cell_length_b   3.28645971
_cell_length_c   37.35391130
_cell_angle_alpha   89.99954757
_cell_angle_beta   90.00000000
_cell_angle_gamma   120.00065882
_symmetry_Int_Tables_number   1
_chemical_formula_structural   MoWSe3S
_chemical_formula_sum   'Mo2 W2 Se6 S2'
_cell_volume   349.40499276
_cell_formula_units_Z   2
loop_
 _symmetry_equiv_pos_site_id
 _symmetry_equiv_pos_as_xyz
  1  'x, y, z'
loop_
 _atom_site_type_symbol
 _atom_site_label
 _atom_site_symmetry_multiplicity
 _atom_site_fract_x
 _atom_site_fract_y
 _atom_site_fract_z
 _atom_site_occupancy
  Mo  Mo0  1  0.33331136  0.66662271  0.09391239  1
  Mo  Mo1  1  0.66668897  0.33337794  0.28180144  1
  W  W2  1  0.33330683  0.66661365  0.46965497  1
  W  W3  1  0.66668954  0.33337909  0.65753461  1
  Se  Se4  1  0.33336488  0.66673075  0.32693834  1
  Se  Se5  1  0.33335226  0.66670553  0.70295855  1
  Se  Se6  1  0.66664729  0.33329358  0.04878139  1
  Se  Se7  1  0.66665073  0.33330046  0.13905543  1
  Se  Se8  1  0.33334426  0.66668952  0.23667070  1
  Se  Se9  1  0.33335832  0.66671764  0.61211335  1
  S  S10  1  0.66664618  0.33329135  0.42840248  1
  S  S11  1  0.66663939  0.33327778  0.51092435  1
