# generated using pymatgen
data_Mo3W(SeS3)2
_symmetry_space_group_name_H-M   'P 1'
_cell_length_a   3.22390410
_cell_length_b   3.22390704
_cell_length_c   36.41591967
_cell_angle_alpha   89.99980319
_cell_angle_beta   90.00000000
_cell_angle_gamma   119.99996988
_symmetry_Int_Tables_number   1
_chemical_formula_structural   Mo3W(SeS3)2
_chemical_formula_sum   'Mo3 W1 Se2 S6'
_cell_volume   327.78318474
_cell_formula_units_Z   1
loop_
 _symmetry_equiv_pos_site_id
 _symmetry_equiv_pos_as_xyz
  1  'x, y, z'
loop_
 _atom_site_type_symbol
 _atom_site_label
 _atom_site_symmetry_multiplicity
 _atom_site_fract_x
 _atom_site_fract_y
 _atom_site_fract_z
 _atom_site_occupancy
  Mo  Mo0  1  0.33331190  0.66662380  0.09391142  1
  Mo  Mo1  1  0.33331166  0.66662333  0.46965083  1
  Mo  Mo2  1  0.66668764  0.33337527  0.28180610  1
  W  W3  1  0.66668994  0.33337988  0.65752411  1
  Se  Se4  1  0.33335157  0.66670414  0.32880535  1
  Se  Se5  1  0.33335420  0.66670940  0.23477729  1
  S  S6  1  0.33335412  0.66670925  0.70045828  1
  S  S7  1  0.66664702  0.33329304  0.05117418  1
  S  S8  1  0.66664583  0.33329066  0.42698587  1
  S  S9  1  0.66664745  0.33329390  0.13663799  1
  S  S10  1  0.66664596  0.33329092  0.51238917  1
  S  S11  1  0.33335270  0.66670640  0.61462741  1
