# generated using pymatgen
data_MoWSe3S
_symmetry_space_group_name_H-M   'P 1'
_cell_length_a   3.29014914
_cell_length_b   3.29015453
_cell_length_c   37.89818251
_cell_angle_alpha   89.99989783
_cell_angle_beta   90.00000000
_cell_angle_gamma   119.99994188
_symmetry_Int_Tables_number   1
_chemical_formula_structural   MoWSe3S
_chemical_formula_sum   'Mo2 W2 Se6 S2'
_cell_volume   355.28849952
_cell_formula_units_Z   2
loop_
 _symmetry_equiv_pos_site_id
 _symmetry_equiv_pos_as_xyz
  1  'x, y, z'
loop_
 _atom_site_type_symbol
 _atom_site_label
 _atom_site_symmetry_multiplicity
 _atom_site_fract_x
 _atom_site_fract_y
 _atom_site_fract_z
 _atom_site_occupancy
  Mo  Mo0  1  0.33330750  0.66661500  0.09391494  1
  Mo  Mo1  1  0.66668938  0.33337876  0.28178169  1
  W  W2  1  0.33330973  0.66661945  0.46964641  1
  W  W3  1  0.66668816  0.33337632  0.65752592  1
  Se  Se4  1  0.33335098  0.66670296  0.32630545  1
  Se  Se5  1  0.66664549  0.33328999  0.04942373  1
  Se  Se6  1  0.66663743  0.33327386  0.42492418  1
  Se  Se7  1  0.66664664  0.33329228  0.13842271  1
  Se  Se8  1  0.66664710  0.33329320  0.51443993  1
  Se  Se9  1  0.33337294  0.66674687  0.23730893  1
  S  S10  1  0.33335220  0.66670541  0.69818063  1
  S  S11  1  0.33335245  0.66670590  0.61687348  1
