# generated using pymatgen
data_Mo3W(SeS3)2
_symmetry_space_group_name_H-M   'P 1'
_cell_length_a   3.22118539
_cell_length_b   3.22119801
_cell_length_c   36.35981078
_cell_angle_alpha   89.99981988
_cell_angle_beta   90.00000000
_cell_angle_gamma   119.99987048
_symmetry_Int_Tables_number   1
_chemical_formula_structural   Mo3W(SeS3)2
_chemical_formula_sum   'Mo3 W1 Se2 S6'
_cell_volume   326.72770034
_cell_formula_units_Z   1
loop_
 _symmetry_equiv_pos_site_id
 _symmetry_equiv_pos_as_xyz
  1  'x, y, z'
loop_
 _atom_site_type_symbol
 _atom_site_label
 _atom_site_symmetry_multiplicity
 _atom_site_fract_x
 _atom_site_fract_y
 _atom_site_fract_z
 _atom_site_occupancy
  Mo  Mo0  1  0.33330951  0.66661901  0.09392234  1
  Mo  Mo1  1  0.33330901  0.66661803  0.46964143  1
  Mo  Mo2  1  0.66668861  0.33337721  0.28177149  1
  W  W3  1  0.66669344  0.33338688  0.65756311  1
  Se  Se4  1  0.66664771  0.33329442  0.42264102  1
  Se  Se5  1  0.66664585  0.33329071  0.51667706  1
  S  S6  1  0.33335593  0.66671286  0.32450641  1
  S  S7  1  0.33335041  0.66670181  0.70047704  1
  S  S8  1  0.66664590  0.33329080  0.05116639  1
  S  S9  1  0.66664548  0.33328996  0.13666813  1
  S  S10  1  0.33335159  0.66670418  0.23906479  1
  S  S11  1  0.33335657  0.66671414  0.61464880  1
