# generated using pymatgen
data_Mo2SeS3
_symmetry_space_group_name_H-M   'P 1'
_cell_length_a   3.22056631
_cell_length_b   3.22049011
_cell_length_c   36.37605019
_cell_angle_alpha   90.00014494
_cell_angle_beta   90.00000000
_cell_angle_gamma   120.00078278
_symmetry_Int_Tables_number   1
_chemical_formula_structural   Mo2SeS3
_chemical_formula_sum   'Mo4 Se2 S6'
_cell_volume   326.73598045
_cell_formula_units_Z   2
loop_
 _symmetry_equiv_pos_site_id
 _symmetry_equiv_pos_as_xyz
  1  'x, y, z'
loop_
 _atom_site_type_symbol
 _atom_site_label
 _atom_site_symmetry_multiplicity
 _atom_site_fract_x
 _atom_site_fract_y
 _atom_site_fract_z
 _atom_site_occupancy
  Mo  Mo0  1  0.33331087  0.66662174  0.09392928  1
  Mo  Mo1  1  0.33331219  0.66662439  0.46966067  1
  Mo  Mo2  1  0.66668664  0.33337328  0.28179718  1
  Mo  Mo3  1  0.66668768  0.33337536  0.65754144  1
  Se  Se4  1  0.66664733  0.33329365  0.42262804  1
  Se  Se5  1  0.66664273  0.33328447  0.51669311  1
  S  S6  1  0.33335745  0.66671590  0.32455650  1
  S  S7  1  0.33335739  0.66671578  0.70032667  1
  S  S8  1  0.66664249  0.33328399  0.05113216  1
  S  S9  1  0.66664540  0.33328979  0.13671152  1
  S  S10  1  0.33335358  0.66670816  0.23901994  1
  S  S11  1  0.33335624  0.66671349  0.61475150  1
