# generated using pymatgen
data_Li2Fe3F8
_symmetry_space_group_name_H-M   'P 1'
_cell_length_a   6.22814534
_cell_length_b   10.08059409
_cell_length_c   5.54247578
_cell_angle_alpha   93.59754897
_cell_angle_beta   88.71902280
_cell_angle_gamma   68.84861983
_symmetry_Int_Tables_number   1
_chemical_formula_structural   Li2Fe3F8
_chemical_formula_sum   'Li4 Fe6 F16'
_cell_volume   323.51429728
_cell_formula_units_Z   2
loop_
 _symmetry_equiv_pos_site_id
 _symmetry_equiv_pos_as_xyz
  1  'x, y, z'
loop_
 _atom_site_type_symbol
 _atom_site_label
 _atom_site_symmetry_multiplicity
 _atom_site_fract_x
 _atom_site_fract_y
 _atom_site_fract_z
 _atom_site_occupancy
  Li  Li0  1  0.95112007  0.83552971  0.70319435  1
  Li  Li1  1  0.23959788  0.83457151  0.20274363  1
  Li  Li2  1  0.75995234  0.16506718  0.79664023  1
  Li  Li3  1  0.04948410  0.16339872  0.29650320  1
  Fe  Fe4  1  0.60012064  0.53599779  0.75768654  1
  Fe  Fe5  1  0.86126056  0.53215500  0.25603431  1
  Fe  Fe6  1  0.13524685  0.46788654  0.74279702  1
  Fe  Fe7  1  0.39624818  0.46312407  0.24013498  1
  Fe  Fe8  1  0.35696520  0.99921346  0.75144295  1
  Fe  Fe9  1  0.64369505  0.99990395  0.24767415  1
  F  F10  1  0.68453851  0.88492737  0.90785291  1
  F  F11  1  0.44866243  0.88953158  0.39398785  1
  F  F12  1  0.20787445  0.86059065  0.86647034  1
  F  F13  1  0.95953362  0.86244502  0.37486988  1
  F  F14  1  0.29601845  0.59121777  0.57095995  1
  F  F15  1  0.09360767  0.59426599  0.07428940  1
  F  F16  1  0.82968229  0.62037719  0.60435110  1
  F  F17  1  0.53229746  0.61739687  0.10771881  1
  F  F18  1  0.46419365  0.38096742  0.89045413  1
  F  F19  1  0.16729587  0.37937165  0.39271652  1
  F  F20  1  0.90312075  0.40595885  0.92379979  1
  F  F21  1  0.70021041  0.40837748  0.42842431  1
  F  F22  1  0.04066777  0.13650153  0.62477046  1
  F  F23  1  0.79192678  0.13899271  0.13307988  1
  F  F24  1  0.55224291  0.10920360  0.60486282  1
  F  F25  1  0.31575814  0.11423639  0.09138747  1
