# generated using pymatgen
data_MoWSe3S
_symmetry_space_group_name_H-M   'P 1'
_cell_length_a   3.28623276
_cell_length_b   3.28618152
_cell_length_c   37.36587696
_cell_angle_alpha   90.00010137
_cell_angle_beta   90.00000000
_cell_angle_gamma   120.00051576
_symmetry_Int_Tables_number   1
_chemical_formula_structural   MoWSe3S
_chemical_formula_sum   'Mo2 W2 Se6 S2'
_cell_volume   349.45674248
_cell_formula_units_Z   2
loop_
 _symmetry_equiv_pos_site_id
 _symmetry_equiv_pos_as_xyz
  1  'x, y, z'
loop_
 _atom_site_type_symbol
 _atom_site_label
 _atom_site_symmetry_multiplicity
 _atom_site_fract_x
 _atom_site_fract_y
 _atom_site_fract_z
 _atom_site_occupancy
  Mo  Mo0  1  0.33330682  0.66661364  0.09392288  1
  Mo  Mo1  1  0.66669082  0.33338164  0.65754929  1
  W  W2  1  0.33331306  0.66662612  0.46964703  1
  W  W3  1  0.66669132  0.33338263  0.28179228  1
  Se  Se4  1  0.33335447  0.66670994  0.70267552  1
  Se  Se5  1  0.66663907  0.33327714  0.04879868  1
  Se  Se6  1  0.66664911  0.33329723  0.42425554  1
  Se  Se7  1  0.66664017  0.33327933  0.13904956  1
  Se  Se8  1  0.66664924  0.33329747  0.51505701  1
  Se  Se9  1  0.33335413  0.66670925  0.61241023  1
  S  S10  1  0.33335579  0.66671257  0.32305037  1
  S  S11  1  0.33335602  0.66671304  0.24053961  1
