# generated using pymatgen
data_MoWSe3S
_symmetry_space_group_name_H-M   'P 1'
_cell_length_a   3.28673050
_cell_length_b   3.28667199
_cell_length_c   37.35901404
_cell_angle_alpha   89.99950425
_cell_angle_beta   90.00000000
_cell_angle_gamma   120.00058886
_symmetry_Int_Tables_number   1
_chemical_formula_structural   MoWSe3S
_chemical_formula_sum   'Mo2 W2 Se6 S2'
_cell_volume   349.49737617
_cell_formula_units_Z   2
loop_
 _symmetry_equiv_pos_site_id
 _symmetry_equiv_pos_as_xyz
  1  'x, y, z'
loop_
 _atom_site_type_symbol
 _atom_site_label
 _atom_site_symmetry_multiplicity
 _atom_site_fract_x
 _atom_site_fract_y
 _atom_site_fract_z
 _atom_site_occupancy
  Mo  Mo0  1  0.33330615  0.66661230  0.09391793  1
  Mo  Mo1  1  0.33331394  0.66662788  0.46964080  1
  W  W2  1  0.66669254  0.33338507  0.28178728  1
  W  W3  1  0.66669224  0.33338449  0.65755229  1
  Se  Se4  1  0.33335690  0.66671480  0.70296010  1
  Se  Se5  1  0.66664207  0.33328315  0.04879169  1
  Se  Se6  1  0.66665185  0.33330271  0.42452662  1
  Se  Se7  1  0.66662227  0.33324354  0.13906117  1
  Se  Se8  1  0.66664903  0.33329706  0.51478365  1
  Se  Se9  1  0.33335599  0.66671299  0.61212162  1
  S  S10  1  0.33335877  0.66671855  0.32306032  1
  S  S11  1  0.33335824  0.66671748  0.24054453  1
