# generated using pymatgen
data_MoW3(Se3S)2
_symmetry_space_group_name_H-M   'P 1'
_cell_length_a   3.28695377
_cell_length_b   3.28689900
_cell_length_c   37.38653023
_cell_angle_alpha   90.00015255
_cell_angle_beta   90.00000000
_cell_angle_gamma   120.00055131
_symmetry_Int_Tables_number   1
_chemical_formula_structural   MoW3(Se3S)2
_chemical_formula_sum   'Mo1 W3 Se6 S2'
_cell_volume   349.80284327
_cell_formula_units_Z   1
loop_
 _symmetry_equiv_pos_site_id
 _symmetry_equiv_pos_as_xyz
  1  'x, y, z'
loop_
 _atom_site_type_symbol
 _atom_site_label
 _atom_site_symmetry_multiplicity
 _atom_site_fract_x
 _atom_site_fract_y
 _atom_site_fract_z
 _atom_site_occupancy
  Mo  Mo0  1  0.33330914  0.66661829  0.09392664  1
  W  W1  1  0.33331449  0.66662898  0.46964965  1
  W  W2  1  0.66669189  0.33338378  0.28179978  1
  W  W3  1  0.66668483  0.33336965  0.65754221  1
  Se  Se4  1  0.33335476  0.66671051  0.70292165  1
  Se  Se5  1  0.66664427  0.33328754  0.04882274  1
  Se  Se6  1  0.66664577  0.33329054  0.42427709  1
  Se  Se7  1  0.66664260  0.33328419  0.13903195  1
  Se  Se8  1  0.66664037  0.33327973  0.51502687  1
  Se  Se9  1  0.33335463  0.66671026  0.61215070  1
  S  S10  1  0.33335559  0.66671218  0.32302856  1
  S  S11  1  0.33336168  0.66672435  0.24057016  1
