# generated using pymatgen
data_MoWSeS3
_symmetry_space_group_name_H-M   'P 1'
_cell_length_a   3.22044311
_cell_length_b   3.22042419
_cell_length_c   36.36675303
_cell_angle_alpha   89.99981557
_cell_angle_beta   90.00000000
_cell_angle_gamma   120.00019440
_symmetry_Int_Tables_number   1
_chemical_formula_structural   MoWSeS3
_chemical_formula_sum   'Mo2 W2 Se2 S6'
_cell_volume   326.63522684
_cell_formula_units_Z   2
loop_
 _symmetry_equiv_pos_site_id
 _symmetry_equiv_pos_as_xyz
  1  'x, y, z'
loop_
 _atom_site_type_symbol
 _atom_site_label
 _atom_site_symmetry_multiplicity
 _atom_site_fract_x
 _atom_site_fract_y
 _atom_site_fract_z
 _atom_site_occupancy
  Mo  Mo0  1  0.33330954  0.66661909  0.46966824  1
  Mo  Mo1  1  0.66668782  0.33337565  0.28179721  1
  W  W2  1  0.33330827  0.66661654  0.09392130  1
  W  W3  1  0.66669255  0.33338509  0.65755767  1
  Se  Se4  1  0.66664855  0.33329611  0.42261125  1
  Se  Se5  1  0.66664291  0.33328482  0.51668969  1
  S  S6  1  0.33335240  0.66670579  0.32456075  1
  S  S7  1  0.33335322  0.66670744  0.70050645  1
  S  S8  1  0.66664397  0.33328695  0.05095108  1
  S  S9  1  0.66664286  0.33328472  0.13688253  1
  S  S10  1  0.33335315  0.66670730  0.23900155  1
  S  S11  1  0.33336476  0.66673051  0.61460029  1
