# generated using pymatgen
data_Ca2CoN2
_symmetry_space_group_name_H-M   'P 1'
_cell_length_a   3.56158468
_cell_length_b   5.03681530
_cell_length_c   6.60550876
_cell_angle_alpha   89.99999908
_cell_angle_beta   105.63080378
_cell_angle_gamma   134.99970645
_symmetry_Int_Tables_number   1
_chemical_formula_structural   Ca2CoN2
_chemical_formula_sum   'Ca2 Co1 N2'
_cell_volume   77.46885800
_cell_formula_units_Z   1
loop_
 _symmetry_equiv_pos_site_id
 _symmetry_equiv_pos_as_xyz
  1  'x, y, z'
loop_
 _atom_site_type_symbol
 _atom_site_label
 _atom_site_symmetry_multiplicity
 _atom_site_fract_x
 _atom_site_fract_y
 _atom_site_fract_z
 _atom_site_occupancy
  Ca  Ca0  1  0.69639019  0.34819459  0.19627030  1
  Ca  Ca1  1  0.30360981  0.65180541  0.80372970  1
  Co  Co2  1  -0.00000000  -0.00000000  0.50000000  1
  N  N3  1  0.28838662  0.14419281  0.78857600  1
  N  N4  1  0.71161338  0.85580719  0.21142400  1
