# generated using pymatgen
data_LiMg30AlO32
_symmetry_space_group_name_H-M   'P 1'
_cell_length_a   8.48698469
_cell_length_b   8.48933486
_cell_length_c   8.48933486
_cell_angle_alpha   90.00000000
_cell_angle_beta   90.00000000
_cell_angle_gamma   90.00000000
_symmetry_Int_Tables_number   1
_chemical_formula_structural   LiMg30AlO32
_chemical_formula_sum   'Li1 Mg30 Al1 O32'
_cell_volume   611.64685625
_cell_formula_units_Z   1
loop_
 _symmetry_equiv_pos_site_id
 _symmetry_equiv_pos_as_xyz
  1  'x, y, z'
loop_
 _atom_site_type_symbol
 _atom_site_label
 _atom_site_symmetry_multiplicity
 _atom_site_fract_x
 _atom_site_fract_y
 _atom_site_fract_z
 _atom_site_occupancy
  Li  Li0  1  0.00000000  0.50000000  0.50000000  1
  Mg  Mg1  1  0.00000000  0.00000000  0.50000000  1
  Mg  Mg2  1  0.00000000  0.50000000  0.00000000  1
  Mg  Mg3  1  0.50000000  0.00000000  0.00000000  1
  Mg  Mg4  1  0.50000000  0.00000000  0.50000000  1
  Mg  Mg5  1  0.50000000  0.50000000  0.00000000  1
  Mg  Mg6  1  0.50000000  0.50000000  0.50000000  1
  Mg  Mg7  1  0.00000000  0.25408699  0.25408699  1
  Mg  Mg8  1  0.00000000  0.25408699  0.74591301  1
  Mg  Mg9  1  0.00000000  0.74591301  0.25408699  1
  Mg  Mg10  1  0.00000000  0.74591301  0.74591301  1
  Mg  Mg11  1  0.50000000  0.25140489  0.25140489  1
  Mg  Mg12  1  0.50000000  0.25140489  0.74859511  1
  Mg  Mg13  1  0.50000000  0.74859511  0.25140489  1
  Mg  Mg14  1  0.50000000  0.74859511  0.74859511  1
  Mg  Mg15  1  0.24994035  0.00000000  0.25145084  1
  Mg  Mg16  1  0.24994035  0.00000000  0.74854916  1
  Mg  Mg17  1  0.24748238  0.50000000  0.25379487  1
  Mg  Mg18  1  0.24748238  0.50000000  0.74620513  1
  Mg  Mg19  1  0.75005965  0.00000000  0.25145084  1
  Mg  Mg20  1  0.75005965  0.00000000  0.74854916  1
  Mg  Mg21  1  0.75251762  0.50000000  0.25379487  1
  Mg  Mg22  1  0.75251762  0.50000000  0.74620513  1
  Mg  Mg23  1  0.24994035  0.25145084  -0.00000000  1
  Mg  Mg24  1  0.24748238  0.25379487  0.50000000  1
  Mg  Mg25  1  0.24994035  0.74854916  0.00000000  1
  Mg  Mg26  1  0.24748238  0.74620513  0.50000000  1
  Mg  Mg27  1  0.75005965  0.25145084  -0.00000000  1
  Mg  Mg28  1  0.75251762  0.25379487  0.50000000  1
  Mg  Mg29  1  0.75005965  0.74854916  -0.00000000  1
  Mg  Mg30  1  0.75251762  0.74620513  0.50000000  1
  Al  Al31  1  0.00000000  0.00000000  0.00000000  1
  O  O32  1  0.23571765  0.00000000  -0.00000000  1
  O  O33  1  0.24885276  0.00000000  0.50000000  1
  O  O34  1  0.24885276  0.50000000  0.00000000  1
  O  O35  1  0.25559206  0.50000000  0.50000000  1
  O  O36  1  0.76428235  0.00000000  0.00000000  1
  O  O37  1  0.75114724  0.00000000  0.50000000  1
  O  O38  1  0.75114724  0.50000000  -0.00000000  1
  O  O39  1  0.74440794  0.50000000  0.50000000  1
  O  O40  1  0.24979373  0.24938208  0.24938208  1
  O  O41  1  0.24979373  0.24938208  0.75061792  1
  O  O42  1  0.24979373  0.75061792  0.24938208  1
  O  O43  1  0.24979373  0.75061792  0.75061792  1
  O  O44  1  0.75020627  0.24938208  0.24938208  1
  O  O45  1  0.75020627  0.24938208  0.75061792  1
  O  O46  1  0.75020627  0.75061792  0.24938208  1
  O  O47  1  0.75020627  0.75061792  0.75061792  1
  O  O48  1  0.00000000  0.00000000  0.23323502  1
  O  O49  1  0.00000000  0.00000000  0.76676498  1
  O  O50  1  0.00000000  0.50000000  0.24085115  1
  O  O51  1  0.00000000  0.50000000  0.75914885  1
  O  O52  1  0.50000000  0.00000000  0.24686996  1
  O  O53  1  0.50000000  0.00000000  0.75313004  1
  O  O54  1  0.50000000  0.50000000  0.24797686  1
  O  O55  1  0.50000000  0.50000000  0.75202314  1
  O  O56  1  0.00000000  0.23323502  -0.00000000  1
  O  O57  1  0.00000000  0.24085115  0.50000000  1
  O  O58  1  0.00000000  0.76676498  0.00000000  1
  O  O59  1  0.00000000  0.75914885  0.50000000  1
  O  O60  1  0.50000000  0.24686996  -0.00000000  1
  O  O61  1  0.50000000  0.24797686  0.50000000  1
  O  O62  1  0.50000000  0.75313004  0.00000000  1
  O  O63  1  0.50000000  0.75202314  0.50000000  1
