# generated using pymatgen
data_TiZnMo(PO4)3
_symmetry_space_group_name_H-M   'P 1'
_cell_length_a   8.68758470
_cell_length_b   8.68758495
_cell_length_c   8.68758485
_cell_angle_alpha   60.45085458
_cell_angle_beta   60.45085598
_cell_angle_gamma   60.45086295
_symmetry_Int_Tables_number   1
_chemical_formula_structural   TiZnMo(PO4)3
_chemical_formula_sum   'Ti2 Zn2 Mo2 P6 O24'
_cell_volume   468.36707935
_cell_formula_units_Z   2
loop_
 _symmetry_equiv_pos_site_id
 _symmetry_equiv_pos_as_xyz
  1  'x, y, z'
loop_
 _atom_site_type_symbol
 _atom_site_label
 _atom_site_symmetry_multiplicity
 _atom_site_fract_x
 _atom_site_fract_y
 _atom_site_fract_z
 _atom_site_occupancy
  Ti  Ti0  1  0.14622191  0.14622191  0.14622191  1
  Ti  Ti1  1  0.64622191  0.64622191  0.64622191  1
  Zn  Zn2  1  0.00113474  0.00113474  0.00113474  1
  Zn  Zn3  1  0.50113474  0.50113474  0.50113474  1
  Mo  Mo4  1  0.35773696  0.35773696  0.35773696  1
  Mo  Mo5  1  0.85773696  0.85773696  0.85773696  1
  P  P6  1  0.04301653  0.44988235  0.75686233  1
  P  P7  1  0.44988235  0.75686233  0.04301653  1
  P  P8  1  0.75686233  0.04301653  0.44988235  1
  P  P9  1  0.25686233  0.94988235  0.54301653  1
  P  P10  1  0.54301653  0.25686233  0.94988235  1
  P  P11  1  0.94988235  0.54301653  0.25686233  1
  O  O12  1  0.09658557  0.50423828  0.32666453  1
  O  O13  1  0.32666453  0.09658557  0.50423828  1
  O  O14  1  0.05279562  0.25470867  0.91656378  1
  O  O15  1  0.50423828  0.32666453  0.09658557  1
  O  O16  1  0.00423828  0.59658557  0.82666453  1
  O  O17  1  0.23746020  0.43417163  0.60052892  1
  O  O18  1  0.25470867  0.91656378  0.05279562  1
  O  O19  1  0.43417163  0.60052892  0.23746020  1
  O  O20  1  0.19070414  0.00190866  0.37881420  1
  O  O21  1  0.60052892  0.23746020  0.43417163  1
  O  O22  1  0.10052892  0.93417163  0.73746020  1
  O  O23  1  0.37881420  0.19070414  0.00190866  1
  O  O24  1  0.59658557  0.82666453  0.00423828  1
  O  O25  1  0.91656378  0.05279562  0.25470867  1
  O  O26  1  0.41656378  0.75470867  0.55279562  1
  O  O27  1  0.82666453  0.00423828  0.59658557  1
  O  O28  1  0.55279562  0.41656378  0.75470867  1
  O  O29  1  0.73746020  0.10052892  0.93417163  1
  O  O30  1  0.75470867  0.55279562  0.41656378  1
  O  O31  1  0.00190866  0.37881420  0.19070414  1
  O  O32  1  0.50190866  0.69070414  0.87881420  1
  O  O33  1  0.93417163  0.73746020  0.10052892  1
  O  O34  1  0.69070414  0.87881420  0.50190866  1
  O  O35  1  0.87881420  0.50190866  0.69070414  1
