# generated using pymatgen
data_MgCoAs2O7
_symmetry_space_group_name_H-M   'P 1'
_cell_length_a   7.31030198
_cell_length_b   8.65191597
_cell_length_c   9.70597514
_cell_angle_alpha   90.00000000
_cell_angle_beta   113.87771926
_cell_angle_gamma   90.00000000
_symmetry_Int_Tables_number   1
_chemical_formula_structural   MgCoAs2O7
_chemical_formula_sum   'Mg4 Co4 As8 O28'
_cell_volume   561.34315793
_cell_formula_units_Z   4
loop_
 _symmetry_equiv_pos_site_id
 _symmetry_equiv_pos_as_xyz
  1  'x, y, z'
loop_
 _atom_site_type_symbol
 _atom_site_label
 _atom_site_symmetry_multiplicity
 _atom_site_fract_x
 _atom_site_fract_y
 _atom_site_fract_z
 _atom_site_occupancy
  Mg  Mg0  1  0.27560566  0.92145279  0.89502165  1
  Mg  Mg1  1  0.72439434  0.42145279  0.60497835  1
  Mg  Mg2  1  0.72439434  0.07854721  0.10497835  1
  Mg  Mg3  1  0.27560566  0.57854721  0.39502165  1
  Co  Co4  1  0.81946904  0.05400282  0.68407690  1
  Co  Co5  1  0.18053096  0.55400282  0.81592310  1
  Co  Co6  1  0.18053096  0.94599718  0.31592310  1
  Co  Co7  1  0.81946904  0.44599718  0.18407690  1
  As  As8  1  0.43296402  0.22685464  0.74949181  1
  As  As9  1  0.56703598  0.72685464  0.75050819  1
  As  As10  1  0.56703598  0.77314536  0.25050819  1
  As  As11  1  0.43296402  0.27314536  0.24949081  1
  As  As12  1  0.01598112  0.27812878  0.95794770  1
  As  As13  1  0.98401888  0.77812878  0.54205230  1
  As  As14  1  0.98401888  0.72187122  0.04205230  1
  As  As15  1  0.01598112  0.22187122  0.45794770  1
  O  O16  1  0.85751615  0.27044637  0.04819092  1
  O  O17  1  0.14248385  0.77044637  0.45180908  1
  O  O18  1  0.14248385  0.72955363  0.95180908  1
  O  O19  1  0.85751615  0.22955363  0.54819092  1
  O  O20  1  0.34706625  0.40427194  0.76361654  1
  O  O21  1  0.65293375  0.90427194  0.73638346  1
  O  O22  1  0.65293375  0.59572806  0.23638346  1
  O  O23  1  0.34706625  0.09572806  0.26361654  1
  O  O24  1  0.46373149  0.09995118  0.89220594  1
  O  O25  1  0.53626851  0.59995118  0.60779406  1
  O  O26  1  0.53626851  0.90004882  0.10779406  1
  O  O27  1  0.46373149  0.40004882  0.39220594  1
  O  O28  1  0.25017640  0.14187849  0.58073961  1
  O  O29  1  0.74982360  0.64187849  0.91926039  1
  O  O30  1  0.74982360  0.85812151  0.41926039  1
  O  O31  1  0.25017640  0.35812151  0.08073961  1
  O  O32  1  0.96128870  0.08157525  0.32293622  1
  O  O33  1  0.03871130  0.58157525  0.17706378  1
  O  O34  1  0.03871130  0.91842475  0.67706378  1
  O  O35  1  0.96128870  0.41842475  0.82293622  1
  O  O36  1  0.63585544  0.26374103  0.20493529  1
  O  O37  1  0.36414456  0.76374103  0.29506471  1
  O  O38  1  0.36414456  0.73625897  0.79506471  1
  O  O39  1  0.63585544  0.23625897  0.70493529  1
  O  O40  1  0.04694184  0.39829992  0.39153977  1
  O  O41  1  0.95305816  0.89829992  0.10846023  1
  O  O42  1  0.95305816  0.60170008  0.60846023  1
  O  O43  1  0.04694184  0.10170008  0.89153977  1
