# generated using pymatgen
data_MgNiAs2O7
_symmetry_space_group_name_H-M   'P 1'
_cell_length_a   7.25853992
_cell_length_b   8.59864044
_cell_length_c   9.67994703
_cell_angle_alpha   90.00000000
_cell_angle_beta   113.37493689
_cell_angle_gamma   90.00000000
_symmetry_Int_Tables_number   1
_chemical_formula_structural   MgNiAs2O7
_chemical_formula_sum   'Mg4 Ni4 As8 O28'
_cell_volume   554.57563046
_cell_formula_units_Z   4
loop_
 _symmetry_equiv_pos_site_id
 _symmetry_equiv_pos_as_xyz
  1  'x, y, z'
loop_
 _atom_site_type_symbol
 _atom_site_label
 _atom_site_symmetry_multiplicity
 _atom_site_fract_x
 _atom_site_fract_y
 _atom_site_fract_z
 _atom_site_occupancy
  Mg  Mg0  1  0.26911554  0.92587838  0.89422873  1
  Mg  Mg1  1  0.73088446  0.42587838  0.60577127  1
  Mg  Mg2  1  0.73088446  0.07412162  0.10577127  1
  Mg  Mg3  1  0.26911554  0.57412162  0.39422873  1
  Ni  Ni4  1  0.81689385  0.06066578  0.68540416  1
  Ni  Ni5  1  0.18310615  0.56066578  0.81459584  1
  Ni  Ni6  1  0.18310615  0.93933422  0.31459584  1
  Ni  Ni7  1  0.81689385  0.43933422  0.18540416  1
  As  As8  1  0.43724576  0.22770337  0.75207543  1
  As  As9  1  0.56275424  0.72770337  0.74792457  1
  As  As10  1  0.56275424  0.77229663  0.24792457  1
  As  As11  1  0.43724576  0.27229663  0.25207443  1
  As  As12  1  0.02417898  0.28006266  0.95986595  1
  As  As13  1  0.97582102  0.78006266  0.54013405  1
  As  As14  1  0.97582102  0.71993734  0.04013405  1
  As  As15  1  0.02417898  0.21993734  0.45986595  1
  O  O16  1  0.86693886  0.26872208  0.05260107  1
  O  O17  1  0.13306114  0.76872208  0.44739893  1
  O  O18  1  0.13306114  0.73127792  0.94739893  1
  O  O19  1  0.86693886  0.23127792  0.55260107  1
  O  O20  1  0.35516826  0.40464048  0.77233271  1
  O  O21  1  0.64483174  0.90464048  0.72766729  1
  O  O22  1  0.64483174  0.59535952  0.22766729  1
  O  O23  1  0.35516826  0.09535952  0.27233271  1
  O  O24  1  0.46842011  0.09846418  0.89348199  1
  O  O25  1  0.53157989  0.59846418  0.60651801  1
  O  O26  1  0.53157989  0.90153582  0.10651801  1
  O  O27  1  0.46842011  0.40153582  0.39348199  1
  O  O28  1  0.26001241  0.14292276  0.58182556  1
  O  O29  1  0.73998759  0.64292276  0.91817444  1
  O  O30  1  0.73998759  0.85707724  0.41817444  1
  O  O31  1  0.26001241  0.35707724  0.08182556  1
  O  O32  1  0.96867868  0.07694076  0.32712871  1
  O  O33  1  0.03132132  0.57694076  0.17287129  1
  O  O34  1  0.03132132  0.92305924  0.67287129  1
  O  O35  1  0.96867868  0.42305924  0.82712871  1
  O  O36  1  0.64364631  0.26190069  0.20798184  1
  O  O37  1  0.35635369  0.76190069  0.29201816  1
  O  O38  1  0.35635369  0.73809931  0.79201816  1
  O  O39  1  0.64364631  0.23809931  0.70798184  1
  O  O40  1  0.05110159  0.39740642  0.39120514  1
  O  O41  1  0.94889841  0.89740642  0.10879486  1
  O  O42  1  0.94889841  0.60259358  0.60879486  1
  O  O43  1  0.05110159  0.10259358  0.89120514  1
