# generated using pymatgen
data_MgMn(GeO3)2
_symmetry_space_group_name_H-M   'P 1'
_cell_length_a   5.50444807
_cell_length_b   9.26841612
_cell_length_c   9.96198821
_cell_angle_alpha   90.00000000
_cell_angle_beta   104.16404406
_cell_angle_gamma   90.00000000
_symmetry_Int_Tables_number   1
_chemical_formula_structural   MgMn(GeO3)2
_chemical_formula_sum   'Mg4 Mn4 Ge8 O24'
_cell_volume   492.78505809
_cell_formula_units_Z   4
loop_
 _symmetry_equiv_pos_site_id
 _symmetry_equiv_pos_as_xyz
  1  'x, y, z'
loop_
 _atom_site_type_symbol
 _atom_site_label
 _atom_site_symmetry_multiplicity
 _atom_site_fract_x
 _atom_site_fract_y
 _atom_site_fract_z
 _atom_site_occupancy
  Mg  Mg0  1  0.44422801  0.48675029  0.24510146  1
  Mg  Mg1  1  0.05577199  0.98675029  0.75489854  1
  Mg  Mg2  1  0.55577199  0.51324971  0.75489854  1
  Mg  Mg3  1  0.94422801  0.01324971  0.24510146  1
  Mn  Mn4  1  0.95375310  0.65291334  0.24358806  1
  Mn  Mn5  1  0.54624690  0.15291334  0.75641194  1
  Mn  Mn6  1  0.04624690  0.34708666  0.75641194  1
  Mn  Mn7  1  0.45375310  0.84708666  0.24358806  1
  Ge  Ge8  1  0.82039023  0.33715784  0.05675051  1
  Ge  Ge9  1  0.67960977  0.83715784  0.94324949  1
  Ge  Ge10  1  0.17960977  0.66284216  0.94324949  1
  Ge  Ge11  1  0.32039023  0.16284216  0.05675051  1
  Ge  Ge12  1  0.24501446  0.34276158  0.45833657  1
  Ge  Ge13  1  0.25498554  0.84276158  0.54166343  1
  Ge  Ge14  1  0.75498554  0.65723842  0.54166343  1
  Ge  Ge15  1  0.74501446  0.15723842  0.45833657  1
  O  O16  1  0.50249515  0.28401688  0.38682866  1
  O  O17  1  0.99750485  0.78401688  0.61317134  1
  O  O18  1  0.49750485  0.71598312  0.61317134  1
  O  O19  1  0.00249515  0.21598312  0.38682866  1
  O  O20  1  0.16426051  0.32221911  0.10727721  1
  O  O21  1  0.33573949  0.82221911  0.89272379  1
  O  O22  1  0.83573949  0.67778089  0.89272379  1
  O  O23  1  0.66426051  0.17778089  0.10727721  1
  O  O24  1  0.70198199  0.99239314  0.37280533  1
  O  O25  1  0.79801801  0.49239314  0.62719467  1
  O  O26  1  0.29801801  0.00760686  0.62719467  1
  O  O27  1  0.20198199  0.50760686  0.37280533  1
  O  O28  1  0.21883458  0.02201993  0.14252429  1
  O  O29  1  0.28116542  0.52201993  0.85747571  1
  O  O30  1  0.78116542  0.97798007  0.85747571  1
  O  O31  1  0.71883458  0.47798007  0.14252429  1
  O  O32  1  0.75082747  0.34378077  0.87424569  1
  O  O33  1  0.74917253  0.84378077  0.12575431  1
  O  O34  1  0.24917253  0.65621923  0.12575431  1
  O  O35  1  0.25082747  0.15621923  0.87424569  1
  O  O36  1  0.32957590  0.34511225  0.63940236  1
  O  O37  1  0.17042410  0.84511225  0.36059764  1
  O  O38  1  0.67042410  0.65488775  0.36059764  1
  O  O39  1  0.82957590  0.15488775  0.63940236  1
