# generated using pymatgen
data_CaFeP2O7
_symmetry_space_group_name_H-M   'P 1'
_cell_length_a   6.24420680
_cell_length_b   6.61088104
_cell_length_c   7.30618751
_cell_angle_alpha   82.76889134
_cell_angle_beta   88.00115758
_cell_angle_gamma   68.76578791
_symmetry_Int_Tables_number   1
_chemical_formula_structural   CaFeP2O7
_chemical_formula_sum   'Ca2 Fe2 P4 O14'
_cell_volume   278.86655758
_cell_formula_units_Z   2
loop_
 _symmetry_equiv_pos_site_id
 _symmetry_equiv_pos_as_xyz
  1  'x, y, z'
loop_
 _atom_site_type_symbol
 _atom_site_label
 _atom_site_symmetry_multiplicity
 _atom_site_fract_x
 _atom_site_fract_y
 _atom_site_fract_z
 _atom_site_occupancy
  Ca  Ca0  1  0.30053636  0.70973127  0.63998903  1
  Ca  Ca1  1  0.70021176  0.29039832  0.36064597  1
  Fe  Fe2  1  0.25566102  0.12883066  0.19103310  1
  Fe  Fe3  1  0.74546111  0.87079271  0.80552647  1
  P  P4  1  0.16621289  0.65850195  0.11824219  1
  P  P5  1  0.83386420  0.34126025  0.88217496  1
  P  P6  1  0.23792731  0.21708493  0.61875750  1
  P  P7  1  0.76153363  0.78311699  0.38095420  1
  O  O8  1  0.08061722  0.73085377  0.91712833  1
  O  O9  1  0.91959739  0.26897979  0.08335872  1
  O  O10  1  0.25255569  0.81747834  0.19670045  1
  O  O11  1  0.74677235  0.18265551  0.80406897  1
  O  O12  1  0.33280704  0.41920918  0.14670399  1
  O  O13  1  0.66737516  0.58055309  0.85405014  1
  O  O14  1  0.63656011  0.62998980  0.45040906  1
  O  O15  1  0.36299307  0.37022491  0.54932016  1
  O  O16  1  0.10609305  0.16675047  0.46627683  1
  O  O17  1  0.89265493  0.83310198  0.53424718  1
  O  O18  1  0.05854400  0.34824949  0.76369539  1
  O  O19  1  0.60589091  0.00042779  0.27525574  1
  O  O20  1  0.39438961  0.00005442  0.72451959  1
  O  O21  1  0.94174518  0.65175338  0.23694202  1
