# generated using pymatgen
data_TiZnFe(PO4)3
_symmetry_space_group_name_H-M   'P 1'
_cell_length_a   8.55370576
_cell_length_b   8.55370609
_cell_length_c   8.55370587
_cell_angle_alpha   60.50036067
_cell_angle_beta   60.50036175
_cell_angle_gamma   60.50036713
_symmetry_Int_Tables_number   1
_chemical_formula_structural   TiZnFe(PO4)3
_chemical_formula_sum   'Ti2 Zn2 Fe2 P6 O24'
_cell_volume   447.53957166
_cell_formula_units_Z   2
loop_
 _symmetry_equiv_pos_site_id
 _symmetry_equiv_pos_as_xyz
  1  'x, y, z'
loop_
 _atom_site_type_symbol
 _atom_site_label
 _atom_site_symmetry_multiplicity
 _atom_site_fract_x
 _atom_site_fract_y
 _atom_site_fract_z
 _atom_site_occupancy
  Ti  Ti0  1  0.14466509  0.14466509  0.14466509  1
  Ti  Ti1  1  0.64466509  0.64466509  0.64466509  1
  Zn  Zn2  1  0.99755087  0.99755087  0.99755087  1
  Zn  Zn3  1  0.49755087  0.49755087  0.49755087  1
  Fe  Fe4  1  0.35520260  0.35520260  0.35520260  1
  Fe  Fe5  1  0.85520260  0.85520260  0.85520260  1
  P  P6  1  0.04558211  0.45527959  0.75193596  1
  P  P7  1  0.45527959  0.75193596  0.04558211  1
  P  P8  1  0.75193596  0.04558211  0.45527959  1
  P  P9  1  0.25193596  0.95527959  0.54558211  1
  P  P10  1  0.54558211  0.25193596  0.95527959  1
  P  P11  1  0.95527959  0.54558211  0.25193596  1
  O  O12  1  0.11003594  0.50379873  0.31903560  1
  O  O13  1  0.31903560  0.11003594  0.50379873  1
  O  O14  1  0.05503220  0.25832301  0.91440616  1
  O  O15  1  0.50379873  0.31903560  0.11003594  1
  O  O16  1  0.00379873  0.61003594  0.81903560  1
  O  O17  1  0.24024518  0.43826667  0.58980025  1
  O  O18  1  0.25832301  0.91440616  0.05503220  1
  O  O19  1  0.43826667  0.58980025  0.24024518  1
  O  O20  1  0.18814618  0.00252559  0.38016727  1
  O  O21  1  0.58980025  0.24024518  0.43826667  1
  O  O22  1  0.08980025  0.93826667  0.74024518  1
  O  O23  1  0.38016727  0.18814618  0.00252559  1
  O  O24  1  0.61003594  0.81903560  0.00379873  1
  O  O25  1  0.91440616  0.05503220  0.25832301  1
  O  O26  1  0.41440616  0.75832301  0.55503220  1
  O  O27  1  0.81903560  0.00379873  0.61003594  1
  O  O28  1  0.55503220  0.41440616  0.75832301  1
  O  O29  1  0.74024518  0.08980025  0.93826667  1
  O  O30  1  0.75832301  0.55503220  0.41440616  1
  O  O31  1  0.00252559  0.38016727  0.18814618  1
  O  O32  1  0.50252559  0.68814618  0.88016727  1
  O  O33  1  0.93826667  0.74024518  0.08980025  1
  O  O34  1  0.68814618  0.88016727  0.50252559  1
  O  O35  1  0.88016727  0.50252559  0.68814618  1
