# generated using pymatgen
data_FeOF
_symmetry_space_group_name_H-M   'P 1'
_cell_length_a   14.18401431
_cell_length_b   4.71260938
_cell_length_c   3.10394081
_cell_angle_alpha   90.00000000
_cell_angle_beta   90.00000000
_cell_angle_gamma   89.63311874
_symmetry_Int_Tables_number   1
_chemical_formula_structural   FeOF
_chemical_formula_sum   'Fe6 O6 F6'
_cell_volume   207.47469337
_cell_formula_units_Z   6
loop_
 _symmetry_equiv_pos_site_id
 _symmetry_equiv_pos_as_xyz
  1  'x, y, z'
loop_
 _atom_site_type_symbol
 _atom_site_label
 _atom_site_symmetry_multiplicity
 _atom_site_fract_x
 _atom_site_fract_y
 _atom_site_fract_z
 _atom_site_occupancy
  Fe  Fe0  1  0.00951770  0.99112676  -0.00000000  1
  Fe  Fe1  1  0.15036026  0.48876704  0.50000000  1
  Fe  Fe2  1  0.33559350  0.00068069  0.00000000  1
  Fe  Fe3  1  0.52048924  0.51160863  0.50000000  1
  Fe  Fe4  1  0.66789824  0.00228717  -0.00000000  1
  Fe  Fe5  1  0.81633407  0.49388923  0.50000000  1
  O  O6  1  0.06328508  0.80584843  0.50000000  1
  O  O7  1  0.10009901  0.30111690  0.00000000  1
  O  O8  1  0.56728087  0.70050085  0.00000000  1
  O  O9  1  0.60290078  0.18903672  0.50000000  1
  O  O10  1  0.73153628  0.81342650  0.50000000  1
  O  O11  1  0.76766531  0.30604648  0.00000000  1
  F  F12  1  0.23240616  0.69248804  0.00000000  1
  F  F13  1  0.26684041  0.21419252  0.50000000  1
  F  F14  1  0.40139053  0.78301730  0.50000000  1
  F  F15  1  0.43587241  0.31052074  0.00000000  1
  F  F16  1  0.89787793  0.69669481  0.00000000  1
  F  F17  1  0.93265022  0.19875220  0.50000000  1
