# generated using pymatgen
data_TiZnCr(PO4)3
_symmetry_space_group_name_H-M   'P 1'
_cell_length_a   8.54455853
_cell_length_b   8.54455874
_cell_length_c   8.54455876
_cell_angle_alpha   60.37306873
_cell_angle_beta   60.37306840
_cell_angle_gamma   60.37307141
_symmetry_Int_Tables_number   1
_chemical_formula_structural   TiZnCr(PO4)3
_chemical_formula_sum   'Ti2 Zn2 Cr2 P6 O24'
_cell_volume   444.83939351
_cell_formula_units_Z   2
loop_
 _symmetry_equiv_pos_site_id
 _symmetry_equiv_pos_as_xyz
  1  'x, y, z'
loop_
 _atom_site_type_symbol
 _atom_site_label
 _atom_site_symmetry_multiplicity
 _atom_site_fract_x
 _atom_site_fract_y
 _atom_site_fract_z
 _atom_site_occupancy
  Ti  Ti0  1  0.14415197  0.14415197  0.14415197  1
  Ti  Ti1  1  0.64415197  0.64415197  0.64415197  1
  Zn  Zn2  1  0.99827126  0.99827126  0.99827126  1
  Zn  Zn3  1  0.49827126  0.49827126  0.49827126  1
  Cr  Cr4  1  0.35766486  0.35766486  0.35766486  1
  Cr  Cr5  1  0.85766486  0.85766486  0.85766486  1
  P  P6  1  0.04451348  0.45734147  0.75025463  1
  P  P7  1  0.45734147  0.75025463  0.04451348  1
  P  P8  1  0.75025463  0.04451348  0.45734147  1
  P  P9  1  0.25025463  0.95734147  0.54451348  1
  P  P10  1  0.54451348  0.25025463  0.95734147  1
  P  P11  1  0.95734147  0.54451348  0.25025463  1
  O  O12  1  0.11358447  0.50673694  0.31309201  1
  O  O13  1  0.31309201  0.11358447  0.50673694  1
  O  O14  1  0.05430844  0.25975852  0.91401357  1
  O  O15  1  0.50673694  0.31309201  0.11358447  1
  O  O16  1  0.00673694  0.61358447  0.81309201  1
  O  O17  1  0.24058105  0.43869767  0.58791491  1
  O  O18  1  0.25975852  0.91401357  0.05430844  1
  O  O19  1  0.43869767  0.58791491  0.24058105  1
  O  O20  1  0.18730627  0.00170592  0.38010055  1
  O  O21  1  0.58791491  0.24058105  0.43869767  1
  O  O22  1  0.08791491  0.93869767  0.74058105  1
  O  O23  1  0.38010055  0.18730627  0.00170592  1
  O  O24  1  0.61358447  0.81309201  0.00673694  1
  O  O25  1  0.91401357  0.05430844  0.25975852  1
  O  O26  1  0.41401357  0.75975852  0.55430844  1
  O  O27  1  0.81309201  0.00673694  0.61358447  1
  O  O28  1  0.55430844  0.41401357  0.75975852  1
  O  O29  1  0.74058105  0.08791491  0.93869767  1
  O  O30  1  0.75975852  0.55430844  0.41401357  1
  O  O31  1  0.00170592  0.38010055  0.18730627  1
  O  O32  1  0.50170592  0.68730627  0.88010055  1
  O  O33  1  0.93869767  0.74058105  0.08791491  1
  O  O34  1  0.68730627  0.88010055  0.50170592  1
  O  O35  1  0.88010055  0.50170592  0.68730627  1
