# generated using pymatgen
data_Mg2Ta2VO8
_symmetry_space_group_name_H-M   'P 1'
_cell_length_a   5.23882528
_cell_length_b   6.02339328
_cell_length_c   10.09320568
_cell_angle_alpha   107.34283069
_cell_angle_beta   90.16826346
_cell_angle_gamma   90.00219674
_symmetry_Int_Tables_number   1
_chemical_formula_structural   Mg2Ta2VO8
_chemical_formula_sum   'Mg4 Ta4 V2 O16'
_cell_volume   304.01535189
_cell_formula_units_Z   2
loop_
 _symmetry_equiv_pos_site_id
 _symmetry_equiv_pos_as_xyz
  1  'x, y, z'
loop_
 _atom_site_type_symbol
 _atom_site_label
 _atom_site_symmetry_multiplicity
 _atom_site_fract_x
 _atom_site_fract_y
 _atom_site_fract_z
 _atom_site_occupancy
  Mg  Mg0  1  0.75541691  0.41477670  0.54683865  1
  Mg  Mg1  1  0.74545890  0.86783178  0.45334305  1
  Mg  Mg2  1  0.24545683  0.58129611  0.45294483  1
  Mg  Mg3  1  0.25537201  0.12828049  0.54647191  1
  Ta  Ta4  1  0.74447354  0.27832674  0.23494118  1
  Ta  Ta5  1  0.75605857  0.04336182  0.76497614  1
  Ta  Ta6  1  0.25609992  0.71795916  0.76481256  1
  Ta  Ta7  1  0.24456372  0.95286077  0.23486632  1
  V  V8  1  0.75018644  0.64552990  0.99987215  1
  V  V9  1  0.25027214  0.35085554  0.99995272  1
  O  O10  1  0.07757966  0.18055789  0.14554255  1
  O  O11  1  0.42300487  0.03481565  0.85441422  1
  O  O12  1  0.92294556  0.81561791  0.85423962  1
  O  O13  1  0.57754075  0.96155504  0.14532438  1
  O  O14  1  0.59738057  0.43070111  0.11972196  1
  O  O15  1  0.90306379  0.31074132  0.88037251  1
  O  O16  1  0.40308628  0.56575886  0.88016325  1
  O  O17  1  0.09734947  0.68558504  0.11947181  1
  O  O18  1  0.45481062  0.28890880  0.37297188  1
  O  O19  1  0.04582437  0.91625582  0.62688243  1
  O  O20  1  0.38040007  0.83711926  0.38416862  1
  O  O21  1  0.12070925  0.45295541  0.61542753  1
  O  O22  1  0.62045571  0.15891425  0.61555205  1
  O  O23  1  0.88010444  0.54314191  0.38439859  1
  O  O24  1  0.95500883  0.07990603  0.37299327  1
  O  O25  1  0.54592078  0.70720867  0.62682082  1
