# generated using pymatgen
data_FeCo3O8
_symmetry_space_group_name_H-M   'P 1'
_cell_length_a   8.03867723
_cell_length_b   8.11151589
_cell_length_c   8.15851319
_cell_angle_alpha   89.71692872
_cell_angle_beta   89.98536238
_cell_angle_gamma   89.66595375
_symmetry_Int_Tables_number   1
_chemical_formula_structural   FeCo3O8
_chemical_formula_sum   'Fe4 Co12 O32'
_cell_volume   531.96730594
_cell_formula_units_Z   4
loop_
 _symmetry_equiv_pos_site_id
 _symmetry_equiv_pos_as_xyz
  1  'x, y, z'
loop_
 _atom_site_type_symbol
 _atom_site_label
 _atom_site_symmetry_multiplicity
 _atom_site_fract_x
 _atom_site_fract_y
 _atom_site_fract_z
 _atom_site_occupancy
  Fe  Fe0  1  0.12644174  0.87649506  0.37628621  1
  Fe  Fe1  1  0.37621189  0.12644357  0.87505495  1
  Fe  Fe2  1  0.62657769  0.62610311  0.62230504  1
  Fe  Fe3  1  0.87649219  0.37536872  0.12663328  1
  Co  Co4  1  0.12026177  0.12750366  0.62645457  1
  Co  Co5  1  0.12444905  0.37962876  0.87154413  1
  Co  Co6  1  0.12821425  0.62687222  0.11886914  1
  Co  Co7  1  0.36987309  0.37393406  0.61738371  1
  Co  Co8  1  0.37493837  0.61736771  0.36777283  1
  Co  Co9  1  0.37599371  0.87049979  0.12315392  1
  Co  Co10  1  0.61752793  0.36803357  0.37610745  1
  Co  Co11  1  0.62653529  0.12007842  0.12967657  1
  Co  Co12  1  0.63147568  0.87534410  0.87981480  1
  Co  Co13  1  0.86891320  0.12293908  0.37927772  1
  Co  Co14  1  0.87514429  0.88210411  0.63440964  1
  Co  Co15  1  0.87980723  0.63288938  0.87622849  1
  O  O16  1  0.10812971  0.11410320  0.39495335  1
  O  O17  1  0.10724294  0.90011708  0.62616294  1
  O  O18  1  0.11583221  0.60958491  0.88527757  1
  O  O19  1  0.13604678  0.14461439  0.85896167  1
  O  O20  1  0.11437515  0.39245744  0.10776001  1
  O  O21  1  0.13699169  0.35993770  0.63709600  1
  O  O22  1  0.13899611  0.64010038  0.35434471  1
  O  O23  1  0.14888363  0.85626515  0.12057312  1
  O  O24  1  0.35937873  0.13883262  0.64034320  1
  O  O25  1  0.35791516  0.36287269  0.85643078  1
  O  O26  1  0.36261994  0.63504453  0.13684714  1
  O  O27  1  0.37397681  0.60195820  0.59634521  1
  O  O28  1  0.36688904  0.85655199  0.35216570  1
  O  O29  1  0.38335828  0.38275714  0.38447946  1
  O  O30  1  0.39003661  0.11009753  0.10876050  1
  O  O31  1  0.39113739  0.89041580  0.89055098  1
  O  O32  1  0.60060149  0.37640301  0.60231973  1
  O  O33  1  0.60463588  0.59767390  0.37515948  1
  O  O34  1  0.61040601  0.88944298  0.11241117  1
  O  O35  1  0.63693151  0.35166092  0.14208814  1
  O  O36  1  0.61263538  0.11047444  0.89209302  1
  O  O37  1  0.63524315  0.13561598  0.36358926  1
  O  O38  1  0.64401181  0.87359572  0.65231194  1
  O  O39  1  0.64999158  0.64730888  0.87315466  1
  O  O40  1  0.85790046  0.35286164  0.36336478  1
  O  O41  1  0.85450722  0.12044720  0.14933983  1
  O  O42  1  0.86419791  0.86611825  0.86730330  1
  O  O43  1  0.88529733  0.89319846  0.39851229  1
  O  O44  1  0.87649620  0.65232063  0.64740622  1
  O  O45  1  0.88486731  0.11487274  0.61409474  1
  O  O46  1  0.89299095  0.39402018  0.88916743  1
  O  O47  1  0.89862131  0.62680800  0.10580022  1
