# generated using pymatgen
data_CaLaMnCrO6
_symmetry_space_group_name_H-M   'P 1'
_cell_length_a   5.46238269
_cell_length_b   5.49284534
_cell_length_c   7.72626486
_cell_angle_alpha   90.00000000
_cell_angle_beta   90.09810812
_cell_angle_gamma   90.00000000
_symmetry_Int_Tables_number   1
_chemical_formula_structural   CaLaMnCrO6
_chemical_formula_sum   'Ca2 La2 Mn2 Cr2 O12'
_cell_volume   231.81869089
_cell_formula_units_Z   2
loop_
 _symmetry_equiv_pos_site_id
 _symmetry_equiv_pos_as_xyz
  1  'x, y, z'
loop_
 _atom_site_type_symbol
 _atom_site_label
 _atom_site_symmetry_multiplicity
 _atom_site_fract_x
 _atom_site_fract_y
 _atom_site_fract_z
 _atom_site_occupancy
  Ca  Ca0  1  0.49055282  0.45876939  0.74994915  1
  Ca  Ca1  1  0.99055282  0.04123061  0.24994915  1
  La  La2  1  0.00647839  0.96959521  0.75005052  1
  La  La3  1  0.50647839  0.53040479  0.25005052  1
  Mn  Mn4  1  0.50038342  0.99982965  0.00065518  1
  Mn  Mn5  1  0.00038342  0.50017035  0.50065518  1
  Cr  Cr6  1  0.50026771  0.99917961  0.49919482  1
  Cr  Cr7  1  0.00026771  0.50082039  0.99919482  1
  O  O8  1  0.07212337  0.48086729  0.25484395  1
  O  O9  1  0.22155173  0.21259288  0.96133193  1
  O  O10  1  0.21158487  0.22073138  0.53936610  1
  O  O11  1  0.29409269  0.71687540  0.95748189  1
  O  O12  1  0.28347375  0.70752392  0.54213891  1
  O  O13  1  0.41949025  0.98482848  0.24498755  1
  O  O14  1  0.57212337  0.01913271  0.75484395  1
  O  O15  1  0.72155173  0.28740712  0.46133193  1
  O  O16  1  0.71158487  0.27926862  0.03936610  1
  O  O17  1  0.79409269  0.78312460  0.45748189  1
  O  O18  1  0.78347375  0.79247608  0.04213891  1
  O  O19  1  0.91949025  0.51517152  0.74498755  1
