# generated using pymatgen
data_BaMgCrF7
_symmetry_space_group_name_H-M   'P 1'
_cell_length_a   5.62860707
_cell_length_b   9.72047799
_cell_length_c   9.95709229
_cell_angle_alpha   90.00046111
_cell_angle_beta   89.99995497
_cell_angle_gamma   93.12944193
_symmetry_Int_Tables_number   1
_chemical_formula_structural   BaMgCrF7
_chemical_formula_sum   'Ba4 Mg4 Cr4 F28'
_cell_volume   543.96750923
_cell_formula_units_Z   4
loop_
 _symmetry_equiv_pos_site_id
 _symmetry_equiv_pos_as_xyz
  1  'x, y, z'
loop_
 _atom_site_type_symbol
 _atom_site_label
 _atom_site_symmetry_multiplicity
 _atom_site_fract_x
 _atom_site_fract_y
 _atom_site_fract_z
 _atom_site_occupancy
  Ba  Ba0  1  0.26291322  0.49908648  0.32250180  1
  Ba  Ba1  1  0.73709902  0.00092872  0.82250084  1
  Ba  Ba2  1  0.73708678  0.50091352  0.67749820  1
  Ba  Ba3  1  0.26290098  0.99907128  0.17749916  1
  Mg  Mg4  1  0.69473325  0.81076215  0.39547232  1
  Mg  Mg5  1  0.30526961  0.68923903  0.89546866  1
  Mg  Mg6  1  0.69473039  0.31076097  0.10453134  1
  Mg  Mg7  1  0.30526675  0.18923785  0.60452768  1
  Cr  Cr8  1  0.19381072  0.81307000  0.61270003  1
  Cr  Cr9  1  0.80618928  0.18693000  0.38729997  1
  Cr  Cr10  1  0.19379413  0.31309547  0.88731650  1
  Cr  Cr11  1  0.80620587  0.68690453  0.11268350  1
  F  F12  1  0.11149679  0.12585027  0.44833400  1
  F  F13  1  0.36932025  0.36852990  0.04882607  1
  F  F14  1  0.47194938  0.75053230  0.71156014  1
  F  F15  1  0.52805062  0.24946770  0.28843986  1
  F  F16  1  0.88805545  0.36651930  0.45700635  1
  F  F17  1  0.25949379  0.49890272  0.81037221  1
  F  F18  1  0.02781293  0.75250086  0.77872199  1
  F  F19  1  0.11193562  0.13346813  0.95701423  1
  F  F20  1  0.36931251  0.86852441  0.45118548  1
  F  F21  1  0.52805842  0.74946861  0.21155741  1
  F  F22  1  0.11152205  0.62584786  0.05165992  1
  F  F23  1  0.88850321  0.87414973  0.55166600  1
  F  F24  1  0.97219253  0.74750377  0.27871656  1
  F  F25  1  0.38626021  0.87300646  0.95745468  1
  F  F26  1  0.11194455  0.63348070  0.54299465  1
  F  F27  1  0.88806438  0.86653187  0.04298477  1
  F  F28  1  0.97218707  0.24749914  0.22127801  1
  F  F29  1  0.88847795  0.37415214  0.94834008  1
  F  F30  1  0.61374536  0.62699864  0.45745645  1
  F  F31  1  0.63067975  0.63147010  0.95117393  1
  F  F32  1  0.61373979  0.12699354  0.04254532  1
  F  F33  1  0.02780747  0.25249623  0.72128344  1
  F  F34  1  0.38625464  0.37300136  0.54254355  1
  F  F35  1  0.74049932  0.00109747  0.31036976  1
  F  F36  1  0.74050621  0.50109728  0.18962779  1
  F  F37  1  0.25950068  0.99890253  0.68963024  1
  F  F38  1  0.63068749  0.13147559  0.54881452  1
  F  F39  1  0.47194158  0.25053139  0.78844259  1
