# generated using pymatgen
data_TbSi2
_symmetry_space_group_name_H-M   'P 1'
_cell_length_a   4.01208961
_cell_length_b   4.01304715
_cell_length_c   7.77510522
_cell_angle_alpha   104.95559005
_cell_angle_beta   104.95193826
_cell_angle_gamma   90.00000000
_symmetry_Int_Tables_number   1
_chemical_formula_structural   TbSi2
_chemical_formula_sum   'Tb2 Si4'
_cell_volume   116.55165359
_cell_formula_units_Z   2
loop_
 _symmetry_equiv_pos_site_id
 _symmetry_equiv_pos_as_xyz
  1  'x, y, z'
loop_
 _atom_site_type_symbol
 _atom_site_label
 _atom_site_symmetry_multiplicity
 _atom_site_fract_x
 _atom_site_fract_y
 _atom_site_fract_z
 _atom_site_occupancy
  Tb  Tb0  1  0.62491061  0.37491061  0.74982122  1
  Tb  Tb1  1  0.37508939  0.62508939  0.25017878  1
  Si  Si2  1  0.04225753  0.79225753  0.58451507  1
  Si  Si3  1  0.95774247  0.20774247  0.41548493  1
  Si  Si4  1  0.20771571  0.95771571  0.91543141  1
  Si  Si5  1  0.79228429  0.04228429  0.08456859  1
