# generated using pymatgen
data_CaSnAu
_symmetry_space_group_name_H-M   'P 1'
_cell_length_a   4.81400408
_cell_length_b   6.06167959
_cell_length_c   6.06167959
_cell_angle_alpha   75.06950529
_cell_angle_beta   66.60392009
_cell_angle_gamma   66.60392009
_symmetry_Int_Tables_number   1
_chemical_formula_structural   CaSnAu
_chemical_formula_sum   'Ca2 Sn2 Au2'
_cell_volume   147.94177083
_cell_formula_units_Z   2
loop_
 _symmetry_equiv_pos_site_id
 _symmetry_equiv_pos_as_xyz
  1  'x, y, z'
loop_
 _atom_site_type_symbol
 _atom_site_label
 _atom_site_symmetry_multiplicity
 _atom_site_fract_x
 _atom_site_fract_y
 _atom_site_fract_z
 _atom_site_occupancy
  Ca  Ca0  1  0.68703043  0.31296957  0.31296957  1
  Ca  Ca1  1  0.61886393  0.88113607  0.88113607  1
  Sn  Sn2  1  0.98706086  0.30780626  0.71807202  1
  Sn  Sn3  1  0.98706086  0.71807202  0.30780626  1
  Au  Au4  1  0.31770196  0.90401103  0.46058506  1
  Au  Au5  1  0.31770196  0.46058506  0.90401103  1
