# generated using pymatgen
data_YCu3(NiO3)4
_symmetry_space_group_name_H-M   'P 1'
_cell_length_a   6.29990767
_cell_length_b   6.29927390
_cell_length_c   6.30005851
_cell_angle_alpha   109.49276301
_cell_angle_beta   109.44614570
_cell_angle_gamma   109.48979531
_symmetry_Int_Tables_number   1
_chemical_formula_structural   YCu3(NiO3)4
_chemical_formula_sum   'Y1 Cu3 Ni4 O12'
_cell_volume   192.42728504
_cell_formula_units_Z   1
loop_
 _symmetry_equiv_pos_site_id
 _symmetry_equiv_pos_as_xyz
  1  'x, y, z'
loop_
 _atom_site_type_symbol
 _atom_site_label
 _atom_site_symmetry_multiplicity
 _atom_site_fract_x
 _atom_site_fract_y
 _atom_site_fract_z
 _atom_site_occupancy
  Y  Y0  1  0.00005937  0.00000832  0.00007164  1
  Cu  Cu1  1  0.49999772  0.99999719  0.50000070  1
  Cu  Cu2  1  0.49999372  0.49999646  0.99998916  1
  Cu  Cu3  1  0.99999840  0.50000575  0.49999551  1
  Ni  Ni4  1  0.49999491  0.00001004  0.99999462  1
  Ni  Ni5  1  0.99999308  0.99999643  0.49999783  1
  Ni  Ni6  1  0.99999366  0.49999103  0.99999394  1
  Ni  Ni7  1  0.49999449  0.49999577  0.49998224  1
  O  O8  1  0.83157820  0.30613140  0.13761629  1
  O  O9  1  0.16841207  0.69386151  0.86236386  1
  O  O10  1  0.83145306  0.69382393  0.52553120  1
  O  O11  1  0.30628807  0.47455416  0.16838844  1
  O  O12  1  0.47451206  0.16847436  0.30641165  1
  O  O13  1  0.13784259  0.83157253  0.30607087  1
  O  O14  1  0.69388870  0.86218829  0.16836461  1
  O  O15  1  0.52548929  0.83151913  0.69359244  1
  O  O16  1  0.16853593  0.30619634  0.47447580  1
  O  O17  1  0.69371251  0.52544955  0.83160309  1
  O  O18  1  0.86215471  0.16841734  0.69393498  1
  O  O19  1  0.30610946  0.13780849  0.83162112  1
