# generated using pymatgen
data_Sr8MnFe7O20
_symmetry_space_group_name_H-M   'P 1'
_cell_length_a   11.20815980
_cell_length_b   11.46963321
_cell_length_c   17.75636946
_cell_angle_alpha   108.83943929
_cell_angle_beta   108.39421010
_cell_angle_gamma   90.01000693
_symmetry_Int_Tables_number   1
_chemical_formula_structural   Sr8MnFe7O20
_chemical_formula_sum   'Sr32 Mn4 Fe28 O80'
_cell_volume   2036.69469394
_cell_formula_units_Z   4
loop_
 _symmetry_equiv_pos_site_id
 _symmetry_equiv_pos_as_xyz
  1  'x, y, z'
loop_
 _atom_site_type_symbol
 _atom_site_label
 _atom_site_symmetry_multiplicity
 _atom_site_fract_x
 _atom_site_fract_y
 _atom_site_fract_z
 _atom_site_occupancy
  Sr  Sr0  1  0.30636612  0.06333116  0.10915706  1
  Sr  Sr1  1  0.30593210  0.06153006  0.60888147  1
  Sr  Sr2  1  0.30635646  0.56351006  0.10882724  1
  Sr  Sr3  1  0.30649402  0.55954292  0.60828779  1
  Sr  Sr4  1  0.80616323  0.06343688  0.10920622  1
  Sr  Sr5  1  0.80643751  0.06368272  0.60881034  1
  Sr  Sr6  1  0.80585067  0.56354154  0.10877539  1
  Sr  Sr7  1  0.80705918  0.56189438  0.60840639  1
  Sr  Sr8  1  0.19713733  0.43617364  0.39101525  1
  Sr  Sr9  1  0.19713287  0.43791032  0.89049467  1
  Sr  Sr10  1  0.19720519  0.93689422  0.39095479  1
  Sr  Sr11  1  0.19762377  0.93781598  0.89207706  1
  Sr  Sr12  1  0.69716624  0.43631639  0.39106731  1
  Sr  Sr13  1  0.69799731  0.43871267  0.89035166  1
  Sr  Sr14  1  0.69725769  0.93675081  0.39097201  1
  Sr  Sr15  1  0.69887377  0.93863080  0.89254231  1
  Sr  Sr16  1  0.05628568  0.29577880  0.10902799  1
  Sr  Sr17  1  0.05663820  0.29741565  0.60950533  1
  Sr  Sr18  1  0.05609893  0.79524908  0.10893269  1
  Sr  Sr19  1  0.05554671  0.79573892  0.60792294  1
  Sr  Sr20  1  0.55625040  0.29593942  0.10904521  1
  Sr  Sr21  1  0.55764565  0.29836102  0.60964834  1
  Sr  Sr22  1  0.55612208  0.79515840  0.10898475  1
  Sr  Sr23  1  0.55633146  0.79608849  0.60745769  1
  Sr  Sr24  1  0.44707529  0.20476615  0.39122461  1
  Sr  Sr25  1  0.44705063  0.20264859  0.89111853  1
  Sr  Sr26  1  0.44695701  0.70423066  0.39079378  1
  Sr  Sr27  1  0.44820623  0.70125513  0.89171221  1
  Sr  Sr28  1  0.94752923  0.20468282  0.39117276  1
  Sr  Sr29  1  0.94762717  0.20487238  0.89118966  1
  Sr  Sr30  1  0.94720906  0.70417410  0.39084294  1
  Sr  Sr31  1  0.94865279  0.70348800  0.89159361  1
  Mn  Mn32  1  0.11145319  0.59586923  0.75000000  1
  Mn  Mn33  1  0.61040979  0.59896958  0.75000000  1
  Mn  Mn34  1  0.36196234  0.40422593  0.75000000  1
  Mn  Mn35  1  0.36089356  0.90241860  0.75000000  1
  Fe  Fe36  1  0.00449008  0.00003702  0.00037494  1
  Fe  Fe37  1  0.00402804  0.00019116  0.49961195  1
  Fe  Fe38  1  0.00409307  0.49959172  0.99949304  1
  Fe  Fe39  1  0.00441626  0.50006606  0.50079242  1
  Fe  Fe40  1  0.50376249  0.00013147  0.00001290  1
  Fe  Fe41  1  0.50406551  0.00049425  0.49985927  1
  Fe  Fe42  1  0.50324631  0.49908503  0.99859977  1
  Fe  Fe43  1  0.50434648  0.50023122  0.50099676  1
  Fe  Fe44  1  0.25441609  0.25057921  0.00038805  1
  Fe  Fe45  1  0.25464654  0.25048527  0.50140023  1
  Fe  Fe46  1  0.25362384  0.74927364  0.99920758  1
  Fe  Fe47  1  0.25374958  0.75011857  0.49998710  1
  Fe  Fe48  1  0.75420624  0.25063498  0.00014073  1
  Fe  Fe49  1  0.75460003  0.25009867  0.50050696  1
  Fe  Fe50  1  0.75334972  0.74923446  0.99900324  1
  Fe  Fe51  1  0.75411514  0.74966208  0.49962506  1
  Fe  Fe52  1  0.10775452  0.09064770  0.24991297  1
  Fe  Fe53  1  0.10874146  0.08761467  0.75000000  1
  Fe  Fe54  1  0.10778473  0.59068271  0.25003412  1
  Fe  Fe55  1  0.60775060  0.09064858  0.24996588  1
  Fe  Fe56  1  0.60945035  0.09035876  0.75000000  1
  Fe  Fe57  1  0.60784155  0.59073474  0.25008703  1
  Fe  Fe58  1  0.35778431  0.40933760  0.24999717  1
  Fe  Fe59  1  0.35780164  0.90933795  0.25002942  1
  Fe  Fe60  1  0.85777222  0.40930852  0.24997058  1
  Fe  Fe61  1  0.85955118  0.41107331  0.75000000  1
  Fe  Fe62  1  0.85778714  0.90934043  0.25000283  1
  Fe  Fe63  1  0.85840853  0.90935213  0.75000000  1
  O  O64  1  0.12374168  0.12067266  0.49055984  1
  O  O65  1  0.12407353  0.12146581  0.99080508  1
  O  O66  1  0.12400093  0.62167108  0.49121037  1
  O  O67  1  0.12416945  0.62148690  0.99190669  1
  O  O68  1  0.62428146  0.12140181  0.49107444  1
  O  O69  1  0.62482311  0.12225588  0.99135934  1
  O  O70  1  0.62414029  0.62214513  0.49165410  1
  O  O71  1  0.62493714  0.62247893  0.99257945  1
  O  O72  1  0.13311866  0.37810890  0.00900576  1
  O  O73  1  0.13233041  0.37765907  0.50749176  1
  O  O74  1  0.13310549  0.87906796  0.00938471  1
  O  O75  1  0.13252733  0.87877428  0.50846194  1
  O  O76  1  0.63295636  0.37791717  0.00861405  1
  O  O77  1  0.63316233  0.37749107  0.50825386  1
  O  O78  1  0.63253531  0.87900028  0.00858870  1
  O  O79  1  0.63331754  0.87839951  0.50917798  1
  O  O80  1  0.37434230  0.11930312  0.49138595  1
  O  O81  1  0.37406539  0.12031234  0.99153806  1
  O  O82  1  0.37394661  0.62041157  0.49141130  1
  O  O83  1  0.37483865  0.62016730  0.99250824  1
  O  O84  1  0.87411290  0.11910314  0.49099424  1
  O  O85  1  0.87413956  0.11922153  0.99082202  1
  O  O86  1  0.87372078  0.61968324  0.49061529  1
  O  O87  1  0.87490847  0.61923721  0.99174614  1
  O  O88  1  0.38318184  0.38011282  0.00944016  1
  O  O89  1  0.38235769  0.37989948  0.50742055  1
  O  O90  1  0.38279056  0.88046071  0.00878963  1
  O  O91  1  0.38346377  0.88089655  0.50864066  1
  O  O92  1  0.88320702  0.38032738  0.00892556  1
  O  O93  1  0.88226276  0.37958021  0.50809331  1
  O  O94  1  0.88248619  0.88049103  0.00834590  1
  O  O95  1  0.88326845  0.88066073  0.50919492  1
  O  O96  1  0.08108157  0.09579073  0.14010059  1
  O  O97  1  0.08223601  0.09553194  0.64099613  1
  O  O98  1  0.08164447  0.59594887  0.14069914  1
  O  O99  1  0.07523381  0.58587243  0.63508607  1
  O  O100  1  0.58129939  0.09599081  0.14034397  1
  O  O101  1  0.58164416  0.09620066  0.64042796  1
  O  O102  1  0.58192309  0.59621668  0.14104943  1
  O  O103  1  0.57430028  0.58657630  0.63498425  1
  O  O104  1  0.44109848  0.40419918  0.35934285  1
  O  O105  1  0.44097523  0.41367800  0.86553617  1
  O  O106  1  0.44121403  0.90411366  0.35969466  1
  O  O107  1  0.43868519  0.91382971  0.86382250  1
  O  O108  1  0.94076603  0.40393328  0.35921318  1
  O  O109  1  0.94248041  0.40479078  0.86004577  1
  O  O110  1  0.94076545  0.90389106  0.35957803  1
  O  O111  1  0.94065765  0.90368779  0.85954147  1
  O  O112  1  0.33118742  0.29431304  0.14042197  1
  O  O113  1  0.32543906  0.29814183  0.63446383  1
  O  O114  1  0.33155285  0.79472010  0.14078682  1
  O  O115  1  0.32486269  0.80000721  0.63617750  1
  O  O116  1  0.83151936  0.29441900  0.14030534  1
  O  O117  1  0.83243465  0.29474501  0.63995423  1
  O  O118  1  0.83175563  0.79485632  0.14065715  1
  O  O119  1  0.83111618  0.79414632  0.64045853  1
  O  O120  1  0.19087367  0.20516726  0.35895057  1
  O  O121  1  0.19123987  0.20453581  0.85900387  1
  O  O122  1  0.19095542  0.70564684  0.35965603  1
  O  O123  1  0.19014774  0.70078636  0.86491393  1
  O  O124  1  0.69094534  0.20524973  0.35930086  1
  O  O125  1  0.69121620  0.20577270  0.85957204  1
  O  O126  1  0.69098098  0.70569014  0.35989941  1
  O  O127  1  0.68931603  0.70159205  0.86501575  1
  O  O128  1  0.43653933  0.05998401  0.25005299  1
  O  O129  1  0.44113306  0.05572538  0.75000000  1
  O  O130  1  0.43648428  0.55994831  0.24998832  1
  O  O131  1  0.44013886  0.56413381  0.75000000  1
  O  O132  1  0.93649597  0.05995999  0.25001168  1
  O  O133  1  0.93645818  0.06021481  0.75000000  1
  O  O134  1  0.93648634  0.55993102  0.24994701  1
  O  O135  1  0.93370991  0.56337649  0.75000000  1
  O  O136  1  0.18652956  0.44010796  0.25002961  1
  O  O137  1  0.19044926  0.44209635  0.75000000  1
  O  O138  1  0.18649152  0.94002447  0.24991729  1
  O  O139  1  0.18363710  0.93512658  0.75000000  1
  O  O140  1  0.68657423  0.44010718  0.25008271  1
  O  O141  1  0.69148646  0.44135934  0.75000000  1
  O  O142  1  0.68649995  0.94007836  0.24997039  1
  O  O143  1  0.68644118  0.93856219  0.75000000  1
