# generated using pymatgen
data_WBr4
_symmetry_space_group_name_H-M   'P 1'
_cell_length_a   6.88622777
_cell_length_b   7.61740176
_cell_length_c   7.84049888
_cell_angle_alpha   72.62069640
_cell_angle_beta   63.95067478
_cell_angle_gamma   63.12751840
_symmetry_Int_Tables_number   1
_chemical_formula_structural   WBr4
_chemical_formula_sum   'W2 Br8'
_cell_volume   327.00935867
_cell_formula_units_Z   2
loop_
 _symmetry_equiv_pos_site_id
 _symmetry_equiv_pos_as_xyz
  1  'x, y, z'
loop_
 _atom_site_type_symbol
 _atom_site_label
 _atom_site_symmetry_multiplicity
 _atom_site_fract_x
 _atom_site_fract_y
 _atom_site_fract_z
 _atom_site_occupancy
  W  W0  1  0.69947326  -0.00000000  -0.00000000  1
  W  W1  1  0.30052674  -0.00000000  -0.00000000  1
  Br  Br2  1  0.76026128  0.24210430  0.71108885  1
  Br  Br3  1  0.71345442  0.75789570  0.28891115  1
  Br  Br4  1  0.23973872  0.75789570  0.28891115  1
  Br  Br5  1  0.28654558  0.24210430  0.71108885  1
  Br  Br6  1  0.70244373  0.76648422  0.82862831  1
  Br  Br7  1  0.29755627  0.23351578  0.17137169  1
  Br  Br8  1  0.83299470  0.19227379  0.14173680  1
  Br  Br9  1  0.16700530  0.80772621  0.85826320  1
