# generated using pymatgen
data_Gd3(CoGe2)2
_symmetry_space_group_name_H-M   'P 1'
_cell_length_a   4.19907923
_cell_length_b   5.77636315
_cell_length_c   8.08163564
_cell_angle_alpha   106.35693360
_cell_angle_beta   90.00000000
_cell_angle_gamma   111.31350178
_symmetry_Int_Tables_number   1
_chemical_formula_structural   Gd3(CoGe2)2
_chemical_formula_sum   'Gd3 Co2 Ge4'
_cell_volume   174.07260463
_cell_formula_units_Z   1
loop_
 _symmetry_equiv_pos_site_id
 _symmetry_equiv_pos_as_xyz
  1  'x, y, z'
loop_
 _atom_site_type_symbol
 _atom_site_label
 _atom_site_symmetry_multiplicity
 _atom_site_fract_x
 _atom_site_fract_y
 _atom_site_fract_z
 _atom_site_occupancy
  Gd  Gd0  1  0.37743922  0.75487844  0.30804897  1
  Gd  Gd1  1  0.62256078  0.24512156  0.69195103  1
  Gd  Gd2  1  0.00000000  -0.00000000  0.00000000  1
  Co  Co3  1  0.30725553  0.61451106  0.62669374  1
  Co  Co4  1  0.69274447  0.38548894  0.37330626  1
  Ge  Ge5  1  0.10095296  0.20190593  0.40041660  1
  Ge  Ge6  1  0.89904704  0.79809407  0.59958340  1
  Ge  Ge7  1  0.71096468  0.42192936  0.08038058  1
  Ge  Ge8  1  0.28903532  0.57807064  0.91961942  1
