# generated using pymatgen
data_Fe3OF7
_symmetry_space_group_name_H-M   'P 1'
_cell_length_a   5.82884741
_cell_length_b   6.10788219
_cell_length_c   10.51377072
_cell_angle_alpha   106.67893569
_cell_angle_beta   90.00000100
_cell_angle_gamma   61.50005617
_symmetry_Int_Tables_number   1
_chemical_formula_structural   Fe3OF7
_chemical_formula_sum   'Fe6 O2 F14'
_cell_volume   310.91348702
_cell_formula_units_Z   2
loop_
 _symmetry_equiv_pos_site_id
 _symmetry_equiv_pos_as_xyz
  1  'x, y, z'
loop_
 _atom_site_type_symbol
 _atom_site_label
 _atom_site_symmetry_multiplicity
 _atom_site_fract_x
 _atom_site_fract_y
 _atom_site_fract_z
 _atom_site_occupancy
  Fe  Fe0  1  0.05830979  0.86769892  0.30920817  1
  Fe  Fe1  1  0.33526238  0.38791126  0.06917255  1
  Fe  Fe2  1  0.05839738  0.38417585  0.30589321  1
  Fe  Fe3  1  0.05742677  0.38417585  0.80589321  1
  Fe  Fe4  1  0.57399129  0.86769892  0.80920817  1
  Fe  Fe5  1  0.77682636  0.38791126  0.56917255  1
  O  O6  1  0.99003595  0.60333648  0.19237667  1
  O  O7  1  0.90662757  0.60333648  0.69237667  1
  F  F8  1  0.17106214  0.62725075  0.41801066  1
  F  F9  1  0.41714785  0.64053917  0.18899348  1
  F  F10  1  0.15253032  0.14387391  0.42864080  1
  F  F11  1  0.72752166  0.57125234  0.43680175  1
  F  F12  1  0.40578421  0.16571648  0.18473841  1
  F  F13  1  0.44231198  0.64053917  0.68899348  1
  F  F14  1  0.20122500  0.57125234  0.93680175  1
  F  F15  1  0.70168710  0.62725075  0.91801066  1
  F  F16  1  0.95863275  0.12133832  0.20949706  1
  F  F17  1  0.72686439  0.11504850  0.44084224  1
  F  F18  1  0.42002893  0.12133832  0.70949706  1
  F  F19  1  0.20359576  0.14387391  0.92864080  1
  F  F20  1  0.65808711  0.11504850  0.94084224  1
  F  F21  1  0.92850031  0.16571648  0.68473841  1
