# generated using pymatgen
data_Zr6Ga2Ni
_symmetry_space_group_name_H-M   'P 1'
_cell_length_a   3.42110927
_cell_length_b   7.85894842
_cell_length_c   7.86089468
_cell_angle_alpha   119.99180709
_cell_angle_beta   90.00000000
_cell_angle_gamma   90.00000000
_symmetry_Int_Tables_number   1
_chemical_formula_structural   Zr6Ga2Ni
_chemical_formula_sum   'Zr6 Ga2 Ni1'
_cell_volume   183.05004572
_cell_formula_units_Z   1
loop_
 _symmetry_equiv_pos_site_id
 _symmetry_equiv_pos_as_xyz
  1  'x, y, z'
loop_
 _atom_site_type_symbol
 _atom_site_label
 _atom_site_symmetry_multiplicity
 _atom_site_fract_x
 _atom_site_fract_y
 _atom_site_fract_z
 _atom_site_occupancy
  Zr  Zr0  1  -0.00000000  0.25518260  1.00000000  1
  Zr  Zr1  1  -0.00000000  0.74483765  0.74484912  1
  Zr  Zr2  1  -0.00000000  -0.00001147  0.25515088  1
  Zr  Zr3  1  0.50000000  0.59557073  1.00000000  1
  Zr  Zr4  1  0.50000000  0.40438663  0.40443820  1
  Zr  Zr5  1  0.50000000  0.99994842  0.59556180  1
  Ga  Ga6  1  -0.00000000  0.33332092  0.66665890  1
  Ga  Ga7  1  -0.00000000  0.66666203  0.33334110  1
  Ni  Ni8  1  0.50000000  0.00000250  0.00000000  1
