# generated using pymatgen
data_BaIn9Ir2
_symmetry_space_group_name_H-M   'P 1'
_cell_length_a   4.35837239
_cell_length_b   9.00746338
_cell_length_c   9.00678550
_cell_angle_alpha   120.00249331
_cell_angle_beta   90.00000000
_cell_angle_gamma   90.00000000
_symmetry_Int_Tables_number   1
_chemical_formula_structural   BaIn9Ir2
_chemical_formula_sum   'Ba1 In9 Ir2'
_cell_volume   306.20789177
_cell_formula_units_Z   1
loop_
 _symmetry_equiv_pos_site_id
 _symmetry_equiv_pos_as_xyz
  1  'x, y, z'
loop_
 _atom_site_type_symbol
 _atom_site_label
 _atom_site_symmetry_multiplicity
 _atom_site_fract_x
 _atom_site_fract_y
 _atom_site_fract_z
 _atom_site_occupancy
  Ba  Ba0  1  -0.00000000  0.99999783  -0.00000000  1
  In  In1  1  0.50000000  0.41541295  0.20769872  1
  In  In2  1  0.50000000  0.79229637  0.58458588  1
  In  In3  1  0.50000000  0.79228065  0.20767620  1
  In  In4  1  0.50000000  0.20771424  0.79230128  1
  In  In5  1  0.50000000  0.20771048  0.41541412  1
  In  In6  1  0.50000000  0.58460446  0.79232380  1
  In  In7  1  -0.00000000  0.00006159  0.50003056  1
  In  In8  1  -0.00000000  0.49999628  -0.00000000  1
  In  In9  1  -0.00000000  0.50003104  0.49996944  1
  Ir  Ir10  1  -0.00000000  0.66667047  0.33334682  1
  Ir  Ir11  1  -0.00000000  0.33332365  0.66665318  1
