# generated using pymatgen
data_La2InNi2
_symmetry_space_group_name_H-M   'P 1'
_cell_length_a   3.80016170
_cell_length_b   7.70305978
_cell_length_c   7.70305978
_cell_angle_alpha   90.00000000
_cell_angle_beta   90.00000000
_cell_angle_gamma   90.00000000
_symmetry_Int_Tables_number   1
_chemical_formula_structural   La2InNi2
_chemical_formula_sum   'La4 In2 Ni4'
_cell_volume   225.49068872
_cell_formula_units_Z   2
loop_
 _symmetry_equiv_pos_site_id
 _symmetry_equiv_pos_as_xyz
  1  'x, y, z'
loop_
 _atom_site_type_symbol
 _atom_site_label
 _atom_site_symmetry_multiplicity
 _atom_site_fract_x
 _atom_site_fract_y
 _atom_site_fract_z
 _atom_site_occupancy
  La  La0  1  0.50000000  0.17435182  0.67435182  1
  La  La1  1  0.50000000  0.82564818  0.32564818  1
  La  La2  1  0.50000000  0.32564818  0.17435182  1
  La  La3  1  0.50000000  0.67435182  0.82564818  1
  In  In4  1  0.00000000  0.50000000  0.50000000  1
  In  In5  1  0.00000000  0.00000000  0.00000000  1
  Ni  Ni6  1  0.00000000  0.62149210  0.12149210  1
  Ni  Ni7  1  -0.00000000  0.37850790  0.87850790  1
  Ni  Ni8  1  -0.00000000  0.87850790  0.62149210  1
  Ni  Ni9  1  0.00000000  0.12149210  0.37850790  1
