# generated using pymatgen
data_TaCo3
_symmetry_space_group_name_H-M   'P 1'
_cell_length_a   4.17825218
_cell_length_b   5.18708005
_cell_length_c   5.18862208
_cell_angle_alpha   120.00375209
_cell_angle_beta   90.00000000
_cell_angle_gamma   90.00000000
_symmetry_Int_Tables_number   1
_chemical_formula_structural   TaCo3
_chemical_formula_sum   'Ta2 Co6'
_cell_volume   97.38315680
_cell_formula_units_Z   2
loop_
 _symmetry_equiv_pos_site_id
 _symmetry_equiv_pos_as_xyz
  1  'x, y, z'
loop_
 _atom_site_type_symbol
 _atom_site_label
 _atom_site_symmetry_multiplicity
 _atom_site_fract_x
 _atom_site_fract_y
 _atom_site_fract_z
 _atom_site_occupancy
  Ta  Ta0  1  0.75000000  0.66673149  0.33336389  1
  Ta  Ta1  1  0.25000000  0.33326851  0.66663611  1
  Co  Co2  1  0.75000000  0.15826094  0.31648570  1
  Co  Co3  1  0.75000000  0.15823423  0.84175762  1
  Co  Co4  1  0.75000000  0.68356410  0.84177690  1
  Co  Co5  1  0.25000000  0.84173906  0.68351430  1
  Co  Co6  1  0.25000000  0.84176577  0.15824238  1
  Co  Co7  1  0.25000000  0.31643590  0.15822310  1
