# generated using pymatgen
data_ZrSnRh
_symmetry_space_group_name_H-M   'P 1'
_cell_length_a   3.66473803
_cell_length_b   7.41255533
_cell_length_c   7.41292889
_cell_angle_alpha   119.99833488
_cell_angle_beta   90.00000000
_cell_angle_gamma   90.00000000
_symmetry_Int_Tables_number   1
_chemical_formula_structural   ZrSnRh
_chemical_formula_sum   'Zr3 Sn3 Rh3'
_cell_volume   174.39684975
_cell_formula_units_Z   3
loop_
 _symmetry_equiv_pos_site_id
 _symmetry_equiv_pos_as_xyz
  1  'x, y, z'
loop_
 _atom_site_type_symbol
 _atom_site_label
 _atom_site_symmetry_multiplicity
 _atom_site_fract_x
 _atom_site_fract_y
 _atom_site_fract_z
 _atom_site_occupancy
  Zr  Zr0  1  0.50000000  0.60207107  1.00000000  1
  Zr  Zr1  1  0.50000000  0.39792015  0.39791781  1
  Zr  Zr2  1  0.50000000  0.00000235  0.60208219  1
  Sn  Sn3  1  0.00000000  0.26720837  0.00000000  1
  Sn  Sn4  1  0.00000000  0.73275717  0.73275342  1
  Sn  Sn5  1  0.00000000  0.00000375  0.26724658  1
  Rh  Rh6  1  0.00000000  0.33333172  0.66670965  1
  Rh  Rh7  1  0.00000000  0.66662207  0.33329035  1
  Rh  Rh8  1  0.50000000  0.99998334  0.00000000  1
