# generated using pymatgen
data_WBr5
_symmetry_space_group_name_H-M   'P 1'
_cell_length_a   6.89413094
_cell_length_b   7.43966465
_cell_length_c   9.98428494
_cell_angle_alpha   109.82231941
_cell_angle_beta   90.84693192
_cell_angle_gamma   116.19844934
_symmetry_Int_Tables_number   1
_chemical_formula_structural   WBr5
_chemical_formula_sum   'W2 Br10'
_cell_volume   423.97502823
_cell_formula_units_Z   2
loop_
 _symmetry_equiv_pos_site_id
 _symmetry_equiv_pos_as_xyz
  1  'x, y, z'
loop_
 _atom_site_type_symbol
 _atom_site_label
 _atom_site_symmetry_multiplicity
 _atom_site_fract_x
 _atom_site_fract_y
 _atom_site_fract_z
 _atom_site_occupancy
  W  W0  1  0.89827008  0.28863630  0.78566584  1
  W  W1  1  0.10172992  0.71136370  0.21433416  1
  Br  Br2  1  0.23127643  0.67773196  0.95842973  1
  Br  Br3  1  0.76872357  0.32226804  0.04157027  1
  Br  Br4  1  0.57309804  0.93712768  0.66622475  1
  Br  Br5  1  0.42690196  0.06287232  0.33377525  1
  Br  Br6  1  0.06329860  0.31305029  0.57444144  1
  Br  Br7  1  0.93670140  0.68694971  0.42555856  1
  Br  Br8  1  0.11343301  0.13179047  0.85066793  1
  Br  Br9  1  0.88656699  0.86820953  0.14933207  1
  Br  Br10  1  0.70552006  0.48700177  0.75775065  1
  Br  Br11  1  0.29447994  0.51299823  0.24224935  1
