# generated using pymatgen
data_Fe4O7F
_symmetry_space_group_name_H-M   'P 1'
_cell_length_a   6.61664500
_cell_length_b   6.41624230
_cell_length_c   6.03215435
_cell_angle_alpha   90.00000000
_cell_angle_beta   90.00000000
_cell_angle_gamma   90.00000000
_symmetry_Int_Tables_number   1
_chemical_formula_structural   Fe4O7F
_chemical_formula_sum   'Fe8 O14 F2'
_cell_volume   256.08906599
_cell_formula_units_Z   2
loop_
 _symmetry_equiv_pos_site_id
 _symmetry_equiv_pos_as_xyz
  1  'x, y, z'
loop_
 _atom_site_type_symbol
 _atom_site_label
 _atom_site_symmetry_multiplicity
 _atom_site_fract_x
 _atom_site_fract_y
 _atom_site_fract_z
 _atom_site_occupancy
  Fe  Fe0  1  0.00843518  0.00000000  0.00721878  1
  Fe  Fe1  1  0.00843518  -0.00000000  0.49278122  1
  Fe  Fe2  1  0.01826161  0.50000000  0.25000000  1
  Fe  Fe3  1  0.99375948  0.50000000  0.75000000  1
  Fe  Fe4  1  0.50624052  0.00000000  0.25000000  1
  Fe  Fe5  1  0.48173839  0.00000000  0.75000000  1
  Fe  Fe6  1  0.49156482  0.50000000  0.50721878  1
  Fe  Fe7  1  0.49156482  0.50000000  0.99278122  1
  O  O8  1  0.18318424  -0.00000000  0.75000000  1
  O  O9  1  0.20355986  -0.00000000  0.25000000  1
  O  O10  1  0.99734203  0.30608408  0.99742091  1
  O  O11  1  0.99734203  0.30608408  0.50257909  1
  O  O12  1  0.50265797  0.19391592  0.00257909  1
  O  O13  1  0.50265797  0.19391592  0.49742091  1
  O  O14  1  0.99734203  0.69391592  0.99742091  1
  O  O15  1  0.99734203  0.69391592  0.50257909  1
  O  O16  1  0.81304715  0.00000000  0.25000000  1
  O  O17  1  0.29644014  0.50000000  0.75000000  1
  O  O18  1  0.31681576  0.50000000  0.25000000  1
  O  O19  1  0.68695285  0.50000000  0.75000000  1
  O  O20  1  0.50265797  0.80608408  0.00257909  1
  O  O21  1  0.50265797  0.80608408  0.49742091  1
  F  F22  1  0.79660495  -0.00000000  0.75000000  1
  F  F23  1  0.70339505  0.50000000  0.25000000  1
