# generated using pymatgen
data_TmSb(PbO3)2
_symmetry_space_group_name_H-M   'P 1'
_cell_length_a   5.86963212
_cell_length_b   5.86963234
_cell_length_c   5.86963244
_cell_angle_alpha   60.41553742
_cell_angle_beta   60.41553612
_cell_angle_gamma   60.41554172
_symmetry_Int_Tables_number   1
_chemical_formula_structural   TmSb(PbO3)2
_chemical_formula_sum   'Tm1 Sb1 Pb2 O6'
_cell_volume   144.33757132
_cell_formula_units_Z   1
loop_
 _symmetry_equiv_pos_site_id
 _symmetry_equiv_pos_as_xyz
  1  'x, y, z'
loop_
 _atom_site_type_symbol
 _atom_site_label
 _atom_site_symmetry_multiplicity
 _atom_site_fract_x
 _atom_site_fract_y
 _atom_site_fract_z
 _atom_site_occupancy
  Tm  Tm0  1  0.00000000  0.00000000  -0.00000000  1
  Sb  Sb1  1  0.50000000  0.50000000  0.50000000  1
  Pb  Pb2  1  0.74964215  0.74964215  0.74964215  1
  Pb  Pb3  1  0.25035785  0.25035785  0.25035785  1
  O  O4  1  0.32619159  0.19849677  0.73471873  1
  O  O5  1  0.73471873  0.32619159  0.19849677  1
  O  O6  1  0.19849677  0.73471873  0.32619159  1
  O  O7  1  0.67380841  0.80150323  0.26528127  1
  O  O8  1  0.26528127  0.67380841  0.80150323  1
  O  O9  1  0.80150323  0.26528127  0.67380841  1
