# generated using pymatgen
data_Y(GePt)2
_symmetry_space_group_name_H-M   'P 1'
_cell_length_a   4.33114986
_cell_length_b   4.31499261
_cell_length_c   10.19292578
_cell_angle_alpha   90.00000000
_cell_angle_beta   90.08246618
_cell_angle_gamma   90.00000000
_symmetry_Int_Tables_number   1
_chemical_formula_structural   Y(GePt)2
_chemical_formula_sum   'Y2 Ge4 Pt4'
_cell_volume   190.49416577
_cell_formula_units_Z   2
loop_
 _symmetry_equiv_pos_site_id
 _symmetry_equiv_pos_as_xyz
  1  'x, y, z'
loop_
 _atom_site_type_symbol
 _atom_site_label
 _atom_site_symmetry_multiplicity
 _atom_site_fract_x
 _atom_site_fract_y
 _atom_site_fract_z
 _atom_site_occupancy
  Y  Y0  1  0.74888068  0.74375291  0.24972026  1
  Y  Y1  1  0.25111932  0.24375291  0.75027974  1
  Ge  Ge2  1  0.75528373  0.76797682  0.86529611  1
  Ge  Ge3  1  0.24471627  0.26797682  0.13470389  1
  Ge  Ge4  1  0.25082335  0.72377774  0.50056355  1
  Ge  Ge5  1  0.74917665  0.22377774  0.49943645  1
  Pt  Pt6  1  0.75194633  0.72309065  0.62743893  1
  Pt  Pt7  1  0.24805367  0.22309065  0.37256107  1
  Pt  Pt8  1  0.25577140  0.76940188  0.00005181  1
  Pt  Pt9  1  0.74422860  0.26940188  0.99994819  1
