# generated using pymatgen
data_K2TlAuF6
_symmetry_space_group_name_H-M   'P 1'
_cell_length_a   6.50335660
_cell_length_b   6.50335673
_cell_length_c   6.50335673
_cell_angle_alpha   59.99999945
_cell_angle_beta   59.99999924
_cell_angle_gamma   59.99999927
_symmetry_Int_Tables_number   1
_chemical_formula_structural   K2TlAuF6
_chemical_formula_sum   'K2 Tl1 Au1 F6'
_cell_volume   194.49019790
_cell_formula_units_Z   1
loop_
 _symmetry_equiv_pos_site_id
 _symmetry_equiv_pos_as_xyz
  1  'x, y, z'
loop_
 _atom_site_type_symbol
 _atom_site_label
 _atom_site_symmetry_multiplicity
 _atom_site_fract_x
 _atom_site_fract_y
 _atom_site_fract_z
 _atom_site_occupancy
  K  K0  1  0.25000000  0.25000000  0.25000000  1
  K  K1  1  0.75000000  0.75000000  0.75000000  1
  Tl  Tl2  1  0.50000000  0.50000000  0.50000000  1
  Au  Au3  1  0.00000000  0.00000000  0.00000000  1
  F  F4  1  0.25486819  0.74513181  0.25486819  1
  F  F5  1  0.74513181  0.74513181  0.25486819  1
  F  F6  1  0.74513181  0.25486819  0.74513181  1
  F  F7  1  0.74513181  0.25486819  0.25486819  1
  F  F8  1  0.25486819  0.74513181  0.74513181  1
  F  F9  1  0.25486819  0.25486819  0.74513181  1
