# generated using pymatgen
data_RbLiMn3O4
_symmetry_space_group_name_H-M   'P 1'
_cell_length_a   6.39514825
_cell_length_b   6.39514825
_cell_length_c   6.23141409
_cell_angle_alpha   96.38806458
_cell_angle_beta   92.93116804
_cell_angle_gamma   147.32641111
_symmetry_Int_Tables_number   1
_chemical_formula_structural   RbLiMn3O4
_chemical_formula_sum   'Rb1 Li1 Mn3 O4'
_cell_volume   131.65462614
_cell_formula_units_Z   1
loop_
 _symmetry_equiv_pos_site_id
 _symmetry_equiv_pos_as_xyz
  1  'x, y, z'
loop_
 _atom_site_type_symbol
 _atom_site_label
 _atom_site_symmetry_multiplicity
 _atom_site_fract_x
 _atom_site_fract_y
 _atom_site_fract_z
 _atom_site_occupancy
  Rb  Rb0  1  0.99116469  0.99510988  0.98627457  1
  Li  Li1  1  0.18145454  0.37178019  0.55323374  1
  Mn  Mn2  1  0.80018889  0.64340095  0.44358983  1
  Mn  Mn3  1  0.63221269  0.16431071  0.79652440  1
  Mn  Mn4  1  0.37880677  0.82194457  0.20075133  1
  O  O5  1  0.77147788  0.39550584  0.16698473  1
  O  O6  1  0.40156672  0.21836982  0.61993654  1
  O  O7  1  0.60834561  0.78580881  0.39415442  1
  O  O8  1  0.23478322  0.60376822  0.83855144  1
