# generated using pymatgen
data_Na9(WO3)13
_symmetry_space_group_name_H-M   'P 1'
_cell_length_a   11.85153119
_cell_length_b   13.10657465
_cell_length_c   5.56881859
_cell_angle_alpha   90.00000000
_cell_angle_beta   76.41185730
_cell_angle_gamma   72.46895817
_symmetry_Int_Tables_number   1
_chemical_formula_structural   Na9(WO3)13
_chemical_formula_sum   'Na9 W13 O39'
_cell_volume   799.41612929
_cell_formula_units_Z   1
loop_
 _symmetry_equiv_pos_site_id
 _symmetry_equiv_pos_as_xyz
  1  'x, y, z'
loop_
 _atom_site_type_symbol
 _atom_site_label
 _atom_site_symmetry_multiplicity
 _atom_site_fract_x
 _atom_site_fract_y
 _atom_site_fract_z
 _atom_site_occupancy
  Na  Na0  1  0.76911090  0.15308183  0.61544405  1
  Na  Na1  1  0.15396610  0.23153317  0.92301695  1
  Na  Na2  1  0.53783024  0.30756814  0.23108538  1
  Na  Na3  1  0.38524676  0.07704686  0.30737662  1
  Na  Na4  1  0.46153800  0.69230800  0.76923100  1
  Na  Na5  1  0.84591118  0.77082264  0.07704441  1
  Na  Na6  1  0.69445825  0.53724744  0.15277137  1
  Na  Na7  1  0.07716482  0.61379336  0.46141759  1
  Na  Na8  1  0.22861875  0.84736856  0.38569063  1
  W  W9  1  0.84999133  0.26970098  0.07500384  1
  W  W10  1  0.61598607  0.42222640  0.69200697  1
  W  W11  1  0.92144255  0.88717942  0.53927872  1
  W  W12  1  0.46153800  0.19230800  0.76923100  1
  W  W13  1  0.69414274  0.03906453  0.15292813  1
  W  W14  1  0.77184967  0.65381283  0.61407567  1
  W  W15  1  0.38319957  0.57555296  0.30839972  1
  W  W16  1  0.22893426  0.34555147  0.38553287  1
  W  W17  1  0.07308567  0.11491402  0.46345716  1
  W  W18  1  0.15122733  0.73080317  0.92438633  1
  W  W19  1  0.30709093  0.96238960  0.84645503  1
  W  W20  1  0.53987743  0.80906204  0.23006128  1
  W  W21  1  0.00163445  0.49743558  0.99918328  1
  O  O22  1  0.96153800  0.19230800  0.76923100  1
  O  O23  1  0.72888968  0.34515145  0.88640777  1
  O  O24  1  0.96153800  0.19230800  0.26923100  1
  O  O25  1  0.57874687  0.11572316  0.96944318  1
  O  O26  1  0.88273458  0.57879930  0.80642142  1
  O  O27  1  0.37903372  0.07349639  0.81048264  1
  O  O28  1  0.57874687  0.11572316  0.45180995  1
  O  O29  1  0.76673264  0.15716881  0.11663368  1
  O  O30  1  0.80396183  0.96457092  0.85382469  1
  O  O31  1  0.54404328  0.31111961  0.72797836  1
  O  O32  1  0.65638335  0.72359641  0.92196564  1
  O  O33  1  0.72888968  0.34515145  0.38470255  1
  O  O34  1  0.69130122  0.53803577  0.65434939  1
  O  O35  1  0.91960305  0.37942786  0.04019848  1
  O  O36  1  0.88273458  0.57879930  0.31084500  1
  O  O37  1  0.84502317  0.76357669  0.57748792  1
  O  O38  1  0.65638335  0.72359641  0.42165101  1
  O  O39  1  0.50714471  0.50016822  0.49607132  1
  O  O40  1  0.19418732  0.03946455  0.65205423  1
  O  O41  1  0.34433013  0.26889184  0.56901882  1
  O  O42  1  0.80396183  0.96457092  0.34221348  1
  O  O43  1  0.34433013  0.26889184  0.08665105  1
  O  O44  1  0.00347395  0.00518714  0.49826252  1
  O  O45  1  0.19418732  0.03946455  0.15375845  1
  O  O46  1  0.15634436  0.22744619  0.42182732  1
  O  O47  1  0.07805383  0.62103931  0.96097308  1
  O  O48  1  0.26669365  0.66101859  0.61649536  1
  O  O49  1  0.30884978  0.46405027  0.34557511  1
  O  O50  1  0.11911517  0.42004408  0.68463731  1
  O  O51  1  0.50714471  0.50016822  0.99678497  1
  O  O52  1  0.46153800  0.69230800  0.26923100  1
  O  O53  1  0.41593229  0.88444778  0.54167703  1
  O  O54  1  0.61422722  0.92056473  0.19288589  1
  O  O55  1  0.23177578  0.84658023  0.88411161  1
  O  O56  1  0.04034242  0.80581670  0.73204058  1
  O  O57  1  0.26669365  0.66101859  0.11681099  1
  O  O58  1  0.11911517  0.42004408  0.19624752  1
  O  O59  1  0.41593229  0.88444778  0.04239068  1
  O  O60  1  0.04034242  0.80581670  0.22761700  1
