# generated using pymatgen
data_SnS2
_symmetry_space_group_name_H-M   'P 1'
_cell_length_a   7.44083929
_cell_length_b   7.44083929
_cell_length_c   7.44083929
_cell_angle_alpha   60.00000000
_cell_angle_beta   60.00000000
_cell_angle_gamma   60.00000000
_symmetry_Int_Tables_number   1
_chemical_formula_structural   SnS2
_chemical_formula_sum   'Sn4 S8'
_cell_volume   291.30690295
_cell_formula_units_Z   4
loop_
 _symmetry_equiv_pos_site_id
 _symmetry_equiv_pos_as_xyz
  1  'x, y, z'
loop_
 _atom_site_type_symbol
 _atom_site_label
 _atom_site_symmetry_multiplicity
 _atom_site_fract_x
 _atom_site_fract_y
 _atom_site_fract_z
 _atom_site_occupancy
  Sn  Sn0  1  0.00000000  -0.00000000  0.50000000  1
  Sn  Sn1  1  0.00000000  0.50000000  -0.00000000  1
  Sn  Sn2  1  0.50000000  -0.00000000  0.00000000  1
  Sn  Sn3  1  0.00000000  0.00000000  -0.00000000  1
  S  S4  1  0.24707241  0.24707241  0.75878277  1
  S  S5  1  0.24707241  0.75878277  0.24707241  1
  S  S6  1  0.75878277  0.24707241  0.24707241  1
  S  S7  1  0.24707241  0.24707241  0.24707241  1
  S  S8  1  0.75292759  0.75292759  0.24121723  1
  S  S9  1  0.75292759  0.24121723  0.75292759  1
  S  S10  1  0.24121723  0.75292759  0.75292759  1
  S  S11  1  0.75292759  0.75292759  0.75292759  1
