# generated using pymatgen
data_YbAlF5
_symmetry_space_group_name_H-M   'P 1'
_cell_length_a   6.92327701
_cell_length_b   10.20476643
_cell_length_c   10.25025661
_cell_angle_alpha   84.80899859
_cell_angle_beta   71.99246798
_cell_angle_gamma   72.35231531
_symmetry_Int_Tables_number   1
_chemical_formula_structural   YbAlF5
_chemical_formula_sum   'Yb8 Al8 F40'
_cell_volume   656.29555582
_cell_formula_units_Z   8
loop_
 _symmetry_equiv_pos_site_id
 _symmetry_equiv_pos_as_xyz
  1  'x, y, z'
loop_
 _atom_site_type_symbol
 _atom_site_label
 _atom_site_symmetry_multiplicity
 _atom_site_fract_x
 _atom_site_fract_y
 _atom_site_fract_z
 _atom_site_occupancy
  Yb  Yb0  1  0.08641096  0.67750794  0.17922592  1
  Yb  Yb1  1  0.27349315  0.26990816  0.16820093  1
  Yb  Yb2  1  0.27066938  0.81476749  0.68100932  1
  Yb  Yb3  1  0.43652937  0.83128794  0.27720168  1
  Yb  Yb4  1  0.53775300  0.18573676  0.72467451  1
  Yb  Yb5  1  0.71715275  0.18926366  0.32336886  1
  Yb  Yb6  1  0.73479794  0.72653168  0.81442971  1
  Yb  Yb7  1  0.91588715  0.32527387  0.79976833  1
  Al  Al8  1  0.31923988  0.98994478  0.00138679  1
  Al  Al9  1  0.99708144  0.50267867  0.49017999  1
  Al  Al10  1  0.15222250  0.14834945  0.51503187  1
  Al  Al11  1  0.30479011  0.52005368  0.84851758  1
  Al  Al12  1  0.82498650  0.00273905  0.99673931  1
  Al  Al13  1  0.49455801  0.50356131  0.49423128  1
  Al  Al14  1  0.68904419  0.48054976  0.14145242  1
  Al  Al15  1  0.82830354  0.85625204  0.48079662  1
  F  F16  1  0.01651788  0.18516860  0.38058689  1
  F  F17  1  0.29659950  0.03895830  0.17297397  1
  F  F18  1  0.06090295  0.33341393  0.55867226  1
  F  F19  1  0.09697621  0.44977111  0.31138372  1
  F  F20  1  0.23701511  0.49217677  0.02905858  1
  F  F21  1  0.07025966  0.86262758  0.34368163  1
  F  F22  1  0.26247758  0.14545144  0.66126513  1
  F  F23  1  0.30831052  0.82609444  0.07494202  1
  F  F24  1  0.05751111  0.65378593  0.85731532  1
  F  F25  1  0.37486573  0.18786345  0.38261256  1
  F  F26  1  0.24827982  0.51368422  0.47630244  1
  F  F27  1  0.20914914  0.38251444  0.80921122  1
  F  F28  1  0.34544966  0.16072972  0.94909774  1
  F  F29  1  0.42906242  0.61346921  0.19382862  1
  F  F30  1  0.55416473  0.35306440  0.13756906  1
  F  F31  1  0.65252307  0.08842942  0.15492291  1
  F  F32  1  0.25827027  0.96630710  0.49490492  1
  F  F33  1  0.36423399  0.56908085  0.66470168  1
  F  F34  1  0.44758521  0.68462007  0.44942565  1
  F  F35  1  0.53857364  0.32116057  0.54262293  1
  F  F36  1  0.62923135  0.43025733  0.32653558  1
  F  F37  1  0.71750656  0.03840625  0.51500256  1
  F  F38  1  0.43121204  0.65578906  0.85004442  1
  F  F39  1  0.56697026  0.38844353  0.80264027  1
  F  F40  1  0.79207042  0.61296991  0.17669775  1
  F  F41  1  0.38766298  0.93182990  0.82915997  1
  F  F42  1  0.74104069  0.49276696  0.51160590  1
  F  F43  1  0.62083882  0.80319961  0.61562521  1
  F  F44  1  0.93097864  0.33332463  0.13415947  1
  F  F45  1  0.74760872  0.16127863  0.90535848  1
  F  F46  1  0.68737801  0.87386019  0.35466526  1
  F  F47  1  0.89353615  0.84566476  0.08612339  1
  F  F48  1  0.90025144  0.15562965  0.64619573  1
  F  F49  1  0.75899976  0.50748259  0.95874740  1
  F  F50  1  0.89845815  0.54790880  0.67488020  1
  F  F51  1  0.93329445  0.67217593  0.42296068  1
  F  F52  1  0.03790687  0.05872981  0.02594230  1
  F  F53  1  0.61789369  0.92791342  0.96826345  1
  F  F54  1  0.96585889  0.81530254  0.61478441  1
  F  F55  1  0.98805406  0.92528869  0.83551322  1
