# generated using pymatgen
data_Mo2P3O13
_symmetry_space_group_name_H-M   'P 1'
_cell_length_a   9.02272244
_cell_length_b   9.17916145
_cell_length_c   9.00861694
_cell_angle_alpha   106.06856724
_cell_angle_beta   69.32760022
_cell_angle_gamma   68.91175960
_symmetry_Int_Tables_number   1
_chemical_formula_structural   Mo2P3O13
_chemical_formula_sum   'Mo4 P6 O26'
_cell_volume   577.44105076
_cell_formula_units_Z   2
loop_
 _symmetry_equiv_pos_site_id
 _symmetry_equiv_pos_as_xyz
  1  'x, y, z'
loop_
 _atom_site_type_symbol
 _atom_site_label
 _atom_site_symmetry_multiplicity
 _atom_site_fract_x
 _atom_site_fract_y
 _atom_site_fract_z
 _atom_site_occupancy
  Mo  Mo0  1  0.82706249  0.83323335  0.15641732  1
  Mo  Mo1  1  0.67048093  0.34834695  0.67056252  1
  Mo  Mo2  1  0.17293751  0.16676665  0.84358268  1
  Mo  Mo3  1  0.32951907  0.65165305  0.32943748  1
  P  P4  1  0.43676642  0.73990049  0.65212768  1
  P  P5  1  0.56323358  0.26009951  0.34787232  1
  P  P6  1  0.74969619  0.51390539  0.99466982  1
  P  P7  1  0.25030381  0.48609461  0.00533018  1
  P  P8  1  0.06324716  0.85169686  0.76378174  1
  P  P9  1  0.93675284  0.14830314  0.23621826  1
  O  O10  1  0.91074492  0.84682231  0.89627884  1
  O  O11  1  0.28810472  0.29757685  0.94270088  1
  O  O12  1  0.77184248  0.44369656  0.80342068  1
  O  O13  1  0.40382063  0.92535485  0.74252024  1
  O  O14  1  0.45507842  0.69920044  0.46426492  1
  O  O15  1  0.59617937  0.07464515  0.25747976  1
  O  O16  1  0.72600273  0.16165385  0.69266539  1
  O  O17  1  0.88892438  0.24738499  0.43440282  1
  O  O18  1  0.11107562  0.75261501  0.56559718  1
  O  O19  1  0.42330844  0.48796423  0.88404622  1
  O  O20  1  0.08925508  0.15317769  0.10372116  1
  O  O21  1  0.27399727  0.83834615  0.30733461  1
  O  O22  1  0.23258259  0.18926740  0.65435130  1
  O  O23  1  0.75056110  0.25848980  0.23655891  1
  O  O24  1  0.24943890  0.74151020  0.76344109  1
  O  O25  1  0.54492158  0.30079956  0.53573508  1
  O  O26  1  0.08350006  0.60779967  0.00536290  1
  O  O27  1  0.71189528  0.70242315  0.05729912  1
  O  O28  1  0.96402277  0.96443653  0.19912537  1
  O  O29  1  0.76741741  0.81073260  0.34564870  1
  O  O30  1  0.91649994  0.39220033  0.99463710  1
  O  O31  1  0.57669156  0.51203577  0.11595378  1
  O  O32  1  0.03597723  0.03556347  0.80087463  1
  O  O33  1  0.59030868  0.59690809  0.64658601  1
  O  O34  1  0.22815752  0.55630344  0.19657932  1
  O  O35  1  0.40969132  0.40309191  0.35341399  1
