# generated using pymatgen
data_TbCo4B
_symmetry_space_group_name_H-M   'P 1'
_cell_length_a   5.00377956
_cell_length_b   5.00142820
_cell_length_c   6.82886332
_cell_angle_alpha   90.00000000
_cell_angle_beta   90.00000000
_cell_angle_gamma   120.01556058
_symmetry_Int_Tables_number   1
_chemical_formula_structural   TbCo4B
_chemical_formula_sum   'Tb2 Co8 B2'
_cell_volume   147.98004016
_cell_formula_units_Z   2
loop_
 _symmetry_equiv_pos_site_id
 _symmetry_equiv_pos_as_xyz
  1  'x, y, z'
loop_
 _atom_site_type_symbol
 _atom_site_label
 _atom_site_symmetry_multiplicity
 _atom_site_fract_x
 _atom_site_fract_y
 _atom_site_fract_z
 _atom_site_occupancy
  Tb  Tb0  1  0.99997668  1.00000000  -0.00000000  1
  Tb  Tb1  1  0.99998370  1.00000000  0.50000000  1
  Co  Co2  1  0.33329424  0.66664822  -0.00000000  1
  Co  Co3  1  0.66664602  0.33335178  -0.00000000  1
  Co  Co4  1  0.50000037  1.00000000  0.28795591  1
  Co  Co5  1  0.49998569  0.50001127  0.28795168  1
  Co  Co6  1  0.99997442  0.49998873  0.28795168  1
  Co  Co7  1  0.50000037  1.00000000  0.71204409  1
  Co  Co8  1  0.49998569  0.50001127  0.71204832  1
  Co  Co9  1  0.99997442  0.49998873  0.71204832  1
  B  B10  1  0.33334115  0.66670391  0.50000000  1
  B  B11  1  0.66663724  0.33329609  0.50000000  1
