# generated using pymatgen
data_Li2MnP2O7
_symmetry_space_group_name_H-M   'P 1'
_cell_length_a   5.18455659
_cell_length_b   7.28628514
_cell_length_c   8.32905876
_cell_angle_alpha   66.15290496
_cell_angle_beta   92.34671583
_cell_angle_gamma   95.99941526
_symmetry_Int_Tables_number   1
_chemical_formula_structural   Li2MnP2O7
_chemical_formula_sum   'Li4 Mn2 P4 O14'
_cell_volume   286.20182801
_cell_formula_units_Z   2
loop_
 _symmetry_equiv_pos_site_id
 _symmetry_equiv_pos_as_xyz
  1  'x, y, z'
loop_
 _atom_site_type_symbol
 _atom_site_label
 _atom_site_symmetry_multiplicity
 _atom_site_fract_x
 _atom_site_fract_y
 _atom_site_fract_z
 _atom_site_occupancy
  Li  Li0  1  0.27942582  0.83084943  0.57633049  1
  Li  Li1  1  0.30293041  0.86156762  0.99242707  1
  Li  Li2  1  0.69706863  0.13843579  0.00757252  1
  Li  Li3  1  0.72057021  0.16915330  0.42366873  1
  Mn  Mn4  1  0.18631409  0.26795674  0.72046694  1
  Mn  Mn5  1  0.81370347  0.73200593  0.27953902  1
  P  P6  1  0.78182294  0.86964397  0.82040494  1
  P  P7  1  0.72680273  0.54849265  0.70176329  1
  P  P8  1  0.21817471  0.13035899  0.17959593  1
  P  P9  1  0.27319524  0.45151044  0.29823646  1
  O  O10  1  0.17431166  0.66146594  0.21304416  1
  O  O11  1  0.89422619  0.69285211  0.54546702  1
  O  O12  1  0.07247915  0.94452882  0.78897861  1
  O  O13  1  0.10577117  0.30715022  0.45453194  1
  O  O14  1  0.92751945  0.05547545  0.21102049  1
  O  O15  1  0.23571809  0.36751172  0.14433622  1
  O  O16  1  0.31500483  0.13404184  0.00481368  1
  O  O17  1  0.39163527  0.02253230  0.33361050  1
  O  O18  1  0.82568765  0.33853730  0.78695527  1
  O  O19  1  0.56563431  0.45958462  0.33779329  1
  O  O20  1  0.60836046  0.97747327  0.66638906  1
  O  O21  1  0.68499439  0.86596196  0.99518582  1
  O  O22  1  0.76428190  0.63249364  0.85566224  1
  O  O23  1  0.43436321  0.54041898  0.66220632  1
