# generated using pymatgen
data_VCrO3
_symmetry_space_group_name_H-M   'P 1'
_cell_length_a   5.49302845
_cell_length_b   5.13369709
_cell_length_c   7.49436816
_cell_angle_alpha   89.98335620
_cell_angle_beta   95.49595248
_cell_angle_gamma   89.89163116
_symmetry_Int_Tables_number   1
_chemical_formula_structural   VCrO3
_chemical_formula_sum   'V4 Cr4 O12'
_cell_volume   210.36583956
_cell_formula_units_Z   4
loop_
 _symmetry_equiv_pos_site_id
 _symmetry_equiv_pos_as_xyz
  1  'x, y, z'
loop_
 _atom_site_type_symbol
 _atom_site_label
 _atom_site_symmetry_multiplicity
 _atom_site_fract_x
 _atom_site_fract_y
 _atom_site_fract_z
 _atom_site_occupancy
  V  V0  1  0.79747391  0.49855449  0.84931094  1
  V  V1  1  0.29827851  0.00036006  0.85277094  1
  V  V2  1  0.70212224  0.99841001  0.14788591  1
  V  V3  1  0.29703475  -0.00003849  0.35417576  1
  Cr  Cr4  1  0.69961852  0.00077257  0.64851026  1
  Cr  Cr5  1  0.80018013  0.49996101  0.34897056  1
  Cr  Cr6  1  0.19953550  0.50013129  0.65027973  1
  Cr  Cr7  1  0.19987537  0.50063481  0.15217494  1
  O  O8  1  0.49919804  0.30326319  0.74718418  1
  O  O9  1  0.65513291  0.85185178  0.89998984  1
  O  O10  1  0.84993919  0.65345574  0.59749233  1
  O  O11  1  0.99968023  0.19468401  0.74710931  1
  O  O12  1  0.65369758  0.15192021  0.40121207  1
  O  O13  1  0.15465059  0.64912404  0.90260990  1
  O  O14  1  0.35006440  0.84532210  0.59932401  1
  O  O15  1  0.84971858  0.35031319  0.09827222  1
  O  O16  1  0.14933325  0.35050791  0.40285639  1
  O  O17  1  0.34730179  0.15430617  0.10042407  1
  O  O18  1  0.49825394  0.69496570  0.25014453  1
  O  O19  1  0.99891355  0.80149920  0.24930313  1
