# generated using pymatgen
data_PrAs2
_symmetry_space_group_name_H-M   'P 1'
_cell_length_a   4.17248253
_cell_length_b   6.95092805
_cell_length_c   10.30264928
_cell_angle_alpha   90.00000000
_cell_angle_beta   96.05343913
_cell_angle_gamma   90.00000000
_symmetry_Int_Tables_number   1
_chemical_formula_structural   PrAs2
_chemical_formula_sum   'Pr4 As8'
_cell_volume   297.13774281
_cell_formula_units_Z   4
loop_
 _symmetry_equiv_pos_site_id
 _symmetry_equiv_pos_as_xyz
  1  'x, y, z'
loop_
 _atom_site_type_symbol
 _atom_site_label
 _atom_site_symmetry_multiplicity
 _atom_site_fract_x
 _atom_site_fract_y
 _atom_site_fract_z
 _atom_site_occupancy
  Pr  Pr0  1  0.72869818  0.81365181  0.63973678  1
  Pr  Pr1  1  0.77130182  0.31365181  0.86026322  1
  Pr  Pr2  1  0.27130182  0.18634819  0.36026322  1
  Pr  Pr3  1  0.22869818  0.68634819  0.13973678  1
  As  As4  1  0.67754403  0.87725015  0.94972226  1
  As  As5  1  0.82245597  0.37725015  0.55027774  1
  As  As6  1  0.32245597  0.12274985  0.05027774  1
  As  As7  1  0.17754403  0.62274985  0.44972226  1
  As  As8  1  0.21027540  0.14582246  0.67126350  1
  As  As9  1  0.28972460  0.64582246  0.82873650  1
  As  As10  1  0.78972460  0.85417754  0.32873650  1
  As  As11  1  0.71027540  0.35417754  0.17126350  1
