# generated using pymatgen
data_CsBi2Br7
_symmetry_space_group_name_H-M   'P 1'
_cell_length_a   7.81628538
_cell_length_b   9.84025008
_cell_length_c   10.84411813
_cell_angle_alpha   75.91576528
_cell_angle_beta   83.54758644
_cell_angle_gamma   76.30281194
_symmetry_Int_Tables_number   1
_chemical_formula_structural   CsBi2Br7
_chemical_formula_sum   'Cs2 Bi4 Br14'
_cell_volume   784.65870859
_cell_formula_units_Z   2
loop_
 _symmetry_equiv_pos_site_id
 _symmetry_equiv_pos_as_xyz
  1  'x, y, z'
loop_
 _atom_site_type_symbol
 _atom_site_label
 _atom_site_symmetry_multiplicity
 _atom_site_fract_x
 _atom_site_fract_y
 _atom_site_fract_z
 _atom_site_occupancy
  Cs  Cs0  1  0.38828837  0.85935516  0.31514671  1
  Cs  Cs1  1  0.61171163  0.14064484  0.68485329  1
  Bi  Bi2  1  0.87127406  0.64210527  0.62501164  1
  Bi  Bi3  1  0.12872594  0.35789473  0.37498836  1
  Bi  Bi4  1  0.30648112  0.70534133  0.93892596  1
  Bi  Bi5  1  0.69351888  0.29465867  0.06107404  1
  Br  Br6  1  0.86784319  0.87096467  0.43186312  1
  Br  Br7  1  0.13215681  0.12903533  0.56813688  1
  Br  Br8  1  0.96701637  0.78999572  0.79274258  1
  Br  Br9  1  0.03298363  0.21000428  0.20725742  1
  Br  Br10  1  0.50299452  0.76431996  0.67529230  1
  Br  Br11  1  0.49700548  0.23568004  0.32470770  1
  Br  Br12  1  0.76396044  0.48548099  0.45208123  1
  Br  Br13  1  0.23603956  0.51451901  0.54791877  1
  Br  Br14  1  0.89366496  0.34740042  0.83123067  1
  Br  Br15  1  0.10633504  0.65259958  0.16876933  1
  Br  Br16  1  0.27090444  0.97975768  0.94728976  1
  Br  Br17  1  0.72909556  0.02024232  0.05271024  1
  Br  Br18  1  0.61806975  0.62426606  0.06701065  1
  Br  Br19  1  0.38193025  0.37573394  0.93298935  1
