# generated using pymatgen
data_La2Sn5
_symmetry_space_group_name_H-M   'P 1'
_cell_length_a   4.70617756
_cell_length_b   4.74317043
_cell_length_c   17.98140642
_cell_angle_alpha   90.00000000
_cell_angle_beta   97.51942435
_cell_angle_gamma   90.00000000
_symmetry_Int_Tables_number   1
_chemical_formula_structural   La2Sn5
_chemical_formula_sum   'La4 Sn10'
_cell_volume   397.93290543
_cell_formula_units_Z   2
loop_
 _symmetry_equiv_pos_site_id
 _symmetry_equiv_pos_as_xyz
  1  'x, y, z'
loop_
 _atom_site_type_symbol
 _atom_site_label
 _atom_site_symmetry_multiplicity
 _atom_site_fract_x
 _atom_site_fract_y
 _atom_site_fract_z
 _atom_site_occupancy
  La  La0  1  0.29720456  -0.00000000  0.59440911  1
  La  La1  1  0.70279544  -0.00000000  0.40559089  1
  La  La2  1  0.43215346  -0.00000000  0.86430692  1
  La  La3  1  0.56784654  -0.00000000  0.13569308  1
  Sn  Sn4  1  0.22119959  0.50000000  0.44239917  1
  Sn  Sn5  1  0.77880041  0.50000000  0.55760083  1
  Sn  Sn6  1  0.13794888  0.00000000  0.27589775  1
  Sn  Sn7  1  0.86205112  0.00000000  0.72410225  1
  Sn  Sn8  1  0.36203865  0.50000000  0.72407730  1
  Sn  Sn9  1  0.63796135  0.50000000  0.27592270  1
  Sn  Sn10  1  0.07170310  0.50000000  0.14340620  1
  Sn  Sn11  1  0.92829690  0.50000000  0.85659380  1
  Sn  Sn12  1  -0.00000000  -0.00000000  0.00000000  1
  Sn  Sn13  1  0.50000000  0.50000000  0.00000000  1
