# generated using pymatgen
data_LaAl4
_symmetry_space_group_name_H-M   'P 1'
_cell_length_a   4.37521744
_cell_length_b   8.87780147
_cell_length_c   8.87780147
_cell_angle_alpha   77.70074343
_cell_angle_beta   75.73462403
_cell_angle_gamma   75.73462403
_symmetry_Int_Tables_number   1
_chemical_formula_structural   LaAl4
_chemical_formula_sum   'La3 Al12'
_cell_volume   319.61009181
_cell_formula_units_Z   3
loop_
 _symmetry_equiv_pos_site_id
 _symmetry_equiv_pos_as_xyz
  1  'x, y, z'
loop_
 _atom_site_type_symbol
 _atom_site_label
 _atom_site_symmetry_multiplicity
 _atom_site_fract_x
 _atom_site_fract_y
 _atom_site_fract_z
 _atom_site_occupancy
  La  La0  1  -0.00000000  0.99037379  0.00962621  1
  La  La1  1  0.33258491  0.67102808  0.66380211  1
  La  La2  1  0.66741509  0.33619789  0.32897192  1
  Al  Al3  1  0.00000000  0.39141441  0.60858559  1
  Al  Al4  1  0.00000000  0.62130779  0.37869221  1
  Al  Al5  1  0.50000000  0.75183547  0.24816453  1
  Al  Al6  1  0.50000000  0.25449041  0.74550959  1
  Al  Al7  1  0.83927551  0.40804607  0.91340291  1
  Al  Al8  1  0.16072449  0.08659709  0.59195393  1
  Al  Al9  1  0.67066051  0.70982548  0.94885350  1
  Al  Al10  1  0.32933949  0.05114650  0.29017452  1
  Al  Al11  1  0.66129837  0.94971280  0.72769045  1
  Al  Al12  1  0.33870163  0.27230955  0.05028720  1
  Al  Al13  1  0.82658358  0.92077376  0.42605909  1
  Al  Al14  1  0.17341642  0.57394091  0.07922624  1
