# generated using pymatgen
data_Tm(CoGe)6
_symmetry_space_group_name_H-M   'P 1'
_cell_length_a   5.07938123
_cell_length_b   5.07925917
_cell_length_c   7.85340515
_cell_angle_alpha   90.00000000
_cell_angle_beta   90.00000000
_cell_angle_gamma   120.00080171
_symmetry_Int_Tables_number   1
_chemical_formula_structural   Tm(CoGe)6
_chemical_formula_sum   'Tm1 Co6 Ge6'
_cell_volume   175.46734676
_cell_formula_units_Z   1
loop_
 _symmetry_equiv_pos_site_id
 _symmetry_equiv_pos_as_xyz
  1  'x, y, z'
loop_
 _atom_site_type_symbol
 _atom_site_label
 _atom_site_symmetry_multiplicity
 _atom_site_fract_x
 _atom_site_fract_y
 _atom_site_fract_z
 _atom_site_occupancy
  Tm  Tm0  1  0.99998093  1.00000000  0.00000000  1
  Co  Co1  1  0.49999100  1.00000000  0.25026211  1
  Co  Co2  1  0.49998930  0.50000160  0.25025202  1
  Co  Co3  1  0.99998770  0.49999840  0.25025202  1
  Co  Co4  1  0.49999100  1.00000000  0.74973789  1
  Co  Co5  1  0.49998930  0.50000160  0.74974798  1
  Co  Co6  1  0.99998770  0.49999840  0.74974798  1
  Ge  Ge7  1  0.33332630  0.66669472  0.00000000  1
  Ge  Ge8  1  0.66663158  0.33330528  0.00000000  1
  Ge  Ge9  1  0.33331519  0.66668245  0.50000000  1
  Ge  Ge10  1  0.66663275  0.33331755  0.50000000  1
  Ge  Ge11  1  0.99998862  1.00000000  0.34387190  1
  Ge  Ge12  1  0.99998862  1.00000000  0.65612810  1
