# generated using pymatgen
data_Dy(MnSn)6
_symmetry_space_group_name_H-M   'P 1'
_cell_length_a   5.45626792
_cell_length_b   5.45645243
_cell_length_c   9.01465342
_cell_angle_alpha   90.00000000
_cell_angle_beta   90.00000000
_cell_angle_gamma   119.99888068
_symmetry_Int_Tables_number   1
_chemical_formula_structural   Dy(MnSn)6
_chemical_formula_sum   'Dy1 Mn6 Sn6'
_cell_volume   232.42916670
_cell_formula_units_Z   1
loop_
 _symmetry_equiv_pos_site_id
 _symmetry_equiv_pos_as_xyz
  1  'x, y, z'
loop_
 _atom_site_type_symbol
 _atom_site_label
 _atom_site_symmetry_multiplicity
 _atom_site_fract_x
 _atom_site_fract_y
 _atom_site_fract_z
 _atom_site_occupancy
  Dy  Dy0  1  0.00001214  0.00000000  -0.00000000  1
  Mn  Mn1  1  0.49994002  0.00000000  0.24897647  1
  Mn  Mn2  1  0.49998621  0.49998890  0.24894480  1
  Mn  Mn3  1  0.99999731  0.50001110  0.24894480  1
  Mn  Mn4  1  0.49994002  0.00000000  0.75102353  1
  Mn  Mn5  1  0.49998621  0.49998890  0.75105520  1
  Mn  Mn6  1  0.99999731  0.50001110  0.75105520  1
  Sn  Sn7  1  0.33333940  0.66663557  -0.00000000  1
  Sn  Sn8  1  0.66670383  0.33336443  -0.00000000  1
  Sn  Sn9  1  0.33330080  0.66664104  0.50000000  1
  Sn  Sn10  1  0.66665976  0.33335896  0.50000000  1
  Sn  Sn11  1  0.99996848  -0.00000000  0.33313946  1
  Sn  Sn12  1  0.99996848  -0.00000000  0.66686054  1
