# generated using pymatgen
data_Nd3Al11
_symmetry_space_group_name_H-M   'P 1'
_cell_length_a   4.35651759
_cell_length_b   8.50463072
_cell_length_c   8.50463072
_cell_angle_alpha   72.58474556
_cell_angle_beta   75.15967160
_cell_angle_gamma   75.15967160
_symmetry_Int_Tables_number   1
_chemical_formula_structural   Nd3Al11
_chemical_formula_sum   'Nd3 Al11'
_cell_volume   285.07351361
_cell_formula_units_Z   1
loop_
 _symmetry_equiv_pos_site_id
 _symmetry_equiv_pos_as_xyz
  1  'x, y, z'
loop_
 _atom_site_type_symbol
 _atom_site_label
 _atom_site_symmetry_multiplicity
 _atom_site_fract_x
 _atom_site_fract_y
 _atom_site_fract_z
 _atom_site_occupancy
  Nd  Nd0  1  -0.00000000  0.00000000  0.00000000  1
  Nd  Nd1  1  0.31738016  0.68261984  0.68261984  1
  Nd  Nd2  1  0.68261984  0.31738016  0.31738016  1
  Al  Al3  1  -0.00000000  0.50000000  0.50000000  1
  Al  Al4  1  0.50000000  0.28388208  0.71611792  1
  Al  Al5  1  0.50000000  0.71611792  0.28388208  1
  Al  Al6  1  0.33406607  0.29640758  0.03546028  1
  Al  Al7  1  0.66593393  0.70359242  0.96453972  1
  Al  Al8  1  0.33406607  0.03546028  0.29640758  1
  Al  Al9  1  0.66593393  0.96453972  0.70359242  1
  Al  Al10  1  0.13729283  0.58869434  0.13672000  1
  Al  Al11  1  0.86270717  0.41130566  0.86328000  1
  Al  Al12  1  0.13729283  0.13672000  0.58869434  1
  Al  Al13  1  0.86270717  0.86328000  0.41130566  1
