# generated using pymatgen
data_AgPbO3
_symmetry_space_group_name_H-M   'P 1'
_cell_length_a   5.77857610
_cell_length_b   6.06353639
_cell_length_c   5.77857556
_cell_angle_alpha   118.45719543
_cell_angle_beta   60.00000137
_cell_angle_gamma   118.45720163
_symmetry_Int_Tables_number   1
_chemical_formula_structural   AgPbO3
_chemical_formula_sum   'Ag2 Pb2 O6'
_cell_volume   146.41849341
_cell_formula_units_Z   2
loop_
 _symmetry_equiv_pos_site_id
 _symmetry_equiv_pos_as_xyz
  1  'x, y, z'
loop_
 _atom_site_type_symbol
 _atom_site_label
 _atom_site_symmetry_multiplicity
 _atom_site_fract_x
 _atom_site_fract_y
 _atom_site_fract_z
 _atom_site_occupancy
  Ag  Ag0  1  0.14257398  0.42772294  0.14257398  1
  Ag  Ag1  1  0.85742602  0.57227706  0.85742602  1
  Pb  Pb2  1  0.64583435  0.93750304  0.64583435  1
  Pb  Pb3  1  0.35416565  0.06249696  0.35416565  1
  O  O4  1  0.04809791  0.24314431  0.45617765  1
  O  O5  1  0.54382235  0.75685569  0.26113125  1
  O  O6  1  0.26113125  0.75685569  0.95190209  1
  O  O7  1  0.73886875  0.24314431  0.04809791  1
  O  O8  1  0.45617765  0.24314431  0.73886875  1
  O  O9  1  0.95190209  0.75685569  0.54382235  1
