# generated using pymatgen
data_TiGeIr
_symmetry_space_group_name_H-M   'P 1'
_cell_length_a   6.58739781
_cell_length_b   7.45697976
_cell_length_c   7.53761749
_cell_angle_alpha   119.64673822
_cell_angle_beta   115.91059395
_cell_angle_gamma   90.00000000
_symmetry_Int_Tables_number   1
_chemical_formula_structural   TiGeIr
_chemical_formula_sum   'Ti6 Ge6 Ir6'
_cell_volume   278.16115464
_cell_formula_units_Z   6
loop_
 _symmetry_equiv_pos_site_id
 _symmetry_equiv_pos_as_xyz
  1  'x, y, z'
loop_
 _atom_site_type_symbol
 _atom_site_label
 _atom_site_symmetry_multiplicity
 _atom_site_fract_x
 _atom_site_fract_y
 _atom_site_fract_z
 _atom_site_occupancy
  Ti  Ti0  1  0.90276290  0.94686472  0.39372945  1
  Ti  Ti1  1  0.50903346  0.05313528  0.60627055  1
  Ti  Ti2  1  0.50698303  0.52468740  0.54937479  1
  Ti  Ti3  1  0.95760823  0.47531260  0.45062521  1
  Ti  Ti4  1  0.07901798  0.75019351  0.00038702  1
  Ti  Ti5  1  0.07863097  0.24980649  0.99961298  1
  Ge  Ge6  1  0.17091621  0.66968067  0.33498021  1
  Ge  Ge7  1  0.83593600  0.33031933  0.66501979  1
  Ge  Ge8  1  0.17091621  0.16529954  0.33498021  1
  Ge  Ge9  1  0.83593600  0.83470046  0.66501979  1
  Ge  Ge10  1  0.46162440  0.71143858  0.92287716  1
  Ge  Ge11  1  0.53874724  0.28856142  0.07712284  1
  Ir  Ir12  1  0.25095445  0.91892112  0.75172463  1
  Ir  Ir13  1  0.49922981  0.08107888  0.24827537  1
  Ir  Ir14  1  0.25095445  0.33280351  0.75172463  1
  Ir  Ir15  1  0.49922981  0.66719649  0.24827537  1
  Ir  Ir16  1  0.75575943  0.50000000  1.00000000  1
  Ir  Ir17  1  0.75575943  1.00000000  1.00000000  1
