# generated using pymatgen
data_Tb2Al3Ge4
_symmetry_space_group_name_H-M   'P 1'
_cell_length_a   6.03086516
_cell_length_b   7.91569227
_cell_length_c   8.01200165
_cell_angle_alpha   90.00000000
_cell_angle_beta   112.10867372
_cell_angle_gamma   90.00000000
_symmetry_Int_Tables_number   1
_chemical_formula_structural   Tb2Al3Ge4
_chemical_formula_sum   'Tb4 Al6 Ge8'
_cell_volume   354.35755165
_cell_formula_units_Z   2
loop_
 _symmetry_equiv_pos_site_id
 _symmetry_equiv_pos_as_xyz
  1  'x, y, z'
loop_
 _atom_site_type_symbol
 _atom_site_label
 _atom_site_symmetry_multiplicity
 _atom_site_fract_x
 _atom_site_fract_y
 _atom_site_fract_z
 _atom_site_occupancy
  Tb  Tb0  1  0.61376844  0.08247260  0.22753688  1
  Tb  Tb1  1  0.38623156  0.91752740  0.77246312  1
  Tb  Tb2  1  0.88623156  0.58247260  0.77246312  1
  Tb  Tb3  1  0.11376844  0.41752740  0.22753688  1
  Al  Al4  1  0.50000000  0.50000000  -0.00000000  1
  Al  Al5  1  -0.00000000  0.00000000  -0.00000000  1
  Al  Al6  1  0.03269847  0.25000000  0.56539695  1
  Al  Al7  1  0.46730153  0.75000000  0.43460305  1
  Al  Al8  1  0.96730153  0.75000000  0.43460305  1
  Al  Al9  1  0.53269847  0.25000000  0.56539695  1
  Ge  Ge10  1  0.20332124  0.25000000  0.90664248  1
  Ge  Ge11  1  0.29667876  0.75000000  0.09335752  1
  Ge  Ge12  1  0.79667876  0.75000000  0.09335752  1
  Ge  Ge13  1  0.70332124  0.25000000  0.90664248  1
  Ge  Ge14  1  0.68467565  0.44903408  0.36935130  1
  Ge  Ge15  1  0.31532435  0.55096592  0.63064870  1
  Ge  Ge16  1  0.81532435  0.94903408  0.63064870  1
  Ge  Ge17  1  0.18467565  0.05096592  0.36935130  1
