# generated using pymatgen
data_Y2SnAu2
_symmetry_space_group_name_H-M   'P 1'
_cell_length_a   7.58494866
_cell_length_b   7.95482559
_cell_length_c   7.95482559
_cell_angle_alpha   90.00000000
_cell_angle_beta   90.00000000
_cell_angle_gamma   90.00000000
_symmetry_Int_Tables_number   1
_chemical_formula_structural   Y2SnAu2
_chemical_formula_sum   'Y8 Sn4 Au8'
_cell_volume   479.96986376
_cell_formula_units_Z   4
loop_
 _symmetry_equiv_pos_site_id
 _symmetry_equiv_pos_as_xyz
  1  'x, y, z'
loop_
 _atom_site_type_symbol
 _atom_site_label
 _atom_site_symmetry_multiplicity
 _atom_site_fract_x
 _atom_site_fract_y
 _atom_site_fract_z
 _atom_site_occupancy
  Y  Y0  1  0.50000000  0.15765237  0.84234763  1
  Y  Y1  1  0.50000000  0.84234763  0.15765237  1
  Y  Y2  1  0.00000000  0.34234763  0.34234763  1
  Y  Y3  1  0.00000000  0.65765237  0.65765237  1
  Y  Y4  1  0.50000000  0.68411345  0.68411345  1
  Y  Y5  1  0.50000000  0.31588655  0.31588655  1
  Y  Y6  1  -0.00000000  0.81588655  0.18411345  1
  Y  Y7  1  -0.00000000  0.18411345  0.81588655  1
  Sn  Sn8  1  0.25000000  0.00000000  0.50000000  1
  Sn  Sn9  1  0.75000000  0.50000000  0.00000000  1
  Sn  Sn10  1  0.75000000  0.00000000  0.50000000  1
  Sn  Sn11  1  0.25000000  0.50000000  0.00000000  1
  Au  Au12  1  0.27796647  0.37249657  0.62750343  1
  Au  Au13  1  0.27796647  0.62750343  0.37249657  1
  Au  Au14  1  0.77796647  0.12750343  0.12750343  1
  Au  Au15  1  0.77796647  0.87249657  0.87249657  1
  Au  Au16  1  0.72203353  0.62750343  0.37249657  1
  Au  Au17  1  0.72203353  0.37249657  0.62750343  1
  Au  Au18  1  0.22203353  0.87249657  0.87249657  1
  Au  Au19  1  0.22203353  0.12750343  0.12750343  1
