# generated using pymatgen
data_Rb2NaMoCl6
_symmetry_space_group_name_H-M   'P 1'
_cell_length_a   7.39578295
_cell_length_b   7.39578323
_cell_length_c   7.39578322
_cell_angle_alpha   59.99999902
_cell_angle_beta   59.99999857
_cell_angle_gamma   59.99999861
_symmetry_Int_Tables_number   1
_chemical_formula_structural   Rb2NaMoCl6
_chemical_formula_sum   'Rb2 Na1 Mo1 Cl6'
_cell_volume   286.04706307
_cell_formula_units_Z   1
loop_
 _symmetry_equiv_pos_site_id
 _symmetry_equiv_pos_as_xyz
  1  'x, y, z'
loop_
 _atom_site_type_symbol
 _atom_site_label
 _atom_site_symmetry_multiplicity
 _atom_site_fract_x
 _atom_site_fract_y
 _atom_site_fract_z
 _atom_site_occupancy
  Rb  Rb0  1  0.25000000  0.25000000  0.25000000  1
  Rb  Rb1  1  0.75000000  0.75000000  0.75000000  1
  Na  Na2  1  0.50000000  0.50000000  0.50000000  1
  Mo  Mo3  1  0.00000000  0.00000000  -0.00000000  1
  Cl  Cl4  1  0.23552946  0.76447054  0.23552946  1
  Cl  Cl5  1  0.76447054  0.76447054  0.23552946  1
  Cl  Cl6  1  0.76447054  0.23552946  0.76447054  1
  Cl  Cl7  1  0.76447054  0.23552946  0.23552946  1
  Cl  Cl8  1  0.23552946  0.76447054  0.76447054  1
  Cl  Cl9  1  0.23552946  0.23552946  0.76447054  1
