# generated using pymatgen
data_Na5Ce3Ti6Nb2O24
_symmetry_space_group_name_H-M   'P 1'
_cell_length_a   5.53853796
_cell_length_b   5.51219989
_cell_length_c   15.52114902
_cell_angle_alpha   89.94665277
_cell_angle_beta   90.00033050
_cell_angle_gamma   90.04470170
_symmetry_Int_Tables_number   1
_chemical_formula_structural   Na5Ce3Ti6Nb2O24
_chemical_formula_sum   'Na5 Ce3 Ti6 Nb2 O24'
_cell_volume   473.85300906
_cell_formula_units_Z   1
loop_
 _symmetry_equiv_pos_site_id
 _symmetry_equiv_pos_as_xyz
  1  'x, y, z'
loop_
 _atom_site_type_symbol
 _atom_site_label
 _atom_site_symmetry_multiplicity
 _atom_site_fract_x
 _atom_site_fract_y
 _atom_site_fract_z
 _atom_site_occupancy
  Na  Na0  1  0.99289516  0.50985517  0.12499108  1
  Na  Na1  1  0.99710533  0.51274272  0.62589459  1
  Na  Na2  1  0.50468297  0.00468660  0.37361752  1
  Na  Na3  1  0.50577489  0.01334146  0.87669890  1
  Na  Na4  1  0.49644611  0.98124441  0.62491331  1
  Ce  Ce5  1  0.48618143  0.98886813  0.12578074  1
  Ce  Ce6  1  0.00994483  0.48873275  0.37278148  1
  Ce  Ce7  1  0.01190187  0.49595506  0.87749220  1
  Ti  Ti8  1  0.99806791  0.00624842  0.00183829  1
  Ti  Ti9  1  0.99792994  0.00518860  0.24725344  1
  Ti  Ti10  1  0.00078322  0.99666844  0.49612454  1
  Ti  Ti11  1  0.50022443  0.50445755  0.25146703  1
  Ti  Ti12  1  0.50126956  0.50446740  0.75476310  1
  Ti  Ti13  1  0.50064336  0.50481778  0.00087846  1
  Nb  Nb14  1  0.99970766  0.00202676  0.74357386  1
  Nb  Nb15  1  0.50156057  0.49638968  0.50689084  1
  O  O16  1  0.99670636  0.90852623  0.37219772  1
  O  O17  1  0.99603785  0.91407739  0.87875111  1
  O  O18  1  0.24681562  0.74530476  0.22708907  1
  O  O19  1  0.23717849  0.73579297  0.51506380  1
  O  O20  1  0.24242357  0.73834529  0.73459321  1
  O  O21  1  0.24743691  0.75035687  0.02257953  1
  O  O22  1  0.24663823  0.24187059  0.47220727  1
  O  O23  1  0.25248595  0.24483364  0.26992901  1
  O  O24  1  0.24946225  0.25378250  0.77714765  1
  O  O25  1  0.25238945  0.25135195  0.97981059  1
  O  O26  1  0.50365826  0.40837705  0.12438163  1
  O  O27  1  0.50168383  0.41344598  0.62692296  1
  O  O28  1  0.49495419  0.57856886  0.87693524  1
  O  O29  1  0.49568253  0.57197695  0.37153241  1
  O  O30  1  0.73600493  0.76691364  0.02400707  1
  O  O31  1  0.73704115  0.76134487  0.22579743  1
  O  O32  1  0.75190981  0.74685538  0.51618801  1
  O  O33  1  0.74357069  0.75166197  0.73346855  1
  O  O34  1  0.76317671  0.25203478  0.47223671  1
  O  O35  1  0.76298322  0.26003576  0.27063431  1
  O  O36  1  0.76252088  0.26665004  0.77709461  1
  O  O37  1  0.76375930  0.26732750  0.97898947  1
  O  O38  1  0.00759232  0.07757357  0.12507110  1
  O  O39  1  0.00276829  0.07729853  0.62241014  1
