# generated using pymatgen
data_Na2Al2Si3(HO3)4
_symmetry_space_group_name_H-M   'P 1'
_cell_length_a   13.26703275
_cell_length_b   13.60794637
_cell_length_c   9.99035821
_cell_angle_alpha   76.25124418
_cell_angle_beta   70.90383269
_cell_angle_gamma   43.43454711
_symmetry_Int_Tables_number   1
_chemical_formula_structural   Na2Al2Si3(HO3)4
_chemical_formula_sum   'Na8 Al8 Si12 H16 O48'
_cell_volume   1171.80307352
_cell_formula_units_Z   4
loop_
 _symmetry_equiv_pos_site_id
 _symmetry_equiv_pos_as_xyz
  1  'x, y, z'
loop_
 _atom_site_type_symbol
 _atom_site_label
 _atom_site_symmetry_multiplicity
 _atom_site_fract_x
 _atom_site_fract_y
 _atom_site_fract_z
 _atom_site_occupancy
  Na  Na0  1  0.24641859  0.06409782  0.56029781  1
  Na  Na1  1  0.15621377  0.55989615  0.93594899  1
  Na  Na2  1  0.46270212  0.44163995  0.06121861  1
  Na  Na3  1  0.12116738  0.93791542  0.43556770  1
  Na  Na4  1  0.74752566  0.06247374  0.55909467  1
  Na  Na5  1  0.65148948  0.56251406  0.93832962  1
  Na  Na6  1  0.96345296  0.43915178  0.06007362  1
  Na  Na7  1  0.61857955  0.94013848  0.43923114  1
  Al  Al8  1  0.20523319  0.07618806  0.18586825  1
  Al  Al9  1  0.14860295  0.69156700  0.58295660  1
  Al  Al10  1  0.70394538  0.07800343  0.19017746  1
  Al  Al11  1  0.44321858  0.42565175  0.68675061  1
  Al  Al12  1  0.41790186  0.58078264  0.31463401  1
  Al  Al13  1  0.41201420  0.92165600  0.81328434  1
  Al  Al14  1  0.94439687  0.42314656  0.68612912  1
  Al  Al15  1  0.92092034  0.57745597  0.31231279  1
  Si  Si16  1  0.99858214  0.00043378  0.00255455  1
  Si  Si17  1  0.06566215  0.18951804  0.91867890  1
  Si  Si18  1  0.50011561  -0.00005165  0.99955805  1
  Si  Si19  1  0.12329766  0.50133874  0.49913708  1
  Si  Si20  1  0.47165146  0.31145304  0.42164439  1
  Si  Si21  1  0.56636064  0.18886172  0.92443999  1
  Si  Si22  1  0.31037436  0.80742508  0.07803862  1
  Si  Si23  1  0.62663830  0.49877767  0.49786838  1
  Si  Si24  1  0.65023318  0.69037266  0.57950123  1
  Si  Si25  1  0.97337403  0.30986936  0.41944714  1
  Si  Si26  1  0.80783286  0.81131203  0.08010778  1
  Si  Si27  1  0.90897460  0.92384242  0.81723062  1
  H  H28  1  0.37402408  0.10004908  0.29100513  1
  H  H29  1  0.34712006  0.19953258  0.38605867  1
  H  H30  1  0.14788477  0.40300871  0.79008500  1
  H  H31  1  0.14640857  0.59856014  0.21102512  1
  H  H32  1  0.26978644  0.30036735  0.88324520  1
  H  H33  1  0.16635583  0.69767839  0.11552319  1
  H  H34  1  0.17295056  0.89826786  0.70914682  1
  H  H35  1  0.33790169  0.79936141  0.61365242  1
  H  H36  1  0.87419060  0.10008052  0.29117984  1
  H  H37  1  0.84721305  0.19935213  0.38606264  1
  H  H38  1  0.64760932  0.40248960  0.78992303  1
  H  H39  1  0.64592654  0.59844208  0.21015664  1
  H  H40  1  0.77041710  0.30037951  0.88295599  1
  H  H41  1  0.66440647  0.69875003  0.11481482  1
  H  H42  1  0.67160011  0.89897795  0.70942937  1
  H  H43  1  0.83992595  0.79875656  0.61283076  1
  O  O44  1  0.08937360  0.19477671  0.06595498  1
  O  O45  1  0.10656400  0.14553514  0.35925449  1
  O  O46  1  0.00437762  0.30411847  0.56719671  1
  O  O47  1  0.22484954  0.08074838  0.80381323  1
  O  O48  1  0.36615550  0.04709332  0.13868460  1
  O  O49  1  0.06360918  0.44821048  0.63652912  1
  O  O50  1  0.06192160  0.54039018  0.35854062  1
  O  O51  1  0.38141438  0.10704496  0.38302445  1
  O  O52  1  0.16629657  0.39251266  0.88368848  1
  O  O53  1  0.06921925  0.64210651  0.54571206  1
  O  O54  1  0.19482154  0.60780494  0.11652340  1
  O  O55  1  0.30941590  0.36079982  0.45216582  1
  O  O56  1  0.99023521  0.86879865  0.65618912  1
  O  O57  1  0.58990521  0.19537803  0.06957703  1
  O  O58  1  0.48220661  0.13591056  0.95135426  1
  O  O59  1  0.16216883  0.86041203  0.04131612  1
  O  O60  1  0.25393228  0.58117467  0.70966458  1
  O  O61  1  0.60472992  0.14596312  0.36256436  1
  O  O62  1  0.24565086  0.70557397  0.42777676  1
  O  O63  1  0.99011802  0.95462493  0.87000305  1
  O  O64  1  0.50601481  0.30361224  0.56837384  1
  O  O65  1  0.47105905  0.41857841  0.30521039  1
  O  O66  1  0.46268150  0.34712514  0.85764797  1
  O  O67  1  0.41101614  0.64369643  0.13629373  1
  O  O68  1  0.25095168  0.91714952  0.19239078  1
  O  O69  1  0.73264251  0.07353827  0.81375038  1
  O  O70  1  0.86508281  0.04765013  0.14039476  1
  O  O71  1  0.23436068  0.89331625  0.61745970  1
  O  O72  1  0.56395456  0.45114274  0.63686858  1
  O  O73  1  0.56200808  0.54407022  0.35914081  1
  O  O74  1  0.88096757  0.10716196  0.38350438  1
  O  O75  1  0.66705391  0.39260020  0.88265536  1
  O  O76  1  0.58164506  0.63725047  0.54469774  1
  O  O77  1  0.41480270  0.80191973  0.93117181  1
  O  O78  1  0.69699228  0.60676112  0.11699098  1
  O  O79  1  0.81114508  0.35901862  0.45174978  1
  O  O80  1  0.50572930  0.85402853  0.63932783  1
  O  O81  1  0.97981584  0.13583983  0.94817321  1
  O  O82  1  0.66329061  0.86180700  0.04319540  1
  O  O83  1  0.75211927  0.58301371  0.69609375  1
  O  O84  1  0.74611760  0.69726295  0.43256385  1
  O  O85  1  0.50191480  0.95333016  0.86383992  1
  O  O86  1  0.96894240  0.41918643  0.30316811  1
  O  O87  1  0.95164660  0.35351403  0.86041134  1
  O  O88  1  0.91028904  0.64736723  0.13620046  1
  O  O89  1  0.75206501  0.91774965  0.19439685  1
  O  O90  1  0.73463365  0.89237377  0.61767360  1
  O  O91  1  0.91105082  0.81147216  0.92994477  1
