# generated using pymatgen
data_Na16(WO3)19
_symmetry_space_group_name_H-M   'P 1'
_cell_length_a   75.24470182
_cell_length_b   5.60377634
_cell_length_c   5.60377674
_cell_angle_alpha   60.26565524
_cell_angle_beta   45.03951861
_cell_angle_gamma   45.03951468
_symmetry_Int_Tables_number   1
_chemical_formula_structural   Na16(WO3)19
_chemical_formula_sum   'Na16 W19 O57'
_cell_volume   1183.03225305
_cell_formula_units_Z   1
loop_
 _symmetry_equiv_pos_site_id
 _symmetry_equiv_pos_as_xyz
  1  'x, y, z'
loop_
 _atom_site_type_symbol
 _atom_site_label
 _atom_site_symmetry_multiplicity
 _atom_site_fract_x
 _atom_site_fract_y
 _atom_site_fract_z
 _atom_site_occupancy
  Na  Na0  1  0.05268702  -0.00027309  -0.00027309  1
  Na  Na1  1  0.10585714  0.99561819  0.99561819  1
  Na  Na2  1  0.20999620  0.00343121  0.00343121  1
  Na  Na3  1  0.26292479  0.00121720  0.00121720  1
  Na  Na4  1  0.36774629  0.00513182  0.00513182  1
  Na  Na5  1  0.42052081  0.00301907  0.00301907  1
  Na  Na6  1  0.47370970  0.99955601  0.99955601  1
  Na  Na7  1  0.52624610  0.99967154  0.99967154  1
  Na  Na8  1  0.57887989  0.00098178  0.00098178  1
  Na  Na9  1  0.63166919  0.99981897  0.99981897  1
  Na  Na10  1  0.68396627  0.00182102  0.00182102  1
  Na  Na11  1  0.73685237  0.00022926  0.00022926  1
  Na  Na12  1  0.78970915  0.99811479  0.99811479  1
  Na  Na13  1  0.84231554  0.99866476  0.99866476  1
  Na  Na14  1  0.89514912  0.99716272  0.99716272  1
  Na  Na15  1  0.94799781  0.99599351  0.99599351  1
  W  W16  1  0.02592727  0.50258896  0.50258896  1
  W  W17  1  0.07885602  0.49933367  0.49933367  1
  W  W18  1  0.13240927  0.49435951  0.49435951  1
  W  W19  1  0.18335877  0.50648726  0.50648726  1
  W  W20  1  0.23672812  0.50070312  0.50070312  1
  W  W21  1  0.28965631  0.49886337  0.49886337  1
  W  W22  1  0.34082916  0.50921825  0.50921825  1
  W  W23  1  0.39353848  0.50759306  0.50759306  1
  W  W24  1  0.44679464  0.50339584  0.50339584  1
  W  W25  1  0.49979945  0.50208486  0.50208486  1
  W  W26  1  0.55259059  0.49872873  0.49872873  1
  W  W27  1  0.60518359  0.50091218  0.50091218  1
  W  W28  1  0.65785401  0.50049907  0.50049907  1
  W  W29  1  0.71048534  0.50052327  0.50052327  1
  W  W30  1  0.76328525  0.50014738  0.50014738  1
  W  W31  1  0.81611958  0.49650319  0.49650319  1
  W  W32  1  0.86902487  0.49618450  0.49618450  1
  W  W33  1  0.92217794  0.49301788  0.49301788  1
  W  W34  1  0.97465733  0.49331993  0.49331993  1
  O  O35  1  0.00029118  0.49310392  0.00247027  1
  O  O36  1  0.00029118  0.00247027  0.49310392  1
  O  O37  1  0.99969008  0.49822509  0.49822509  1
  O  O38  1  0.05328091  0.50252544  0.99665412  1
  O  O39  1  0.05328091  0.99665412  0.50252544  1
  O  O40  1  0.05353352  0.49723987  0.49723987  1
  O  O41  1  0.10374848  0.51027286  0.01407475  1
  O  O42  1  0.10374848  0.01407475  0.51027286  1
  O  O43  1  0.10430446  0.51093244  0.51093244  1
  O  O44  1  0.15884675  0.99152757  0.48612212  1
  O  O45  1  0.15884675  0.48612212  0.99152757  1
  O  O46  1  0.15675228  0.50329737  0.50329737  1
  O  O47  1  0.21177181  0.99188724  0.48964928  1
  O  O48  1  0.21177181  0.48964928  0.99188724  1
  O  O49  1  0.21186308  0.49196535  0.49196535  1
  O  O50  1  0.26258912  0.00468522  0.50037204  1
  O  O51  1  0.26258912  0.50037204  0.00468522  1
  O  O52  1  0.26193741  0.50663794  0.50663794  1
  O  O53  1  0.31529831  0.99873246  0.50939635  1
  O  O54  1  0.31529831  0.50939635  0.99873246  1
  O  O55  1  0.31631115  0.50036655  0.50036655  1
  O  O56  1  0.36798490  0.00920281  0.50497244  1
  O  O57  1  0.36798490  0.50497244  0.00920281  1
  O  O58  1  0.36798383  0.49737309  0.49737309  1
  O  O59  1  0.42027011  0.01118388  0.50193092  1
  O  O60  1  0.42027011  0.50193092  0.01118388  1
  O  O61  1  0.42084272  0.50588504  0.50588504  1
  O  O62  1  0.47335737  0.99553629  0.50227591  1
  O  O63  1  0.47335737  0.50227591  0.99553629  1
  O  O64  1  0.47287638  0.50010027  0.50010027  1
  O  O65  1  0.52683645  0.00008170  0.48895443  1
  O  O66  1  0.52683645  0.48895443  0.00008170  1
  O  O67  1  0.52617313  0.50095451  0.50095451  1
  O  O68  1  0.57856116  0.00638272  0.50733233  1
  O  O69  1  0.57856116  0.50733233  0.00638272  1
  O  O70  1  0.57931058  0.50293751  0.50293751  1
  O  O71  1  0.63203780  0.99488635  0.49701939  1
  O  O72  1  0.63203780  0.49701939  0.99488635  1
  O  O73  1  0.63106025  0.49957719  0.49957719  1
  O  O74  1  0.68356889  0.00662747  0.50585980  1
  O  O75  1  0.68356889  0.50585980  0.00662747  1
  O  O76  1  0.68472129  0.50077963  0.50077963  1
  O  O77  1  0.73684706  0.99331692  0.50070169  1
  O  O78  1  0.73684706  0.50070169  0.99331692  1
  O  O79  1  0.73642463  0.49755952  0.49755952  1
  O  O80  1  0.79010588  0.99841393  0.48991020  1
  O  O81  1  0.79010588  0.48991020  0.99841393  1
  O  O82  1  0.78954663  0.49959183  0.49959183  1
  O  O83  1  0.84213650  0.00353541  0.50404976  1
  O  O84  1  0.84213650  0.50404976  0.00353541  1
  O  O85  1  0.84286039  0.50036244  0.50036244  1
  O  O86  1  0.89609581  0.98842522  0.48698003  1
  O  O87  1  0.89609581  0.48698003  0.98842522  1
  O  O88  1  0.89499306  0.49340084  0.49340084  1
  O  O89  1  0.94729094  0.99133219  0.50508072  1
  O  O90  1  0.94729094  0.50508072  0.99133219  1
  O  O91  1  0.94778888  0.50272459  0.50272459  1
