# generated using pymatgen
data_Li4Zn(PS4)2
_symmetry_space_group_name_H-M   'P 1'
_cell_length_a   6.25221111
_cell_length_b   10.28359068
_cell_length_c   10.32586348
_cell_angle_alpha   101.79284373
_cell_angle_beta   95.20636126
_cell_angle_gamma   100.06765585
_symmetry_Int_Tables_number   1
_chemical_formula_structural   Li4Zn(PS4)2
_chemical_formula_sum   'Li8 Zn2 P4 S16'
_cell_volume   634.35052358
_cell_formula_units_Z   2
loop_
 _symmetry_equiv_pos_site_id
 _symmetry_equiv_pos_as_xyz
  1  'x, y, z'
loop_
 _atom_site_type_symbol
 _atom_site_label
 _atom_site_symmetry_multiplicity
 _atom_site_fract_x
 _atom_site_fract_y
 _atom_site_fract_z
 _atom_site_occupancy
  Li  Li0  1  0.45904010  0.87859150  0.83679417  1
  Li  Li1  1  0.98789582  0.88822598  0.31460928  1
  Li  Li2  1  0.67904414  0.26310007  0.88529156  1
  Li  Li3  1  0.04738908  0.01775004  0.00291288  1
  Li  Li4  1  0.27759160  0.49965058  0.77491468  1
  Li  Li5  1  0.18353913  0.27275040  0.38944892  1
  Li  Li6  1  0.88488226  0.73787521  0.63225057  1
  Li  Li7  1  0.40466172  0.75807014  0.13935051  1
  Zn  Zn8  1  0.54855727  0.01484717  0.50848463  1
  Zn  Zn9  1  0.77753606  0.50302641  0.26111425  1
  P  P10  1  0.34459573  0.63422105  0.45170926  1
  P  P11  1  0.10903031  0.12057135  0.69459789  1
  P  P12  1  0.59961175  0.13674963  0.19680919  1
  P  P13  1  0.84705923  0.64219662  0.95754261  1
  S  S14  1  0.80328874  0.29977690  0.32806450  1
  S  S15  1  0.05332298  0.81058889  0.07996663  1
  S  S16  1  0.30147450  0.28059567  0.82328816  1
  S  S17  1  0.53908472  0.80796559  0.57970754  1
  S  S18  1  0.53492963  0.68074168  0.93305823  1
  S  S19  1  0.80667057  0.17524762  0.66651961  1
  S  S20  1  0.03209280  0.68044448  0.41783575  1
  S  S21  1  0.29450723  0.17469119  0.18025316  1
  S  S22  1  0.62407184  0.96983285  0.28547364  1
  S  S23  1  0.86131768  0.47639747  0.04201712  1
  S  S24  1  0.09644864  0.94971481  0.76983042  1
  S  S25  1  0.35988745  0.48151219  0.54324814  1
  S  S26  1  0.20705243  0.08284061  0.50191693  1
  S  S27  1  0.44607027  0.58883441  0.26630253  1
  S  S28  1  0.69469437  0.08497569  0.01101940  1
  S  S29  1  0.94465394  0.58821478  0.77566886  1
