# generated using pymatgen
data_Li4Zn(PS4)2
_symmetry_space_group_name_H-M   'P 1'
_cell_length_a   6.40872222
_cell_length_b   7.91278511
_cell_length_c   18.47398757
_cell_angle_alpha   90.25794533
_cell_angle_beta   90.23433717
_cell_angle_gamma   89.80263704
_symmetry_Int_Tables_number   1
_chemical_formula_structural   Li4Zn(PS4)2
_chemical_formula_sum   'Li12 Zn3 P6 S24'
_cell_volume   936.80863222
_cell_formula_units_Z   3
loop_
 _symmetry_equiv_pos_site_id
 _symmetry_equiv_pos_as_xyz
  1  'x, y, z'
loop_
 _atom_site_type_symbol
 _atom_site_label
 _atom_site_symmetry_multiplicity
 _atom_site_fract_x
 _atom_site_fract_y
 _atom_site_fract_z
 _atom_site_occupancy
  Li  Li0  1  0.69259921  0.24489057  0.66816605  1
  Li  Li1  1  0.68798550  0.25496943  0.99790263  1
  Li  Li2  1  0.30356816  0.26358899  0.83008867  1
  Li  Li3  1  0.32871950  0.25521935  0.17110055  1
  Li  Li4  1  0.68850075  0.76249289  0.99950683  1
  Li  Li5  1  0.30559676  0.74618239  0.82851047  1
  Li  Li6  1  0.31123926  0.73555728  0.50403576  1
  Li  Li7  1  0.32027080  0.74787230  0.16838346  1
  Li  Li8  1  0.84964935  0.00452700  0.83894309  1
  Li  Li9  1  0.85233770  0.02430464  0.17380253  1
  Li  Li10  1  0.13106085  0.47104587  0.33723952  1
  Li  Li11  1  0.14713440  0.50399185  0.00736384  1
  Zn  Zn12  1  0.30222524  0.24157993  0.49881299  1
  Zn  Zn13  1  0.69835479  0.74755549  0.66406426  1
  Zn  Zn14  1  0.69436703  0.75210343  0.33741206  1
  P  P15  1  0.19840255  0.99871680  0.66312847  1
  P  P16  1  0.17335374  0.98891531  0.33550084  1
  P  P17  1  0.18336961  0.00564230  0.00112414  1
  P  P18  1  0.81747175  0.50972738  0.83213789  1
  P  P19  1  0.80454187  0.49392876  0.49907762  1
  P  P20  1  0.82390067  0.50098204  0.17125718  1
  S  S21  1  0.32161585  0.21535273  0.69965713  1
  S  S22  1  0.32942053  0.20170534  0.37206437  1
  S  S23  1  0.33044845  0.21924222  0.03923946  1
  S  S24  1  0.66924663  0.29367161  0.86618252  1
  S  S25  1  0.65892211  0.28063775  0.53700295  1
  S  S26  1  0.68139708  0.29988821  0.21527274  1
  S  S27  1  0.33708704  0.77532256  0.69630502  1
  S  S28  1  0.32839459  0.76926126  0.37062488  1
  S  S29  1  0.32778845  0.78957820  0.03787281  1
  S  S30  1  0.66694668  0.72368453  0.86793011  1
  S  S31  1  0.68717204  0.72157685  0.53552080  1
  S  S32  1  0.68553565  0.72785668  0.20776221  1
  S  S33  1  0.19856285  0.00578463  0.88946572  1
  S  S34  1  0.17431170  0.99462971  0.55172945  1
  S  S35  1  0.20028816  0.99900951  0.22454254  1
  S  S36  1  0.83220100  0.50388461  0.71993670  1
  S  S37  1  0.77125908  0.48395407  0.38718345  1
  S  S38  1  0.79973798  0.50888650  0.05980376  1
  S  S39  1  0.88968328  0.98840459  0.70383035  1
  S  S40  1  0.87551569  0.99473293  0.37265433  1
  S  S41  1  0.87952910  0.00901247  0.03673078  1
  S  S42  1  0.11581380  0.50759629  0.87303713  1
  S  S43  1  0.10984391  0.48341836  0.53587870  1
  S  S44  1  0.13073586  0.50289537  0.20405822  1
