# generated using pymatgen
data_Na2MnPCO7
_symmetry_space_group_name_H-M   'P 1'
_cell_length_a   8.46906172
_cell_length_b   8.50188953
_cell_length_c   10.56222914
_cell_angle_alpha   71.43894764
_cell_angle_beta   109.38198743
_cell_angle_gamma   76.99409716
_symmetry_Int_Tables_number   1
_chemical_formula_structural   Na2MnPCO7
_chemical_formula_sum   'Na8 Mn4 P4 C4 O28'
_cell_volume   631.88728925
_cell_formula_units_Z   4
loop_
 _symmetry_equiv_pos_site_id
 _symmetry_equiv_pos_as_xyz
  1  'x, y, z'
loop_
 _atom_site_type_symbol
 _atom_site_label
 _atom_site_symmetry_multiplicity
 _atom_site_fract_x
 _atom_site_fract_y
 _atom_site_fract_z
 _atom_site_occupancy
  Na  Na0  1  0.51017334  0.51026417  0.74307270  1
  Na  Na1  1  0.21621310  0.23925641  0.73817108  1
  Na  Na2  1  0.75515287  0.75360120  0.76956109  1
  Na  Na3  1  0.76009905  0.74116291  0.24458085  1
  Na  Na4  1  0.24120549  0.26364981  0.24523238  1
  Na  Na5  1  0.48474248  0.50675144  0.24827374  1
  Na  Na6  1  0.00567674  0.98752008  0.23931182  1
  Na  Na7  1  0.52737795  0.21783679  0.07653283  1
  Mn  Mn8  1  0.59120359  0.16637743  0.64702234  1
  Mn  Mn9  1  0.09035492  0.66571410  0.64809446  1
  Mn  Mn10  1  0.91409292  0.33085449  0.35727252  1
  Mn  Mn11  1  0.41192589  0.84242162  0.35238040  1
  P  P12  1  0.76359799  0.48753002  0.57678008  1
  P  P13  1  0.27484112  0.98040120  0.57430514  1
  P  P14  1  0.73529955  0.01651623  0.42395608  1
  P  P15  1  0.23106491  0.51372438  0.42521072  1
  C  C16  1  0.68861039  0.05743645  0.92632571  1
  C  C17  1  0.20695888  0.54229117  0.92573465  1
  C  C18  1  0.79811608  0.44662729  0.07791167  1
  C  C19  1  0.30687375  0.95133994  0.08058568  1
  O  O20  1  0.25726465  0.02136511  0.94537796  1
  O  O21  1  0.72518342  0.52091967  0.93877129  1
  O  O22  1  0.27847684  0.48165346  0.84690965  1
  O  O23  1  0.76194734  0.98949307  0.85437838  1
  O  O24  1  0.54473123  0.20127210  0.84408075  1
  O  O25  1  0.06157972  0.68028696  0.84679353  1
  O  O26  1  0.94544579  0.49303444  0.66870921  1
  O  O27  1  0.73248164  0.32654899  0.67010133  1
  O  O28  1  0.44885864  0.99718491  0.66822395  1
  O  O29  1  0.26641297  0.80141919  0.66109397  1
  O  O30  1  0.73249284  0.00948523  0.56937471  1
  O  O31  1  0.10967742  0.14295413  0.54030120  1
  O  O32  1  0.60730996  0.66102839  0.54276473  1
  O  O33  1  0.24067232  0.50303101  0.57638771  1
  O  O34  1  0.75399298  0.48603489  0.42828762  1
  O  O35  1  0.90037352  0.85212168  0.45621775  1
  O  O36  1  0.39548704  0.35116961  0.45308965  1
  O  O37  1  0.26806900  0.99271631  0.42167631  1
  O  O38  1  0.56128865  0.01266449  0.31598950  1
  O  O39  1  0.74925849  0.19136628  0.32911559  1
  O  O40  1  0.05461994  0.49774418  0.33259612  1
  O  O41  1  0.24149422  0.68849618  0.33273482  1
  O  O42  1  0.94081439  0.30131334  0.16117339  1
  O  O43  1  0.44701454  0.80219061  0.17629186  1
  O  O44  1  0.72931361  0.51254061  0.15575838  1
  O  O45  1  0.22892269  0.02247613  0.15087032  1
  O  O46  1  0.75530270  0.98717414  0.06773550  1
  O  O47  1  0.28765143  0.45921174  0.06643885  1
