# generated using pymatgen
data_Na2MnPCO7
_symmetry_space_group_name_H-M   'P 1'
_cell_length_a   10.43625882
_cell_length_b   6.72773662
_cell_length_c   10.43208497
_cell_angle_alpha   90.11740709
_cell_angle_beta   121.38598256
_cell_angle_gamma   89.65541532
_symmetry_Int_Tables_number   1
_chemical_formula_structural   Na2MnPCO7
_chemical_formula_sum   'Na8 Mn4 P4 C4 O28'
_cell_volume   625.27482681
_cell_formula_units_Z   4
loop_
 _symmetry_equiv_pos_site_id
 _symmetry_equiv_pos_as_xyz
  1  'x, y, z'
loop_
 _atom_site_type_symbol
 _atom_site_label
 _atom_site_symmetry_multiplicity
 _atom_site_fract_x
 _atom_site_fract_y
 _atom_site_fract_z
 _atom_site_occupancy
  Na  Na0  1  0.01057750  0.46388336  0.25872356  1
  Na  Na1  1  0.49504508  0.00828141  0.24174197  1
  Na  Na2  1  0.49980677  0.49486266  0.24223682  1
  Na  Na3  1  0.49162538  0.50473651  0.75414634  1
  Na  Na4  1  0.49228414  0.99456294  0.75450669  1
  Na  Na5  1  0.00836428  0.50573251  0.75180450  1
  Na  Na6  1  0.00903183  0.99440038  0.75233117  1
  Na  Na7  1  0.84825314  0.76709632  0.93154695  1
  Mn  Mn8  1  0.28117037  0.75798684  0.35211197  1
  Mn  Mn9  1  0.79130530  0.75545347  0.35161721  1
  Mn  Mn10  1  0.21145227  0.24878116  0.64388249  1
  Mn  Mn11  1  0.71600399  0.25171580  0.64860967  1
  P  P12  1  0.35914146  0.25146258  0.41928342  1
  P  P13  1  0.85314189  0.25169867  0.42195066  1
  P  P14  1  0.14369411  0.74782522  0.57826049  1
  P  P15  1  0.64088216  0.75102721  0.57941334  1
  C  C16  1  0.17023323  0.74761436  0.07139116  1
  C  C17  1  0.67742782  0.74542714  0.07210180  1
  C  C18  1  0.32729826  0.24959414  0.92422119  1
  C  C19  1  0.82509790  0.25315471  0.92447306  1
  O  O20  1  0.39665525  0.25242676  0.06393118  1
  O  O21  1  0.88840178  0.25940852  0.06262052  1
  O  O22  1  0.10091651  0.74661766  0.14772514  1
  O  O23  1  0.60629001  0.75645781  0.14645582  1
  O  O24  1  0.31452852  0.74914179  0.15302289  1
  O  O25  1  0.82159780  0.73240731  0.15654262  1
  O  O26  1  0.28906866  0.06184838  0.32691424  1
  O  O27  1  0.27661163  0.43908724  0.32811184  1
  O  O28  1  0.77021845  0.06391047  0.33345449  1
  O  O29  1  0.77104506  0.43981105  0.33073480  1
  O  O30  1  0.01920984  0.25606343  0.45671742  1
  O  O31  1  0.13398408  0.73755417  0.42638929  1
  O  O32  1  0.52708191  0.25984293  0.45516135  1
  O  O33  1  0.63352368  0.75037524  0.42767343  1
  O  O34  1  0.36435502  0.24788898  0.57125991  1
  O  O35  1  0.47417576  0.75181861  0.54721164  1
  O  O36  1  0.86453173  0.25263718  0.57752127  1
  O  O37  1  0.97708265  0.75130473  0.54802144  1
  O  O38  1  0.22338962  0.56234907  0.67566360  1
  O  O39  1  0.22387040  0.93604651  0.66895386  1
  O  O40  1  0.72505639  0.56904558  0.67944185  1
  O  O41  1  0.72420291  0.93420394  0.67733842  1
  O  O42  1  0.18152835  0.24799547  0.83569234  1
  O  O43  1  0.67859020  0.24957807  0.82941920  1
  O  O44  1  0.39719783  0.24811975  0.84776861  1
  O  O45  1  0.89954911  0.24872068  0.85179498  1
  O  O46  1  0.09108264  0.74843750  0.92892097  1
  O  O47  1  0.60864234  0.74950377  0.92961844  1
