# generated using pymatgen
data_K(WO3)3
_symmetry_space_group_name_H-M   'P 1'
_cell_length_a   7.52316891
_cell_length_b   32.75875726
_cell_length_c   3.88086668
_cell_angle_alpha   90.03281124
_cell_angle_beta   90.03976222
_cell_angle_gamma   83.43506670
_symmetry_Int_Tables_number   1
_chemical_formula_structural   K(WO3)3
_chemical_formula_sum   'K5 W15 O45'
_cell_volume   950.16650650
_cell_formula_units_Z   5
loop_
 _symmetry_equiv_pos_site_id
 _symmetry_equiv_pos_as_xyz
  1  'x, y, z'
loop_
 _atom_site_type_symbol
 _atom_site_label
 _atom_site_symmetry_multiplicity
 _atom_site_fract_x
 _atom_site_fract_y
 _atom_site_fract_z
 _atom_site_occupancy
  K  K0  1  0.79700792  0.89952746  0.88950940  1
  K  K1  1  0.40461992  0.70089861  0.90747601  1
  K  K2  1  0.00596583  0.49916125  0.90468863  1
  K  K3  1  0.60609470  0.29947806  0.90047697  1
  K  K4  1  0.19661367  0.09934333  0.09041415  1
  W  W5  1  0.29774941  0.90015200  0.49190040  1
  W  W6  1  0.59970693  0.79996823  0.49828444  1
  W  W7  1  0.89961961  0.70003627  0.49915717  1
  W  W8  1  0.10014545  0.79995768  0.49906711  1
  W  W9  1  0.69841126  0.60022659  0.50292488  1
  W  W10  1  0.19810254  0.59978255  0.50019641  1
  W  W11  1  0.50016085  0.50008111  0.50192822  1
  W  W12  1  0.80030344  0.40015082  0.49940752  1
  W  W13  1  0.30162042  0.39980413  0.50345781  1
  W  W14  1  0.10064264  0.29996841  0.50267193  1
  W  W15  1  0.90122019  0.19955356  0.49761768  1
  W  W16  1  0.40092240  0.20006117  0.50327070  1
  W  W17  1  0.70007565  0.09994272  0.50500376  1
  W  W18  1  0.49902221  0.00009678  0.50018652  1
  W  W19  1  0.99855821  0.99993007  0.49741192  1
  O  O20  1  0.75893733  0.98350011  0.49924111  1
  O  O21  1  0.46276902  0.94198516  0.49833530  1
  O  O22  1  0.09400308  0.94157853  0.49640395  1
  O  O23  1  0.30061632  0.90013095  0.99523305  1
  O  O24  1  0.50484357  0.85817598  0.49777140  1
  O  O25  1  0.84370070  0.81614486  0.50117306  1
  O  O26  1  0.59789700  0.80084661  0.99874276  1
  O  O27  1  0.13573072  0.85843264  0.49744921  1
  O  O28  1  0.35577954  0.78345419  0.49910666  1
  O  O29  1  0.69193001  0.74262289  0.49919227  1
  O  O30  1  0.89691598  0.69944848  -0.00008468  1
  O  O31  1  0.10096308  0.80008118  0.99937629  1
  O  O32  1  0.06199688  0.74151444  0.50098544  1
  O  O33  1  0.73257839  0.65825364  0.50104095  1
  O  O34  1  0.95588008  0.58420979  0.50321816  1
  O  O35  1  0.69830920  0.60043722  0.00312571  1
  O  O36  1  0.10576735  0.65749290  0.50186581  1
  O  O37  1  0.44030007  0.61552945  0.50364670  1
  O  O38  1  0.19792891  0.59977489  0.00176734  1
  O  O39  1  0.66391514  0.54218008  0.50520165  1
  O  O40  1  0.29084769  0.54206728  0.50321577  1
  O  O41  1  0.50195982  0.50067663  0.00277470  1
  O  O42  1  0.70766229  0.45739156  0.50128619  1
  O  O43  1  0.80187340  0.39942926  0.00059673  1
  O  O44  1  0.33757605  0.45832479  0.50410213  1
  O  O45  1  0.89315990  0.34166618  0.50104242  1
  O  O46  1  0.55708346  0.38345398  0.50413183  1
  O  O47  1  0.30096434  0.39999073  0.00378866  1
  O  O48  1  0.04510647  0.41577565  0.50256671  1
  O  O49  1  0.93651405  0.25779184  0.50383454  1
  O  O50  1  0.26360409  0.34145725  0.50572151  1
  O  O51  1  0.90151412  0.19993988  0.99922734  1
  O  O52  1  0.09678067  0.30008072  0.00355107  1
  O  O53  1  0.64220256  0.21591972  0.50211466  1
  O  O54  1  0.30480109  0.25826771  0.50548778  1
  O  O55  1  0.40064762  0.20005490  0.00278615  1
  O  O56  1  0.86597749  0.14217259  0.49942969  1
  O  O57  1  0.49526704  0.14164231  0.50344332  1
  O  O58  1  0.16002087  0.18397211  0.49791785  1
  O  O59  1  0.70018285  0.09984390  0.00328427  1
  O  O60  1  0.90551266  0.05845986  0.49973987  1
  O  O61  1  0.53492357  0.05754047  0.50270643  1
  O  O62  1  0.49919102  0.99982454  0.00008686  1
  O  O63  1  0.23911937  0.01581149  0.49857940  1
  O  O64  1  0.99838094  0.99991487  0.99784234  1
