# generated using pymatgen
data_Li2MnV3O8
_symmetry_space_group_name_H-M   'P 1'
_cell_length_a   8.47471095
_cell_length_b   8.47946551
_cell_length_c   8.47841497
_cell_angle_alpha   89.91680778
_cell_angle_beta   89.90154310
_cell_angle_gamma   89.89165198
_symmetry_Int_Tables_number   1
_chemical_formula_structural   Li2MnV3O8
_chemical_formula_sum   'Li8 Mn4 V12 O32'
_cell_volume   609.26491275
_cell_formula_units_Z   4
loop_
 _symmetry_equiv_pos_site_id
 _symmetry_equiv_pos_as_xyz
  1  'x, y, z'
loop_
 _atom_site_type_symbol
 _atom_site_label
 _atom_site_symmetry_multiplicity
 _atom_site_fract_x
 _atom_site_fract_y
 _atom_site_fract_z
 _atom_site_occupancy
  Li  Li0  1  0.12329420  0.87394498  0.37173316  1
  Li  Li1  1  0.24771443  0.75178617  0.75159489  1
  Li  Li2  1  0.24909762  0.24935686  0.24957071  1
  Li  Li3  1  0.37106280  0.12396638  0.87384993  1
  Li  Li4  1  0.62961392  0.62816597  0.62931296  1
  Li  Li5  1  0.75249872  0.75209379  0.24810153  1
  Li  Li6  1  0.75200748  0.24867664  0.75261862  1
  Li  Li7  1  0.87499921  0.37129654  0.12376913  1
  Mn  Mn8  1  0.99585065  0.50120291  0.49879806  1
  Mn  Mn9  1  0.50066506  0.49904072  0.99575144  1
  Mn  Mn10  1  0.49902265  0.99628996  0.50069619  1
  Mn  Mn11  1  0.00239787  0.00155230  0.00139577  1
  V  V12  1  0.12262773  0.62132453  0.12534793  1
  V  V13  1  0.12356900  0.37781859  0.87484969  1
  V  V14  1  0.12530628  0.12215822  0.62144602  1
  V  V15  1  0.37768961  0.87536110  0.12382511  1
  V  V16  1  0.37152335  0.62329414  0.38537354  1
  V  V17  1  0.38523156  0.37141857  0.62291488  1
  V  V18  1  0.62354425  0.87853295  0.87832598  1
  V  V19  1  0.62193579  0.12556352  0.12171175  1
  V  V20  1  0.62294444  0.38533211  0.37104144  1
  V  V21  1  0.87802694  0.62369239  0.87912082  1
  V  V22  1  0.87825639  0.87850710  0.62407539  1
  V  V23  1  0.87495899  0.12370074  0.37774527  1
  O  O24  1  0.10538776  0.13002285  0.39941110  1
  O  O25  1  0.10002005  0.89281391  0.62936969  1
  O  O26  1  0.11471889  0.61390836  0.88572364  1
  O  O27  1  0.13099536  0.39939283  0.10522947  1
  O  O28  1  0.12102789  0.14576118  0.85114738  1
  O  O29  1  0.14577194  0.36411481  0.63290130  1
  O  O30  1  0.13865910  0.62899874  0.35478775  1
  O  O31  1  0.14551800  0.85078639  0.12064882  1
  O  O32  1  0.35493585  0.13869918  0.62889497  1
  O  O33  1  0.35263877  0.37313996  0.85469043  1
  O  O34  1  0.36455257  0.63325033  0.14633159  1
  O  O35  1  0.37285818  0.85509969  0.35288998  1
  O  O36  1  0.37134912  0.61254638  0.59858561  1
  O  O37  1  0.38516905  0.38534546  0.38508626  1
  O  O38  1  0.39946652  0.10531548  0.13071854  1
  O  O39  1  0.39327960  0.86570111  0.90190850  1
  O  O40  1  0.59871463  0.37176590  0.61243073  1
  O  O41  1  0.61301396  0.59863518  0.37163832  1
  O  O42  1  0.61413863  0.88573295  0.11454766  1
  O  O43  1  0.62832638  0.10018970  0.89220139  1
  O  O44  1  0.62866632  0.35488986  0.13829023  1
  O  O45  1  0.63315673  0.14616984  0.36384913  1
  O  O46  1  0.64786822  0.87514109  0.64545815  1
  O  O47  1  0.64521952  0.64765073  0.87452205  1
  O  O48  1  0.85514086  0.35263373  0.37298770  1
  O  O49  1  0.85149695  0.12097082  0.14520594  1
  O  O50  1  0.86208281  0.86268836  0.86310983  1
  O  O51  1  0.87588202  0.64575398  0.64863022  1
  O  O52  1  0.86645474  0.90172333  0.39382112  1
  O  O53  1  0.88547836  0.11505609  0.61409077  1
  O  O54  1  0.90132651  0.39339791  0.86743680  1
  O  O55  1  0.89284783  0.62870671  0.10056370  1
