# generated using pymatgen
data_Li24Mn7Cr5O36
_symmetry_space_group_name_H-M   'P 1'
_cell_length_a   5.03474235
_cell_length_b   13.24092853
_cell_length_c   9.74688863
_cell_angle_alpha   97.02334011
_cell_angle_beta   95.15872166
_cell_angle_gamma   100.69239320
_symmetry_Int_Tables_number   1
_chemical_formula_structural   Li24Mn7Cr5O36
_chemical_formula_sum   'Li24 Mn7 Cr5 O36'
_cell_volume   629.46245980
_cell_formula_units_Z   1
loop_
 _symmetry_equiv_pos_site_id
 _symmetry_equiv_pos_as_xyz
  1  'x, y, z'
loop_
 _atom_site_type_symbol
 _atom_site_label
 _atom_site_symmetry_multiplicity
 _atom_site_fract_x
 _atom_site_fract_y
 _atom_site_fract_z
 _atom_site_occupancy
  Li  Li0  1  0.82897926  0.16566000  0.00044670  1
  Li  Li1  1  0.94828265  0.38709560  0.00037672  1
  Li  Li2  1  0.00089753  0.75148245  0.25030215  1
  Li  Li3  1  0.66760901  0.08370093  0.24994882  1
  Li  Li4  1  0.94904676  0.88730997  0.50004043  1
  Li  Li5  1  0.62059674  0.22058743  0.50129480  1
  Li  Li6  1  0.82824194  0.66569180  0.50101867  1
  Li  Li7  1  0.49772047  0.99947065  0.49958793  1
  Li  Li8  1  0.71329069  0.44617072  0.49958830  1
  Li  Li9  1  0.66592396  0.58352403  0.75037709  1
  Li  Li10  1  0.49795323  0.49974130  0.99936921  1
  Li  Li11  1  0.71773349  0.94780638  0.00165194  1
  Li  Li12  1  0.38738937  0.27985147  0.99961256  1
  Li  Li13  1  0.61758625  0.71934007  0.99946104  1
  Li  Li14  1  0.28696397  0.05436396  0.00095430  1
  Li  Li15  1  0.33510666  0.41840163  0.24988046  1
  Li  Li16  1  0.29046649  0.55389115  0.50139272  1
  Li  Li17  1  0.16427762  0.33324344  0.49977271  1
  Li  Li18  1  0.38735995  0.77971661  0.49982388  1
  Li  Li19  1  0.04803993  0.11287727  0.49813595  1
  Li  Li20  1  0.33672787  0.91796634  0.74940126  1
  Li  Li21  1  0.16225274  0.83297143  0.00099862  1
  Li  Li22  1  0.00043894  0.25004705  0.75045953  1
  Li  Li23  1  0.05141670  0.61328282  0.99924968  1
  Mn  Mn24  1  0.77773758  0.30532561  0.25004391  1
  Mn  Mn25  1  0.77711979  0.80512763  0.74898505  1
  Mn  Mn26  1  0.55699324  0.36138017  0.74964675  1
  Mn  Mn27  1  0.44600297  0.13967280  0.75113284  1
  Mn  Mn28  1  0.55596123  0.86095514  0.24996365  1
  Mn  Mn29  1  0.44478236  0.63879663  0.25023514  1
  Mn  Mn30  1  0.10978171  0.97206428  0.24933064  1
  Cr  Cr31  1  0.89599912  0.02863902  0.74990968  1
  Cr  Cr32  1  0.89291043  0.52982945  0.25034754  1
  Cr  Cr33  1  0.22636424  0.19641440  0.25018135  1
  Cr  Cr34  1  0.22688477  0.69671486  0.75081092  1
  Cr  Cr35  1  0.10944515  0.47194174  0.74921005  1
  O  O36  1  0.00050220  0.07047782  0.13736922  1
  O  O37  1  0.92584673  0.21559166  0.36545075  1
  O  O38  1  0.00108110  0.57042708  0.63795026  1
  O  O39  1  0.85366283  0.35642929  0.63775712  1
  O  O40  1  0.73346507  0.11644937  0.63675245  1
  O  O41  1  0.66634000  0.40423957  0.13815760  1
  O  O42  1  0.92550011  0.71551778  0.86538517  1
  O  O43  1  0.80823449  0.47585951  0.86225317  1
  O  O44  1  0.59458531  0.04829389  0.86451580  1
  O  O45  1  0.85438968  0.85651667  0.13838044  1
  O  O46  1  0.73482262  0.61660397  0.13695676  1
  O  O47  1  0.52859705  0.19101451  0.13750796  1
  O  O48  1  0.66950861  0.26219536  0.86139368  1
  O  O49  1  0.81107690  0.97615047  0.36116955  1
  O  O50  1  0.59222322  0.54884834  0.36534643  1
  O  O51  1  0.47690053  0.30854513  0.36101702  1
  O  O52  1  0.66911016  0.76189193  0.36131257  1
  O  O53  1  0.32894319  0.09505238  0.36147787  1
  O  O54  1  0.66336022  0.90280874  0.63663393  1
  O  O55  1  0.33144466  0.23785795  0.63833801  1
  O  O56  1  0.52856814  0.69048558  0.63735117  1
  O  O57  1  0.40422578  0.45083676  0.63503910  1
  O  O58  1  0.19042750  0.02431777  0.63833707  1
  O  O59  1  0.33225951  0.73809199  0.13819297  1
  O  O60  1  0.47599078  0.80917585  0.86082344  1
  O  O61  1  0.26158404  0.38157606  0.86260627  1
  O  O62  1  0.14808663  0.14392898  0.86191764  1
  O  O63  1  0.40145184  0.95152113  0.13640505  1
  O  O64  1  0.19501429  0.52422820  0.13711303  1
  O  O65  1  0.06797396  0.28307074  0.13683440  1
  O  O66  1  0.33083019  0.59666035  0.86259942  1
  O  O67  1  0.26441328  0.88088296  0.36331452  1
  O  O68  1  0.14421309  0.64203927  0.36119777  1
  O  O69  1  0.99781462  0.42892326  0.36178612  1
  O  O70  1  0.06817620  0.78329074  0.63693701  1
  O  O71  1  0.99509068  0.92914172  0.86147527  1
