# generated using pymatgen
data_Li4VCr3O8
_symmetry_space_group_name_H-M   'P 1'
_cell_length_a   5.14389608
_cell_length_b   5.93703563
_cell_length_c   5.96826354
_cell_angle_alpha   119.75550944
_cell_angle_beta   90.00312222
_cell_angle_gamma   73.19709875
_symmetry_Int_Tables_number   1
_chemical_formula_structural   Li4VCr3O8
_chemical_formula_sum   'Li4 V1 Cr3 O8'
_cell_volume   149.20756379
_cell_formula_units_Z   1
loop_
 _symmetry_equiv_pos_site_id
 _symmetry_equiv_pos_as_xyz
  1  'x, y, z'
loop_
 _atom_site_type_symbol
 _atom_site_label
 _atom_site_symmetry_multiplicity
 _atom_site_fract_x
 _atom_site_fract_y
 _atom_site_fract_z
 _atom_site_occupancy
  Li  Li0  1  0.00212847  0.99837376  0.49776432  1
  Li  Li1  1  0.99787854  0.00163575  0.00224303  1
  Li  Li2  1  0.99838962  0.49915031  0.49755860  1
  Li  Li3  1  0.00162579  0.50084622  0.00244065  1
  V  V4  1  0.50002132  0.49995319  0.74999765  1
  Cr  Cr5  1  0.50003335  -0.00001062  0.75006525  1
  Cr  Cr6  1  0.49991312  0.99997432  0.24988359  1
  Cr  Cr7  1  0.49997542  0.50007047  0.25003609  1
  O  O8  1  0.27433013  0.23996110  0.61842806  1
  O  O9  1  0.72536523  0.25907786  0.88110649  1
  O  O10  1  0.27573192  0.24066038  0.11837821  1
  O  O11  1  0.72739668  0.25481887  0.37325176  1
  O  O12  1  0.27463920  0.74092917  0.61890122  1
  O  O13  1  0.72568531  0.76003825  0.88156829  1
  O  O14  1  0.27260957  0.74518755  0.12675123  1
  O  O15  1  0.72427535  0.75933142  0.38162455  1
