# generated using pymatgen
data_LiCoS2
_symmetry_space_group_name_H-M   'P 1'
_cell_length_a   6.81514958
_cell_length_b   6.81521406
_cell_length_c   5.68732575
_cell_angle_alpha   89.99528408
_cell_angle_beta   89.96298647
_cell_angle_gamma   59.99888416
_symmetry_Int_Tables_number   1
_chemical_formula_structural   LiCoS2
_chemical_formula_sum   'Li4 Co4 S8'
_cell_volume   228.76450367
_cell_formula_units_Z   4
loop_
 _symmetry_equiv_pos_site_id
 _symmetry_equiv_pos_as_xyz
  1  'x, y, z'
loop_
 _atom_site_type_symbol
 _atom_site_label
 _atom_site_symmetry_multiplicity
 _atom_site_fract_x
 _atom_site_fract_y
 _atom_site_fract_z
 _atom_site_occupancy
  Li  Li0  1  0.00258066  0.74603310  0.00042825  1
  Li  Li1  1  0.49369791  0.75360093  0.99996689  1
  Li  Li2  1  0.50630209  0.24639907  0.00003311  1
  Li  Li3  1  0.99741934  0.25396690  0.99957175  1
  Co  Co4  1  0.49953520  0.75036776  0.49998798  1
  Co  Co5  1  0.99985926  0.25033675  0.49997690  1
  Co  Co6  1  0.00014074  0.74966325  0.50002310  1
  Co  Co7  1  0.50046480  0.24963224  0.50001202  1
  S  S8  1  0.16603095  0.91705712  0.70192269  1
  S  S9  1  0.16698631  0.41641028  0.70195330  1
  S  S10  1  0.33362256  0.58294064  0.29804985  1
  S  S11  1  0.66673698  0.91636701  0.70201796  1
  S  S12  1  0.33326302  0.08363299  0.29798204  1
  S  S13  1  0.66637744  0.41705936  0.70195015  1
  S  S14  1  0.83301369  0.58358972  0.29804670  1
  S  S15  1  0.83396905  0.08294288  0.29807731  1
