# generated using pymatgen
data_Li2Fe2(CO3)3
_symmetry_space_group_name_H-M   'P 1'
_cell_length_a   7.50129742
_cell_length_b   7.56883675
_cell_length_c   7.51535173
_cell_angle_alpha   107.97858544
_cell_angle_beta   107.77792088
_cell_angle_gamma   108.18734992
_symmetry_Int_Tables_number   1
_chemical_formula_structural   Li2Fe2(CO3)3
_chemical_formula_sum   'Li4 Fe4 C6 O18'
_cell_volume   345.39662943
_cell_formula_units_Z   2
loop_
 _symmetry_equiv_pos_site_id
 _symmetry_equiv_pos_as_xyz
  1  'x, y, z'
loop_
 _atom_site_type_symbol
 _atom_site_label
 _atom_site_symmetry_multiplicity
 _atom_site_fract_x
 _atom_site_fract_y
 _atom_site_fract_z
 _atom_site_occupancy
  Li  Li0  1  0.34134486  0.61424958  0.87320677  1
  Li  Li1  1  0.61311688  0.87396830  0.34286293  1
  Li  Li2  1  0.84773847  0.84244717  0.84380179  1
  Li  Li3  1  0.87619095  0.34133590  0.61449204  1
  Fe  Fe4  1  0.03577772  0.53718465  0.14734163  1
  Fe  Fe5  1  0.42283724  0.41717874  0.42675184  1
  Fe  Fe6  1  0.14365786  0.02977933  0.53579472  1
  Fe  Fe7  1  0.53797965  0.14482539  0.03214041  1
  C  C8  1  0.24601921  0.92427348  0.15898623  1
  C  C9  1  0.38679607  0.79808305  0.58764803  1
  C  C10  1  0.16007640  0.24701979  0.92406086  1
  C  C11  1  0.79391862  0.58739001  0.38935720  1
  C  C12  1  0.59396791  0.39300904  0.79851915  1
  C  C13  1  0.92456081  0.15806786  0.24632251  1
  O  O14  1  0.05852629  0.77794626  0.03772012  1
  O  O15  1  0.40033088  0.91322999  0.11217859  1
  O  O16  1  0.37126172  0.95877300  0.69828420  1
  O  O17  1  0.35518332  0.75644373  0.39689292  1
  O  O18  1  0.11206362  0.39874529  0.91010055  1
  O  O19  1  0.43283006  0.68232150  0.66914803  1
  O  O20  1  0.07870286  0.32822936  0.29228011  1
  O  O21  1  0.32896742  0.28980664  0.07747303  1
  O  O22  1  0.68166047  0.67331788  0.44037010  1
  O  O23  1  0.03633515  0.05906153  0.77959394  1
  O  O24  1  0.39902293  0.35581039  0.74194383  1
  O  O25  1  0.68655745  0.45168892  0.69356482  1
  O  O26  1  0.28601797  0.07808020  0.32593942  1
  O  O27  1  0.69648118  0.37230876  0.95889019  1
  O  O28  1  0.95709822  0.69361020  0.37345523  1
  O  O29  1  0.74263243  0.39545826  0.35477748  1
  O  O30  1  0.78211940  0.03656124  0.05680054  1
  O  O31  1  0.90872596  0.10849155  0.39779981  1
