# generated using pymatgen
data_V2Re2O11
_symmetry_space_group_name_H-M   'P 1'
_cell_length_a   7.00583336
_cell_length_b   7.66006832
_cell_length_c   9.09593826
_cell_angle_alpha   90.00000000
_cell_angle_beta   90.00000000
_cell_angle_gamma   117.21274432
_symmetry_Int_Tables_number   1
_chemical_formula_structural   V2Re2O11
_chemical_formula_sum   'V4 Re4 O22'
_cell_volume   434.10562255
_cell_formula_units_Z   2
loop_
 _symmetry_equiv_pos_site_id
 _symmetry_equiv_pos_as_xyz
  1  'x, y, z'
loop_
 _atom_site_type_symbol
 _atom_site_label
 _atom_site_symmetry_multiplicity
 _atom_site_fract_x
 _atom_site_fract_y
 _atom_site_fract_z
 _atom_site_occupancy
  V  V0  1  0.25297280  0.50594661  0.21752349  1
  V  V1  1  0.55408911  0.10817722  0.48961004  1
  V  V2  1  0.44591089  0.89182278  0.98961004  1
  V  V3  1  0.74702720  0.49405339  0.71752349  1
  Re  Re4  1  0.99491929  0.98983859  0.51643431  1
  Re  Re5  1  0.70164652  0.40329404  0.14679127  1
  Re  Re6  1  0.00508071  0.01016141  0.01643431  1
  Re  Re7  1  0.29835348  0.59670596  0.64679127  1
  O  O8  1  0.37683345  0.75366690  0.16809883  1
  O  O9  1  0.17063163  0.34126325  0.65600770  1
  O  O10  1  0.27162024  0.11109981  0.46678869  1
  O  O11  1  0.03718970  0.07437940  0.20083840  1
  O  O12  1  0.25299760  0.50599621  0.40111248  1
  O  O13  1  0.83947857  0.11109981  0.46678869  1
  O  O14  1  0.82936837  0.65873675  0.15600770  1
  O  O15  1  0.34315291  0.68630582  0.83223978  1
  O  O16  1  0.74700240  0.49400379  0.90111248  1
  O  O17  1  0.58067970  0.16135939  0.04678125  1
  O  O18  1  0.16052143  0.88890019  0.96678869  1
  O  O19  1  0.62316655  0.24633310  0.66809883  1
  O  O20  1  0.01691800  0.58885107  0.64516422  1
  O  O21  1  0.98308200  0.41114893  0.14516422  1
  O  O22  1  0.72837976  0.88890019  0.96678869  1
  O  O23  1  0.42806593  0.41114893  0.14516422  1
  O  O24  1  0.57193407  0.58885107  0.64516422  1
  O  O25  1  0.41932030  0.83864061  0.54678125  1
  O  O26  1  0.65684709  0.31369418  0.33223978  1
  O  O27  1  0.96281030  0.92562060  0.70083840  1
  O  O28  1  0.11594959  0.23189818  0.92665765  1
  O  O29  1  0.88405041  0.76810182  0.42665765  1
