# generated using pymatgen
data_Cs2CdBr4
_symmetry_space_group_name_H-M   'P 1'
_cell_length_a   10.25251601
_cell_length_b   8.75757857
_cell_length_c   14.25994587
_cell_angle_alpha   87.92224101
_cell_angle_beta   90.00000000
_cell_angle_gamma   90.00000000
_symmetry_Int_Tables_number   1
_chemical_formula_structural   Cs2CdBr4
_chemical_formula_sum   'Cs8 Cd4 Br16'
_cell_volume   1279.51903652
_cell_formula_units_Z   4
loop_
 _symmetry_equiv_pos_site_id
 _symmetry_equiv_pos_as_xyz
  1  'x, y, z'
loop_
 _atom_site_type_symbol
 _atom_site_label
 _atom_site_symmetry_multiplicity
 _atom_site_fract_x
 _atom_site_fract_y
 _atom_site_fract_z
 _atom_site_occupancy
  Cs  Cs0  1  0.61602257  0.24184824  0.39961612  1
  Cs  Cs1  1  0.38397743  0.75815176  0.60038388  1
  Cs  Cs2  1  0.88397743  0.74184824  0.89961612  1
  Cs  Cs3  1  0.11602257  0.25815176  0.10038388  1
  Cs  Cs4  1  0.48159065  0.23304123  0.81929865  1
  Cs  Cs5  1  0.51840935  0.76695877  0.18070135  1
  Cs  Cs6  1  0.01840935  0.73304123  0.31929865  1
  Cs  Cs7  1  0.98159065  0.26695877  0.68070135  1
  Cd  Cd8  1  0.72060319  0.25150313  0.07641561  1
  Cd  Cd9  1  0.27939681  0.74849687  0.92358439  1
  Cd  Cd10  1  0.77939681  0.75150313  0.57641561  1
  Cd  Cd11  1  0.22060319  0.24849687  0.42358439  1
  Br  Br12  1  0.46776682  0.23912247  0.07968433  1
  Br  Br13  1  0.53223318  0.76087753  0.92031567  1
  Br  Br14  1  0.03223318  0.73912247  0.57968433  1
  Br  Br15  1  0.96776682  0.26087753  0.42031567  1
  Br  Br16  1  0.82287548  0.20138146  0.91117725  1
  Br  Br17  1  0.17712452  0.79861854  0.08882275  1
  Br  Br18  1  0.67712452  0.70138146  0.41117725  1
  Br  Br19  1  0.32287548  0.29861854  0.58882275  1
  Br  Br20  1  0.82133988  0.51302930  0.12811548  1
  Br  Br21  1  0.17866012  0.48697070  0.87188452  1
  Br  Br22  1  0.67866012  0.01302930  0.62811548  1
  Br  Br23  1  0.32133988  0.98697070  0.37188452  1
  Br  Br24  1  0.80804861  0.03490328  0.19385182  1
  Br  Br25  1  0.19195139  0.96509672  0.80614818  1
  Br  Br26  1  0.69195139  0.53490328  0.69385182  1
  Br  Br27  1  0.30804861  0.46509672  0.30614818  1
