# generated using pymatgen
data_Y2SiO5
_symmetry_space_group_name_H-M   'P 1'
_cell_length_a   6.77619154
_cell_length_b   6.88668959
_cell_length_c   10.35870891
_cell_angle_alpha   90.00000000
_cell_angle_beta   119.32485403
_cell_angle_gamma   90.00000000
_symmetry_Int_Tables_number   1
_chemical_formula_structural   Y2SiO5
_chemical_formula_sum   'Y8 Si4 O20'
_cell_volume   421.45093489
_cell_formula_units_Z   4
loop_
 _symmetry_equiv_pos_site_id
 _symmetry_equiv_pos_as_xyz
  1  'x, y, z'
loop_
 _atom_site_type_symbol
 _atom_site_label
 _atom_site_symmetry_multiplicity
 _atom_site_fract_x
 _atom_site_fract_y
 _atom_site_fract_z
 _atom_site_occupancy
  Y  Y0  1  0.35555879  0.22204434  0.51031171  1
  Y  Y1  1  0.14444121  0.72204434  0.48968829  1
  Y  Y2  1  0.64444121  0.77795566  0.48968829  1
  Y  Y3  1  0.85555879  0.27795566  0.51031171  1
  Y  Y4  1  0.24103703  0.54625326  0.83310518  1
  Y  Y5  1  0.25896297  0.04625326  0.16689482  1
  Y  Y6  1  0.75896297  0.45374674  0.16689482  1
  Y  Y7  1  0.74103703  0.95374674  0.83310518  1
  Si  Si8  1  0.68270594  0.47877902  0.78403505  1
  Si  Si9  1  0.81729406  0.97877902  0.21596495  1
  Si  Si10  1  0.31729406  0.52122098  0.21596495  1
  Si  Si11  1  0.18270594  0.02122098  0.78403505  1
  O  O12  1  0.46927049  0.91486338  0.60214004  1
  O  O13  1  0.03072951  0.41486338  0.39785996  1
  O  O14  1  0.53072951  0.08513662  0.39785996  1
  O  O15  1  0.96927049  0.58513662  0.60214004  1
  O  O16  1  0.12635709  0.03017672  0.92142207  1
  O  O17  1  0.37364191  0.53017672  0.07857793  1
  O  O18  1  0.87364291  0.96982328  0.07857793  1
  O  O19  1  0.62635709  0.46982328  0.92142207  1
  O  O20  1  0.24011465  0.23309978  0.73325846  1
  O  O21  1  0.25988535  0.73309978  0.26674154  1
  O  O22  1  0.75988535  0.76690022  0.26674154  1
  O  O23  1  0.74011465  0.26690022  0.73325846  1
  O  O24  1  0.44540474  0.52970958  0.62877206  1
  O  O25  1  0.05459526  0.02970958  0.37122794  1
  O  O26  1  0.55459526  0.47029042  0.37122794  1
  O  O27  1  0.94540474  0.97029042  0.62877206  1
  O  O28  1  0.62774769  0.15011462  0.17707288  1
  O  O29  1  0.87225231  0.65011462  0.82292712  1
  O  O30  1  0.37225231  0.84988538  0.82292712  1
  O  O31  1  0.12774769  0.34988538  0.17707288  1
