# generated using pymatgen
data_Fe2P2H4NO8
_symmetry_space_group_name_H-M   'P 1'
_cell_length_a   12.63030645
_cell_length_b   12.63030645
_cell_length_c   10.11886777
_cell_angle_alpha   66.52313036
_cell_angle_beta   113.47686964
_cell_angle_gamma   106.70968658
_symmetry_Int_Tables_number   1
_chemical_formula_structural   Fe2P2H4NO8
_chemical_formula_sum   'Fe16 P16 H32 N8 O64'
_cell_volume   1342.01083498
_cell_formula_units_Z   8
loop_
 _symmetry_equiv_pos_site_id
 _symmetry_equiv_pos_as_xyz
  1  'x, y, z'
loop_
 _atom_site_type_symbol
 _atom_site_label
 _atom_site_symmetry_multiplicity
 _atom_site_fract_x
 _atom_site_fract_y
 _atom_site_fract_z
 _atom_site_occupancy
  Fe  Fe0  1  0.14186081  0.98925321  0.58998110  1
  Fe  Fe1  1  0.98925321  0.14186081  0.91001890  1
  Fe  Fe2  1  0.85813919  0.01074679  0.41001890  1
  Fe  Fe3  1  0.01074679  0.85813919  0.08998110  1
  Fe  Fe4  1  0.36002214  0.01709266  0.90033381  1
  Fe  Fe5  1  0.01709266  0.36002214  0.59966619  1
  Fe  Fe6  1  0.63997786  0.98290734  0.09966619  1
  Fe  Fe7  1  0.98290734  0.63997786  0.40033381  1
  Fe  Fe8  1  0.31712422  0.31712422  0.75000000  1
  Fe  Fe9  1  0.68287578  0.68287578  0.25000000  1
  Fe  Fe10  1  0.19356248  0.19356248  0.25000000  1
  Fe  Fe11  1  0.80643752  0.80643752  0.75000000  1
  Fe  Fe12  1  0.18750259  0.68745704  0.74940827  1
  Fe  Fe13  1  0.68745704  0.18750259  0.75059173  1
  Fe  Fe14  1  0.81249741  0.31254296  0.25059173  1
  Fe  Fe15  1  0.31254296  0.81249741  0.24940827  1
  P  P16  1  0.18318867  0.89256604  0.41234284  1
  P  P17  1  0.89256604  0.18318867  0.08765716  1
  P  P18  1  0.81681133  0.10743396  0.58765716  1
  P  P19  1  0.10743396  0.81681133  0.91234284  1
  P  P20  1  0.24799191  0.08238344  0.04088182  1
  P  P21  1  0.08238344  0.24799191  0.45911818  1
  P  P22  1  0.75200809  0.91761656  0.95911818  1
  P  P23  1  0.91761656  0.75200809  0.54088182  1
  P  P24  1  0.57830628  0.24489112  0.96500469  1
  P  P25  1  0.24489112  0.57830628  0.53499531  1
  P  P26  1  0.42169372  0.75510888  0.03499531  1
  P  P27  1  0.75510888  0.42169372  0.46500469  1
  P  P28  1  0.39489260  0.18419799  0.58222602  1
  P  P29  1  0.18419799  0.39489260  0.91777398  1
  P  P30  1  0.60510740  0.81580201  0.41777398  1
  P  P31  1  0.81580201  0.60510740  0.08222602  1
  H  H32  1  0.44327180  0.12432136  0.30192652  1
  H  H33  1  0.12432136  0.44327180  0.19807348  1
  H  H34  1  0.55672820  0.87567864  0.69807348  1
  H  H35  1  0.87567864  0.55672820  0.80192652  1
  H  H36  1  0.56798089  0.14984353  0.25890335  1
  H  H37  1  0.14984353  0.56798089  0.24109665  1
  H  H38  1  0.43201911  0.85015647  0.74109665  1
  H  H39  1  0.85015647  0.43201911  0.75890335  1
  H  H40  1  0.57874520  0.10650988  0.44262476  1
  H  H41  1  0.10650988  0.57874520  0.05737524  1
  H  H42  1  0.42125480  0.89349012  0.55737524  1
  H  H43  1  0.89349012  0.42125480  0.94262476  1
  H  H44  1  0.50794212  0.01280047  0.33855652  1
  H  H45  1  0.01280047  0.50794212  0.16144348  1
  H  H46  1  0.49205788  0.98719953  0.66144348  1
  H  H47  1  0.98719953  0.49205788  0.83855652  1
  H  H48  1  0.53305595  0.64390889  0.93968402  1
  H  H49  1  0.64390889  0.53305595  0.56031598  1
  H  H50  1  0.46694405  0.35609111  0.06031598  1
  H  H51  1  0.35609111  0.46694405  0.43968402  1
  H  H52  1  0.50928894  0.53601713  0.86722380  1
  H  H53  1  0.53601713  0.50928894  0.63277620  1
  H  H54  1  0.49071106  0.46398287  0.13277620  1
  H  H55  1  0.46398287  0.49071106  0.36722380  1
  H  H56  1  0.56159020  0.67303822  0.77840601  1
  H  H57  1  0.67303822  0.56159020  0.72159399  1
  H  H58  1  0.43840980  0.32696178  0.22159399  1
  H  H59  1  0.32696178  0.43840980  0.27840601  1
  H  H60  1  0.41821055  0.63606409  0.77389379  1
  H  H61  1  0.63606409  0.41821055  0.72610621  1
  H  H62  1  0.58178945  0.36393591  0.22610621  1
  H  H63  1  0.36393591  0.58178945  0.27389379  1
  N  N64  1  0.52392774  0.09879034  0.33651539  1
  N  N65  1  0.09879034  0.52392774  0.16348461  1
  N  N66  1  0.47607226  0.90120966  0.66348461  1
  N  N67  1  0.90120966  0.47607226  0.83651539  1
  N  N68  1  0.50588567  0.62267106  0.83986218  1
  N  N69  1  0.62267106  0.50588567  0.66013782  1
  N  N70  1  0.49411433  0.37732894  0.16013782  1
  N  N71  1  0.37732894  0.49411433  0.33986218  1
  O  O72  1  0.20281963  0.84834329  0.58794593  1
  O  O73  1  0.84834329  0.20281963  0.91205407  1
  O  O74  1  0.79718037  0.15165671  0.41205407  1
  O  O75  1  0.15165671  0.79718037  0.08794593  1
  O  O76  1  0.16433454  0.02065298  0.36744500  1
  O  O77  1  0.02065298  0.16433454  0.13255500  1
  O  O78  1  0.83566546  0.97934702  0.63255500  1
  O  O79  1  0.97934702  0.83566546  0.86744500  1
  O  O80  1  0.07518937  0.82059264  0.32778266  1
  O  O81  1  0.82059264  0.07518937  0.17221734  1
  O  O82  1  0.92481063  0.17940736  0.67221734  1
  O  O83  1  0.17940736  0.92481063  0.82778266  1
  O  O84  1  0.29271300  0.88708267  0.38514428  1
  O  O85  1  0.88708267  0.29271300  0.11485572  1
  O  O86  1  0.70728700  0.11291733  0.61485572  1
  O  O87  1  0.11291733  0.70728700  0.88514428  1
  O  O88  1  0.32168247  0.98119225  0.10648601  1
  O  O89  1  0.98119225  0.32168247  0.39351399  1
  O  O90  1  0.67831753  0.01880775  0.89351399  1
  O  O91  1  0.01880775  0.67831753  0.60648601  1
  O  O92  1  0.27968156  0.15567504  0.89246920  1
  O  O93  1  0.15567504  0.27968156  0.60753080  1
  O  O94  1  0.72031844  0.84432496  0.10753080  1
  O  O95  1  0.84432496  0.72031844  0.39246920  1
  O  O96  1  0.11501247  0.03640263  0.00425561  1
  O  O97  1  0.03640263  0.11501247  0.49574439  1
  O  O98  1  0.88498753  0.96359737  0.99574439  1
  O  O99  1  0.96359737  0.88498753  0.50425561  1
  O  O100  1  0.28625401  0.15092984  0.15281909  1
  O  O101  1  0.15092984  0.28625401  0.34718091  1
  O  O102  1  0.71374599  0.84907016  0.84718091  1
  O  O103  1  0.84907016  0.71374599  0.65281909  1
  O  O104  1  0.52681081  0.11251801  0.99765656  1
  O  O105  1  0.11251801  0.52681081  0.50234344  1
  O  O106  1  0.47318919  0.88748199  0.00234344  1
  O  O107  1  0.88748199  0.47318919  0.49765656  1
  O  O108  1  0.65594186  0.26076945  0.12139008  1
  O  O109  1  0.26076945  0.65594186  0.37860992  1
  O  O110  1  0.34405814  0.73923055  0.87860992  1
  O  O111  1  0.73923055  0.34405814  0.62139008  1
  O  O112  1  0.48342233  0.32519295  0.90077091  1
  O  O113  1  0.32519295  0.48342233  0.59922909  1
  O  O114  1  0.51657767  0.67480705  0.09922909  1
  O  O115  1  0.67480705  0.51657767  0.40077091  1
  O  O116  1  0.64691274  0.28096043  0.85249363  1
  O  O117  1  0.28096043  0.64691274  0.64750637  1
  O  O118  1  0.35308726  0.71903957  0.14750637  1
  O  O119  1  0.71903957  0.35308726  0.35249363  1
  O  O120  1  0.32055836  0.07214974  0.66142623  1
  O  O121  1  0.07214974  0.32055836  0.83857377  1
  O  O122  1  0.67944164  0.92785026  0.33857377  1
  O  O123  1  0.92785026  0.67944164  0.16142623  1
  O  O124  1  0.51997215  0.15494278  0.64006967  1
  O  O125  1  0.15494278  0.51997215  0.85993033  1
  O  O126  1  0.48002785  0.84505722  0.35993033  1
  O  O127  1  0.84505722  0.48002785  0.14006967  1
  O  O128  1  0.39162025  0.28794970  0.62347187  1
  O  O129  1  0.28794970  0.39162025  0.87652813  1
  O  O130  1  0.60837975  0.71205030  0.37652813  1
  O  O131  1  0.71205030  0.60837975  0.12347187  1
  O  O132  1  0.35231976  0.21218564  0.40637381  1
  O  O133  1  0.21218564  0.35231976  0.09362619  1
  O  O134  1  0.64768024  0.78781436  0.59362619  1
  O  O135  1  0.78781436  0.64768024  0.90637381  1
