# generated using pymatgen
data_Rb8(GaH3)5
_symmetry_space_group_name_H-M   'P 1'
_cell_length_a   11.91052700
_cell_length_b   11.91052700
_cell_length_c   11.91052700
_cell_angle_alpha   60.00000000
_cell_angle_beta   60.00000000
_cell_angle_gamma   60.00000000
_symmetry_Int_Tables_number   1
_chemical_formula_structural   Rb8(GaH3)5
_chemical_formula_sum   'Rb16 Ga10 H30'
_cell_volume   1194.75246752
_cell_formula_units_Z   2
loop_
 _symmetry_equiv_pos_site_id
 _symmetry_equiv_pos_as_xyz
  1  'x, y, z'
loop_
 _atom_site_type_symbol
 _atom_site_label
 _atom_site_symmetry_multiplicity
 _atom_site_fract_x
 _atom_site_fract_y
 _atom_site_fract_z
 _atom_site_occupancy
  Rb  Rb0  1  0.00000000  0.50000000  0.00000000  1
  Rb  Rb1  1  0.50000000  -0.00000000  0.00000000  1
  Rb  Rb2  1  0.00000000  -0.00000000  0.50000000  1
  Rb  Rb3  1  0.00000000  -0.00000000  0.00000000  1
  Rb  Rb4  1  0.54716710  0.54716710  0.20283290  1
  Rb  Rb5  1  0.20283290  0.20283290  0.54716710  1
  Rb  Rb6  1  0.20283290  0.54716710  0.54716710  1
  Rb  Rb7  1  0.54716710  0.20283290  0.20283290  1
  Rb  Rb8  1  0.54716710  0.20283290  0.54716710  1
  Rb  Rb9  1  0.20283290  0.54716710  0.20283290  1
  Rb  Rb10  1  0.45283290  0.45283290  0.79716710  1
  Rb  Rb11  1  0.79716710  0.79716710  0.45283290  1
  Rb  Rb12  1  0.79716710  0.45283290  0.45283290  1
  Rb  Rb13  1  0.45283290  0.79716710  0.79716710  1
  Rb  Rb14  1  0.45283290  0.79716710  0.45283290  1
  Rb  Rb15  1  0.79716710  0.45283290  0.79716710  1
  Ga  Ga16  1  0.79007717  0.12976849  0.79007717  1
  Ga  Ga17  1  0.12976849  0.79007717  0.79007717  1
  Ga  Ga18  1  0.79007717  0.79007717  0.12976849  1
  Ga  Ga19  1  0.79007717  0.79007717  0.79007717  1
  Ga  Ga20  1  0.20992283  0.87023151  0.20992283  1
  Ga  Ga21  1  0.87023151  0.20992283  0.20992283  1
  Ga  Ga22  1  0.20992283  0.20992283  0.87023151  1
  Ga  Ga23  1  0.20992283  0.20992283  0.20992283  1
  Ga  Ga24  1  0.87500000  0.87500000  0.87500000  1
  Ga  Ga25  1  0.12500000  0.12500000  0.12500000  1
  H  H26  1  0.72129374  0.66865543  0.20539178  1
  H  H27  1  0.66865543  0.72129374  0.90465906  1
  H  H28  1  0.90465906  0.20539178  0.66865543  1
  H  H29  1  0.20539178  0.90465906  0.72129374  1
  H  H30  1  0.20539178  0.72129374  0.66865543  1
  H  H31  1  0.90465906  0.66865543  0.72129374  1
  H  H32  1  0.66865543  0.90465906  0.20539178  1
  H  H33  1  0.72129374  0.20539178  0.90465906  1
  H  H34  1  0.66865543  0.20539178  0.72129374  1
  H  H35  1  0.72129374  0.90465906  0.66865543  1
  H  H36  1  0.20539178  0.66865543  0.90465906  1
  H  H37  1  0.90465906  0.72129374  0.20539178  1
  H  H38  1  0.27870626  0.33134457  0.79460822  1
  H  H39  1  0.33134457  0.27870626  0.09534094  1
  H  H40  1  0.09534094  0.79460822  0.33134457  1
  H  H41  1  0.79460822  0.09534094  0.27870626  1
  H  H42  1  0.79460822  0.27870626  0.33134457  1
  H  H43  1  0.09534094  0.33134457  0.27870626  1
  H  H44  1  0.33134457  0.09534094  0.79460822  1
  H  H45  1  0.27870626  0.79460822  0.09534094  1
  H  H46  1  0.33134457  0.79460822  0.27870626  1
  H  H47  1  0.27870626  0.09534094  0.33134457  1
  H  H48  1  0.79460822  0.33134457  0.09534094  1
  H  H49  1  0.09534094  0.27870626  0.79460822  1
  H  H50  1  0.50000000  -0.00000000  0.50000000  1
  H  H51  1  0.00000000  0.50000000  0.50000000  1
  H  H52  1  0.50000000  0.50000000  0.00000000  1
  H  H53  1  0.50000000  0.50000000  0.50000000  1
  H  H54  1  0.37500000  0.37500000  0.37500000  1
  H  H55  1  0.62500000  0.62500000  0.62500000  1
