# generated using pymatgen
data_AcMg2
_symmetry_space_group_name_H-M   'P 1'
_cell_length_a   6.57892717
_cell_length_b   5.42255782
_cell_length_c   6.57689149
_cell_angle_alpha   114.34581583
_cell_angle_beta   69.26558088
_cell_angle_gamma   114.33779421
_symmetry_Int_Tables_number   1
_chemical_formula_structural   AcMg2
_chemical_formula_sum   'Ac2 Mg4'
_cell_volume   189.91403697
_cell_formula_units_Z   2
loop_
 _symmetry_equiv_pos_site_id
 _symmetry_equiv_pos_as_xyz
  1  'x, y, z'
loop_
 _atom_site_type_symbol
 _atom_site_label
 _atom_site_symmetry_multiplicity
 _atom_site_fract_x
 _atom_site_fract_y
 _atom_site_fract_z
 _atom_site_occupancy
  Ac  Ac0  1  0.83333400  0.58405898  0.50000000  1
  Ac  Ac1  1  0.33333400  0.58260802  0.99999900  1
  Mg  Mg2  1  0.91800349  0.91698705  0.08212797  1
  Mg  Mg3  1  0.24866151  0.24968095  0.41787303  1
  Mg  Mg4  1  0.41800349  0.91647841  0.58212797  1
  Mg  Mg5  1  0.74866451  0.25018859  0.91787203  1
