# generated using pymatgen
data_BaSr2I6
_symmetry_space_group_name_H-M   'P 1'
_cell_length_a   12.52541248
_cell_length_b   12.52541248
_cell_length_c   10.27399589
_cell_angle_alpha   100.43452376
_cell_angle_beta   62.73963903
_cell_angle_gamma   140.61081825
_symmetry_Int_Tables_number   1
_chemical_formula_structural   BaSr2I6
_chemical_formula_sum   'Ba2 Sr4 I12'
_cell_volume   865.49541668
_cell_formula_units_Z   2
loop_
 _symmetry_equiv_pos_site_id
 _symmetry_equiv_pos_as_xyz
  1  'x, y, z'
loop_
 _atom_site_type_symbol
 _atom_site_label
 _atom_site_symmetry_multiplicity
 _atom_site_fract_x
 _atom_site_fract_y
 _atom_site_fract_z
 _atom_site_occupancy
  Ba  Ba0  1  0.19629337  0.94629337  0.75000000  1
  Ba  Ba1  1  0.80370663  0.05370663  0.25000000  1
  Sr  Sr2  1  0.05305833  0.41563736  0.64278198  1
  Sr  Sr3  1  0.55841934  0.69584030  0.85721802  1
  Sr  Sr4  1  0.44158066  0.30415970  0.14278198  1
  Sr  Sr5  1  0.94694167  0.58436264  0.35721802  1
  I  I6  1  0.20420458  0.92092536  0.08813161  1
  I  I7  1  0.30126464  0.78873181  0.42377564  1
  I  I8  1  0.12581801  0.49597574  0.09738794  1
  I  I9  1  0.49094203  0.70766281  0.58813161  1
  I  I10  1  0.28749155  0.27495973  0.92377564  1
  I  I11  1  0.09336369  0.22320596  0.40261206  1
  I  I12  1  0.90663631  0.77679404  0.59738794  1
  I  I13  1  0.71250845  0.72504027  0.07622436  1
  I  I14  1  0.50905797  0.29233719  0.41186839  1
  I  I15  1  0.87418199  0.50402426  0.90261206  1
  I  I16  1  0.69873536  0.21126819  0.57622436  1
  I  I17  1  0.79579542  0.07907464  0.91186839  1
