# generated using pymatgen
data_CsLi3I4
_symmetry_space_group_name_H-M   'P 1'
_cell_length_a   11.20504374
_cell_length_b   4.68042392
_cell_length_c   11.67802571
_cell_angle_alpha   90.00000000
_cell_angle_beta   93.17703899
_cell_angle_gamma   90.00000000
_symmetry_Int_Tables_number   1
_chemical_formula_structural   CsLi3I4
_chemical_formula_sum   'Cs2 Li6 I8'
_cell_volume   611.50522565
_cell_formula_units_Z   2
loop_
 _symmetry_equiv_pos_site_id
 _symmetry_equiv_pos_as_xyz
  1  'x, y, z'
loop_
 _atom_site_type_symbol
 _atom_site_label
 _atom_site_symmetry_multiplicity
 _atom_site_fract_x
 _atom_site_fract_y
 _atom_site_fract_z
 _atom_site_occupancy
  Cs  Cs0  1  0.13243548  0.50000100  0.15268425  1
  Cs  Cs1  1  0.57952716  0.50000100  0.29997728  1
  Li  Li2  1  0.98908716  0.00000000  0.44447726  1
  Li  Li3  1  0.35970934  0.00000000  0.61105545  1
  Li  Li4  1  0.71159375  0.50000100  0.66377086  1
  Li  Li5  1  0.07409941  0.50000100  0.76962802  1
  Li  Li6  1  0.45616644  0.50000100  0.93696983  1
  Li  Li7  1  0.81047131  0.00000000  0.98920912  1
  I  I8  1  0.41614770  0.00000000  0.06653787  1
  I  I9  1  0.85264114  0.00000000  0.22946441  1
  I  I10  1  0.22992579  0.00000000  0.40426635  1
  I  I11  1  0.93512188  0.50000100  0.56622596  1
  I  I12  1  0.60357709  0.00000000  0.57209430  1
  I  I13  1  0.31706547  0.50000100  0.73441762  1
  I  I14  1  0.03148048  0.00000000  0.89400219  1
  I  I15  1  0.70088941  0.50000100  0.90345924  1
