# generated using pymatgen
data_HoMg2
_symmetry_space_group_name_H-M   'P 1'
_cell_length_a   6.01243338
_cell_length_b   6.01243416
_cell_length_c   6.02348519
_cell_angle_alpha   119.93931760
_cell_angle_beta   60.06069145
_cell_angle_gamma   119.99998249
_symmetry_Int_Tables_number   1
_chemical_formula_structural   HoMg2
_chemical_formula_sum   'Ho2 Mg4'
_cell_volume   154.11016309
_cell_formula_units_Z   2
loop_
 _symmetry_equiv_pos_site_id
 _symmetry_equiv_pos_as_xyz
  1  'x, y, z'
loop_
 _atom_site_type_symbol
 _atom_site_label
 _atom_site_symmetry_multiplicity
 _atom_site_fract_x
 _atom_site_fract_y
 _atom_site_fract_z
 _atom_site_occupancy
  Ho  Ho0  1  0.87523705  0.45809395  0.37428484  1
  Ho  Ho1  1  0.12476195  0.20857105  0.62571416  1
  Mg  Mg2  1  1.00000000  0.83067312  0.00000100  1
  Mg  Mg3  1  0.49734012  0.33333400  0.00000100  1
  Mg  Mg4  1  0.50266088  0.83599288  1.00000000  1
  Mg  Mg5  1  0.49999900  0.83333300  0.50000000  1
