# generated using pymatgen
data_NaFe3H6(SO7)2
_symmetry_space_group_name_H-M   'P 1'
_cell_length_a   7.02012289
_cell_length_b   7.02012295
_cell_length_c   7.02012280
_cell_angle_alpha   65.07422315
_cell_angle_beta   65.07422128
_cell_angle_gamma   65.07422475
_symmetry_Int_Tables_number   1
_chemical_formula_structural   NaFe3H6(SO7)2
_chemical_formula_sum   'Na1 Fe3 H6 S2 O14'
_cell_volume   271.72468634
_cell_formula_units_Z   1
loop_
 _symmetry_equiv_pos_site_id
 _symmetry_equiv_pos_as_xyz
  1  'x, y, z'
loop_
 _atom_site_type_symbol
 _atom_site_label
 _atom_site_symmetry_multiplicity
 _atom_site_fract_x
 _atom_site_fract_y
 _atom_site_fract_z
 _atom_site_occupancy
  Na  Na0  1  -0.00000000  0.00000000  -0.00000000  1
  Fe  Fe1  1  0.50000000  0.00000000  -0.00000000  1
  Fe  Fe2  1  -0.00000000  0.50000000  -0.00000000  1
  Fe  Fe3  1  -0.00000000  0.00000000  0.50000000  1
  H  H4  1  0.63014377  0.63014377  0.19709825  1
  H  H5  1  0.63014377  0.19709825  0.63014377  1
  H  H6  1  0.19709825  0.63014377  0.63014377  1
  H  H7  1  0.80290175  0.36985623  0.36985623  1
  H  H8  1  0.36985623  0.36985623  0.80290175  1
  H  H9  1  0.36985623  0.80290175  0.36985623  1
  S  S10  1  0.31562379  0.31562379  0.31562379  1
  S  S11  1  0.68437621  0.68437621  0.68437621  1
  O  O12  1  0.40381345  0.40381345  0.40381345  1
  O  O13  1  0.59618655  0.59618655  0.59618655  1
  O  O14  1  0.17604253  0.50210800  0.17604253  1
  O  O15  1  0.17604253  0.17604253  0.50210800  1
  O  O16  1  0.50210800  0.17604253  0.17604253  1
  O  O17  1  0.49789200  0.82395747  0.82395747  1
  O  O18  1  0.82395747  0.49789200  0.82395747  1
  O  O19  1  0.82395747  0.82395747  0.49789200  1
  O  O20  1  0.27365306  0.88593359  0.27365306  1
  O  O21  1  0.27365306  0.27365306  0.88593359  1
  O  O22  1  0.88593359  0.27365306  0.27365306  1
  O  O23  1  0.11406641  0.72634694  0.72634694  1
  O  O24  1  0.72634694  0.11406641  0.72634694  1
  O  O25  1  0.72634694  0.72634694  0.11406641  1
