# generated using pymatgen
data_MnSiO3
_symmetry_space_group_name_H-M   'P 1'
_cell_length_a   5.97153051
_cell_length_b   8.86198558
_cell_length_c   13.08767695
_cell_angle_alpha   112.81467980
_cell_angle_beta   90.94880136
_cell_angle_gamma   90.32203799
_symmetry_Int_Tables_number   1
_chemical_formula_structural   MnSiO3
_chemical_formula_sum   'Mn10 Si10 O30'
_cell_volume   638.26687564
_cell_formula_units_Z   10
loop_
 _symmetry_equiv_pos_site_id
 _symmetry_equiv_pos_as_xyz
  1  'x, y, z'
loop_
 _atom_site_type_symbol
 _atom_site_label
 _atom_site_symmetry_multiplicity
 _atom_site_fract_x
 _atom_site_fract_y
 _atom_site_fract_z
 _atom_site_occupancy
  Mn  Mn0  1  0.13177601  0.20084342  0.31487497  1
  Mn  Mn1  1  0.82034511  0.37633351  0.14316105  1
  Mn  Mn2  1  0.17965489  0.62366649  0.85683895  1
  Mn  Mn3  1  0.21328378  0.44768400  0.58213996  1
  Mn  Mn4  1  0.34917573  0.24198481  0.72618824  1
  Mn  Mn5  1  0.78671622  0.55231600  0.41786004  1
  Mn  Mn6  1  0.65082427  0.75801519  0.27381176  1
  Mn  Mn7  1  0.00000000  0.00000000  0.00000000  1
  Mn  Mn8  1  0.86822399  0.79915658  0.68512503  1
  Mn  Mn9  1  0.50000000  0.00000000  0.00000000  1
  Si  Si10  1  0.78186702  0.68904521  0.03441599  1
  Si  Si11  1  0.57611846  0.03520113  0.18965666  1
  Si  Si12  1  0.63869133  0.21099727  0.43488353  1
  Si  Si13  1  0.36130867  0.78900273  0.56511647  1
  Si  Si14  1  0.86488011  0.16921057  0.63738036  1
  Si  Si15  1  0.21813298  0.31095479  0.96558401  1
  Si  Si16  1  0.68080733  0.51126280  0.77944361  1
  Si  Si17  1  0.13511989  0.83078943  0.36261964  1
  Si  Si18  1  0.31919267  0.48873720  0.22055639  1
  Si  Si19  1  0.42388154  0.96479887  0.81034334  1
  O  O20  1  0.76183463  0.12399342  0.13839465  1
  O  O21  1  0.66871776  0.91533495  0.84454224  1
  O  O22  1  0.40292511  0.16091905  0.90007254  1
  O  O23  1  0.09188952  0.98338436  0.33084501  1
  O  O24  1  0.09650217  0.25743521  0.62424717  1
  O  O25  1  0.29097299  0.69243751  0.26070608  1
  O  O26  1  0.19180215  0.39852663  0.87877437  1
  O  O27  1  0.10684406  0.40665550  0.25668773  1
  O  O28  1  0.33128224  0.08466505  0.15545776  1
  O  O29  1  0.00364083  0.77087696  0.00509947  1
  O  O30  1  0.39863735  0.29954605  0.44450564  1
  O  O31  1  0.65201218  0.58124942  0.91605288  1
  O  O32  1  0.99635917  0.22912304  0.99490053  1
  O  O33  1  0.61349282  0.03827267  0.31410933  1
  O  O34  1  0.70902701  0.30756249  0.73929392  1
  O  O35  1  0.34798782  0.41875058  0.08394712  1
  O  O36  1  0.84788763  0.32198145  0.42160796  1
  O  O37  1  0.60136265  0.70045395  0.55549436  1
  O  O38  1  0.89315594  0.59334450  0.74331227  1
  O  O39  1  0.59707489  0.83908095  0.09992746  1
  O  O40  1  0.90811048  0.01661564  0.66915499  1
  O  O41  1  0.23816537  0.87600658  0.86160535  1
  O  O42  1  0.15211237  0.67801855  0.57839204  1
  O  O43  1  0.80819785  0.60147337  0.12122563  1
  O  O44  1  0.38650718  0.96172733  0.68589067  1
  O  O45  1  0.30799146  0.86300576  0.47072038  1
  O  O46  1  0.90349783  0.74256479  0.37575283  1
  O  O47  1  0.69200854  0.13699424  0.52927962  1
  O  O48  1  0.57069170  0.47786740  0.26966520  1
  O  O49  1  0.42930830  0.52213260  0.73033480  1
