# generated using pymatgen
data_Mn3Pt
_symmetry_space_group_name_H-M   'P 1'
_cell_length_a   5.22938932
_cell_length_b   5.22938963
_cell_length_c   4.05071039
_cell_angle_alpha   90.00000000
_cell_angle_beta   90.00000000
_cell_angle_gamma   119.99999807
_symmetry_Int_Tables_number   1
_chemical_formula_structural   Mn3Pt
_chemical_formula_sum   'Mn6 Pt2'
_cell_volume   95.93206888
_cell_formula_units_Z   2
loop_
 _symmetry_equiv_pos_site_id
 _symmetry_equiv_pos_as_xyz
  1  'x, y, z'
loop_
 _atom_site_type_symbol
 _atom_site_label
 _atom_site_symmetry_multiplicity
 _atom_site_fract_x
 _atom_site_fract_y
 _atom_site_fract_z
 _atom_site_occupancy
  Mn  Mn0  1  0.15111427  0.30222855  0.24999900  1
  Mn  Mn1  1  0.69777045  0.84888573  0.24999900  1
  Mn  Mn2  1  0.15111627  0.84888573  0.24999900  1
  Mn  Mn3  1  0.84888673  0.69777045  0.75000000  1
  Mn  Mn4  1  0.30222955  0.15111527  0.75000000  1
  Mn  Mn5  1  0.84888573  0.15111527  0.75000000  1
  Pt  Pt6  1  0.33333400  0.66666800  0.75000000  1
  Pt  Pt7  1  0.66666800  0.33333300  0.24999900  1
