# generated using pymatgen
data_Pm3Si
_symmetry_space_group_name_H-M   'P 1'
_cell_length_a   6.99822892
_cell_length_b   7.00062683
_cell_length_c   5.08188678
_cell_angle_alpha   90.00723752
_cell_angle_beta   89.99861358
_cell_angle_gamma   119.99558736
_symmetry_Int_Tables_number   1
_chemical_formula_structural   Pm3Si
_chemical_formula_sum   'Pm6 Si2'
_cell_volume   215.62543835
_cell_formula_units_Z   2
loop_
 _symmetry_equiv_pos_site_id
 _symmetry_equiv_pos_as_xyz
  1  'x, y, z'
loop_
 _atom_site_type_symbol
 _atom_site_label
 _atom_site_symmetry_multiplicity
 _atom_site_fract_x
 _atom_site_fract_y
 _atom_site_fract_z
 _atom_site_occupancy
  Pm  Pm0  1  0.18187229  0.36373521  0.24993783  1
  Pm  Pm1  1  0.63639184  0.81819436  0.25002619  1
  Pm  Pm2  1  0.18189317  0.81811483  0.24999922  1
  Pm  Pm3  1  0.81809907  0.63619274  0.74994607  1
  Pm  Pm4  1  0.36367532  0.18183998  0.75000759  1
  Pm  Pm5  1  0.81807471  0.18193547  0.75008675  1
  Si  Si6  1  0.33333367  0.66660306  0.75004753  1
  Si  Si7  1  0.66666192  0.33338536  0.24995284  1
