# generated using pymatgen
data_H6N4O9
_symmetry_space_group_name_H-M   'P 1'
_cell_length_a   7.40420511
_cell_length_b   12.71237303
_cell_length_c   4.80926042
_cell_angle_alpha   90.00000000
_cell_angle_beta   95.54669716
_cell_angle_gamma   90.00000000
_symmetry_Int_Tables_number   1
_chemical_formula_structural   H6N4O9
_chemical_formula_sum   'H12 N8 O18'
_cell_volume   450.55219924
_cell_formula_units_Z   2
loop_
 _symmetry_equiv_pos_site_id
 _symmetry_equiv_pos_as_xyz
  1  'x, y, z'
loop_
 _atom_site_type_symbol
 _atom_site_label
 _atom_site_symmetry_multiplicity
 _atom_site_fract_x
 _atom_site_fract_y
 _atom_site_fract_z
 _atom_site_occupancy
  H  H0  1  0.84304073  0.91098205  0.48366072  1
  H  H1  1  0.15695927  0.41098205  0.01633928  1
  H  H2  1  0.24724638  0.07887932  0.08202948  1
  H  H3  1  0.28242200  0.96607811  0.89417345  1
  H  H4  1  0.71757800  0.46607811  0.60582655  1
  H  H5  1  0.75275362  0.57887932  0.41797052  1
  H  H6  1  0.85977259  0.56224758  0.74172894  1
  H  H7  1  0.91547704  0.48511292  0.47639316  1
  H  H8  1  0.08452296  0.98511292  0.02360684  1
  H  H9  1  0.14022741  0.06224758  0.75827106  1
  H  H10  1  0.92859848  0.17990090  0.27288604  1
  H  H11  1  0.07140152  0.67990090  0.22711396  1
  N  N12  1  0.81042941  0.52203640  0.56034012  1
  N  N13  1  0.18957059  0.02203640  0.93965988  1
  N  N14  1  0.61830732  0.98360534  0.52860548  1
  N  N15  1  0.38169268  0.48360534  0.97139452  1
  N  N16  1  0.78241812  0.72085999  0.05072311  1
  N  N17  1  0.82639400  0.27900039  0.98862292  1
  N  N18  1  0.17360600  0.77900039  0.51137708  1
  N  N19  1  0.21758188  0.22085999  0.44927689  1
  O  O20  1  0.81061374  0.97884659  0.56725091  1
  O  O21  1  0.18938626  0.47884659  0.93274909  1
  O  O22  1  0.54237309  0.92328157  0.35752834  1
  O  O23  1  0.55384346  0.04995619  0.67267519  1
  O  O24  1  0.44615654  0.54995619  0.82732481  1
  O  O25  1  0.45762691  0.42328157  0.14247166  1
  O  O26  1  0.68695773  0.69273953  0.24038205  1
  O  O27  1  0.72554366  0.29259144  0.77549383  1
  O  O28  1  0.27445634  0.79259144  0.72450617  1
  O  O29  1  0.31304227  0.19273953  0.25961795  1
  O  O30  1  0.92337685  0.66092915  0.00266856  1
  O  O31  1  0.92678322  0.34665380  0.11234235  1
  O  O32  1  0.07321678  0.84665380  0.38765765  1
  O  O33  1  0.07662315  0.16092915  0.49733144  1
  O  O34  1  0.75207277  0.80099785  0.90978920  1
  O  O35  1  0.82823062  0.18099488  0.10054216  1
  O  O36  1  0.17176938  0.68099488  0.39945784  1
  O  O37  1  0.24792723  0.30099785  0.59021080  1
