# generated using pymatgen
data_SmHo3
_symmetry_space_group_name_H-M   'P 1'
_cell_length_a   7.21955096
_cell_length_b   7.21955201
_cell_length_c   5.72744215
_cell_angle_alpha   90.00000000
_cell_angle_beta   90.00000000
_cell_angle_gamma   119.99999518
_symmetry_Int_Tables_number   1
_chemical_formula_structural   SmHo3
_chemical_formula_sum   'Sm2 Ho6'
_cell_volume   258.53050820
_cell_formula_units_Z   2
loop_
 _symmetry_equiv_pos_site_id
 _symmetry_equiv_pos_as_xyz
  1  'x, y, z'
loop_
 _atom_site_type_symbol
 _atom_site_label
 _atom_site_symmetry_multiplicity
 _atom_site_fract_x
 _atom_site_fract_y
 _atom_site_fract_z
 _atom_site_occupancy
  Sm  Sm0  1  0.33333300  0.66666600  0.75000000  1
  Sm  Sm1  1  0.66666800  0.33333300  0.25000000  1
  Ho  Ho2  1  0.16543469  0.33086939  0.25000000  1
  Ho  Ho3  1  0.66913061  0.83456531  0.25000000  1
  Ho  Ho4  1  0.16543469  0.83456531  0.25000000  1
  Ho  Ho5  1  0.83456631  0.66913061  0.75000000  1
  Ho  Ho6  1  0.33087039  0.16543469  0.75000000  1
  Ho  Ho7  1  0.83456531  0.16543469  0.75000000  1
