# generated using pymatgen
data_TbAgAs2
_symmetry_space_group_name_H-M   'P 1'
_cell_length_a   3.97831790
_cell_length_b   4.01292082
_cell_length_c   21.01820109
_cell_angle_alpha   90.00000000
_cell_angle_beta   90.00000000
_cell_angle_gamma   90.00000000
_symmetry_Int_Tables_number   1
_chemical_formula_structural   TbAgAs2
_chemical_formula_sum   'Tb4 Ag4 As8'
_cell_volume   335.54874380
_cell_formula_units_Z   4
loop_
 _symmetry_equiv_pos_site_id
 _symmetry_equiv_pos_as_xyz
  1  'x, y, z'
loop_
 _atom_site_type_symbol
 _atom_site_label
 _atom_site_symmetry_multiplicity
 _atom_site_fract_x
 _atom_site_fract_y
 _atom_site_fract_z
 _atom_site_occupancy
  Tb  Tb0  1  0.25000000  0.23227621  0.11442560  1
  Tb  Tb1  1  0.75000100  0.73227621  0.38557440  1
  Tb  Tb2  1  0.25000000  0.26772479  0.61442560  1
  Tb  Tb3  1  0.75000100  0.76772579  0.88557440  1
  Ag  Ag4  1  0.75000100  0.22975351  0.25000687  1
  Ag  Ag5  1  0.25000000  0.72975351  0.24999313  1
  Ag  Ag6  1  0.75000100  0.27024749  0.75000687  1
  Ag  Ag7  1  0.25000000  0.77024749  0.74999313  1
  As  As8  1  0.25000000  0.71939631  0.00123359  1
  As  As9  1  0.75000100  0.73143472  0.15617988  1
  As  As10  1  0.25000000  0.23143372  0.34382012  1
  As  As11  1  0.75000100  0.21939831  0.49876641  1
  As  As12  1  0.25000000  0.78060269  0.50123359  1
  As  As13  1  0.75000100  0.76856728  0.65617988  1
  As  As14  1  0.25000000  0.26856728  0.84382012  1
  As  As15  1  0.75000100  0.28060269  0.99876641  1
