# generated using pymatgen
data_K2S2O5
_symmetry_space_group_name_H-M   'P 1'
_cell_length_a   6.60300611
_cell_length_b   6.99911869
_cell_length_c   9.09700477
_cell_angle_alpha   64.54528545
_cell_angle_beta   90.00000000
_cell_angle_gamma   90.00000000
_symmetry_Int_Tables_number   1
_chemical_formula_structural   K2S2O5
_chemical_formula_sum   'K4 S4 O10'
_cell_volume   379.60794017
_cell_formula_units_Z   2
loop_
 _symmetry_equiv_pos_site_id
 _symmetry_equiv_pos_as_xyz
  1  'x, y, z'
loop_
 _atom_site_type_symbol
 _atom_site_label
 _atom_site_symmetry_multiplicity
 _atom_site_fract_x
 _atom_site_fract_y
 _atom_site_fract_z
 _atom_site_occupancy
  K  K0  1  0.75000000  0.71355083  0.00890354  1
  K  K1  1  0.75000000  0.27750997  0.48490347  1
  K  K2  1  0.25000000  0.72249003  0.51509653  1
  K  K3  1  0.25000000  0.28644917  0.99109646  1
  S  S4  1  0.75000000  0.14086503  0.17372322  1
  S  S5  1  0.25000000  0.85913497  0.82627678  1
  S  S6  1  0.25000000  0.20590771  0.63302552  1
  S  S7  1  0.75000000  0.79409229  0.36697448  1
  O  O8  1  0.06412900  0.76816599  0.78639185  1
  O  O9  1  0.93645797  0.70548900  0.32354686  1
  O  O10  1  0.56354203  0.70548900  0.32354686  1
  O  O11  1  0.25000000  0.84161671  0.99381466  1
  O  O12  1  0.56412900  0.23183401  0.21360815  1
  O  O13  1  0.75000000  0.15838329  0.00618534  1
  O  O14  1  0.43645797  0.29451100  0.67645314  1
  O  O15  1  0.06354203  0.29451100  0.67645314  1
  O  O16  1  0.43587100  0.76816599  0.78639185  1
  O  O17  1  0.93587100  0.23183401  0.21360815  1
