# generated using pymatgen
data_Lu2CuTe2(SO7)2
_symmetry_space_group_name_H-M   'P 1'
_cell_length_a   5.35981107
_cell_length_b   8.16509644
_cell_length_c   8.22576616
_cell_angle_alpha   114.87432430
_cell_angle_beta   106.21779799
_cell_angle_gamma   96.81016102
_symmetry_Int_Tables_number   1
_chemical_formula_structural   Lu2CuTe2(SO7)2
_chemical_formula_sum   'Lu2 Cu1 Te2 S2 O14'
_cell_volume   301.86307786
_cell_formula_units_Z   1
loop_
 _symmetry_equiv_pos_site_id
 _symmetry_equiv_pos_as_xyz
  1  'x, y, z'
loop_
 _atom_site_type_symbol
 _atom_site_label
 _atom_site_symmetry_multiplicity
 _atom_site_fract_x
 _atom_site_fract_y
 _atom_site_fract_z
 _atom_site_occupancy
  Lu  Lu0  1  0.17071871  0.23352829  0.52951262  1
  Lu  Lu1  1  0.82928129  0.76647171  0.47048738  1
  Cu  Cu2  1  0.50000000  0.50000000  0.00000000  1
  Te  Te3  1  0.12700717  0.76452062  0.14513842  1
  Te  Te4  1  0.87299283  0.23547938  0.85486158  1
  S  S5  1  0.58720980  0.27348835  0.27138088  1
  S  S6  1  0.41279020  0.72651165  0.72861912  1
  O  O7  1  0.38390038  0.18175533  0.32229117  1
  O  O8  1  0.61609962  0.81824467  0.67770883  1
  O  O9  1  0.29866038  0.52520129  0.58297254  1
  O  O10  1  0.70133962  0.47479871  0.41702746  1
  O  O11  1  0.81241000  0.18162913  0.28014358  1
  O  O12  1  0.18759000  0.81837087  0.71985642  1
  O  O13  1  0.45844724  0.24972520  0.07716505  1
  O  O14  1  0.54155276  0.75027480  0.92283495  1
  O  O15  1  0.88608426  0.57423072  0.15312525  1
  O  O16  1  0.11391574  0.42576928  0.84687475  1
  O  O17  1  0.44698130  0.69491428  0.23092457  1
  O  O18  1  0.55301870  0.30508572  0.76907543  1
  O  O19  1  0.12581648  0.92469135  0.39243358  1
  O  O20  1  0.87418352  0.07530865  0.60756642  1
