# generated using pymatgen
data_PrSe2
_symmetry_space_group_name_H-M   'P 1'
_cell_length_a   8.41852817
_cell_length_b   8.41852817
_cell_length_c   8.63553083
_cell_angle_alpha   90.00000000
_cell_angle_beta   90.00000000
_cell_angle_gamma   90.00000000
_symmetry_Int_Tables_number   1
_chemical_formula_structural   PrSe2
_chemical_formula_sum   'Pr8 Se16'
_cell_volume   612.01402968
_cell_formula_units_Z   8
loop_
 _symmetry_equiv_pos_site_id
 _symmetry_equiv_pos_as_xyz
  1  'x, y, z'
loop_
 _atom_site_type_symbol
 _atom_site_label
 _atom_site_symmetry_multiplicity
 _atom_site_fract_x
 _atom_site_fract_y
 _atom_site_fract_z
 _atom_site_occupancy
  Pr  Pr0  1  0.25032487  0.49169078  0.72565584  1
  Pr  Pr1  1  0.24967513  0.99169078  0.72565584  1
  Pr  Pr2  1  0.74967513  0.50830922  0.72565584  1
  Pr  Pr3  1  0.75032487  0.00830922  0.72565584  1
  Pr  Pr4  1  0.50830922  0.25032487  0.27434416  1
  Pr  Pr5  1  0.99169078  0.75032487  0.27434416  1
  Pr  Pr6  1  0.49169078  0.74967513  0.27434416  1
  Pr  Pr7  1  0.00830922  0.24967513  0.27434416  1
  Se  Se8  1  0.50200290  0.25013341  0.63319748  1
  Se  Se9  1  0.99799710  0.75013341  0.63319748  1
  Se  Se10  1  0.49799710  0.74986659  0.63319748  1
  Se  Se11  1  0.00200290  0.24986659  0.63319748  1
  Se  Se12  1  0.74986659  0.50200290  0.36680252  1
  Se  Se13  1  0.75013341  0.00200290  0.36680252  1
  Se  Se14  1  0.25013341  0.49799710  0.36680252  1
  Se  Se15  1  0.24986659  0.99799710  0.36680252  1
  Se  Se16  1  0.22888398  0.72888398  -0.00000000  1
  Se  Se17  1  0.27111602  0.22888398  -0.00000000  1
  Se  Se18  1  0.77111602  0.27111602  -0.00000000  1
  Se  Se19  1  0.72888398  0.77111602  -0.00000000  1
  Se  Se20  1  0.00000000  0.50000000  -0.00000000  1
  Se  Se21  1  0.50000000  0.00000000  -0.00000000  1
  Se  Se22  1  0.50000000  0.50000000  -0.00000000  1
  Se  Se23  1  -0.00000000  0.00000000  -0.00000000  1
