# generated using pymatgen
data_Ag2Te3Mo3O16
_symmetry_space_group_name_H-M   'P 1'
_cell_length_a   7.54646475
_cell_length_b   7.80689354
_cell_length_c   7.80689354
_cell_angle_alpha   95.41935344
_cell_angle_beta   114.27875569
_cell_angle_gamma   114.27875569
_symmetry_Int_Tables_number   1
_chemical_formula_structural   Ag2Te3Mo3O16
_chemical_formula_sum   'Ag2 Te3 Mo3 O16'
_cell_volume   362.45204385
_cell_formula_units_Z   1
loop_
 _symmetry_equiv_pos_site_id
 _symmetry_equiv_pos_as_xyz
  1  'x, y, z'
loop_
 _atom_site_type_symbol
 _atom_site_label
 _atom_site_symmetry_multiplicity
 _atom_site_fract_x
 _atom_site_fract_y
 _atom_site_fract_z
 _atom_site_occupancy
  Ag  Ag0  1  0.50000000  0.09603695  0.90396305  1
  Ag  Ag1  1  -0.00000000  0.53218933  0.46781067  1
  Te  Te2  1  0.50000000  0.59398736  0.40601264  1
  Te  Te3  1  0.99853500  0.53015726  0.02253697  1
  Te  Te4  1  0.00146500  0.97746303  0.46984274  1
  Mo  Mo5  1  0.46696612  0.06242348  0.38442305  1
  Mo  Mo6  1  0.53303388  0.61557695  0.93757652  1
  Mo  Mo7  1  0.00000000  0.99949845  0.00050155  1
  O  O8  1  0.43787774  0.54238034  0.13488045  1
  O  O9  1  0.56212226  0.86511955  0.45761966  1
  O  O10  1  0.16208318  0.51000237  0.28177017  1
  O  O11  1  0.83791682  0.71822983  0.48999763  1
  O  O12  1  0.75354629  0.47806899  0.06146556  1
  O  O13  1  0.24645371  0.93853444  0.52193101  1
  O  O14  1  0.15932996  0.81665634  0.12111853  1
  O  O15  1  0.84067004  0.87888147  0.18334366  1
  O  O16  1  0.60915321  0.13420043  0.25031553  1
  O  O17  1  0.39084679  0.74968447  0.86579957  1
  O  O18  1  0.65026650  0.26119656  0.60564346  1
  O  O19  1  0.34973350  0.39435654  0.73880344  1
  O  O20  1  0.25966361  0.16735229  0.26270646  1
  O  O21  1  0.74033639  0.73729354  0.83264771  1
  O  O22  1  0.12730556  0.03844310  0.85036307  1
  O  O23  1  0.87269444  0.14963693  0.96155690  1
