# generated using pymatgen
data_Er5Tl3
_symmetry_space_group_name_H-M   'P 1'
_cell_length_a   7.98989459
_cell_length_b   7.98989459
_cell_length_c   9.12036199
_cell_angle_alpha   115.97794034
_cell_angle_beta   115.97794034
_cell_angle_gamma   90.00000000
_symmetry_Int_Tables_number   1
_chemical_formula_structural   Er5Tl3
_chemical_formula_sum   'Er10 Tl6'
_cell_volume   457.06610184
_cell_formula_units_Z   2
loop_
 _symmetry_equiv_pos_site_id
 _symmetry_equiv_pos_as_xyz
  1  'x, y, z'
loop_
 _atom_site_type_symbol
 _atom_site_label
 _atom_site_symmetry_multiplicity
 _atom_site_fract_x
 _atom_site_fract_y
 _atom_site_fract_z
 _atom_site_occupancy
  Er  Er0  1  0.50000000  0.50000000  0.00000000  1
  Er  Er1  1  0.00000000  -0.00000000  0.00000000  1
  Er  Er2  1  0.99176059  0.81145350  0.30321408  1
  Er  Er3  1  0.31145350  0.49176059  0.30321408  1
  Er  Er4  1  0.81145350  0.31145350  0.30321408  1
  Er  Er5  1  0.49176059  0.99176059  0.30321408  1
  Er  Er6  1  0.00823941  0.18854650  0.69678592  1
  Er  Er7  1  0.68854650  0.50823941  0.69678592  1
  Er  Er8  1  0.18854650  0.68854650  0.69678592  1
  Er  Er9  1  0.50823941  0.00823941  0.69678592  1
  Tl  Tl10  1  0.75000000  0.75000000  0.50000000  1
  Tl  Tl11  1  0.25000000  0.25000000  0.50000000  1
  Tl  Tl12  1  0.63615784  0.86384216  0.00000000  1
  Tl  Tl13  1  0.36384216  0.13615784  0.00000000  1
  Tl  Tl14  1  0.86384216  0.36384216  0.00000000  1
  Tl  Tl15  1  0.13615784  0.63615784  1.00000000  1
