# generated using pymatgen
data_TlInHgS3
_symmetry_space_group_name_H-M   'P 1'
_cell_length_a   4.01523596
_cell_length_b   7.40028784
_cell_length_c   21.35413629
_cell_angle_alpha   83.93587926
_cell_angle_beta   84.60534640
_cell_angle_gamma   74.25900535
_symmetry_Int_Tables_number   1
_chemical_formula_structural   TlInHgS3
_chemical_formula_sum   'Tl4 In4 Hg4 S12'
_cell_volume   605.88414793
_cell_formula_units_Z   4
loop_
 _symmetry_equiv_pos_site_id
 _symmetry_equiv_pos_as_xyz
  1  'x, y, z'
loop_
 _atom_site_type_symbol
 _atom_site_label
 _atom_site_symmetry_multiplicity
 _atom_site_fract_x
 _atom_site_fract_y
 _atom_site_fract_z
 _atom_site_occupancy
  Tl  Tl0  1  0.10032554  0.08912946  0.92157665  1
  Tl  Tl1  1  0.11103166  0.41087054  0.57842335  1
  Tl  Tl2  1  0.89967446  0.91087054  0.07842335  1
  Tl  Tl3  1  0.88896834  0.58912946  0.42157665  1
  In  In4  1  0.81599216  0.66160132  0.82440491  1
  In  In5  1  0.30199839  0.83839868  0.67559509  1
  In  In6  1  0.18400784  0.33839868  0.17559509  1
  In  In7  1  0.69800161  0.16160132  0.32440491  1
  Hg  Hg8  1  0.56751164  0.25000000  0.75000000  1
  Hg  Hg9  1  0.43248836  0.75000000  0.25000000  1
  Hg  Hg10  1  0.50000000  0.50000000  0.00000000  1
  Hg  Hg11  1  0.00000000  0.00000000  0.50000000  1
  S  S12  1  0.43782619  0.39961375  0.84726393  1
  S  S13  1  0.68470387  0.10038625  0.65273607  1
  S  S14  1  0.56217381  0.60038625  0.15273607  1
  S  S15  1  0.31529613  0.89961375  0.34726393  1
  S  S16  1  0.20720658  0.90334016  0.79673364  1
  S  S17  1  0.90728038  0.59665984  0.70326636  1
  S  S18  1  0.79279342  0.09665984  0.20326636  1
  S  S19  1  0.09271962  0.40334016  0.29673364  1
  S  S20  1  0.74540134  0.73469264  0.94306498  1
  S  S21  1  0.42315897  0.76530736  0.55693502  1
  S  S22  1  0.25459866  0.26530736  0.05693502  1
  S  S23  1  0.57684103  0.23469264  0.44306498  1
