# generated using pymatgen
data_EuAl
_symmetry_space_group_name_H-M   'P 1'
_cell_length_a   5.75454347
_cell_length_b   9.39735841
_cell_length_c   9.98065939
_cell_angle_alpha   90.00000000
_cell_angle_beta   90.00000000
_cell_angle_gamma   90.00000000
_symmetry_Int_Tables_number   1
_chemical_formula_structural   EuAl
_chemical_formula_sum   'Eu10 Al10'
_cell_volume   539.72918275
_cell_formula_units_Z   10
loop_
 _symmetry_equiv_pos_site_id
 _symmetry_equiv_pos_as_xyz
  1  'x, y, z'
loop_
 _atom_site_type_symbol
 _atom_site_label
 _atom_site_symmetry_multiplicity
 _atom_site_fract_x
 _atom_site_fract_y
 _atom_site_fract_z
 _atom_site_occupancy
  Eu  Eu0  1  0.75000000  0.06764636  0.91492950  1
  Eu  Eu1  1  0.75000000  0.43235364  0.91492950  1
  Eu  Eu2  1  0.25000000  0.93235364  0.08507050  1
  Eu  Eu3  1  0.25000000  0.56764636  0.08507050  1
  Eu  Eu4  1  0.75000000  0.94863183  0.31061222  1
  Eu  Eu5  1  0.75000000  0.55136817  0.31061222  1
  Eu  Eu6  1  0.25000000  0.05136817  0.68938778  1
  Eu  Eu7  1  0.25000000  0.44863183  0.68938778  1
  Eu  Eu8  1  0.75000000  0.25000000  0.50632869  1
  Eu  Eu9  1  0.25000000  0.75000000  0.49367131  1
  Al  Al10  1  0.99053071  0.25000000  0.18324297  1
  Al  Al11  1  0.50946929  0.25000000  0.18324297  1
  Al  Al12  1  0.00946929  0.75000000  0.81675703  1
  Al  Al13  1  0.49053071  0.75000000  0.81675703  1
  Al  Al14  1  0.75000000  0.89440229  0.62765864  1
  Al  Al15  1  0.75000000  0.60559771  0.62765864  1
  Al  Al16  1  0.25000000  0.10559771  0.37234136  1
  Al  Al17  1  0.25000000  0.39440229  0.37234136  1
  Al  Al18  1  0.75000000  0.75000000  0.04568392  1
  Al  Al19  1  0.25000000  0.25000000  0.95431608  1
