# generated using pymatgen
data_Ho6Ni2Sn
_symmetry_space_group_name_H-M   'P 1'
_cell_length_a   8.39014392
_cell_length_b   8.38952491
_cell_length_c   8.38856757
_cell_angle_alpha   106.03107331
_cell_angle_beta   110.01383064
_cell_angle_gamma   112.43654425
_symmetry_Int_Tables_number   1
_chemical_formula_structural   Ho6Ni2Sn
_chemical_formula_sum   'Ho12 Ni4 Sn2'
_cell_volume   453.08155659
_cell_formula_units_Z   2
loop_
 _symmetry_equiv_pos_site_id
 _symmetry_equiv_pos_as_xyz
  1  'x, y, z'
loop_
 _atom_site_type_symbol
 _atom_site_label
 _atom_site_symmetry_multiplicity
 _atom_site_fract_x
 _atom_site_fract_y
 _atom_site_fract_z
 _atom_site_occupancy
  Ho  Ho0  1  0.70340776  0.26811884  0.97151599  1
  Ho  Ho1  1  0.29658777  0.73192340  0.02851961  1
  Ho  Ho2  1  0.70345549  0.73189224  0.43535833  1
  Ho  Ho3  1  0.29654878  0.26811667  0.56465455  1
  Ho  Ho4  1  0.81148027  0.13592332  0.32446427  1
  Ho  Ho5  1  0.81139760  0.48691636  0.67552069  1
  Ho  Ho6  1  0.18857911  0.86409893  0.67550660  1
  Ho  Ho7  1  0.18855349  0.51299874  0.32445222  1
  Ho  Ho8  1  0.61036463  0.79496259  0.81544565  1
  Ho  Ho9  1  0.97947351  0.79491919  0.18454826  1
  Ho  Ho10  1  0.02050023  0.20509401  0.81546865  1
  Ho  Ho11  1  0.38963712  0.20507725  0.18457261  1
  Ni  Ni12  1  0.85284331  0.49998139  0.35287405  1
  Ni  Ni13  1  0.14719909  0.49999708  0.64715534  1
  Ni  Ni14  1  0.99997349  0.12310766  0.12305974  1
  Ni  Ni15  1  0.00002717  0.87685589  0.87689921  1
  Sn  Sn16  1  0.49996061  0.50001496  0.99997363  1
  Sn  Sn17  1  0.50001056  0.00000148  0.50001060  1
