# generated using pymatgen
data_Eu7(ClF6)2
_symmetry_space_group_name_H-M   'P 1'
_cell_length_a   3.94457848
_cell_length_b   10.10024904
_cell_length_c   10.10032026
_cell_angle_alpha   120.00179010
_cell_angle_beta   90.00000000
_cell_angle_gamma   90.00000000
_symmetry_Int_Tables_number   1
_chemical_formula_structural   Eu7(ClF6)2
_chemical_formula_sum   'Eu7 Cl2 F12'
_cell_volume   348.49024453
_cell_formula_units_Z   1
loop_
 _symmetry_equiv_pos_site_id
 _symmetry_equiv_pos_as_xyz
  1  'x, y, z'
loop_
 _atom_site_type_symbol
 _atom_site_label
 _atom_site_symmetry_multiplicity
 _atom_site_fract_x
 _atom_site_fract_y
 _atom_site_fract_z
 _atom_site_occupancy
  Eu  Eu0  1  -0.00000000  -0.00000185  0.00000456  1
  Eu  Eu1  1  0.00000000  0.30044720  0.88912887  1
  Eu  Eu2  1  0.00000000  0.11089110  0.41132938  1
  Eu  Eu3  1  -0.00000000  0.58868389  0.69956048  1
  Eu  Eu4  1  0.50000000  0.88655523  0.59836878  1
  Eu  Eu5  1  0.50000000  0.40163531  0.28818687  1
  Eu  Eu6  1  0.50000000  0.71180853  0.11345192  1
  Cl  Cl7  1  -0.00000000  0.66664224  0.33332054  1
  Cl  Cl8  1  0.50000000  0.33335159  0.66667465  1
  F  F9  1  0.00000000  0.84370272  0.72452372  1
  F  F10  1  -0.00000000  0.27546796  0.11916859  1
  F  F11  1  -0.00000000  0.88082683  0.15630709  1
  F  F12  1  -0.00000000  0.06288261  0.63254724  1
  F  F13  1  -0.00000000  0.36744524  0.43032226  1
  F  F14  1  -0.00000000  0.56967284  0.93712511  1
  F  F15  1  0.50000000  0.61159858  0.56393896  1
  F  F16  1  0.50000000  0.43604636  0.04764565  1
  F  F17  1  0.50000000  0.95235164  0.38840360  1
  F  F18  1  0.50000000  0.09579192  0.87920909  1
  F  F19  1  0.50000000  0.12078067  0.21658015  1
  F  F20  1  0.50000000  0.78341939  0.90420251  1
