# generated using pymatgen
data_Ba4In2Te2Se5
_symmetry_space_group_name_H-M   'P 1'
_cell_length_a   8.76223075
_cell_length_b   8.76223075
_cell_length_c   11.49247123
_cell_angle_alpha   90.00000000
_cell_angle_beta   90.00000000
_cell_angle_gamma   90.00000000
_symmetry_Int_Tables_number   1
_chemical_formula_structural   Ba4In2Te2Se5
_chemical_formula_sum   'Ba8 In4 Te4 Se10'
_cell_volume   882.35387471
_cell_formula_units_Z   2
loop_
 _symmetry_equiv_pos_site_id
 _symmetry_equiv_pos_as_xyz
  1  'x, y, z'
loop_
 _atom_site_type_symbol
 _atom_site_label
 _atom_site_symmetry_multiplicity
 _atom_site_fract_x
 _atom_site_fract_y
 _atom_site_fract_z
 _atom_site_occupancy
  Ba  Ba0  1  0.65744201  0.15744201  -0.00000000  1
  Ba  Ba1  1  0.34255799  0.84255799  -0.00000000  1
  Ba  Ba2  1  0.84255799  0.65744201  -0.00000000  1
  Ba  Ba3  1  0.15744201  0.34255799  -0.00000000  1
  Ba  Ba4  1  0.50000000  0.50000000  0.71520901  1
  Ba  Ba5  1  -0.00000000  -0.00000000  0.71520901  1
  Ba  Ba6  1  0.50000000  0.50000000  0.28479099  1
  Ba  Ba7  1  -0.00000000  -0.00000000  0.28479099  1
  In  In8  1  0.50000000  -0.00000000  0.65472732  1
  In  In9  1  -0.00000000  0.50000000  0.65472732  1
  In  In10  1  0.50000000  -0.00000000  0.34527268  1
  In  In11  1  -0.00000000  0.50000000  0.34527268  1
  Te  Te12  1  0.68003359  0.18003359  0.50000000  1
  Te  Te13  1  0.31996641  0.81996641  0.50000000  1
  Te  Te14  1  0.81996641  0.68003359  0.50000000  1
  Te  Te15  1  0.18003359  0.31996641  0.50000000  1
  Se  Se16  1  0.65852535  0.84147465  0.80179853  1
  Se  Se17  1  0.34147465  0.15852535  0.80179853  1
  Se  Se18  1  0.84147465  0.34147465  0.80179853  1
  Se  Se19  1  0.15852535  0.65852535  0.80179853  1
  Se  Se20  1  0.34147465  0.15852535  0.19820147  1
  Se  Se21  1  0.65852535  0.84147465  0.19820147  1
  Se  Se22  1  0.15852535  0.65852535  0.19820147  1
  Se  Se23  1  0.84147465  0.34147465  0.19820147  1
  Se  Se24  1  0.50000000  0.50000000  -0.00000000  1
  Se  Se25  1  -0.00000000  -0.00000000  -0.00000000  1
