# generated using pymatgen
data_V2FeAgO7
_symmetry_space_group_name_H-M   'P 1'
_cell_length_a   5.71069083
_cell_length_b   7.59880674
_cell_length_c   7.78933181
_cell_angle_alpha   64.53027067
_cell_angle_beta   89.44712528
_cell_angle_gamma   78.85809865
_symmetry_Int_Tables_number   1
_chemical_formula_structural   V2FeAgO7
_chemical_formula_sum   'V4 Fe2 Ag2 O14'
_cell_volume   298.38004967
_cell_formula_units_Z   2
loop_
 _symmetry_equiv_pos_site_id
 _symmetry_equiv_pos_as_xyz
  1  'x, y, z'
loop_
 _atom_site_type_symbol
 _atom_site_label
 _atom_site_symmetry_multiplicity
 _atom_site_fract_x
 _atom_site_fract_y
 _atom_site_fract_z
 _atom_site_occupancy
  V  V0  1  0.69204804  0.22757546  0.78759433  1
  V  V1  1  0.30795196  0.77242454  0.21240567  1
  V  V2  1  0.70452554  0.21752475  0.25392190  1
  V  V3  1  0.29547446  0.78247525  0.74607810  1
  Fe  Fe4  1  0.17545951  0.31898333  0.47696659  1
  Fe  Fe5  1  0.82454049  0.68101667  0.52303341  1
  Ag  Ag6  1  0.82700878  0.66484221  0.03688060  1
  Ag  Ag7  1  0.17299122  0.33515779  0.96311940  1
  O  O8  1  0.89733816  0.36815164  0.63869415  1
  O  O9  1  0.10266184  0.63184836  0.36130585  1
  O  O10  1  0.92305063  0.34460229  0.27367644  1
  O  O11  1  0.07694937  0.65539771  0.72632356  1
  O  O12  1  0.78036478  0.97209421  0.40565644  1
  O  O13  1  0.21963522  0.02790579  0.59434356  1
  O  O14  1  0.67569781  0.25461926  0.00951128  1
  O  O15  1  0.32430219  0.74538074  0.99048872  1
  O  O16  1  0.43236610  0.32295963  0.30215638  1
  O  O17  1  0.56763390  0.67704037  0.69784362  1
  O  O18  1  0.40920746  0.30462498  0.67408564  1
  O  O19  1  0.59079254  0.69537502  0.32591436  1
  O  O20  1  0.78889887  0.98725412  0.84143354  1
  O  O21  1  0.21110113  0.01274588  0.15856646  1
