# generated using pymatgen
data_Te7IrBr7
_symmetry_space_group_name_H-M   'P 1'
_cell_length_a   9.89946843
_cell_length_b   10.49156591
_cell_length_c   12.07037285
_cell_angle_alpha   94.44758716
_cell_angle_beta   113.24664568
_cell_angle_gamma   112.13656057
_symmetry_Int_Tables_number   1
_chemical_formula_structural   Te7IrBr7
_chemical_formula_sum   'Te14 Ir2 Br14'
_cell_volume   1028.55796385
_cell_formula_units_Z   2
loop_
 _symmetry_equiv_pos_site_id
 _symmetry_equiv_pos_as_xyz
  1  'x, y, z'
loop_
 _atom_site_type_symbol
 _atom_site_label
 _atom_site_symmetry_multiplicity
 _atom_site_fract_x
 _atom_site_fract_y
 _atom_site_fract_z
 _atom_site_occupancy
  Te  Te0  1  0.92274188  0.05067763  0.71139448  1
  Te  Te1  1  0.07725812  0.94932237  0.28860552  1
  Te  Te2  1  0.22652616  0.28024960  0.89135347  1
  Te  Te3  1  0.77347384  0.71975040  0.10864653  1
  Te  Te4  1  0.75799910  0.15874378  0.81438474  1
  Te  Te5  1  0.24200090  0.84125622  0.18561526  1
  Te  Te6  1  0.06853493  0.34271283  0.02584496  1
  Te  Te7  1  0.93146507  0.65728717  0.97415504  1
  Te  Te8  1  0.20972656  0.04692446  0.03078072  1
  Te  Te9  1  0.79027344  0.95307554  0.96921928  1
  Te  Te10  1  0.06534506  0.75807475  0.72757488  1
  Te  Te11  1  0.93465494  0.24192525  0.27242512  1
  Te  Te12  1  0.61992315  0.66581239  0.66029702  1
  Te  Te13  1  0.38007685  0.33418761  0.33970298  1
  Ir  Ir14  1  0.91699693  0.85020472  0.84043631  1
  Ir  Ir15  1  0.08300307  0.14979528  0.15956369  1
  Br  Br16  1  0.29516279  0.73808313  0.96293316  1
  Br  Br17  1  0.70483721  0.26191687  0.03706684  1
  Br  Br18  1  0.88895413  0.47344162  0.68463046  1
  Br  Br19  1  0.11104587  0.52655838  0.31536954  1
  Br  Br20  1  0.85955173  0.73284591  0.49524666  1
  Br  Br21  1  0.14044827  0.26715409  0.50475334  1
  Br  Br22  1  0.27542948  0.03657824  0.73745044  1
  Br  Br23  1  0.72457052  0.96342176  0.26254956  1
  Br  Br24  1  0.58124217  0.45462229  0.79150895  1
  Br  Br25  1  0.41875783  0.54537771  0.20849105  1
  Br  Br26  1  0.40926993  0.69399598  0.72048302  1
  Br  Br27  1  0.59073007  0.30600402  0.27951698  1
  Br  Br28  1  0.56433111  0.85374864  0.52246943  1
  Br  Br29  1  0.43566889  0.14625136  0.47753057  1
