# generated using pymatgen
data_RbMgPO4
_symmetry_space_group_name_H-M   'P 1'
_cell_length_a   5.51673342
_cell_length_b   8.92022496
_cell_length_c   9.92710047
_cell_angle_alpha   90.00000000
_cell_angle_beta   90.00000000
_cell_angle_gamma   90.00000000
_symmetry_Int_Tables_number   1
_chemical_formula_structural   RbMgPO4
_chemical_formula_sum   'Rb4 Mg4 P4 O16'
_cell_volume   488.51760896
_cell_formula_units_Z   4
loop_
 _symmetry_equiv_pos_site_id
 _symmetry_equiv_pos_as_xyz
  1  'x, y, z'
loop_
 _atom_site_type_symbol
 _atom_site_label
 _atom_site_symmetry_multiplicity
 _atom_site_fract_x
 _atom_site_fract_y
 _atom_site_fract_z
 _atom_site_occupancy
  Rb  Rb0  1  0.75000000  0.49894581  0.81892803  1
  Rb  Rb1  1  0.75000000  0.99894581  0.68107197  1
  Rb  Rb2  1  0.25000000  0.50105419  0.18107197  1
  Rb  Rb3  1  0.25000000  0.00105419  0.31892803  1
  Mg  Mg4  1  0.75000000  0.17469620  0.08153236  1
  Mg  Mg5  1  0.75000000  0.67469620  0.41846764  1
  Mg  Mg6  1  0.25000000  0.82530380  0.91846764  1
  Mg  Mg7  1  0.25000000  0.32530380  0.58153236  1
  P  P8  1  0.25000000  0.21261081  0.91489996  1
  P  P9  1  0.25000000  0.71261081  0.58510004  1
  P  P10  1  0.75000000  0.78738919  0.08510004  1
  P  P11  1  0.75000000  0.28738919  0.41489996  1
  O  O12  1  0.25000000  0.27647139  0.77036059  1
  O  O13  1  0.25000000  0.77647139  0.72963941  1
  O  O14  1  0.75000000  0.72352861  0.22963941  1
  O  O15  1  0.75000000  0.22352861  0.27036059  1
  O  O16  1  0.25000000  0.04012964  0.91151878  1
  O  O17  1  0.25000000  0.54012964  0.58848122  1
  O  O18  1  0.75000000  0.95987036  0.08848122  1
  O  O19  1  0.75000000  0.45987036  0.41151878  1
  O  O20  1  0.02162174  0.27143732  0.99031765  1
  O  O21  1  0.47837826  0.77143732  0.50968235  1
  O  O22  1  0.52162174  0.72856268  0.00968235  1
  O  O23  1  0.97837826  0.22856268  0.49031765  1
  O  O24  1  0.97837826  0.72856268  0.00968235  1
  O  O25  1  0.52162174  0.22856268  0.49031765  1
  O  O26  1  0.47837826  0.27143732  0.99031765  1
  O  O27  1  0.02162174  0.77143732  0.50968235  1
