# generated using pymatgen
data_Fe3Mo3C
_symmetry_space_group_name_H-M   'P 1'
_cell_length_a   7.82401388
_cell_length_b   7.82401388
_cell_length_c   7.82401388
_cell_angle_alpha   60.00000000
_cell_angle_beta   60.00000000
_cell_angle_gamma   60.00000000
_symmetry_Int_Tables_number   1
_chemical_formula_structural   Fe3Mo3C
_chemical_formula_sum   'Fe12 Mo12 C4'
_cell_volume   338.66774708
_cell_formula_units_Z   4
loop_
 _symmetry_equiv_pos_site_id
 _symmetry_equiv_pos_as_xyz
  1  'x, y, z'
loop_
 _atom_site_type_symbol
 _atom_site_label
 _atom_site_symmetry_multiplicity
 _atom_site_fract_x
 _atom_site_fract_y
 _atom_site_fract_z
 _atom_site_occupancy
  Fe  Fe0  1  -0.00000000  -0.00000000  0.50000000  1
  Fe  Fe1  1  -0.00000000  0.50000000  0.00000000  1
  Fe  Fe2  1  0.50000000  -0.00000000  0.00000000  1
  Fe  Fe3  1  -0.00000000  -0.00000000  0.00000000  1
  Fe  Fe4  1  0.20171862  0.20171862  0.89484415  1
  Fe  Fe5  1  0.20171862  0.89484415  0.20171862  1
  Fe  Fe6  1  0.89484415  0.20171862  0.20171862  1
  Fe  Fe7  1  0.20171862  0.20171862  0.20171862  1
  Fe  Fe8  1  0.79828138  0.79828138  0.10515585  1
  Fe  Fe9  1  0.79828138  0.10515585  0.79828138  1
  Fe  Fe10  1  0.10515585  0.79828138  0.79828138  1
  Fe  Fe11  1  0.79828138  0.79828138  0.79828138  1
  Mo  Mo12  1  0.42199696  0.82800304  0.82800304  1
  Mo  Mo13  1  0.82800304  0.42199696  0.42199696  1
  Mo  Mo14  1  0.82800304  0.42199696  0.82800304  1
  Mo  Mo15  1  0.42199696  0.82800304  0.42199696  1
  Mo  Mo16  1  0.82800304  0.82800304  0.42199696  1
  Mo  Mo17  1  0.42199696  0.42199696  0.82800304  1
  Mo  Mo18  1  0.57800304  0.17199696  0.17199696  1
  Mo  Mo19  1  0.17199696  0.57800304  0.57800304  1
  Mo  Mo20  1  0.17199696  0.57800304  0.17199696  1
  Mo  Mo21  1  0.57800304  0.17199696  0.57800304  1
  Mo  Mo22  1  0.17199696  0.17199696  0.57800304  1
  Mo  Mo23  1  0.57800304  0.57800304  0.17199696  1
  C  C24  1  0.50000000  0.50000000  0.00000000  1
  C  C25  1  0.50000000  -0.00000000  0.50000000  1
  C  C26  1  -0.00000000  0.50000000  0.50000000  1
  C  C27  1  0.50000000  0.50000000  0.50000000  1
