# generated using pymatgen
data_Nb2PbO6
_symmetry_space_group_name_H-M   'P 1'
_cell_length_a   7.31627606
_cell_length_b   7.31627597
_cell_length_c   7.31627584
_cell_angle_alpha   93.59899550
_cell_angle_beta   93.59899547
_cell_angle_gamma   93.59899191
_symmetry_Int_Tables_number   1
_chemical_formula_structural   Nb2PbO6
_chemical_formula_sum   'Nb6 Pb3 O18'
_cell_volume   389.20573410
_cell_formula_units_Z   3
loop_
 _symmetry_equiv_pos_site_id
 _symmetry_equiv_pos_as_xyz
  1  'x, y, z'
loop_
 _atom_site_type_symbol
 _atom_site_label
 _atom_site_symmetry_multiplicity
 _atom_site_fract_x
 _atom_site_fract_y
 _atom_site_fract_z
 _atom_site_occupancy
  Nb  Nb0  1  0.84291280  0.54260936  0.19981071  1
  Nb  Nb1  1  0.19981071  0.84291280  0.54260936  1
  Nb  Nb2  1  0.54260936  0.19981071  0.84291280  1
  Nb  Nb3  1  0.81018638  0.15298971  0.50992198  1
  Nb  Nb4  1  0.50992198  0.81018638  0.15298971  1
  Nb  Nb5  1  0.15298971  0.50992198  0.81018638  1
  Pb  Pb6  1  0.99557025  0.99557025  0.99557025  1
  Pb  Pb7  1  0.35731708  0.35731708  0.35731708  1
  Pb  Pb8  1  0.67659551  0.67659551  0.67659551  1
  O  O9  1  0.67624548  0.40080473  0.95829011  1
  O  O10  1  0.95829011  0.67624548  0.40080473  1
  O  O11  1  0.40080473  0.95829011  0.67624548  1
  O  O12  1  0.67675455  0.95191025  0.39442247  1
  O  O13  1  0.39442247  0.67675455  0.95191025  1
  O  O14  1  0.95191025  0.39442247  0.67675455  1
  O  O15  1  0.05827542  0.77171957  0.77121795  1
  O  O16  1  0.77121795  0.05827542  0.77171957  1
  O  O17  1  0.77171957  0.77121795  0.05827542  1
  O  O18  1  0.51270536  0.05623473  0.05601412  1
  O  O19  1  0.05601412  0.51270536  0.05623473  1
  O  O20  1  0.05623473  0.05601412  0.51270536  1
  O  O21  1  0.29435004  0.58110136  0.58153923  1
  O  O22  1  0.58153923  0.29435004  0.58110136  1
  O  O23  1  0.58110136  0.58153923  0.29435004  1
  O  O24  1  0.84001904  0.29662164  0.29686016  1
  O  O25  1  0.29686016  0.84001904  0.29662164  1
  O  O26  1  0.29662164  0.29686016  0.84001904  1
