# generated using pymatgen
data_Nb2PbO6
_symmetry_space_group_name_H-M   'P 1'
_cell_length_a   7.31478081
_cell_length_b   7.31478030
_cell_length_c   7.31478061
_cell_angle_alpha   93.64149930
_cell_angle_beta   93.64149905
_cell_angle_gamma   93.64149951
_symmetry_Int_Tables_number   1
_chemical_formula_structural   Nb2PbO6
_chemical_formula_sum   'Nb6 Pb3 O18'
_cell_volume   388.90840851
_cell_formula_units_Z   3
loop_
 _symmetry_equiv_pos_site_id
 _symmetry_equiv_pos_as_xyz
  1  'x, y, z'
loop_
 _atom_site_type_symbol
 _atom_site_label
 _atom_site_symmetry_multiplicity
 _atom_site_fract_x
 _atom_site_fract_y
 _atom_site_fract_z
 _atom_site_occupancy
  Nb  Nb0  1  0.83953191  0.54193510  0.20059207  1
  Nb  Nb1  1  0.20059207  0.83953191  0.54193510  1
  Nb  Nb2  1  0.54193510  0.20059207  0.83953191  1
  Nb  Nb3  1  0.81076393  0.15226242  0.50754053  1
  Nb  Nb4  1  0.50754053  0.81076393  0.15226242  1
  Nb  Nb5  1  0.15226242  0.50754053  0.81076393  1
  Pb  Pb6  1  0.99426778  0.99426778  0.99426778  1
  Pb  Pb7  1  0.35783835  0.35783835  0.35783835  1
  Pb  Pb8  1  0.68599545  0.68599545  0.68599545  1
  O  O9  1  0.67582793  0.40095470  0.95583248  1
  O  O10  1  0.95583248  0.67582793  0.40095470  1
  O  O11  1  0.40095470  0.95583248  0.67582793  1
  O  O12  1  0.67427229  0.95341986  0.38915329  1
  O  O13  1  0.38915329  0.67427229  0.95341986  1
  O  O14  1  0.95341986  0.38915329  0.67427229  1
  O  O15  1  0.05390922  0.76909135  0.76963268  1
  O  O16  1  0.76963268  0.05390922  0.76909135  1
  O  O17  1  0.76909135  0.76963268  0.05390922  1
  O  O18  1  0.51636448  0.05268049  0.05021960  1
  O  O19  1  0.05021960  0.51636448  0.05268049  1
  O  O20  1  0.05268049  0.05021960  0.51636448  1
  O  O21  1  0.29161248  0.57988893  0.58069843  1
  O  O22  1  0.58069843  0.29161248  0.57988893  1
  O  O23  1  0.57988893  0.58069843  0.29161248  1
  O  O24  1  0.84523598  0.29557260  0.29470567  1
  O  O25  1  0.29470567  0.84523598  0.29557260  1
  O  O26  1  0.29557260  0.29470567  0.84523598  1
