# generated using pymatgen
data_NaFeH4SO6F
_symmetry_space_group_name_H-M   'P 1'
_cell_length_a   5.78840798
_cell_length_b   7.37661428
_cell_length_c   7.49507180
_cell_angle_alpha   90.00000000
_cell_angle_beta   90.00000000
_cell_angle_gamma   111.68289991
_symmetry_Int_Tables_number   1
_chemical_formula_structural   NaFeH4SO6F
_chemical_formula_sum   'Na2 Fe2 H8 S2 O12 F2'
_cell_volume   297.38650010
_cell_formula_units_Z   2
loop_
 _symmetry_equiv_pos_site_id
 _symmetry_equiv_pos_as_xyz
  1  'x, y, z'
loop_
 _atom_site_type_symbol
 _atom_site_label
 _atom_site_symmetry_multiplicity
 _atom_site_fract_x
 _atom_site_fract_y
 _atom_site_fract_z
 _atom_site_occupancy
  Na  Na0  1  0.85697645  0.28520418  0.75000000  1
  Na  Na1  1  0.14302355  0.71479582  0.25000000  1
  Fe  Fe2  1  0.50000000  0.50000000  0.50000000  1
  Fe  Fe3  1  0.50000000  0.50000000  0.00000000  1
  H  H4  1  0.80128781  0.86904254  0.08966721  1
  H  H5  1  0.19871219  0.13095746  0.58966721  1
  H  H6  1  0.19871219  0.13095746  0.91033279  1
  H  H7  1  0.80128781  0.86904254  0.41033279  1
  H  H8  1  0.93189344  0.80148452  0.56954489  1
  H  H9  1  0.06810656  0.19851548  0.06954489  1
  H  H10  1  0.06810656  0.19851548  0.43045511  1
  H  H11  1  0.93189344  0.80148452  0.93045511  1
  S  S12  1  0.35730675  0.81518583  0.75000000  1
  S  S13  1  0.64269325  0.18481417  0.25000000  1
  O  O14  1  0.31008185  0.68905288  0.58676979  1
  O  O15  1  0.68991815  0.31094712  0.08676979  1
  O  O16  1  0.68991815  0.31094712  0.41323021  1
  O  O17  1  0.31008185  0.68905288  0.91323021  1
  O  O18  1  0.16608027  0.91201333  0.75000000  1
  O  O19  1  0.83391973  0.08798667  0.25000000  1
  O  O20  1  0.61042999  0.96248442  0.75000000  1
  O  O21  1  0.38957001  0.03751558  0.25000000  1
  O  O22  1  0.83617166  0.75688717  0.04251645  1
  O  O23  1  0.16382834  0.24311283  0.54251645  1
  O  O24  1  0.16382834  0.24311283  0.95748355  1
  O  O25  1  0.83617166  0.75688717  0.45748355  1
  F  F26  1  0.63059993  0.46994859  0.75000000  1
  F  F27  1  0.36940007  0.53005141  0.25000000  1
