# generated using pymatgen
data_K4Eu(PSe4)2
_symmetry_space_group_name_H-M   'P 1'
_cell_length_a   9.25245810
_cell_length_b   10.34771216
_cell_length_c   11.86453347
_cell_angle_alpha   115.85387663
_cell_angle_beta   112.94957493
_cell_angle_gamma   90.00000000
_symmetry_Int_Tables_number   1
_chemical_formula_structural   K4Eu(PSe4)2
_chemical_formula_sum   'K8 Eu2 P4 Se16'
_cell_volume   921.29444706
_cell_formula_units_Z   2
loop_
 _symmetry_equiv_pos_site_id
 _symmetry_equiv_pos_as_xyz
  1  'x, y, z'
loop_
 _atom_site_type_symbol
 _atom_site_label
 _atom_site_symmetry_multiplicity
 _atom_site_fract_x
 _atom_site_fract_y
 _atom_site_fract_z
 _atom_site_occupancy
  K  K0  1  0.29913703  0.41570265  0.83140529  1
  K  K1  1  0.70086297  0.58429735  0.16859471  1
  K  K2  1  0.46773174  0.08429735  0.16859471  1
  K  K3  1  0.53226826  0.91570265  0.83140529  1
  K  K4  1  0.75960881  0.50960881  0.51921762  1
  K  K5  1  0.24039119  0.99039119  0.48078238  1
  K  K6  1  0.24039119  0.49039119  0.48078238  1
  K  K7  1  0.75960881  0.00960881  0.51921762  1
  Eu  Eu8  1  0.00000000  0.75000000  0.00000000  1
  Eu  Eu9  1  0.00000000  0.25000000  0.00000000  1
  P  P10  1  0.07625920  0.87096685  0.74193370  1
  P  P11  1  0.92374080  0.12903315  0.25806630  1
  P  P12  1  0.33432550  0.62903315  0.25806630  1
  P  P13  1  0.66567450  0.37096685  0.74193370  1
  Se  Se14  1  0.22251406  0.74874027  0.84616322  1
  Se  Se15  1  0.77748594  0.90257705  0.15383678  1
  Se  Se16  1  0.37635084  0.75125973  0.15383678  1
  Se  Se17  1  0.62364916  0.59742295  0.84616322  1
  Se  Se18  1  0.77748594  0.25125973  0.15383678  1
  Se  Se19  1  0.22251406  0.09742295  0.84616322  1
  Se  Se20  1  0.62364916  0.24874027  0.84616322  1
  Se  Se21  1  0.37635084  0.40257705  0.15383678  1
  Se  Se22  1  0.92763307  0.39568436  0.79136872  1
  Se  Se23  1  0.07236693  0.60431564  0.20863128  1
  Se  Se24  1  0.13626435  0.10431564  0.20863128  1
  Se  Se25  1  0.86373565  0.89568436  0.79136872  1
  Se  Se26  1  0.98839132  0.24200554  0.48401108  1
  Se  Se27  1  0.01160868  0.75799446  0.51598892  1
  Se  Se28  1  0.50438024  0.25799446  0.51598892  1
  Se  Se29  1  0.49561976  0.74200554  0.48401108  1
