# generated using pymatgen
data_CaZrSi6H4O17
_symmetry_space_group_name_H-M   'P 1'
_cell_length_a   7.95903101
_cell_length_b   10.07918840
_cell_length_c   10.07918840
_cell_angle_alpha   90.60310945
_cell_angle_beta   103.37916830
_cell_angle_gamma   103.37916830
_symmetry_Int_Tables_number   1
_chemical_formula_structural   CaZrSi6H4O17
_chemical_formula_sum   'Ca2 Zr2 Si12 H8 O34'
_cell_volume   763.50999705
_cell_formula_units_Z   2
loop_
 _symmetry_equiv_pos_site_id
 _symmetry_equiv_pos_as_xyz
  1  'x, y, z'
loop_
 _atom_site_type_symbol
 _atom_site_label
 _atom_site_symmetry_multiplicity
 _atom_site_fract_x
 _atom_site_fract_y
 _atom_site_fract_z
 _atom_site_occupancy
  Ca  Ca0  1  0.04724917  0.75469679  0.75469679  1
  Ca  Ca1  1  0.95275083  0.24530321  0.24530321  1
  Zr  Zr2  1  0.00000000  -0.00000000  0.50000000  1
  Zr  Zr3  1  0.00000000  0.50000000  -0.00000000  1
  Si  Si4  1  0.33785163  0.57353713  0.80107060  1
  Si  Si5  1  0.33785163  0.80107060  0.57353713  1
  Si  Si6  1  0.66214837  0.42646287  0.19892940  1
  Si  Si7  1  0.66214837  0.19892940  0.42646287  1
  Si  Si8  1  0.73010930  0.73037499  0.95018965  1
  Si  Si9  1  0.73010930  0.95018965  0.73037499  1
  Si  Si10  1  0.26989070  0.26962501  0.04981035  1
  Si  Si11  1  0.26989070  0.04981035  0.26962501  1
  Si  Si12  1  0.30261297  0.26129369  0.74613115  1
  Si  Si13  1  0.30261297  0.74613115  0.26129369  1
  Si  Si14  1  0.69738703  0.73870631  0.25386885  1
  Si  Si15  1  0.69738703  0.25386885  0.73870631  1
  H  H16  1  0.82899544  0.49008413  0.60051093  1
  H  H17  1  0.82899544  0.60051093  0.49008413  1
  H  H18  1  0.17100456  0.50991587  0.39948907  1
  H  H19  1  0.17100456  0.39948907  0.50991587  1
  H  H20  1  0.28167257  0.01234361  0.90377802  1
  H  H21  1  0.28167257  0.90377802  0.01234361  1
  H  H22  1  0.71832743  0.98765639  0.09622198  1
  H  H23  1  0.71832743  0.09622198  0.98765639  1
  O  O24  1  0.50000000  0.23376361  0.76623639  1
  O  O25  1  0.50000000  0.76623639  0.23376361  1
  O  O26  1  0.53803547  0.62134904  0.89750441  1
  O  O27  1  0.53803547  0.89750441  0.62134904  1
  O  O28  1  0.46196453  0.37865096  0.10249559  1
  O  O29  1  0.46196453  0.10249559  0.37865096  1
  O  O30  1  0.89060476  0.66757820  0.92516716  1
  O  O31  1  0.89060476  0.92516716  0.66757820  1
  O  O32  1  0.10939524  0.33242180  0.07483284  1
  O  O33  1  0.10939524  0.07483284  0.33242180  1
  O  O34  1  0.18407003  0.57588236  0.88063245  1
  O  O35  1  0.18407003  0.88063245  0.57588236  1
  O  O36  1  0.81592997  0.42411764  0.11936755  1
  O  O37  1  0.81592997  0.11936755  0.42411764  1
  O  O38  1  0.30786196  0.68130886  0.68130886  1
  O  O39  1  0.69213804  0.31869114  0.31869114  1
  O  O40  1  0.72863771  0.86990697  0.86990697  1
  O  O41  1  0.27136229  0.13009303  0.13009303  1
  O  O42  1  0.75570922  0.77802264  0.11028575  1
  O  O43  1  0.75570922  0.11028575  0.77802264  1
  O  O44  1  0.24429078  0.22197736  0.88971425  1
  O  O45  1  0.24429078  0.88971425  0.22197736  1
  O  O46  1  0.31312528  0.42465198  0.72314147  1
  O  O47  1  0.31312528  0.72314147  0.42465198  1
  O  O48  1  0.68687472  0.57534802  0.27685853  1
  O  O49  1  0.68687472  0.27685853  0.57534802  1
  O  O50  1  0.16226689  0.17015071  0.62023194  1
  O  O51  1  0.16226689  0.62023194  0.17015071  1
  O  O52  1  0.83773311  0.82984929  0.37976806  1
  O  O53  1  0.83773311  0.37976806  0.82984929  1
  O  O54  1  0.85994866  0.58816592  0.58816592  1
  O  O55  1  0.14005134  0.41183408  0.41183408  1
  O  O56  1  0.26676484  0.91418697  0.91418697  1
  O  O57  1  0.73323516  0.08581303  0.08581303  1
