# generated using pymatgen
data_ErH4I3O11
_symmetry_space_group_name_H-M   'P 1'
_cell_length_a   7.37398637
_cell_length_b   7.59949316
_cell_length_c   9.44194685
_cell_angle_alpha   80.18258607
_cell_angle_beta   85.25820002
_cell_angle_gamma   72.05771523
_symmetry_Int_Tables_number   1
_chemical_formula_structural   ErH4I3O11
_chemical_formula_sum   'Er2 H8 I6 O22'
_cell_volume   495.75304122
_cell_formula_units_Z   2
loop_
 _symmetry_equiv_pos_site_id
 _symmetry_equiv_pos_as_xyz
  1  'x, y, z'
loop_
 _atom_site_type_symbol
 _atom_site_label
 _atom_site_symmetry_multiplicity
 _atom_site_fract_x
 _atom_site_fract_y
 _atom_site_fract_z
 _atom_site_occupancy
  Er  Er0  1  0.77021299  0.33774969  0.32760967  1
  Er  Er1  1  0.22978701  0.66225031  0.67239033  1
  H  H2  1  0.67107907  0.41861145  0.02686955  1
  H  H3  1  0.32892093  0.58138855  0.97313045  1
  H  H4  1  0.68992082  0.20215558  0.05345898  1
  H  H5  1  0.31007918  0.79784442  0.94654102  1
  H  H6  1  0.98217484  0.93202047  0.36832493  1
  H  H7  1  0.01782516  0.06797953  0.63167507  1
  H  H8  1  0.80732500  0.95517660  0.26746017  1
  H  H9  1  0.19267500  0.04482340  0.73253983  1
  I  I10  1  0.59751046  0.16310879  0.70006539  1
  I  I11  1  0.40248954  0.83689121  0.29993461  1
  I  I12  1  0.76416607  0.60060222  0.63445351  1
  I  I13  1  0.23583393  0.39939778  0.36554649  1
  I  I14  1  0.83232079  0.73865587  0.01913638  1
  I  I15  1  0.16767921  0.26134413  0.98086362  1
  O  O16  1  0.78607049  0.21812251  0.57214975  1
  O  O17  1  0.21392951  0.78187749  0.42785025  1
  O  O18  1  0.49719216  0.40838451  0.73132199  1
  O  O19  1  0.50280784  0.59161549  0.26867801  1
  O  O20  1  0.74520052  0.07318331  0.85598623  1
  O  O21  1  0.25479948  0.92681669  0.14401377  1
  O  O22  1  0.80333923  0.57633099  0.44246568  1
  O  O23  1  0.19666077  0.42366901  0.55753432  1
  O  O24  1  0.52004182  0.76105240  0.61613042  1
  O  O25  1  0.47995818  0.23894760  0.38386958  1
  O  O26  1  0.89551488  0.76958982  0.63853734  1
  O  O27  1  0.10448512  0.23041018  0.36146266  1
  O  O28  1  0.92285338  0.52456714  0.15327350  1
  O  O29  1  0.07714662  0.47543286  0.84672650  1
  O  O30  1  0.66014505  0.66946506  0.93191518  1
  O  O31  1  0.33985495  0.33053494  0.06808482  1
  O  O32  1  0.68263867  0.89027180  0.14500855  1
  O  O33  1  0.31736133  0.10972820  0.85499145  1
  O  O34  1  0.72948471  0.29840769  0.08875518  1
  O  O35  1  0.27051529  0.70159231  0.91124482  1
  O  O36  1  0.86451674  0.02113597  0.32457853  1
  O  O37  1  0.13548326  0.97886403  0.67542147  1
