# generated using pymatgen
data_KAsO3
_symmetry_space_group_name_H-M   'P 1'
_cell_length_a   5.02896103
_cell_length_b   11.58785675
_cell_length_c   11.83075472
_cell_angle_alpha   90.00000000
_cell_angle_beta   90.00000000
_cell_angle_gamma   90.00000000
_symmetry_Int_Tables_number   1
_chemical_formula_structural   KAsO3
_chemical_formula_sum   'K8 As8 O24'
_cell_volume   689.43581182
_cell_formula_units_Z   8
loop_
 _symmetry_equiv_pos_site_id
 _symmetry_equiv_pos_as_xyz
  1  'x, y, z'
loop_
 _atom_site_type_symbol
 _atom_site_label
 _atom_site_symmetry_multiplicity
 _atom_site_fract_x
 _atom_site_fract_y
 _atom_site_fract_z
 _atom_site_occupancy
  K  K0  1  0.25000000  0.50000000  0.81186734  1
  K  K1  1  0.75000000  -0.00000000  0.68813266  1
  K  K2  1  0.75000000  0.50000000  0.18813266  1
  K  K3  1  0.25000000  -0.00000000  0.31186734  1
  K  K4  1  0.75000000  0.50000000  0.60969421  1
  K  K5  1  0.25000000  -0.00000000  0.89030579  1
  K  K6  1  0.25000000  0.50000000  0.39030579  1
  K  K7  1  0.75000000  -0.00000000  0.10969421  1
  As  As8  1  0.72171142  0.73051208  0.91239513  1
  As  As9  1  0.22171142  0.76948792  0.58760487  1
  As  As10  1  0.27828858  0.23051208  0.58760487  1
  As  As11  1  0.77828858  0.26948792  0.91239513  1
  As  As12  1  0.27828858  0.26948792  0.08760487  1
  As  As13  1  0.77828858  0.23051208  0.41239513  1
  As  As14  1  0.72171142  0.76948792  0.41239513  1
  As  As15  1  0.22171142  0.73051208  0.08760487  1
  O  O16  1  0.74695020  0.87406078  0.90028460  1
  O  O17  1  0.24695020  0.62593922  0.59971540  1
  O  O18  1  0.25304980  0.37406078  0.59971540  1
  O  O19  1  0.75304980  0.12593922  0.90028460  1
  O  O20  1  0.25304980  0.12593922  0.09971540  1
  O  O21  1  0.75304980  0.37406078  0.40028460  1
  O  O22  1  0.74695020  0.62593922  0.40028460  1
  O  O23  1  0.24695020  0.87406078  0.09971540  1
  O  O24  1  0.78771871  0.63866427  0.80754634  1
  O  O25  1  0.28771871  0.86133573  0.69245366  1
  O  O26  1  0.21228129  0.13866427  0.69245366  1
  O  O27  1  0.71228129  0.36133573  0.80754634  1
  O  O28  1  0.21228129  0.36133573  0.19245366  1
  O  O29  1  0.71228129  0.13866427  0.30754634  1
  O  O30  1  0.78771871  0.86133573  0.30754634  1
  O  O31  1  0.28771871  0.63866427  0.19245366  1
  O  O32  1  0.39328081  0.68592464  0.95882591  1
  O  O33  1  0.89328081  0.81407536  0.54117409  1
  O  O34  1  0.60671919  0.18592464  0.54117409  1
  O  O35  1  0.10671919  0.31407536  0.95882591  1
  O  O36  1  0.60671919  0.31407536  0.04117409  1
  O  O37  1  0.10671919  0.18592464  0.45882591  1
  O  O38  1  0.39328081  0.81407536  0.45882591  1
  O  O39  1  0.89328081  0.68592464  0.04117409  1
