# generated using pymatgen
data_Zn4InGaO7
_symmetry_space_group_name_H-M   'P 1'
_cell_length_a   3.32698735
_cell_length_b   3.32698735
_cell_length_c   33.43505490
_cell_angle_alpha   90.00000000
_cell_angle_beta   90.00000000
_cell_angle_gamma   119.99989487
_symmetry_Int_Tables_number   1
_chemical_formula_structural   Zn4InGaO7
_chemical_formula_sum   'Zn8 In2 Ga2 O14'
_cell_volume   320.50546005
_cell_formula_units_Z   2
loop_
 _symmetry_equiv_pos_site_id
 _symmetry_equiv_pos_as_xyz
  1  'x, y, z'
loop_
 _atom_site_type_symbol
 _atom_site_label
 _atom_site_symmetry_multiplicity
 _atom_site_fract_x
 _atom_site_fract_y
 _atom_site_fract_z
 _atom_site_occupancy
  Zn  Zn0  1  0.33331662  0.66668338  0.59219223  1
  Zn  Zn1  1  0.66668338  0.33331662  0.40780777  1
  Zn  Zn2  1  0.66668338  0.33331662  0.09219223  1
  Zn  Zn3  1  0.33331662  0.66668338  0.90780777  1
  Zn  Zn4  1  0.99998913  0.00001087  0.67112653  1
  Zn  Zn5  1  0.00001087  0.99998913  0.32887347  1
  Zn  Zn6  1  0.00001087  0.99998913  0.17112653  1
  Zn  Zn7  1  0.99998913  0.00001087  0.82887347  1
  In  In8  1  -0.00000000  0.00000000  0.50000000  1
  In  In9  1  -0.00000000  0.00000000  0.00000000  1
  Ga  Ga10  1  0.33331127  0.66668873  0.75000000  1
  Ga  Ga11  1  0.66668873  0.33331127  0.25000000  1
  O  O12  1  0.33333166  0.66666834  0.53285215  1
  O  O13  1  0.66666834  0.33333166  0.46714785  1
  O  O14  1  0.66666834  0.33333166  0.03285215  1
  O  O15  1  0.33333166  0.66666834  0.96714785  1
  O  O16  1  0.99998343  0.00001657  0.61122102  1
  O  O17  1  0.00001657  0.99998343  0.38877898  1
  O  O18  1  0.00001657  0.99998343  0.11122102  1
  O  O19  1  0.99998343  0.00001657  0.88877898  1
  O  O20  1  0.33332021  0.66667979  0.69008689  1
  O  O21  1  0.66667979  0.33332021  0.30991311  1
  O  O22  1  0.66667979  0.33332021  0.19008689  1
  O  O23  1  0.33332021  0.66667979  0.80991311  1
  O  O24  1  0.99997654  0.00002346  0.75000000  1
  O  O25  1  0.00002346  0.99997654  0.25000000  1
