# generated using pymatgen
data_CaH16(IO4)2
_symmetry_space_group_name_H-M   'P 1'
_cell_length_a   7.70880744
_cell_length_b   8.77147624
_cell_length_c   10.75008543
_cell_angle_alpha   87.01840398
_cell_angle_beta   84.22574172
_cell_angle_gamma   71.89944139
_symmetry_Int_Tables_number   1
_chemical_formula_structural   CaH16(IO4)2
_chemical_formula_sum   'Ca2 H32 I4 O16'
_cell_volume   687.25177974
_cell_formula_units_Z   2
loop_
 _symmetry_equiv_pos_site_id
 _symmetry_equiv_pos_as_xyz
  1  'x, y, z'
loop_
 _atom_site_type_symbol
 _atom_site_label
 _atom_site_symmetry_multiplicity
 _atom_site_fract_x
 _atom_site_fract_y
 _atom_site_fract_z
 _atom_site_occupancy
  Ca  Ca0  1  0.93717204  0.11674355  0.67911845  1
  Ca  Ca1  1  0.06282796  0.88325645  0.32088155  1
  H  H2  1  0.89158573  0.78589556  0.75408057  1
  H  H3  1  0.10841427  0.21410444  0.24591943  1
  H  H4  1  0.82955595  0.98637172  0.93788985  1
  H  H5  1  0.17044405  0.01362828  0.06211015  1
  H  H6  1  0.24766192  0.08515064  0.46669169  1
  H  H7  1  0.75233808  0.91484936  0.53330831  1
  H  H8  1  0.29285987  0.91243581  0.52454617  1
  H  H9  1  0.70714013  0.08756419  0.47545383  1
  H  H10  1  0.91414290  0.28400029  0.41857557  1
  H  H11  1  0.08585710  0.71599971  0.58142443  1
  H  H12  1  0.81638203  0.42070688  0.51754844  1
  H  H13  1  0.18361797  0.57929312  0.48245156  1
  H  H14  1  0.35404255  0.96257875  0.73032568  1
  H  H15  1  0.64595745  0.03742125  0.26967432  1
  H  H16  1  0.25929042  0.09758631  0.82949056  1
  H  H17  1  0.74070958  0.90241369  0.17050944  1
  H  H18  1  0.52728594  0.24284381  0.78199086  1
  H  H19  1  0.47271406  0.75715619  0.21800914  1
  H  H20  1  0.80743715  0.16603286  0.96519554  1
  H  H21  1  0.19256285  0.83396714  0.03480446  1
  H  H22  1  0.01032528  0.37191671  0.83609398  1
  H  H23  1  0.98967472  0.62808329  0.16390602  1
  H  H24  1  0.52335662  0.26655078  0.63551950  1
  H  H25  1  0.47664338  0.73344922  0.36448050  1
  H  H26  1  0.83785866  0.46537143  0.76513258  1
  H  H27  1  0.16214134  0.53462857  0.23486742  1
  H  H28  1  0.63340517  0.31102982  0.13695036  1
  H  H29  1  0.36659483  0.68897018  0.86304964  1
  H  H30  1  0.75553148  0.40995182  0.07083596  1
  H  H31  1  0.24446852  0.59004818  0.92916404  1
  H  H32  1  0.08857432  0.77323252  0.79149389  1
  H  H33  1  0.91142568  0.22676748  0.20850611  1
  I  I34  1  0.27814762  0.29347353  0.98637465  1
  I  I35  1  0.72185238  0.70652647  0.01362535  1
  I  I36  1  0.58571726  0.71656262  0.61034906  1
  I  I37  1  0.41428274  0.28343738  0.38965094  1
  O  O38  1  0.23579695  0.03864487  0.76074263  1
  O  O39  1  0.76420305  0.96135513  0.23925737  1
  O  O40  1  0.84316854  0.08571261  0.89866967  1
  O  O41  1  0.15683146  0.91428739  0.10133033  1
  O  O42  1  0.18959356  0.00176123  0.49600888  1
  O  O43  1  0.81040644  0.99823877  0.50399112  1
  O  O44  1  0.89135328  0.30892592  0.50892515  1
  O  O45  1  0.10864672  0.69107408  0.49107485  1
  O  O46  1  0.00318937  0.81289266  0.72422643  1
  O  O47  1  0.99681063  0.18710734  0.27577357  1
  O  O48  1  0.75748954  0.29992634  0.09746078  1
  O  O49  1  0.24251046  0.70007366  0.90253922  1
  O  O50  1  0.60488710  0.23090722  0.70269277  1
  O  O51  1  0.39511290  0.76909278  0.29730723  1
  O  O52  1  0.93690835  0.36396321  0.76849634  1
  O  O53  1  0.06309165  0.63603679  0.23150366  1
