# generated using pymatgen
data_PrMgAl7Fe2
_symmetry_space_group_name_H-M   'P 1'
_cell_length_a   4.01229758
_cell_length_b   12.97077883
_cell_length_c   14.50741561
_cell_angle_alpha   90.00000000
_cell_angle_beta   90.00000000
_cell_angle_gamma   90.00000000
_symmetry_Int_Tables_number   1
_chemical_formula_structural   PrMgAl7Fe2
_chemical_formula_sum   'Pr4 Mg4 Al28 Fe8'
_cell_volume   755.00398321
_cell_formula_units_Z   4
loop_
 _symmetry_equiv_pos_site_id
 _symmetry_equiv_pos_as_xyz
  1  'x, y, z'
loop_
 _atom_site_type_symbol
 _atom_site_label
 _atom_site_symmetry_multiplicity
 _atom_site_fract_x
 _atom_site_fract_y
 _atom_site_fract_z
 _atom_site_occupancy
  Pr  Pr0  1  -0.00000000  0.83964618  0.18067525  1
  Pr  Pr1  1  0.00000000  0.16035382  0.81932475  1
  Pr  Pr2  1  -0.00000000  0.33964618  0.31932475  1
  Pr  Pr3  1  0.00000000  0.66035382  0.68067525  1
  Mg  Mg4  1  0.00000000  0.83195879  0.45223010  1
  Mg  Mg5  1  -0.00000000  0.16804121  0.54776990  1
  Mg  Mg6  1  0.00000000  0.33195879  0.04776990  1
  Mg  Mg7  1  0.00000000  0.66804121  0.95223010  1
  Al  Al8  1  0.50000000  0.50000000  -0.00000000  1
  Al  Al9  1  0.50000000  -0.00000000  0.50000000  1
  Al  Al10  1  0.50000000  0.83481767  0.00560390  1
  Al  Al11  1  0.50000000  0.16518233  0.99439610  1
  Al  Al12  1  0.50000000  0.33481767  0.49439610  1
  Al  Al13  1  0.50000000  0.66518233  0.50560390  1
  Al  Al14  1  0.00000000  0.50000000  0.50000000  1
  Al  Al15  1  0.00000000  -0.00000000  -0.00000000  1
  Al  Al16  1  0.50000000  0.52479772  0.36663593  1
  Al  Al17  1  0.50000000  0.47520228  0.63336407  1
  Al  Al18  1  0.50000000  0.02479772  0.13336407  1
  Al  Al19  1  0.50000000  0.97520228  0.86663593  1
  Al  Al20  1  0.50000000  0.65719042  0.12027714  1
  Al  Al21  1  0.50000000  0.34280958  0.87972286  1
  Al  Al22  1  0.50000000  0.15719042  0.37972286  1
  Al  Al23  1  0.50000000  0.84280958  0.62027714  1
  Al  Al24  1  0.00000000  0.59349060  0.24501547  1
  Al  Al25  1  0.00000000  0.40650940  0.75498453  1
  Al  Al26  1  0.00000000  0.09349060  0.25498453  1
  Al  Al27  1  -0.00000000  0.90650940  0.74501547  1
  Al  Al28  1  0.50000000  0.72903325  0.32640279  1
  Al  Al29  1  0.50000000  0.27096675  0.67359721  1
  Al  Al30  1  0.50000000  0.22903325  0.17359721  1
  Al  Al31  1  0.50000000  0.77096675  0.82640279  1
  Al  Al32  1  0.50000000  0.95177795  0.32183297  1
  Al  Al33  1  0.50000000  0.04822205  0.67816703  1
  Al  Al34  1  0.50000000  0.45177795  0.17816703  1
  Al  Al35  1  0.50000000  0.54822205  0.82183297  1
  Fe  Fe36  1  0.00000000  0.63939424  0.39921676  1
  Fe  Fe37  1  -0.00000000  0.36060576  0.60078324  1
  Fe  Fe38  1  0.00000000  0.13939424  0.10078324  1
  Fe  Fe39  1  -0.00000000  0.86060576  0.89921676  1
  Fe  Fe40  1  0.00000000  0.53385918  0.09150175  1
  Fe  Fe41  1  0.00000000  0.46614082  0.90849825  1
  Fe  Fe42  1  -0.00000000  0.03385918  0.40849825  1
  Fe  Fe43  1  -0.00000000  0.96614082  0.59150175  1
