# generated using pymatgen
data_Sr2Cu(HO)6
_symmetry_space_group_name_H-M   'P 1'
_cell_length_a   5.81573027
_cell_length_b   6.25174218
_cell_length_c   8.16481269
_cell_angle_alpha   90.00000000
_cell_angle_beta   92.49446353
_cell_angle_gamma   90.00000000
_symmetry_Int_Tables_number   1
_chemical_formula_structural   Sr2Cu(HO)6
_chemical_formula_sum   'Sr4 Cu2 H12 O12'
_cell_volume   296.57860843
_cell_formula_units_Z   2
loop_
 _symmetry_equiv_pos_site_id
 _symmetry_equiv_pos_as_xyz
  1  'x, y, z'
loop_
 _atom_site_type_symbol
 _atom_site_label
 _atom_site_symmetry_multiplicity
 _atom_site_fract_x
 _atom_site_fract_y
 _atom_site_fract_z
 _atom_site_occupancy
  Sr  Sr0  1  0.04325916  0.57541963  0.24894281  1
  Sr  Sr1  1  0.54325916  0.92458037  0.74894281  1
  Sr  Sr2  1  0.95674084  0.42458037  0.75105719  1
  Sr  Sr3  1  0.45674084  0.07541963  0.25105719  1
  Cu  Cu4  1  0.50000000  0.50000000  0.00000000  1
  Cu  Cu5  1  0.00000000  0.00000000  0.50000000  1
  H  H6  1  0.53526213  0.57340707  0.29601479  1
  H  H7  1  0.03526213  0.92659293  0.79601479  1
  H  H8  1  0.46473787  0.42659293  0.70398521  1
  H  H9  1  0.96473787  0.07340707  0.20398521  1
  H  H10  1  0.29902376  0.27753923  0.51455294  1
  H  H11  1  0.79902376  0.22246077  0.01455294  1
  H  H12  1  0.70097624  0.72246077  0.48544706  1
  H  H13  1  0.20097624  0.77753923  0.98544706  1
  H  H14  1  0.83704712  0.83311222  0.01907968  1
  H  H15  1  0.33704712  0.66688778  0.51907968  1
  H  H16  1  0.16295288  0.16688778  0.98092032  1
  H  H17  1  0.66295288  0.33311222  0.48092032  1
  O  O18  1  0.61485923  0.46357654  0.23086637  1
  O  O19  1  0.11485923  0.03642346  0.73086637  1
  O  O20  1  0.38514077  0.53642346  0.76913363  1
  O  O21  1  0.88514077  0.96357654  0.26913363  1
  O  O22  1  0.15091270  0.27458641  0.44956920  1
  O  O23  1  0.65091270  0.22541359  0.94956920  1
  O  O24  1  0.84908730  0.72541359  0.55043080  1
  O  O25  1  0.34908730  0.77458641  0.05043080  1
  O  O26  1  0.88860806  0.74568963  0.92814313  1
  O  O27  1  0.38860806  0.75431037  0.42814313  1
  O  O28  1  0.11139194  0.25431037  0.07185687  1
  O  O29  1  0.61139194  0.24568963  0.57185687  1
