# generated using pymatgen
data_GaNi9B8
_symmetry_space_group_name_H-M   'P 1'
_cell_length_a   5.39865310
_cell_length_b   5.39865310
_cell_length_c   10.74428166
_cell_angle_alpha   90.00000000
_cell_angle_beta   90.00000000
_cell_angle_gamma   97.55291447
_symmetry_Int_Tables_number   1
_chemical_formula_structural   GaNi9B8
_chemical_formula_sum   'Ga2 Ni18 B16'
_cell_volume   310.43008470
_cell_formula_units_Z   2
loop_
 _symmetry_equiv_pos_site_id
 _symmetry_equiv_pos_as_xyz
  1  'x, y, z'
loop_
 _atom_site_type_symbol
 _atom_site_label
 _atom_site_symmetry_multiplicity
 _atom_site_fract_x
 _atom_site_fract_y
 _atom_site_fract_z
 _atom_site_occupancy
  Ga  Ga0  1  0.91446242  0.08553758  0.75000000  1
  Ga  Ga1  1  0.08553758  0.91446242  0.25000000  1
  Ni  Ni2  1  0.00000000  0.00000000  0.50000000  1
  Ni  Ni3  1  -0.00000000  -0.00000000  0.00000000  1
  Ni  Ni4  1  0.71020820  0.28979180  0.58086948  1
  Ni  Ni5  1  0.28979180  0.71020820  0.41913052  1
  Ni  Ni6  1  0.71020820  0.28979180  0.91913052  1
  Ni  Ni7  1  0.28979180  0.71020820  0.08086948  1
  Ni  Ni8  1  0.94820979  0.60283136  0.75000000  1
  Ni  Ni9  1  0.60283136  0.94820979  0.25000000  1
  Ni  Ni10  1  0.05179021  0.39716864  0.25000000  1
  Ni  Ni11  1  0.39716864  0.05179021  0.75000000  1
  Ni  Ni12  1  0.24057340  0.37791479  0.61403771  1
  Ni  Ni13  1  0.37791479  0.24057340  0.38596229  1
  Ni  Ni14  1  0.24057340  0.37791479  0.88596229  1
  Ni  Ni15  1  0.37791479  0.24057340  0.11403771  1
  Ni  Ni16  1  0.75942660  0.62208521  0.38596229  1
  Ni  Ni17  1  0.62208521  0.75942660  0.61403771  1
  Ni  Ni18  1  0.75942660  0.62208521  0.11403771  1
  Ni  Ni19  1  0.62208521  0.75942660  0.88596229  1
  B  B20  1  0.56457841  0.43542159  0.75000000  1
  B  B21  1  0.43542159  0.56457841  0.25000000  1
  B  B22  1  0.35157882  0.64842118  0.75000000  1
  B  B23  1  0.64842118  0.35157882  0.25000000  1
  B  B24  1  0.77912078  0.22087922  0.11979166  1
  B  B25  1  0.22087922  0.77912078  0.88020834  1
  B  B26  1  0.77912078  0.22087922  0.38020834  1
  B  B27  1  0.22087922  0.77912078  0.61979166  1
  B  B28  1  0.96012252  0.61699264  0.55112867  1
  B  B29  1  0.61699264  0.96012252  0.44887133  1
  B  B30  1  0.96012252  0.61699264  0.94887133  1
  B  B31  1  0.61699264  0.96012252  0.05112867  1
  B  B32  1  0.03987748  0.38300736  0.44887133  1
  B  B33  1  0.38300736  0.03987748  0.55112867  1
  B  B34  1  0.03987748  0.38300736  0.05112867  1
  B  B35  1  0.38300736  0.03987748  0.94887133  1
