# generated using pymatgen
data_LaH3CSO7
_symmetry_space_group_name_H-M   'P 1'
_cell_length_a   7.10129553
_cell_length_b   7.10129553
_cell_length_c   12.04233618
_cell_angle_alpha   90.00000000
_cell_angle_beta   90.00000000
_cell_angle_gamma   90.00000000
_symmetry_Int_Tables_number   1
_chemical_formula_structural   LaH3CSO7
_chemical_formula_sum   'La4 H12 C4 S4 O28'
_cell_volume   607.27572420
_cell_formula_units_Z   4
loop_
 _symmetry_equiv_pos_site_id
 _symmetry_equiv_pos_as_xyz
  1  'x, y, z'
loop_
 _atom_site_type_symbol
 _atom_site_label
 _atom_site_symmetry_multiplicity
 _atom_site_fract_x
 _atom_site_fract_y
 _atom_site_fract_z
 _atom_site_occupancy
  La  La0  1  0.10646557  0.63927015  0.90766190  1
  La  La1  1  0.89353443  0.36072985  0.40766190  1
  La  La2  1  0.63927015  0.89353443  0.65766190  1
  La  La3  1  0.36072985  0.10646557  0.15766190  1
  H  H4  1  0.01872794  0.15641090  0.86661173  1
  H  H5  1  0.98127206  0.84358910  0.36661173  1
  H  H6  1  0.15641090  0.98127206  0.61661173  1
  H  H7  1  0.84358910  0.01872794  0.11661173  1
  H  H8  1  0.17301194  0.40627939  0.68686836  1
  H  H9  1  0.82698806  0.59372061  0.18686836  1
  H  H10  1  0.40627939  0.82698806  0.43686836  1
  H  H11  1  0.59372061  0.17301194  0.93686836  1
  H  H12  1  0.37713159  0.45475325  0.73007681  1
  H  H13  1  0.62286841  0.54524675  0.23007681  1
  H  H14  1  0.45475325  0.62286841  0.48007681  1
  H  H15  1  0.54524675  0.37713159  0.98007681  1
  C  C16  1  0.09993217  0.15090433  0.94449152  1
  C  C17  1  0.90006783  0.84909567  0.44449152  1
  C  C18  1  0.15090433  0.90006783  0.69449152  1
  C  C19  1  0.84909567  0.09993217  0.19449152  1
  S  S20  1  0.75325324  0.38769540  0.71235436  1
  S  S21  1  0.24674676  0.61230460  0.21235436  1
  S  S22  1  0.38769540  0.24674676  0.46235436  1
  S  S23  1  0.61230460  0.75325324  0.96235436  1
  O  O24  1  0.86860731  0.33911073  0.61330755  1
  O  O25  1  0.13139269  0.66088927  0.11330755  1
  O  O26  1  0.33911073  0.13139269  0.36330755  1
  O  O27  1  0.66088927  0.86860731  0.86330755  1
  O  O28  1  0.61303402  0.53750816  0.68377246  1
  O  O29  1  0.38696598  0.46249184  0.18377246  1
  O  O30  1  0.53750816  0.38696598  0.43377246  1
  O  O31  1  0.46249184  0.61303402  0.93377246  1
  O  O32  1  0.87754869  0.45669568  0.80196720  1
  O  O33  1  0.12245131  0.54330432  0.30196720  1
  O  O34  1  0.45669568  0.12245131  0.55196720  1
  O  O35  1  0.54330432  0.87754869  0.05196720  1
  O  O36  1  0.65373312  0.21610977  0.75165297  1
  O  O37  1  0.34626688  0.78389023  0.25165297  1
  O  O38  1  0.21610977  0.34626688  0.50165297  1
  O  O39  1  0.78389023  0.65373312  0.00165297  1
  O  O40  1  0.14094138  0.30364254  0.99359063  1
  O  O41  1  0.85905862  0.69635746  0.49359063  1
  O  O42  1  0.30364254  0.85905862  0.74359063  1
  O  O43  1  0.69635746  0.14094138  0.24359063  1
  O  O44  1  0.14817675  0.99035814  0.98324243  1
  O  O45  1  0.85182325  0.00964186  0.48324243  1
  O  O46  1  0.99035814  0.85182325  0.73324243  1
  O  O47  1  0.00964186  0.14817675  0.23324243  1
  O  O48  1  0.24481173  0.44051082  0.75307907  1
  O  O49  1  0.75518827  0.55948918  0.25307907  1
  O  O50  1  0.44051082  0.75518827  0.50307907  1
  O  O51  1  0.55948918  0.24481173  0.00307907  1
