# generated using pymatgen
data_K2Zr(H2N)6
_symmetry_space_group_name_H-M   'P 1'
_cell_length_a   6.89229842
_cell_length_b   6.89229842
_cell_length_c   12.12263563
_cell_angle_alpha   73.48454681
_cell_angle_beta   73.48454681
_cell_angle_gamma   60.00000501
_symmetry_Int_Tables_number   1
_chemical_formula_structural   K2Zr(H2N)6
_chemical_formula_sum   'K4 Zr2 H24 N12'
_cell_volume   471.08513155
_cell_formula_units_Z   2
loop_
 _symmetry_equiv_pos_site_id
 _symmetry_equiv_pos_as_xyz
  1  'x, y, z'
loop_
 _atom_site_type_symbol
 _atom_site_label
 _atom_site_symmetry_multiplicity
 _atom_site_fract_x
 _atom_site_fract_y
 _atom_site_fract_z
 _atom_site_occupancy
  K  K0  1  0.86567948  0.86567948  0.40296156  1
  K  K1  1  0.36567948  0.36567948  0.90296156  1
  K  K2  1  0.13432052  0.13432052  0.59703844  1
  K  K3  1  0.63432052  0.63432052  0.09703844  1
  Zr  Zr4  1  0.75000000  0.75000000  0.75000000  1
  Zr  Zr5  1  0.25000000  0.25000000  0.25000000  1
  H  H6  1  0.67844891  0.21992529  0.65876103  1
  H  H7  1  0.21992529  0.44286477  0.65876103  1
  H  H8  1  0.44286477  0.67844891  0.65876103  1
  H  H9  1  0.17844891  0.94286477  0.15876103  1
  H  H10  1  0.94286477  0.71992529  0.15876103  1
  H  H11  1  0.71992529  0.17844891  0.15876103  1
  H  H12  1  0.32155109  0.78007471  0.34123897  1
  H  H13  1  0.78007471  0.55713523  0.34123897  1
  H  H14  1  0.55713523  0.32155109  0.34123897  1
  H  H15  1  0.82155109  0.05713523  0.84123897  1
  H  H16  1  0.05713523  0.28007471  0.84123897  1
  H  H17  1  0.28007471  0.82155109  0.84123897  1
  H  H18  1  0.58697618  0.15077939  0.57337608  1
  H  H19  1  0.15077939  0.68886834  0.57337608  1
  H  H20  1  0.68886834  0.58697618  0.57337608  1
  H  H21  1  0.08697618  0.18886834  0.07337608  1
  H  H22  1  0.18886834  0.65077939  0.07337608  1
  H  H23  1  0.65077939  0.08697618  0.07337608  1
  H  H24  1  0.41302382  0.84922061  0.42662392  1
  H  H25  1  0.84922061  0.31113166  0.42662392  1
  H  H26  1  0.31113166  0.41302382  0.42662392  1
  H  H27  1  0.91302382  0.81113166  0.92662392  1
  H  H28  1  0.81113166  0.34922061  0.92662392  1
  H  H29  1  0.34922061  0.91302382  0.92662392  1
  N  N30  1  0.68851356  0.08355260  0.63552423  1
  N  N31  1  0.08355260  0.59240962  0.63552423  1
  N  N32  1  0.59240962  0.68851356  0.63552423  1
  N  N33  1  0.18851356  0.09240962  0.13552423  1
  N  N34  1  0.09240962  0.58355260  0.13552423  1
  N  N35  1  0.58355260  0.18851356  0.13552423  1
  N  N36  1  0.31148644  0.91644740  0.36447577  1
  N  N37  1  0.91644740  0.40759038  0.36447577  1
  N  N38  1  0.40759038  0.31148644  0.36447577  1
  N  N39  1  0.81148644  0.90759038  0.86447577  1
  N  N40  1  0.90759038  0.41644740  0.86447577  1
  N  N41  1  0.41644740  0.81148644  0.86447577  1
