# generated using pymatgen
data_Ba5Zn2B4(O6F)2
_symmetry_space_group_name_H-M   'P 1'
_cell_length_a   7.36683708
_cell_length_b   8.13254493
_cell_length_c   13.57446128
_cell_angle_alpha   105.01223567
_cell_angle_beta   105.74456495
_cell_angle_gamma   90.00000000
_symmetry_Int_Tables_number   1
_chemical_formula_structural   Ba5Zn2B4(O6F)2
_chemical_formula_sum   'Ba10 Zn4 B8 O24 F4'
_cell_volume   753.86982543
_cell_formula_units_Z   2
loop_
 _symmetry_equiv_pos_site_id
 _symmetry_equiv_pos_as_xyz
  1  'x, y, z'
loop_
 _atom_site_type_symbol
 _atom_site_label
 _atom_site_symmetry_multiplicity
 _atom_site_fract_x
 _atom_site_fract_y
 _atom_site_fract_z
 _atom_site_occupancy
  Ba  Ba0  1  0.07339143  0.40071560  0.33500145  1
  Ba  Ba1  1  0.73838997  0.09928440  0.66499855  1
  Ba  Ba2  1  0.92660857  0.59928440  0.66499855  1
  Ba  Ba3  1  0.26161003  0.90071560  0.33500145  1
  Ba  Ba4  1  0.68575725  0.66455340  0.14892278  1
  Ba  Ba5  1  0.53683447  0.83544660  0.85107722  1
  Ba  Ba6  1  0.31424275  0.33544660  0.85107722  1
  Ba  Ba7  1  0.46316553  0.16455340  0.14892278  1
  Ba  Ba8  1  0.93055137  0.25000000  -0.00000000  1
  Ba  Ba9  1  0.06944863  0.75000000  0.00000000  1
  Zn  Zn10  1  0.84481479  0.01671059  0.38241222  1
  Zn  Zn11  1  0.46240258  0.48328941  0.61758778  1
  Zn  Zn12  1  0.15518521  0.98328941  0.61758778  1
  Zn  Zn13  1  0.53759742  0.51671059  0.38241222  1
  B  B14  1  0.88556419  0.03016981  0.15313504  1
  B  B15  1  0.73242915  0.46983019  0.84686496  1
  B  B16  1  0.11443581  0.96983019  0.84686496  1
  B  B17  1  0.26757085  0.53016981  0.15313504  1
  B  B18  1  0.87794862  0.72449179  0.44927129  1
  B  B19  1  0.42867734  0.77550821  0.55072871  1
  B  B20  1  0.12205138  0.27550821  0.55072871  1
  B  B21  1  0.57132266  0.22449179  0.44927129  1
  O  O22  1  0.72253898  0.54118436  0.95033408  1
  O  O23  1  0.77220489  0.95881564  0.04966592  1
  O  O24  1  0.27746102  0.45881564  0.04966592  1
  O  O25  1  0.22779511  0.04118436  0.95033408  1
  O  O26  1  0.62461492  0.05720387  0.43540698  1
  O  O27  1  0.18920794  0.44279613  0.56459302  1
  O  O28  1  0.37538508  0.94279613  0.56459302  1
  O  O29  1  0.81079206  0.55720387  0.43540698  1
  O  O30  1  0.90741547  0.77168743  0.36298640  1
  O  O31  1  0.54442907  0.72831257  0.63701360  1
  O  O32  1  0.09258453  0.22831257  0.63701360  1
  O  O33  1  0.45557093  0.27168743  0.36298640  1
  O  O34  1  0.08116076  0.16452798  0.45010504  1
  O  O35  1  0.63105571  0.33547202  0.54989496  1
  O  O36  1  0.91883924  0.83547202  0.54989496  1
  O  O37  1  0.36894429  0.66452798  0.45010504  1
  O  O38  1  0.07139697  0.09102734  0.17293557  1
  O  O39  1  0.89846141  0.40897266  0.82706443  1
  O  O40  1  0.92860303  0.90897266  0.82706443  1
  O  O41  1  0.10153859  0.59102734  0.17293557  1
  O  O42  1  0.80215160  0.03184196  0.23502791  1
  O  O43  1  0.56712369  0.46815804  0.76497209  1
  O  O44  1  0.19784840  0.96815804  0.76497209  1
  O  O45  1  0.43287631  0.53184196  0.23502791  1
  F  F46  1  0.76309433  0.35134747  0.15428661  1
  F  F47  1  0.60880772  0.14865253  0.84571339  1
  F  F48  1  0.23690567  0.64865253  0.84571339  1
  F  F49  1  0.39119228  0.85134747  0.15428661  1
