# generated using pymatgen
data_Nd(Mg10Ni)2
_symmetry_space_group_name_H-M   'P 1'
_cell_length_a   11.19157040
_cell_length_b   11.19157040
_cell_length_c   11.19157040
_cell_angle_alpha   90.41182934
_cell_angle_beta   119.76251574
_cell_angle_gamma   119.76251574
_symmetry_Int_Tables_number   1
_chemical_formula_structural   Nd(Mg10Ni)2
_chemical_formula_sum   'Nd2 Mg40 Ni4'
_cell_volume   994.72283190
_cell_formula_units_Z   2
loop_
 _symmetry_equiv_pos_site_id
 _symmetry_equiv_pos_as_xyz
  1  'x, y, z'
loop_
 _atom_site_type_symbol
 _atom_site_label
 _atom_site_symmetry_multiplicity
 _atom_site_fract_x
 _atom_site_fract_y
 _atom_site_fract_z
 _atom_site_occupancy
  Nd  Nd0  1  0.50000000  0.25000000  0.75000000  1
  Nd  Nd1  1  -0.00000000  0.50000000  0.50000000  1
  Mg  Mg2  1  0.13281766  0.70377760  0.83659526  1
  Mg  Mg3  1  0.86718234  0.70377760  0.57095994  1
  Mg  Mg4  1  0.63281766  0.04622240  0.67904006  1
  Mg  Mg5  1  0.36718234  0.04622240  0.41340474  1
  Mg  Mg6  1  0.86718234  0.16340474  0.29622240  1
  Mg  Mg7  1  0.13281766  0.42904006  0.29622240  1
  Mg  Mg8  1  0.36718234  0.32095994  0.95377760  1
  Mg  Mg9  1  0.63281766  0.58659526  0.95377760  1
  Mg  Mg10  1  0.25000000  0.87500000  0.62500000  1
  Mg  Mg11  1  0.75000000  0.37500000  0.62500000  1
  Mg  Mg12  1  0.75000000  0.37500000  0.12500000  1
  Mg  Mg13  1  0.25000000  0.37500000  0.62500000  1
  Mg  Mg14  1  0.50000000  0.61785866  0.11785866  1
  Mg  Mg15  1  0.00000000  0.13214134  0.13214134  1
  Mg  Mg16  1  0.50000000  0.88214134  0.38214134  1
  Mg  Mg17  1  -0.00000000  0.86785866  0.86785866  1
  Mg  Mg18  1  0.59666078  0.16506002  0.29827411  1
  Mg  Mg19  1  0.40333922  0.70161333  0.56839925  1
  Mg  Mg20  1  0.09666078  0.04838667  0.68160075  1
  Mg  Mg21  1  0.90333922  0.58493998  0.95172589  1
  Mg  Mg22  1  0.13321409  0.70161333  0.29827411  1
  Mg  Mg23  1  0.86678591  0.16506002  0.56839925  1
  Mg  Mg24  1  0.63321409  0.58493998  0.68160075  1
  Mg  Mg25  1  0.36678591  0.04838667  0.95172589  1
  Mg  Mg26  1  0.40333922  0.70172589  0.83493998  1
  Mg  Mg27  1  0.59666078  0.43160075  0.29838667  1
  Mg  Mg28  1  0.90333922  0.31839925  0.95161333  1
  Mg  Mg29  1  0.09666078  0.04827411  0.41506002  1
  Mg  Mg30  1  0.13321409  0.43160075  0.83493998  1
  Mg  Mg31  1  0.86678591  0.70172589  0.29838667  1
  Mg  Mg32  1  0.63321409  0.04827411  0.95161333  1
  Mg  Mg33  1  0.36678591  0.31839925  0.41506002  1
  Mg  Mg34  1  0.22685316  0.61342658  0.11342658  1
  Mg  Mg35  1  0.77314684  0.88657342  0.38657342  1
  Mg  Mg36  1  0.72685316  0.86342658  0.86342658  1
  Mg  Mg37  1  0.27314684  0.13657342  0.13657342  1
  Mg  Mg38  1  0.50000000  0.88657342  0.11342658  1
  Mg  Mg39  1  0.50000000  0.61342658  0.38657342  1
  Mg  Mg40  1  0.00000000  0.13657342  0.86342658  1
  Mg  Mg41  1  -0.00000000  0.86342658  0.13657342  1
  Ni  Ni42  1  0.25000000  0.37500000  0.12500000  1
  Ni  Ni43  1  0.75000000  0.87500000  0.12500000  1
  Ni  Ni44  1  0.75000000  0.87500000  0.62500000  1
  Ni  Ni45  1  0.25000000  0.87500000  0.12500000  1
