# generated using pymatgen
data_Ce2CuBiS5
_symmetry_space_group_name_H-M   'P 1'
_cell_length_a   3.95710272
_cell_length_b   12.01866574
_cell_length_c   17.04529965
_cell_angle_alpha   90.00000000
_cell_angle_beta   90.00000000
_cell_angle_gamma   90.00000000
_symmetry_Int_Tables_number   1
_chemical_formula_structural   Ce2CuBiS5
_chemical_formula_sum   'Ce8 Cu4 Bi4 S20'
_cell_volume   810.65902349
_cell_formula_units_Z   4
loop_
 _symmetry_equiv_pos_site_id
 _symmetry_equiv_pos_as_xyz
  1  'x, y, z'
loop_
 _atom_site_type_symbol
 _atom_site_label
 _atom_site_symmetry_multiplicity
 _atom_site_fract_x
 _atom_site_fract_y
 _atom_site_fract_z
 _atom_site_occupancy
  Ce  Ce0  1  0.75000000  0.46165483  0.82406341  1
  Ce  Ce1  1  0.75000000  0.96165483  0.67593659  1
  Ce  Ce2  1  0.25000000  0.53834517  0.17593659  1
  Ce  Ce3  1  0.25000000  0.03834517  0.32406341  1
  Ce  Ce4  1  0.75000000  0.12398408  0.90121855  1
  Ce  Ce5  1  0.75000000  0.62398408  0.59878145  1
  Ce  Ce6  1  0.25000000  0.87601592  0.09878145  1
  Ce  Ce7  1  0.25000000  0.37601592  0.40121855  1
  Cu  Cu8  1  0.75000000  0.09639596  0.50314023  1
  Cu  Cu9  1  0.75000000  0.59639596  0.99685977  1
  Cu  Cu10  1  0.25000000  0.90360404  0.49685977  1
  Cu  Cu11  1  0.25000000  0.40360404  0.00314023  1
  Bi  Bi12  1  0.75000000  0.19930297  0.13696913  1
  Bi  Bi13  1  0.75000000  0.69930297  0.36303087  1
  Bi  Bi14  1  0.25000000  0.80069703  0.86303087  1
  Bi  Bi15  1  0.25000000  0.30069703  0.63696913  1
  S  S16  1  0.75000000  0.48834200  0.29816222  1
  S  S17  1  0.75000000  0.98834200  0.20183778  1
  S  S18  1  0.25000000  0.51165800  0.70183778  1
  S  S19  1  0.25000000  0.01165800  0.79816222  1
  S  S20  1  0.75000000  0.41756087  0.07728671  1
  S  S21  1  0.75000000  0.91756087  0.42271329  1
  S  S22  1  0.25000000  0.58243913  0.92271329  1
  S  S23  1  0.25000000  0.08243913  0.57728671  1
  S  S24  1  0.75000000  0.39486677  0.52941786  1
  S  S25  1  0.75000000  0.89486677  0.97058214  1
  S  S26  1  0.25000000  0.60513323  0.47058214  1
  S  S27  1  0.25000000  0.10513323  0.02941786  1
  S  S28  1  0.75000000  0.23538725  0.73650036  1
  S  S29  1  0.75000000  0.73538725  0.76349964  1
  S  S30  1  0.25000000  0.76461275  0.26349964  1
  S  S31  1  0.25000000  0.26461275  0.23650036  1
  S  S32  1  0.75000000  0.19399490  0.38865828  1
  S  S33  1  0.75000000  0.69399490  0.11134172  1
  S  S34  1  0.25000000  0.80600510  0.61134172  1
  S  S35  1  0.25000000  0.30600510  0.88865828  1
