# generated using pymatgen
data_Cu3Ag2P2O9
_symmetry_space_group_name_H-M   'P 1'
_cell_length_a   8.54783972
_cell_length_b   11.61652369
_cell_length_c   16.53463263
_cell_angle_alpha   90.00000000
_cell_angle_beta   89.85127907
_cell_angle_gamma   90.00000000
_symmetry_Int_Tables_number   1
_chemical_formula_structural   Cu3Ag2P2O9
_chemical_formula_sum   'Cu24 Ag16 P16 O72'
_cell_volume   1641.82037022
_cell_formula_units_Z   8
loop_
 _symmetry_equiv_pos_site_id
 _symmetry_equiv_pos_as_xyz
  1  'x, y, z'
loop_
 _atom_site_type_symbol
 _atom_site_label
 _atom_site_symmetry_multiplicity
 _atom_site_fract_x
 _atom_site_fract_y
 _atom_site_fract_z
 _atom_site_occupancy
  Cu  Cu0  1  0.78822018  0.84164939  0.15695244  1
  Cu  Cu1  1  0.21177982  0.34164939  0.34304756  1
  Cu  Cu2  1  0.21177982  0.15835061  0.84304756  1
  Cu  Cu3  1  0.78822018  0.65835061  0.65695244  1
  Cu  Cu4  1  0.47564522  0.83014562  0.07359595  1
  Cu  Cu5  1  0.52435478  0.33014562  0.42640405  1
  Cu  Cu6  1  0.52435478  0.16985438  0.92640405  1
  Cu  Cu7  1  0.47564522  0.66985438  0.57359595  1
  Cu  Cu8  1  0.50162301  0.65624973  0.92430204  1
  Cu  Cu9  1  0.49837699  0.15624973  0.57569796  1
  Cu  Cu10  1  0.49837699  0.34375027  0.07569796  1
  Cu  Cu11  1  0.50162301  0.84375027  0.42430204  1
  Cu  Cu12  1  0.19594162  0.68474405  0.83376233  1
  Cu  Cu13  1  0.80405838  0.18474405  0.66623767  1
  Cu  Cu14  1  0.80405838  0.31525595  0.16623767  1
  Cu  Cu15  1  0.19594162  0.81525595  0.33376233  1
  Cu  Cu16  1  0.50146948  0.94556956  0.25223643  1
  Cu  Cu17  1  0.49853052  0.44556956  0.24776357  1
  Cu  Cu18  1  0.49853052  0.05443044  0.74776357  1
  Cu  Cu19  1  0.50146948  0.55443044  0.75223643  1
  Cu  Cu20  1  0.49341910  0.69950650  0.24632086  1
  Cu  Cu21  1  0.50658090  0.19950650  0.25367914  1
  Cu  Cu22  1  0.50658090  0.30049350  0.75367914  1
  Cu  Cu23  1  0.49341910  0.80049350  0.74632086  1
  Ag  Ag24  1  0.24733004  0.58602597  0.07273241  1
  Ag  Ag25  1  0.75266996  0.08602597  0.42726759  1
  Ag  Ag26  1  0.75266996  0.41397403  0.92726759  1
  Ag  Ag27  1  0.24733004  0.91397403  0.57273241  1
  Ag  Ag28  1  0.99210411  0.74699862  0.00293516  1
  Ag  Ag29  1  0.00789589  0.24699862  0.49706484  1
  Ag  Ag30  1  0.00789589  0.25300138  0.99706484  1
  Ag  Ag31  1  0.99210411  0.75300138  0.50293516  1
  Ag  Ag32  1  0.74585009  0.90295784  0.92641083  1
  Ag  Ag33  1  0.25414991  0.40295784  0.57358917  1
  Ag  Ag34  1  0.25414991  0.09704216  0.07358917  1
  Ag  Ag35  1  0.74585009  0.59704216  0.42641083  1
  Ag  Ag36  1  0.99976932  0.59088090  0.23185686  1
  Ag  Ag37  1  0.00023068  0.09088090  0.26814314  1
  Ag  Ag38  1  0.00023068  0.40911910  0.76814314  1
  Ag  Ag39  1  0.99976932  0.90911910  0.73185686  1
  P  P40  1  0.83417457  0.65936321  0.83796177  1
  P  P41  1  0.16582543  0.15936321  0.66203823  1
  P  P42  1  0.16582543  0.34063679  0.16203823  1
  P  P43  1  0.83417457  0.84063679  0.33796177  1
  P  P44  1  0.15836805  0.85124201  0.15904930  1
  P  P45  1  0.84163195  0.35124201  0.34095070  1
  P  P46  1  0.84163195  0.14875799  0.84095070  1
  P  P47  1  0.15836805  0.64875799  0.65904930  1
  P  P48  1  0.65778204  0.58637351  0.09430979  1
  P  P49  1  0.34221796  0.08637351  0.40569021  1
  P  P50  1  0.34221796  0.41362649  0.90569021  1
  P  P51  1  0.65778204  0.91362649  0.59430979  1
  P  P52  1  0.66754824  0.08511119  0.10172961  1
  P  P53  1  0.33245176  0.58511119  0.39827039  1
  P  P54  1  0.33245176  0.91488881  0.89827039  1
  P  P55  1  0.66754824  0.41488881  0.60172961  1
  O  O56  1  0.54601346  0.66494712  0.04223071  1
  O  O57  1  0.45398654  0.16494712  0.45776929  1
  O  O58  1  0.45398654  0.33505288  0.95776929  1
  O  O59  1  0.54601346  0.83505288  0.54223071  1
  O  O60  1  0.71725428  0.71849896  0.89849952  1
  O  O61  1  0.28274572  0.21849896  0.60150048  1
  O  O62  1  0.28274572  0.28150104  0.10150048  1
  O  O63  1  0.71725428  0.78150104  0.39849952  1
  O  O64  1  0.56687616  0.82176263  0.17959409  1
  O  O65  1  0.43312384  0.32176263  0.32040591  1
  O  O66  1  0.43312384  0.17823737  0.82040591  1
  O  O67  1  0.56687616  0.67823737  0.67959409  1
  O  O68  1  0.85135510  0.41798571  0.25919782  1
  O  O69  1  0.14864490  0.91798571  0.24080218  1
  O  O70  1  0.14864490  0.58201429  0.74080218  1
  O  O71  1  0.85135510  0.08201429  0.75919782  1
  O  O72  1  0.70817556  0.96080848  0.07422464  1
  O  O73  1  0.29182444  0.46080848  0.42577536  1
  O  O74  1  0.29182444  0.03919152  0.92577536  1
  O  O75  1  0.70817556  0.53919152  0.57422464  1
  O  O76  1  0.33389438  0.53651105  0.94440044  1
  O  O77  1  0.66610562  0.03651105  0.55559956  1
  O  O78  1  0.66610562  0.46348895  0.05559956  1
  O  O79  1  0.33389438  0.96348895  0.44440044  1
  O  O80  1  0.85327526  0.76603039  0.26008789  1
  O  O81  1  0.14672474  0.26603039  0.23991211  1
  O  O82  1  0.14672474  0.23396961  0.73991211  1
  O  O83  1  0.85327526  0.73396961  0.76008789  1
  O  O84  1  0.81726992  0.64205226  0.10424276  1
  O  O85  1  0.18273008  0.14205226  0.39575724  1
  O  O86  1  0.18273008  0.35794774  0.89575724  1
  O  O87  1  0.81726992  0.85794774  0.60424276  1
  O  O88  1  0.42923810  0.07323263  0.32145391  1
  O  O89  1  0.57076190  0.57323263  0.17854609  1
  O  O90  1  0.57076190  0.92676737  0.67854609  1
  O  O91  1  0.42923810  0.42676737  0.82145391  1
  O  O92  1  0.20757391  0.72495756  0.17310733  1
  O  O93  1  0.79242609  0.22495756  0.32689267  1
  O  O94  1  0.79242609  0.27504244  0.82689267  1
  O  O95  1  0.20757391  0.77504244  0.67310733  1
  O  O96  1  0.42207136  0.68158120  0.81676938  1
  O  O97  1  0.57792864  0.18158120  0.68323062  1
  O  O98  1  0.57792864  0.31841880  0.18323062  1
  O  O99  1  0.42207136  0.81841880  0.31676938  1
  O  O100  1  0.28246151  0.91261193  0.10404537  1
  O  O101  1  0.71753849  0.41261193  0.39595463  1
  O  O102  1  0.71753849  0.08738807  0.89595463  1
  O  O103  1  0.28246151  0.58738807  0.60404537  1
  O  O104  1  0.18498704  0.84239043  0.88194751  1
  O  O105  1  0.81501296  0.34239043  0.61805249  1
  O  O106  1  0.81501296  0.15760957  0.11805249  1
  O  O107  1  0.18498704  0.65760957  0.38194751  1
  O  O108  1  0.22686286  0.46128493  0.18449240  1
  O  O109  1  0.77313714  0.96128493  0.31550760  1
  O  O110  1  0.77313714  0.53871507  0.81550760  1
  O  O111  1  0.22686286  0.03871507  0.68449240  1
  O  O112  1  0.99306702  0.65251001  0.88498622  1
  O  O113  1  0.00693298  0.15251001  0.61501378  1
  O  O114  1  0.00693298  0.34748999  0.11501378  1
  O  O115  1  0.99306702  0.84748999  0.38498622  1
  O  O116  1  0.99900705  0.86193212  0.11313473  1
  O  O117  1  0.00099295  0.36193212  0.38686527  1
  O  O118  1  0.00099295  0.13806788  0.88686527  1
  O  O119  1  0.99900705  0.63806788  0.61313473  1
  O  O120  1  0.56748779  0.07434071  0.18260805  1
  O  O121  1  0.43251221  0.57434071  0.31739195  1
  O  O122  1  0.43251221  0.92565929  0.81739195  1
  O  O123  1  0.56748779  0.42565929  0.68260805  1
  O  O124  1  0.44228794  0.85290370  0.95874222  1
  O  O125  1  0.55771206  0.35290370  0.54125778  1
  O  O126  1  0.55771206  0.14709630  0.04125778  1
  O  O127  1  0.44228794  0.64709630  0.45874222  1
