# generated using pymatgen
data_BaO4
_symmetry_space_group_name_H-M   'P 1'
_cell_length_a   4.50045912
_cell_length_b   9.17107703
_cell_length_c   8.48734290
_cell_angle_alpha   90.00000000
_cell_angle_beta   95.73657397
_cell_angle_gamma   90.00000000
_symmetry_Int_Tables_number   1
_chemical_formula_structural   BaO4
_chemical_formula_sum   'Ba4 O16'
_cell_volume   348.55272766
_cell_formula_units_Z   4
loop_
 _symmetry_equiv_pos_site_id
 _symmetry_equiv_pos_as_xyz
  1  'x, y, z'
loop_
 _atom_site_type_symbol
 _atom_site_label
 _atom_site_symmetry_multiplicity
 _atom_site_fract_x
 _atom_site_fract_y
 _atom_site_fract_z
 _atom_site_occupancy
  Ba  Ba0  1  0.26643799  0.34634847  0.66163574  1
  Ba  Ba1  1  0.73356201  0.84634847  0.83836426  1
  Ba  Ba2  1  0.73356201  0.65365153  0.33836426  1
  Ba  Ba3  1  0.26643799  0.15365153  0.16163574  1
  O  O4  1  0.75579058  0.51941793  0.63637884  1
  O  O5  1  0.24420942  0.01941793  0.86362116  1
  O  O6  1  0.24420942  0.48058207  0.36362116  1
  O  O7  1  0.75579058  0.98058207  0.13637884  1
  O  O8  1  0.20247352  0.72605686  0.67022423  1
  O  O9  1  0.79752648  0.22605686  0.82977577  1
  O  O10  1  0.79752648  0.27394314  0.32977577  1
  O  O11  1  0.20247352  0.77394314  0.17022423  1
  O  O12  1  0.31902158  0.77652504  0.54349942  1
  O  O13  1  0.68097842  0.27652504  0.95650058  1
  O  O14  1  0.68097842  0.22347496  0.45650058  1
  O  O15  1  0.31902158  0.72347496  0.04349942  1
  O  O16  1  0.34447476  0.05609614  0.72102134  1
  O  O17  1  0.65552524  0.55609614  0.77897866  1
  O  O18  1  0.65552524  0.94390386  0.27897866  1
  O  O19  1  0.34447476  0.44390386  0.22102134  1
