# generated using pymatgen
data_Th(SeO3)2
_symmetry_space_group_name_H-M   'P 1'
_cell_length_a   6.75701661
_cell_length_b   7.29690260
_cell_length_c   11.29477641
_cell_angle_alpha   90.00000000
_cell_angle_beta   90.00000000
_cell_angle_gamma   90.00000000
_symmetry_Int_Tables_number   1
_chemical_formula_structural   Th(SeO3)2
_chemical_formula_sum   'Th4 Se8 O24'
_cell_volume   556.89224976
_cell_formula_units_Z   4
loop_
 _symmetry_equiv_pos_site_id
 _symmetry_equiv_pos_as_xyz
  1  'x, y, z'
loop_
 _atom_site_type_symbol
 _atom_site_label
 _atom_site_symmetry_multiplicity
 _atom_site_fract_x
 _atom_site_fract_y
 _atom_site_fract_z
 _atom_site_occupancy
  Th  Th0  1  0.05524703  0.64744618  0.85424128  1
  Th  Th1  1  0.55524703  0.35255382  0.14575872  1
  Th  Th2  1  0.55524703  0.85255382  0.35424128  1
  Th  Th3  1  0.05524703  0.14744618  0.64575872  1
  Se  Se4  1  0.06649644  0.54823381  0.18373141  1
  Se  Se5  1  0.56649644  0.45176619  0.81626859  1
  Se  Se6  1  0.56649644  0.95176619  0.68373141  1
  Se  Se7  1  0.06649644  0.04823381  0.31626859  1
  Se  Se8  1  0.10933257  0.64561870  0.54196726  1
  Se  Se9  1  0.60933257  0.35438130  0.45803274  1
  Se  Se10  1  0.60933257  0.85438130  0.04196726  1
  Se  Se11  1  0.10933257  0.14561870  0.95803274  1
  O  O12  1  0.08209307  0.81125238  0.65492779  1
  O  O13  1  0.58209307  0.18874762  0.34507221  1
  O  O14  1  0.58209307  0.68874762  0.15492779  1
  O  O15  1  0.08209307  0.31125238  0.84507221  1
  O  O16  1  0.17127863  0.57038470  0.04355298  1
  O  O17  1  0.67127863  0.42961530  0.95644702  1
  O  O18  1  0.67127863  0.92961530  0.54355298  1
  O  O19  1  0.17127863  0.07038470  0.45644702  1
  O  O20  1  0.15692604  0.46837334  0.64072913  1
  O  O21  1  0.65692604  0.53162666  0.35927087  1
  O  O22  1  0.65692604  0.03162666  0.14072913  1
  O  O23  1  0.15692604  0.96837334  0.85927087  1
  O  O24  1  0.33957600  0.69301542  0.48795143  1
  O  O25  1  0.83957600  0.30698458  0.51204857  1
  O  O26  1  0.83957600  0.80698458  0.98795143  1
  O  O27  1  0.33957600  0.19301542  0.01204857  1
  O  O28  1  0.25775249  0.42806371  0.25005812  1
  O  O29  1  0.75775249  0.57193629  0.74994188  1
  O  O30  1  0.75775249  0.07193629  0.75005812  1
  O  O31  1  0.25775249  0.92806371  0.24994188  1
  O  O32  1  0.89798774  0.37450700  0.15848612  1
  O  O33  1  0.39798774  0.62549300  0.84151388  1
  O  O34  1  0.39798774  0.12549300  0.65848612  1
  O  O35  1  0.89798774  0.87450700  0.34151388  1
