# generated using pymatgen
data_KDyH2S2O9
_symmetry_space_group_name_H-M   'P 1'
_cell_length_a   8.84003189
_cell_length_b   10.06818768
_cell_length_c   10.47855380
_cell_angle_alpha   118.77104039
_cell_angle_beta   90.00000000
_cell_angle_gamma   90.00000000
_symmetry_Int_Tables_number   1
_chemical_formula_structural   KDyH2S2O9
_chemical_formula_sum   'K4 Dy4 H8 S8 O36'
_cell_volume   817.49143002
_cell_formula_units_Z   4
loop_
 _symmetry_equiv_pos_site_id
 _symmetry_equiv_pos_as_xyz
  1  'x, y, z'
loop_
 _atom_site_type_symbol
 _atom_site_label
 _atom_site_symmetry_multiplicity
 _atom_site_fract_x
 _atom_site_fract_y
 _atom_site_fract_z
 _atom_site_occupancy
  K  K0  1  0.27101775  0.00927522  0.79102232  1
  K  K1  1  0.77101775  0.49072478  0.70897768  1
  K  K2  1  0.72898225  0.99072478  0.20897768  1
  K  K3  1  0.22898225  0.50927522  0.29102232  1
  Dy  Dy4  1  0.13213291  0.77389877  0.03329963  1
  Dy  Dy5  1  0.63213291  0.72610123  0.46670037  1
  Dy  Dy6  1  0.86786709  0.22610123  0.96670037  1
  Dy  Dy7  1  0.36786709  0.27389877  0.53329963  1
  H  H8  1  0.55776763  0.16008435  0.91798874  1
  H  H9  1  0.05776763  0.33991565  0.58201126  1
  H  H10  1  0.44223237  0.83991565  0.08201126  1
  H  H11  1  0.94223237  0.66008435  0.41798874  1
  H  H12  1  0.53442245  0.33179663  0.03523926  1
  H  H13  1  0.03442245  0.16820337  0.46476074  1
  H  H14  1  0.46557755  0.66820337  0.96476074  1
  H  H15  1  0.96557755  0.83179663  0.53523926  1
  S  S16  1  0.29892592  0.88529981  0.38891571  1
  S  S17  1  0.79892592  0.61470019  0.11108429  1
  S  S18  1  0.70107408  0.11470019  0.61108429  1
  S  S19  1  0.20107408  0.38529981  0.88891571  1
  S  S20  1  0.14096280  0.12475598  0.17592687  1
  S  S21  1  0.64096280  0.37524402  0.32407313  1
  S  S22  1  0.85903720  0.87524402  0.82407313  1
  S  S23  1  0.35903720  0.62475598  0.67592687  1
  O  O24  1  0.19693491  0.81183087  0.26038840  1
  O  O25  1  0.69693491  0.68816913  0.23961160  1
  O  O26  1  0.80306509  0.18816913  0.73961160  1
  O  O27  1  0.30306509  0.31183087  0.76038840  1
  O  O28  1  0.41611603  0.77158638  0.37314632  1
  O  O29  1  0.91611603  0.72841362  0.12685368  1
  O  O30  1  0.58388397  0.22841362  0.62685368  1
  O  O31  1  0.08388397  0.27158638  0.87314632  1
  O  O32  1  0.12301858  0.51770989  0.88694061  1
  O  O33  1  0.62301858  0.98229011  0.61305939  1
  O  O34  1  0.87698142  0.48229011  0.11305939  1
  O  O35  1  0.37698142  0.01770989  0.38694061  1
  O  O36  1  0.21256859  0.93522967  0.52336578  1
  O  O37  1  0.71256859  0.56477033  0.97663422  1
  O  O38  1  0.78743141  0.06477033  0.47663422  1
  O  O39  1  0.28743141  0.43522967  0.02336578  1
  O  O40  1  0.23241325  0.23440478  0.29962471  1
  O  O41  1  0.73241325  0.26559522  0.20037529  1
  O  O42  1  0.76758675  0.76559522  0.70037529  1
  O  O43  1  0.26758675  0.73440478  0.79962471  1
  O  O44  1  0.06142686  0.20845576  0.11065687  1
  O  O45  1  0.56142686  0.29154424  0.38934313  1
  O  O46  1  0.93857314  0.79154424  0.88934313  1
  O  O47  1  0.43857314  0.70845576  0.61065687  1
  O  O48  1  0.24053600  0.00393373  0.06183118  1
  O  O49  1  0.74053600  0.49606627  0.43816882  1
  O  O50  1  0.75946400  0.99606627  0.93816882  1
  O  O51  1  0.25946400  0.50393373  0.56183118  1
  O  O52  1  0.03084709  0.04059297  0.21823808  1
  O  O53  1  0.53084709  0.45940703  0.28176192  1
  O  O54  1  0.96915291  0.95940703  0.78176192  1
  O  O55  1  0.46915291  0.54059297  0.71823808  1
  O  O56  1  0.59874427  0.26155231  0.95464021  1
  O  O57  1  0.09874427  0.23844769  0.54535979  1
  O  O58  1  0.40125573  0.73844769  0.04535979  1
  O  O59  1  0.90125573  0.76155231  0.45464021  1
