# generated using pymatgen
data_Fe8H10O17
_symmetry_space_group_name_H-M   'P 1'
_cell_length_a   10.54836890
_cell_length_b   6.13736836
_cell_length_c   10.72137093
_cell_angle_alpha   88.85420945
_cell_angle_beta   86.57431563
_cell_angle_gamma   91.78072719
_symmetry_Int_Tables_number   1
_chemical_formula_structural   Fe8H10O17
_chemical_formula_sum   'Fe16 H20 O34'
_cell_volume   692.35226980
_cell_formula_units_Z   2
loop_
 _symmetry_equiv_pos_site_id
 _symmetry_equiv_pos_as_xyz
  1  'x, y, z'
loop_
 _atom_site_type_symbol
 _atom_site_label
 _atom_site_symmetry_multiplicity
 _atom_site_fract_x
 _atom_site_fract_y
 _atom_site_fract_z
 _atom_site_occupancy
  Fe  Fe0  1  0.32312727  0.02171165  0.09150234  1
  Fe  Fe1  1  0.16006525  0.99405535  0.61581557  1
  Fe  Fe2  1  0.83814277  0.24633954  0.56633120  1
  Fe  Fe3  1  0.71321822  0.22245411  0.08803249  1
  Fe  Fe4  1  0.66514193  0.99889010  0.79436593  1
  Fe  Fe5  1  0.86692295  0.99553362  0.27544135  1
  Fe  Fe6  1  0.17219153  0.24496151  0.31866372  1
  Fe  Fe7  1  0.35696816  0.25260371  0.80117942  1
  Fe  Fe8  1  0.32441292  0.50140594  0.09861208  1
  Fe  Fe9  1  0.14619981  0.48991466  0.61795122  1
  Fe  Fe10  1  0.83117506  0.72742193  0.57671505  1
  Fe  Fe11  1  0.86093441  0.78964697  0.96282940  1
  Fe  Fe12  1  0.67977390  0.49039581  0.81905261  1
  Fe  Fe13  1  0.87200690  0.50634622  0.26682247  1
  Fe  Fe14  1  0.17538586  0.76148610  0.32960195  1
  Fe  Fe15  1  0.33271625  0.74758437  0.80575140  1
  H  H16  1  0.38260712  0.99971716  0.35250833  1
  H  H17  1  0.42115278  0.99517608  0.60338257  1
  H  H18  1  0.87300532  0.19872760  0.81917405  1
  H  H19  1  0.65584876  0.98362498  0.51087580  1
  H  H20  1  0.99417190  0.98968877  0.47594977  1
  H  H21  1  0.68978417  0.86210322  0.16674323  1
  H  H22  1  0.50129413  0.30073590  0.00726726  1
  H  H23  1  0.08731330  0.17894009  0.81806804  1
  H  H24  1  0.37365384  0.48018333  0.35741842  1
  H  H25  1  0.01639082  0.49596154  0.42742574  1
  H  H26  1  0.40444621  0.52058577  0.59544986  1
  H  H27  1  0.52356987  0.75423646  0.92353988  1
  H  H28  1  0.61948356  0.40337434  0.62363667  1
  H  H29  1  0.11251245  0.75783393  0.09622296  1
  H  H30  1  0.51045423  0.82377405  0.15172108  1
  H  H31  1  0.08172848  0.67929618  0.82513422  1
  H  H32  1  0.01388970  0.48138348  0.97192824  1
  H  H33  1  0.96827611  0.14190210  0.99158644  1
  H  H34  1  0.60093666  0.55645709  0.22018000  1
  H  H35  1  0.64595972  0.42545590  0.34166058  1
  O  O36  1  0.31429466  0.00605981  0.29630384  1
  O  O37  1  0.05246277  0.99457272  0.32834292  1
  O  O38  1  0.35384074  0.99898303  0.66851871  1
  O  O39  1  0.31842511  0.00141089  0.91276233  1
  O  O40  1  0.80377428  0.24166108  0.76146400  1
  O  O41  1  0.54861717  0.25686725  0.78835310  1
  O  O42  1  0.88224706  0.25583982  0.14690273  1
  O  O43  1  0.82948318  0.24538806  0.38832610  1
  O  O44  1  0.69883564  0.98360345  0.58857826  1
  O  O45  1  0.96665188  0.98920973  0.56907210  1
  O  O46  1  0.66944330  0.98400096  0.22161329  1
  O  O47  1  0.70840327  0.98889941  0.96909086  1
  O  O48  1  0.20441725  0.25478780  0.13285722  1
  O  O49  1  0.46337012  0.26813275  0.09159130  1
  O  O50  1  0.15175075  0.22921921  0.74828621  1
  O  O51  1  0.19329590  0.25045777  0.50230213  1
  O  O52  1  0.31072446  0.51041846  0.29749444  1
  O  O53  1  0.05046146  0.50054876  0.33565535  1
  O  O54  1  0.34775345  0.50397496  0.66956159  1
  O  O55  1  0.32092507  0.49358412  0.91662701  1
  O  O56  1  0.78884708  0.74856864  0.76899286  1
  O  O57  1  0.53324782  0.74626991  0.83050785  1
  O  O58  1  0.88813359  0.75681461  0.14485116  1
  O  O59  1  0.82876892  0.73749218  0.39330708  1
  O  O60  1  0.69258051  0.47119305  0.57465026  1
  O  O61  1  0.96279899  0.49468874  0.57547572  1
  O  O62  1  0.70618427  0.49124992  0.98965487  1
  O  O63  1  0.19533521  0.75282279  0.13290664  1
  O  O64  1  0.44801889  0.77115627  0.09426700  1
  O  O65  1  0.14940486  0.73417324  0.74883786  1
  O  O66  1  0.19726081  0.74789521  0.50602468  1
  O  O67  1  0.99308462  0.59243488  0.91153665  1
  O  O68  1  0.96836594  0.06213557  0.91256311  1
  O  O69  1  0.65892069  0.44982040  0.25101346  1
