# generated using pymatgen
data_Nd6ZnFe13
_symmetry_space_group_name_H-M   'P 1'
_cell_length_a   8.04725478
_cell_length_b   8.04725478
_cell_length_c   12.73482063
_cell_angle_alpha   108.41846012
_cell_angle_beta   108.41846012
_cell_angle_gamma   90.00000000
_symmetry_Int_Tables_number   1
_chemical_formula_structural   Nd6ZnFe13
_chemical_formula_sum   'Nd12 Zn2 Fe26'
_cell_volume   737.78022271
_cell_formula_units_Z   2
loop_
 _symmetry_equiv_pos_site_id
 _symmetry_equiv_pos_as_xyz
  1  'x, y, z'
loop_
 _atom_site_type_symbol
 _atom_site_label
 _atom_site_symmetry_multiplicity
 _atom_site_fract_x
 _atom_site_fract_y
 _atom_site_fract_z
 _atom_site_occupancy
  Nd  Nd0  1  0.97516308  0.47516308  0.62376441  1
  Nd  Nd1  1  0.64860133  0.14860133  0.62376441  1
  Nd  Nd2  1  0.14860133  0.97516308  0.62376441  1
  Nd  Nd3  1  0.47516308  0.64860133  0.62376441  1
  Nd  Nd4  1  0.02483692  0.52483692  0.37623559  1
  Nd  Nd5  1  0.35139867  0.85139867  0.37623559  1
  Nd  Nd6  1  0.85139867  0.02483692  0.37623559  1
  Nd  Nd7  1  0.52483692  0.35139867  0.37623559  1
  Nd  Nd8  1  0.60776776  0.60776776  0.21553552  1
  Nd  Nd9  1  0.10776776  0.10776776  0.21553552  1
  Nd  Nd10  1  0.39223224  0.39223224  0.78446448  1
  Nd  Nd11  1  0.89223224  0.89223224  0.78446448  1
  Zn  Zn12  1  0.25000000  0.25000000  0.50000000  1
  Zn  Zn13  1  0.75000000  0.75000000  0.50000000  1
  Fe  Fe14  1  0.11812262  0.61812262  0.87988675  1
  Fe  Fe15  1  0.76176412  0.26176412  0.87988675  1
  Fe  Fe16  1  0.26176412  0.11812262  0.87988675  1
  Fe  Fe17  1  0.61812262  0.76176412  0.87988675  1
  Fe  Fe18  1  0.88187738  0.38187738  0.12011325  1
  Fe  Fe19  1  0.23823588  0.73823588  0.12011325  1
  Fe  Fe20  1  0.73823588  0.88187738  0.12011325  1
  Fe  Fe21  1  0.38187738  0.23823588  0.12011325  1
  Fe  Fe22  1  0.71006365  0.56672054  1.00000000  1
  Fe  Fe23  1  0.28993635  0.43327946  0.00000000  1
  Fe  Fe24  1  0.78993635  0.06672054  0.00000000  1
  Fe  Fe25  1  0.21006365  0.93327946  1.00000000  1
  Fe  Fe26  1  0.56672054  0.28993635  0.00000000  1
  Fe  Fe27  1  0.43327946  0.71006365  1.00000000  1
  Fe  Fe28  1  0.06672054  0.21006365  1.00000000  1
  Fe  Fe29  1  0.93327946  0.78993635  0.00000000  1
  Fe  Fe30  1  0.28991700  0.78991700  0.80736377  1
  Fe  Fe31  1  0.51744677  0.01744677  0.80736377  1
  Fe  Fe32  1  0.01744677  0.28991700  0.80736377  1
  Fe  Fe33  1  0.78991700  0.51744677  0.80736377  1
  Fe  Fe34  1  0.71008300  0.21008300  0.19263623  1
  Fe  Fe35  1  0.48255323  0.98255323  0.19263623  1
  Fe  Fe36  1  0.98255323  0.71008300  0.19263623  1
  Fe  Fe37  1  0.21008300  0.48255323  0.19263623  1
  Fe  Fe38  1  -0.00000000  0.50000000  0.00000000  1
  Fe  Fe39  1  0.50000000  0.00000000  0.00000000  1
