# generated using pymatgen
data_Zn3(AsO3)2
_symmetry_space_group_name_H-M   'P 1'
_cell_length_a   5.28814901
_cell_length_b   8.39084933
_cell_length_c   16.10969389
_cell_angle_alpha   97.34343141
_cell_angle_beta   90.00000000
_cell_angle_gamma   90.00000000
_symmetry_Int_Tables_number   1
_chemical_formula_structural   Zn3(AsO3)2
_chemical_formula_sum   'Zn12 As8 O24'
_cell_volume   708.95725801
_cell_formula_units_Z   4
loop_
 _symmetry_equiv_pos_site_id
 _symmetry_equiv_pos_as_xyz
  1  'x, y, z'
loop_
 _atom_site_type_symbol
 _atom_site_label
 _atom_site_symmetry_multiplicity
 _atom_site_fract_x
 _atom_site_fract_y
 _atom_site_fract_z
 _atom_site_occupancy
  Zn  Zn0  1  0.64577822  0.86962157  0.73975052  1
  Zn  Zn1  1  0.14577822  0.13037843  0.76024948  1
  Zn  Zn2  1  0.35422178  0.13037843  0.26024948  1
  Zn  Zn3  1  0.85422178  0.86962157  0.23975052  1
  Zn  Zn4  1  0.12636485  0.38952597  0.93312117  1
  Zn  Zn5  1  0.62636485  0.61047403  0.56687883  1
  Zn  Zn6  1  0.87363515  0.61047403  0.06687883  1
  Zn  Zn7  1  0.37363515  0.38952597  0.43312117  1
  Zn  Zn8  1  0.54975135  0.50999913  0.81111575  1
  Zn  Zn9  1  0.04975135  0.49000087  0.68888425  1
  Zn  Zn10  1  0.45024865  0.49000087  0.18888425  1
  Zn  Zn11  1  0.95024865  0.50999913  0.31111575  1
  As  As12  1  0.04092610  0.74115942  0.86915513  1
  As  As13  1  0.54092610  0.25884058  0.63084487  1
  As  As14  1  0.95907390  0.25884058  0.13084487  1
  As  As15  1  0.45907390  0.74115942  0.36915513  1
  As  As16  1  0.63188720  0.16635794  0.89384781  1
  As  As17  1  0.13188720  0.83364206  0.60615219  1
  As  As18  1  0.36811280  0.83364206  0.10615219  1
  As  As19  1  0.86811280  0.16635794  0.39384781  1
  O  O20  1  0.99323346  0.61371781  0.94963879  1
  O  O21  1  0.49323346  0.38628219  0.55036121  1
  O  O22  1  0.00676654  0.38628219  0.05036121  1
  O  O23  1  0.50676654  0.61371781  0.44963879  1
  O  O24  1  0.94083407  0.22192264  0.85706173  1
  O  O25  1  0.44083407  0.77807736  0.64293827  1
  O  O26  1  0.05916593  0.77807736  0.14293827  1
  O  O27  1  0.55916593  0.22192264  0.35706173  1
  O  O28  1  0.49958147  0.07248840  0.79571717  1
  O  O29  1  0.99958147  0.92751160  0.70428283  1
  O  O30  1  0.50041853  0.92751160  0.20428283  1
  O  O31  1  0.00041853  0.07248840  0.29571717  1
  O  O32  1  0.48157445  0.36174397  0.89585727  1
  O  O33  1  0.98157445  0.63825603  0.60414273  1
  O  O34  1  0.51842555  0.63825603  0.10414273  1
  O  O35  1  0.01842555  0.36174397  0.39585727  1
  O  O36  1  0.69394495  0.41395791  0.70229000  1
  O  O37  1  0.19394495  0.58604209  0.79771000  1
  O  O38  1  0.30605505  0.58604209  0.29771000  1
  O  O39  1  0.80605505  0.41395791  0.20229000  1
  O  O40  1  0.72764026  0.72052067  0.82315081  1
  O  O41  1  0.22764026  0.27947933  0.67684919  1
  O  O42  1  0.27235974  0.27947933  0.17684919  1
  O  O43  1  0.77235974  0.72052067  0.32315081  1
