# generated using pymatgen
data_Fe7Sb3P3(BrO6)3
_symmetry_space_group_name_H-M   'P 1'
_cell_length_a   5.25691024
_cell_length_b   15.23995345
_cell_length_c   26.22030211
_cell_angle_alpha   90.00000000
_cell_angle_beta   90.00000000
_cell_angle_gamma   90.00000000
_symmetry_Int_Tables_number   1
_chemical_formula_structural   Fe7Sb3P3(BrO6)3
_chemical_formula_sum   'Fe28 Sb12 P12 Br12 O72'
_cell_volume   2100.64126944
_cell_formula_units_Z   4
loop_
 _symmetry_equiv_pos_site_id
 _symmetry_equiv_pos_as_xyz
  1  'x, y, z'
loop_
 _atom_site_type_symbol
 _atom_site_label
 _atom_site_symmetry_multiplicity
 _atom_site_fract_x
 _atom_site_fract_y
 _atom_site_fract_z
 _atom_site_occupancy
  Fe  Fe0  1  0.19125395  0.35547046  0.07196931  1
  Fe  Fe1  1  0.69125395  0.14452954  0.42803069  1
  Fe  Fe2  1  0.80874605  0.85547046  0.92803069  1
  Fe  Fe3  1  0.30874605  0.64452954  0.57196931  1
  Fe  Fe4  1  0.80874605  0.64452954  0.92803069  1
  Fe  Fe5  1  0.30874605  0.85547046  0.57196931  1
  Fe  Fe6  1  0.19125395  0.14452954  0.07196931  1
  Fe  Fe7  1  0.69125395  0.35547046  0.42803069  1
  Fe  Fe8  1  0.19814346  0.93215555  0.28497297  1
  Fe  Fe9  1  0.69814346  0.56784445  0.21502703  1
  Fe  Fe10  1  0.80185654  0.43215555  0.71502703  1
  Fe  Fe11  1  0.30185654  0.06784445  0.78497297  1
  Fe  Fe12  1  0.80185654  0.06784445  0.71502703  1
  Fe  Fe13  1  0.30185654  0.43215555  0.78497297  1
  Fe  Fe14  1  0.19814346  0.56784445  0.28497297  1
  Fe  Fe15  1  0.69814346  0.93215555  0.21502703  1
  Fe  Fe16  1  0.30729308  0.96270653  0.89205061  1
  Fe  Fe17  1  0.80729308  0.53729347  0.60794939  1
  Fe  Fe18  1  0.69270692  0.46270653  0.10794939  1
  Fe  Fe19  1  0.19270692  0.03729347  0.39205061  1
  Fe  Fe20  1  0.69270692  0.03729347  0.10794939  1
  Fe  Fe21  1  0.19270692  0.46270653  0.39205061  1
  Fe  Fe22  1  0.30729308  0.53729347  0.89205061  1
  Fe  Fe23  1  0.80729308  0.96270653  0.60794939  1
  Fe  Fe24  1  0.58610057  0.75000000  0.75005161  1
  Fe  Fe25  1  0.08610057  0.75000000  0.74994839  1
  Fe  Fe26  1  0.41389943  0.25000000  0.24994839  1
  Fe  Fe27  1  0.91389943  0.25000000  0.25005161  1
  Sb  Sb28  1  0.74951630  0.44164610  0.97957650  1
  Sb  Sb29  1  0.24951630  0.05835390  0.52042350  1
  Sb  Sb30  1  0.25048370  0.94164610  0.02042350  1
  Sb  Sb31  1  0.75048370  0.55835390  0.47957650  1
  Sb  Sb32  1  0.25048370  0.55835390  0.02042350  1
  Sb  Sb33  1  0.75048370  0.94164610  0.47957650  1
  Sb  Sb34  1  0.74951630  0.05835390  0.97957650  1
  Sb  Sb35  1  0.24951630  0.44164610  0.52042350  1
  Sb  Sb36  1  0.72227966  0.75000000  0.29027379  1
  Sb  Sb37  1  0.22227966  0.75000000  0.20972621  1
  Sb  Sb38  1  0.27772034  0.25000000  0.70972621  1
  Sb  Sb39  1  0.77772034  0.25000000  0.79027379  1
  P  P40  1  0.81450314  0.75000000  0.62667302  1
  P  P41  1  0.31450314  0.75000000  0.87332698  1
  P  P42  1  0.18549686  0.25000000  0.37332698  1
  P  P43  1  0.68549686  0.25000000  0.12667302  1
  P  P44  1  0.68686003  0.06555224  0.31174622  1
  P  P45  1  0.18686003  0.43444776  0.18825378  1
  P  P46  1  0.31313997  0.56555224  0.68825378  1
  P  P47  1  0.81313997  0.93444776  0.81174622  1
  P  P48  1  0.31313997  0.93444776  0.68825378  1
  P  P49  1  0.81313997  0.56555224  0.81174622  1
  P  P50  1  0.68686003  0.43444776  0.31174622  1
  P  P51  1  0.18686003  0.06555224  0.18825378  1
  Br  Br52  1  0.36391452  0.13112585  0.87790911  1
  Br  Br53  1  0.86391452  0.36887415  0.62209089  1
  Br  Br54  1  0.63608548  0.63112585  0.12209089  1
  Br  Br55  1  0.13608548  0.86887415  0.37790911  1
  Br  Br56  1  0.63608548  0.86887415  0.12209089  1
  Br  Br57  1  0.13608548  0.63112585  0.37790911  1
  Br  Br58  1  0.36391452  0.36887415  0.87790911  1
  Br  Br59  1  0.86391452  0.13112585  0.62209089  1
  Br  Br60  1  0.37769229  0.75000000  0.49420221  1
  Br  Br61  1  0.87769229  0.75000000  0.00579779  1
  Br  Br62  1  0.62230771  0.25000000  0.50579779  1
  Br  Br63  1  0.12230771  0.25000000  0.99420221  1
  O  O64  1  0.05049486  0.52911237  0.95451254  1
  O  O65  1  0.55049486  0.97088763  0.54548746  1
  O  O66  1  0.94950514  0.02911237  0.04548746  1
  O  O67  1  0.44950514  0.47088763  0.45451254  1
  O  O68  1  0.94950514  0.47088763  0.04548746  1
  O  O69  1  0.44950514  0.02911237  0.45451254  1
  O  O70  1  0.05049486  0.97088763  0.95451254  1
  O  O71  1  0.55049486  0.52911237  0.54548746  1
  O  O72  1  0.46934865  0.83451521  0.25309308  1
  O  O73  1  0.96934865  0.66548479  0.24690692  1
  O  O74  1  0.53065135  0.33451521  0.74690692  1
  O  O75  1  0.03065135  0.16548479  0.75309308  1
  O  O76  1  0.53065135  0.16548479  0.74690692  1
  O  O77  1  0.03065135  0.33451521  0.75309308  1
  O  O78  1  0.46934865  0.66548479  0.25309308  1
  O  O79  1  0.96934865  0.83451521  0.24690692  1
  O  O80  1  0.54912655  0.55547916  0.96353196  1
  O  O81  1  0.04912655  0.94452084  0.53646804  1
  O  O82  1  0.45087345  0.05547916  0.03646804  1
  O  O83  1  0.95087345  0.44452084  0.46353196  1
  O  O84  1  0.45087345  0.44452084  0.03646804  1
  O  O85  1  0.95087345  0.05547916  0.46353196  1
  O  O86  1  0.54912655  0.94452084  0.96353196  1
  O  O87  1  0.04912655  0.55547916  0.53646804  1
  O  O88  1  0.83579408  0.75000000  0.68665144  1
  O  O89  1  0.33579408  0.75000000  0.81334856  1
  O  O90  1  0.16420592  0.25000000  0.31334856  1
  O  O91  1  0.66420592  0.25000000  0.18665144  1
  O  O92  1  0.66356783  0.83170222  0.60832424  1
  O  O93  1  0.16356783  0.66829778  0.89167576  1
  O  O94  1  0.33643217  0.33170222  0.39167576  1
  O  O95  1  0.83643217  0.16829778  0.10832424  1
  O  O96  1  0.33643217  0.16829778  0.39167576  1
  O  O97  1  0.83643217  0.33170222  0.10832424  1
  O  O98  1  0.66356783  0.66829778  0.60832424  1
  O  O99  1  0.16356783  0.83170222  0.89167576  1
  O  O100  1  0.08242519  0.75000000  0.60172562  1
  O  O101  1  0.58242519  0.75000000  0.89827438  1
  O  O102  1  0.91757481  0.25000000  0.39827438  1
  O  O103  1  0.41757481  0.25000000  0.10172562  1
  O  O104  1  0.41776661  0.02761678  0.32381259  1
  O  O105  1  0.91776661  0.47238322  0.17618741  1
  O  O106  1  0.58223339  0.52761678  0.67618741  1
  O  O107  1  0.08223339  0.97238322  0.82381259  1
  O  O108  1  0.58223339  0.97238322  0.67618741  1
  O  O109  1  0.08223339  0.52761678  0.82381259  1
  O  O110  1  0.41776661  0.47238322  0.32381259  1
  O  O111  1  0.91776661  0.02761678  0.17618741  1
  O  O112  1  0.83694690  0.99739135  0.27998635  1
  O  O113  1  0.33694690  0.50260865  0.22001365  1
  O  O114  1  0.16305310  0.49739135  0.72001365  1
  O  O115  1  0.66305310  0.00260865  0.77998635  1
  O  O116  1  0.16305310  0.00260865  0.72001365  1
  O  O117  1  0.66305310  0.49739135  0.77998635  1
  O  O118  1  0.83694690  0.50260865  0.27998635  1
  O  O119  1  0.33694690  0.99739135  0.22001365  1
  O  O120  1  0.83644448  0.07841034  0.36220469  1
  O  O121  1  0.33644448  0.42158966  0.13779531  1
  O  O122  1  0.16355552  0.57841034  0.63779531  1
  O  O123  1  0.66355552  0.92158966  0.86220469  1
  O  O124  1  0.16355552  0.92158966  0.63779531  1
  O  O125  1  0.66355552  0.57841034  0.86220469  1
  O  O126  1  0.83644448  0.42158966  0.36220469  1
  O  O127  1  0.33644448  0.07841034  0.13779531  1
  O  O128  1  0.66397770  0.15505921  0.28211755  1
  O  O129  1  0.16397770  0.34494079  0.21788245  1
  O  O130  1  0.33602230  0.65505921  0.71788245  1
  O  O131  1  0.83602230  0.84494079  0.78211755  1
  O  O132  1  0.33602230  0.84494079  0.71788245  1
  O  O133  1  0.83602230  0.65505921  0.78211755  1
  O  O134  1  0.66397770  0.34494079  0.28211755  1
  O  O135  1  0.16397770  0.15505921  0.21788245  1
