# generated using pymatgen
data_Lu10In20Ni9
_symmetry_space_group_name_H-M   'P 1'
_cell_length_a   9.00383603
_cell_length_b   13.32233676
_cell_length_c   13.32233676
_cell_angle_alpha   90.00000000
_cell_angle_beta   90.00000000
_cell_angle_gamma   90.00000000
_symmetry_Int_Tables_number   1
_chemical_formula_structural   Lu10In20Ni9
_chemical_formula_sum   'Lu20 In40 Ni18'
_cell_volume   1598.04274719
_cell_formula_units_Z   2
loop_
 _symmetry_equiv_pos_site_id
 _symmetry_equiv_pos_as_xyz
  1  'x, y, z'
loop_
 _atom_site_type_symbol
 _atom_site_label
 _atom_site_symmetry_multiplicity
 _atom_site_fract_x
 _atom_site_fract_y
 _atom_site_fract_z
 _atom_site_occupancy
  Lu  Lu0  1  0.36100259  0.75000000  0.75000000  1
  Lu  Lu1  1  0.63899741  0.25000000  0.25000000  1
  Lu  Lu2  1  0.83666026  0.75000000  0.75000000  1
  Lu  Lu3  1  0.16333974  0.25000000  0.25000000  1
  Lu  Lu4  1  0.76809965  0.02570224  0.75000000  1
  Lu  Lu5  1  0.76809965  0.47429776  0.75000000  1
  Lu  Lu6  1  0.76809965  0.75000000  0.02570224  1
  Lu  Lu7  1  0.76809965  0.75000000  0.47429776  1
  Lu  Lu8  1  0.23190035  0.97429776  0.25000000  1
  Lu  Lu9  1  0.23190035  0.52570224  0.25000000  1
  Lu  Lu10  1  0.23190035  0.25000000  0.97429776  1
  Lu  Lu11  1  0.23190035  0.25000000  0.52570224  1
  Lu  Lu12  1  0.26578892  0.95198526  0.95198526  1
  Lu  Lu13  1  0.26578892  0.54801474  0.95198526  1
  Lu  Lu14  1  0.26578892  0.95198526  0.54801474  1
  Lu  Lu15  1  0.26578892  0.54801474  0.54801474  1
  Lu  Lu16  1  0.73421108  0.04801474  0.04801474  1
  Lu  Lu17  1  0.73421108  0.45198526  0.04801474  1
  Lu  Lu18  1  0.73421108  0.04801474  0.45198526  1
  Lu  Lu19  1  0.73421108  0.45198526  0.45198526  1
  In  In20  1  0.00000000  0.40414741  0.59585259  1
  In  In21  1  0.00000000  0.09585259  0.59585259  1
  In  In22  1  0.00000000  0.40414741  0.90414741  1
  In  In23  1  0.00000000  0.09585259  0.90414741  1
  In  In24  1  0.00000000  0.59585259  0.40414741  1
  In  In25  1  0.00000000  0.90414741  0.40414741  1
  In  In26  1  0.00000000  0.59585259  0.09585259  1
  In  In27  1  0.00000000  0.90414741  0.09585259  1
  In  In28  1  0.50000000  0.88229761  0.11770239  1
  In  In29  1  0.50000000  0.61770239  0.11770239  1
  In  In30  1  0.50000000  0.88229761  0.38229761  1
  In  In31  1  0.50000000  0.61770239  0.38229761  1
  In  In32  1  0.50000000  0.11770239  0.88229761  1
  In  In33  1  0.50000000  0.38229761  0.88229761  1
  In  In34  1  0.50000000  0.11770239  0.61770239  1
  In  In35  1  0.50000000  0.38229761  0.61770239  1
  In  In36  1  0.09473415  0.58420925  0.75000000  1
  In  In37  1  0.09473415  0.91579075  0.75000000  1
  In  In38  1  0.09473415  0.75000000  0.58420925  1
  In  In39  1  0.09473415  0.75000000  0.91579075  1
  In  In40  1  0.90526585  0.41579075  0.25000000  1
  In  In41  1  0.90526585  0.08420925  0.25000000  1
  In  In42  1  0.90526585  0.25000000  0.41579075  1
  In  In43  1  0.90526585  0.25000000  0.08420925  1
  In  In44  1  0.59072180  0.88190959  0.88190959  1
  In  In45  1  0.59072180  0.61809041  0.88190959  1
  In  In46  1  0.59072180  0.88190959  0.61809041  1
  In  In47  1  0.59072180  0.61809041  0.61809041  1
  In  In48  1  0.40927820  0.11809041  0.11809041  1
  In  In49  1  0.40927820  0.38190959  0.11809041  1
  In  In50  1  0.40927820  0.11809041  0.38190959  1
  In  In51  1  0.40927820  0.38190959  0.38190959  1
  In  In52  1  0.23597108  0.36541388  0.75000000  1
  In  In53  1  0.23597108  0.13458612  0.75000000  1
  In  In54  1  0.23597108  0.75000000  0.36541388  1
  In  In55  1  0.23597108  0.75000000  0.13458612  1
  In  In56  1  0.76402892  0.63458612  0.25000000  1
  In  In57  1  0.76402892  0.86541388  0.25000000  1
  In  In58  1  0.76402892  0.25000000  0.63458612  1
  In  In59  1  0.76402892  0.25000000  0.86541388  1
  Ni  Ni60  1  0.00000000  0.25000000  0.75000000  1
  Ni  Ni61  1  0.00000000  0.75000000  0.25000000  1
  Ni  Ni62  1  0.40928662  0.52750945  0.75000000  1
  Ni  Ni63  1  0.40928662  0.97249055  0.75000000  1
  Ni  Ni64  1  0.40928662  0.75000000  0.52750945  1
  Ni  Ni65  1  0.40928662  0.75000000  0.97249055  1
  Ni  Ni66  1  0.59071338  0.47249055  0.25000000  1
  Ni  Ni67  1  0.59071338  0.02750945  0.25000000  1
  Ni  Ni68  1  0.59071338  0.25000000  0.47249055  1
  Ni  Ni69  1  0.59071338  0.25000000  0.02750945  1
  Ni  Ni70  1  0.10335332  0.09446212  0.09446212  1
  Ni  Ni71  1  0.10335332  0.40553788  0.09446212  1
  Ni  Ni72  1  0.10335332  0.09446212  0.40553788  1
  Ni  Ni73  1  0.10335332  0.40553788  0.40553788  1
  Ni  Ni74  1  0.89664668  0.90553788  0.90553788  1
  Ni  Ni75  1  0.89664668  0.59446212  0.90553788  1
  Ni  Ni76  1  0.89664668  0.90553788  0.59446212  1
  Ni  Ni77  1  0.89664668  0.59446212  0.59446212  1
