# generated using pymatgen
data_Zn89(Cr2Au5)2
_symmetry_space_group_name_H-M   'P 1'
_cell_length_a   13.10852100
_cell_length_b   13.10852100
_cell_length_c   13.10852100
_cell_angle_alpha   60.00000000
_cell_angle_beta   60.00000000
_cell_angle_gamma   60.00000000
_symmetry_Int_Tables_number   1
_chemical_formula_structural   Zn89(Cr2Au5)2
_chemical_formula_sum   'Zn89 Cr4 Au10'
_cell_volume   1592.74439175
_cell_formula_units_Z   1
loop_
 _symmetry_equiv_pos_site_id
 _symmetry_equiv_pos_as_xyz
  1  'x, y, z'
loop_
 _atom_site_type_symbol
 _atom_site_label
 _atom_site_symmetry_multiplicity
 _atom_site_fract_x
 _atom_site_fract_y
 _atom_site_fract_z
 _atom_site_occupancy
  Zn  Zn0  1  0.16050837  0.94649721  0.94649721  1
  Zn  Zn1  1  0.94649721  0.16050837  0.94649721  1
  Zn  Zn2  1  0.94649721  0.94649721  0.16050837  1
  Zn  Zn3  1  0.94649721  0.94649721  0.94649721  1
  Zn  Zn4  1  0.18488261  0.81511739  0.81511739  1
  Zn  Zn5  1  0.18488261  0.81511739  0.18488261  1
  Zn  Zn6  1  0.18488261  0.18488261  0.81511739  1
  Zn  Zn7  1  0.81511739  0.18488261  0.18488261  1
  Zn  Zn8  1  0.81511739  0.18488261  0.81511739  1
  Zn  Zn9  1  0.81511739  0.81511739  0.18488261  1
  Zn  Zn10  1  0.33351528  0.71645883  0.97501294  1
  Zn  Zn11  1  0.33351528  0.97501294  0.97501294  1
  Zn  Zn12  1  0.33351528  0.97501294  0.71645883  1
  Zn  Zn13  1  0.71645883  0.33351528  0.97501294  1
  Zn  Zn14  1  0.97501294  0.33351528  0.71645883  1
  Zn  Zn15  1  0.97501294  0.33351528  0.97501294  1
  Zn  Zn16  1  0.97501294  0.97501294  0.33351528  1
  Zn  Zn17  1  0.97501294  0.71645883  0.33351528  1
  Zn  Zn18  1  0.71645883  0.97501294  0.33351528  1
  Zn  Zn19  1  0.97501294  0.97501294  0.71645883  1
  Zn  Zn20  1  0.71645883  0.97501294  0.97501294  1
  Zn  Zn21  1  0.97501294  0.71645883  0.97501294  1
  Zn  Zn22  1  0.14498053  0.35501947  0.35501947  1
  Zn  Zn23  1  0.14498053  0.35501947  0.14498053  1
  Zn  Zn24  1  0.14498053  0.14498053  0.35501947  1
  Zn  Zn25  1  0.35501947  0.14498053  0.14498053  1
  Zn  Zn26  1  0.35501947  0.14498053  0.35501947  1
  Zn  Zn27  1  0.35501947  0.35501947  0.14498053  1
  Zn  Zn28  1  0.99192484  0.55817133  0.22495192  1
  Zn  Zn29  1  0.99192484  0.22495192  0.22495192  1
  Zn  Zn30  1  0.99192484  0.22495192  0.55817133  1
  Zn  Zn31  1  0.55817133  0.99192484  0.22495192  1
  Zn  Zn32  1  0.22495192  0.99192484  0.55817133  1
  Zn  Zn33  1  0.22495192  0.99192484  0.22495192  1
  Zn  Zn34  1  0.22495192  0.22495192  0.99192484  1
  Zn  Zn35  1  0.22495192  0.55817133  0.99192484  1
  Zn  Zn36  1  0.55817133  0.22495192  0.99192484  1
  Zn  Zn37  1  0.22495192  0.22495192  0.55817133  1
  Zn  Zn38  1  0.55817133  0.22495192  0.22495192  1
  Zn  Zn39  1  0.22495192  0.55817133  0.22495192  1
  Zn  Zn40  1  0.50000000  0.50000000  0.50000000  1
  Zn  Zn41  1  0.24376816  0.58541061  0.58541061  1
  Zn  Zn42  1  0.58541061  0.24376816  0.58541061  1
  Zn  Zn43  1  0.58541061  0.58541061  0.24376816  1
  Zn  Zn44  1  0.58541061  0.58541061  0.58541061  1
  Zn  Zn45  1  0.74906685  0.55660169  0.34716573  1
  Zn  Zn46  1  0.74906685  0.34716573  0.34716573  1
  Zn  Zn47  1  0.74906685  0.34716573  0.55660169  1
  Zn  Zn48  1  0.55660169  0.74906685  0.34716573  1
  Zn  Zn49  1  0.34716573  0.74906685  0.55660169  1
  Zn  Zn50  1  0.34716573  0.74906685  0.34716573  1
  Zn  Zn51  1  0.34716573  0.34716573  0.74906685  1
  Zn  Zn52  1  0.34716573  0.55660169  0.74906685  1
  Zn  Zn53  1  0.55660169  0.34716573  0.74906685  1
  Zn  Zn54  1  0.34716573  0.34716573  0.55660169  1
  Zn  Zn55  1  0.55660169  0.34716573  0.34716573  1
  Zn  Zn56  1  0.34716573  0.55660169  0.34716573  1
  Zn  Zn57  1  0.90287143  0.14886810  0.47413024  1
  Zn  Zn58  1  0.90287143  0.47413024  0.47413024  1
  Zn  Zn59  1  0.90287143  0.47413024  0.14886810  1
  Zn  Zn60  1  0.14886810  0.90287143  0.47413024  1
  Zn  Zn61  1  0.47413024  0.90287143  0.14886810  1
  Zn  Zn62  1  0.47413024  0.90287143  0.47413024  1
  Zn  Zn63  1  0.47413024  0.47413024  0.90287143  1
  Zn  Zn64  1  0.47413024  0.14886810  0.90287143  1
  Zn  Zn65  1  0.14886810  0.47413024  0.90287143  1
  Zn  Zn66  1  0.47413024  0.47413024  0.14886810  1
  Zn  Zn67  1  0.14886810  0.47413024  0.47413024  1
  Zn  Zn68  1  0.47413024  0.14886810  0.47413024  1
  Zn  Zn69  1  0.95923529  0.68025490  0.68025490  1
  Zn  Zn70  1  0.68025490  0.95923529  0.68025490  1
  Zn  Zn71  1  0.68025490  0.68025490  0.95923529  1
  Zn  Zn72  1  0.68025490  0.68025490  0.68025490  1
  Zn  Zn73  1  0.51195440  0.82934853  0.82934853  1
  Zn  Zn74  1  0.82934853  0.51195440  0.82934853  1
  Zn  Zn75  1  0.82934853  0.82934853  0.51195440  1
  Zn  Zn76  1  0.82934853  0.82934853  0.82934853  1
  Zn  Zn77  1  0.43563600  0.10523501  0.72956450  1
  Zn  Zn78  1  0.43563600  0.72956450  0.72956450  1
  Zn  Zn79  1  0.43563600  0.72956450  0.10523501  1
  Zn  Zn80  1  0.10523501  0.43563600  0.72956450  1
  Zn  Zn81  1  0.72956450  0.43563600  0.10523501  1
  Zn  Zn82  1  0.72956450  0.43563600  0.72956450  1
  Zn  Zn83  1  0.72956450  0.72956450  0.43563600  1
  Zn  Zn84  1  0.72956450  0.10523501  0.43563600  1
  Zn  Zn85  1  0.10523501  0.72956450  0.43563600  1
  Zn  Zn86  1  0.72956450  0.72956450  0.10523501  1
  Zn  Zn87  1  0.10523501  0.72956450  0.72956450  1
  Zn  Zn88  1  0.72956450  0.10523501  0.72956450  1
  Cr  Cr89  1  0.94731015  0.35089662  0.35089662  1
  Cr  Cr90  1  0.35089662  0.94731015  0.35089662  1
  Cr  Cr91  1  0.35089662  0.35089662  0.94731015  1
  Cr  Cr92  1  0.35089662  0.35089662  0.35089662  1
  Au  Au93  1  0.73850598  0.08716467  0.08716467  1
  Au  Au94  1  0.08716467  0.73850598  0.08716467  1
  Au  Au95  1  0.08716467  0.08716467  0.73850598  1
  Au  Au96  1  0.08716467  0.08716467  0.08716467  1
  Au  Au97  1  0.57947957  0.92052043  0.92052043  1
  Au  Au98  1  0.57947957  0.92052043  0.57947957  1
  Au  Au99  1  0.57947957  0.57947957  0.92052043  1
  Au  Au100  1  0.92052043  0.57947957  0.57947957  1
  Au  Au101  1  0.92052043  0.57947957  0.92052043  1
  Au  Au102  1  0.92052043  0.92052043  0.57947957  1
