# generated using pymatgen
data_Tb3Ni19B10
_symmetry_space_group_name_H-M   'P 1'
_cell_length_a   5.78733334
_cell_length_b   7.89328529
_cell_length_c   7.89328529
_cell_angle_alpha   67.14541200
_cell_angle_beta   88.89949816
_cell_angle_gamma   88.89949816
_symmetry_Int_Tables_number   1
_chemical_formula_structural   Tb3Ni19B10
_chemical_formula_sum   'Tb3 Ni19 B10'
_cell_volume   332.17808065
_cell_formula_units_Z   1
loop_
 _symmetry_equiv_pos_site_id
 _symmetry_equiv_pos_as_xyz
  1  'x, y, z'
loop_
 _atom_site_type_symbol
 _atom_site_label
 _atom_site_symmetry_multiplicity
 _atom_site_fract_x
 _atom_site_fract_y
 _atom_site_fract_z
 _atom_site_occupancy
  Tb  Tb0  1  -0.00000000  0.00000000  0.00000000  1
  Tb  Tb1  1  0.61496875  0.62553003  0.62553003  1
  Tb  Tb2  1  0.38503125  0.37446997  0.37446997  1
  Ni  Ni3  1  0.50000000  0.00000000  0.00000000  1
  Ni  Ni4  1  0.12701153  0.62219472  0.62219472  1
  Ni  Ni5  1  0.87298847  0.37780528  0.37780528  1
  Ni  Ni6  1  0.29689451  0.16267425  0.16267425  1
  Ni  Ni7  1  0.70310549  0.83732575  0.83732575  1
  Ni  Ni8  1  0.72910033  0.18209200  0.18209200  1
  Ni  Ni9  1  0.27089967  0.81790800  0.81790800  1
  Ni  Ni10  1  0.30199390  0.95532461  0.48272816  1
  Ni  Ni11  1  0.30199390  0.48272816  0.95532461  1
  Ni  Ni12  1  0.69800610  0.04467539  0.51727184  1
  Ni  Ni13  1  0.69800610  0.51727184  0.04467539  1
  Ni  Ni14  1  0.07306527  0.62289029  0.12201124  1
  Ni  Ni15  1  0.07306527  0.12201124  0.62289029  1
  Ni  Ni16  1  0.92693473  0.37710971  0.87798876  1
  Ni  Ni17  1  0.92693473  0.87798876  0.37710971  1
  Ni  Ni18  1  0.30186199  0.28920999  0.77034002  1
  Ni  Ni19  1  0.30186199  0.77034002  0.28920999  1
  Ni  Ni20  1  0.69813801  0.71079001  0.22965998  1
  Ni  Ni21  1  0.69813801  0.22965998  0.71079001  1
  B  B22  1  -0.00000000  0.61596652  0.38403348  1
  B  B23  1  -0.00000000  0.38403348  0.61596652  1
  B  B24  1  0.97529535  0.85762755  0.65073690  1
  B  B25  1  0.97529535  0.65073690  0.85762755  1
  B  B26  1  0.02470465  0.14237245  0.34926310  1
  B  B27  1  0.02470465  0.34926310  0.14237245  1
  B  B28  1  0.56930540  0.30020845  0.93564374  1
  B  B29  1  0.56930540  0.93564374  0.30020845  1
  B  B30  1  0.43069460  0.69979155  0.06435626  1
  B  B31  1  0.43069460  0.06435626  0.69979155  1
