# generated using pymatgen
data_PuTeSO7
_symmetry_space_group_name_H-M   'P 1'
_cell_length_a   5.55564283
_cell_length_b   7.62497915
_cell_length_c   13.74383141
_cell_angle_alpha   90.00000000
_cell_angle_beta   90.00000000
_cell_angle_gamma   108.94159515
_symmetry_Int_Tables_number   1
_chemical_formula_structural   PuTeSO7
_chemical_formula_sum   'Pu4 Te4 S4 O28'
_cell_volume   550.68474322
_cell_formula_units_Z   4
loop_
 _symmetry_equiv_pos_site_id
 _symmetry_equiv_pos_as_xyz
  1  'x, y, z'
loop_
 _atom_site_type_symbol
 _atom_site_label
 _atom_site_symmetry_multiplicity
 _atom_site_fract_x
 _atom_site_fract_y
 _atom_site_fract_z
 _atom_site_occupancy
  Pu  Pu0  1  0.58647693  0.41454604  0.86771482  1
  Pu  Pu1  1  0.91352307  0.58545396  0.36771482  1
  Pu  Pu2  1  0.41352307  0.58545396  0.13228518  1
  Pu  Pu3  1  0.08647693  0.41454604  0.63228518  1
  Te  Te4  1  0.27215906  0.73805686  0.87318710  1
  Te  Te5  1  0.22784094  0.26194314  0.37318710  1
  Te  Te6  1  0.72784094  0.26194314  0.12681290  1
  Te  Te7  1  0.77215906  0.73805686  0.62681290  1
  S  S8  1  0.89792706  0.12289257  0.86168829  1
  S  S9  1  0.60207294  0.87710743  0.36168829  1
  S  S10  1  0.10207294  0.87710743  0.13831171  1
  S  S11  1  0.39792706  0.12289257  0.63831171  1
  O  O12  1  0.33069969  0.57072418  0.77893192  1
  O  O13  1  0.16930031  0.42927582  0.27893192  1
  O  O14  1  0.66930031  0.42927582  0.22106808  1
  O  O15  1  0.83069969  0.57072418  0.72106808  1
  O  O16  1  0.86890726  0.25210614  0.78157450  1
  O  O17  1  0.63109274  0.74789386  0.28157450  1
  O  O18  1  0.13109274  0.74789386  0.21842550  1
  O  O19  1  0.36890726  0.25210614  0.71842550  1
  O  O20  1  0.45585914  0.62924270  0.95852928  1
  O  O21  1  0.04414086  0.37075730  0.45852928  1
  O  O22  1  0.54414086  0.37075730  0.04147072  1
  O  O23  1  0.95585914  0.62924270  0.54147072  1
  O  O24  1  0.70630767  0.14292439  0.93501116  1
  O  O25  1  0.79369233  0.85707561  0.43501116  1
  O  O26  1  0.29369233  0.85707561  0.06498884  1
  O  O27  1  0.20630767  0.14292439  0.56498884  1
  O  O28  1  0.82848772  0.93147990  0.82667091  1
  O  O29  1  0.67151228  0.06852010  0.32667091  1
  O  O30  1  0.17151228  0.06852010  0.17332909  1
  O  O31  1  0.32848772  0.93147990  0.67332909  1
  O  O32  1  0.15786480  0.18804725  0.90219971  1
  O  O33  1  0.34213520  0.81195275  0.40219971  1
  O  O34  1  0.84213520  0.81195275  0.09780029  1
  O  O35  1  0.65786480  0.18804725  0.59780029  1
  O  O36  1  0.94708769  0.58048001  0.91389327  1
  O  O37  1  0.55291231  0.41951999  0.41389327  1
  O  O38  1  0.05291231  0.41951999  0.08610673  1
  O  O39  1  0.44708769  0.58048001  0.58610673  1
