# generated using pymatgen
data_La9Sb5CO4
_symmetry_space_group_name_H-M   'P 1'
_cell_length_a   9.44475030
_cell_length_b   10.58493346
_cell_length_c   10.58493346
_cell_angle_alpha   90.00000000
_cell_angle_beta   90.00000000
_cell_angle_gamma   90.00000000
_symmetry_Int_Tables_number   1
_chemical_formula_structural   La9Sb5CO4
_chemical_formula_sum   'La18 Sb10 C2 O8'
_cell_volume   1058.19753386
_cell_formula_units_Z   2
loop_
 _symmetry_equiv_pos_site_id
 _symmetry_equiv_pos_as_xyz
  1  'x, y, z'
loop_
 _atom_site_type_symbol
 _atom_site_label
 _atom_site_symmetry_multiplicity
 _atom_site_fract_x
 _atom_site_fract_y
 _atom_site_fract_z
 _atom_site_occupancy
  La  La0  1  0.32255520  0.75000000  0.75000000  1
  La  La1  1  0.67744480  0.25000000  0.25000000  1
  La  La2  1  0.65906359  0.04662938  0.85378537  1
  La  La3  1  0.65906359  0.45337062  0.64621463  1
  La  La4  1  0.65906359  0.85378537  0.45337062  1
  La  La5  1  0.65906359  0.64621463  0.04662938  1
  La  La6  1  0.34093641  0.95337062  0.14621463  1
  La  La7  1  0.34093641  0.54662938  0.35378537  1
  La  La8  1  0.34093641  0.14621463  0.54662938  1
  La  La9  1  0.34093641  0.35378537  0.95337062  1
  La  La10  1  0.99836046  0.97621780  0.67059928  1
  La  La11  1  0.99836046  0.52378220  0.82940072  1
  La  La12  1  0.99836046  0.67059928  0.52378220  1
  La  La13  1  0.99836046  0.82940072  0.97621780  1
  La  La14  1  0.00163954  0.02378220  0.32940072  1
  La  La15  1  0.00163954  0.47621780  0.17059928  1
  La  La16  1  0.00163954  0.32940072  0.47621780  1
  La  La17  1  0.00163954  0.17059928  0.02378220  1
  Sb  Sb18  1  0.69221605  0.75000000  0.75000000  1
  Sb  Sb19  1  0.30778395  0.25000000  0.25000000  1
  Sb  Sb20  1  0.30183084  0.05454935  0.84790628  1
  Sb  Sb21  1  0.30183084  0.44545065  0.65209372  1
  Sb  Sb22  1  0.30183084  0.84790628  0.44545065  1
  Sb  Sb23  1  0.30183084  0.65209372  0.05454935  1
  Sb  Sb24  1  0.69816916  0.94545065  0.15209372  1
  Sb  Sb25  1  0.69816916  0.55454935  0.34790628  1
  Sb  Sb26  1  0.69816916  0.15209372  0.55454935  1
  Sb  Sb27  1  0.69816916  0.34790628  0.94545065  1
  C  C28  1  0.07326164  0.75000000  0.75000000  1
  C  C29  1  0.92673836  0.25000000  0.25000000  1
  O  O30  1  0.90322293  0.02586454  0.87093611  1
  O  O31  1  0.90322293  0.47413546  0.62906389  1
  O  O32  1  0.90322293  0.87093611  0.47413546  1
  O  O33  1  0.90322293  0.62906389  0.02586454  1
  O  O34  1  0.09677707  0.97413546  0.12906389  1
  O  O35  1  0.09677707  0.52586454  0.37093611  1
  O  O36  1  0.09677707  0.12906389  0.52586454  1
  O  O37  1  0.09677707  0.37093611  0.97413546  1
