# generated using pymatgen
data_Sr2SnH18(SeO3)4
_symmetry_space_group_name_H-M   'P 1'
_cell_length_a   5.99180486
_cell_length_b   8.51171027
_cell_length_c   9.70972271
_cell_angle_alpha   97.08778353
_cell_angle_beta   103.83720236
_cell_angle_gamma   110.39823262
_symmetry_Int_Tables_number   1
_chemical_formula_structural   Sr2SnH18(SeO3)4
_chemical_formula_sum   'Sr2 Sn1 H18 Se4 O12'
_cell_volume   438.89483651
_cell_formula_units_Z   1
loop_
 _symmetry_equiv_pos_site_id
 _symmetry_equiv_pos_as_xyz
  1  'x, y, z'
loop_
 _atom_site_type_symbol
 _atom_site_label
 _atom_site_symmetry_multiplicity
 _atom_site_fract_x
 _atom_site_fract_y
 _atom_site_fract_z
 _atom_site_occupancy
  Sr  Sr0  1  0.66629159  0.79909631  0.03791648  1
  Sr  Sr1  1  0.33370841  0.20090369  0.96208352  1
  Sn  Sn2  1  0.00000000  0.50000000  0.00000000  1
  H  H3  1  0.79562718  0.51610549  0.21062041  1
  H  H4  1  0.20437282  0.48389451  0.78937959  1
  H  H5  1  0.31721257  0.72965702  0.24343483  1
  H  H6  1  0.68278743  0.27034298  0.75656517  1
  H  H7  1  0.78584807  0.59705873  0.77673845  1
  H  H8  1  0.21415193  0.40294127  0.22326155  1
  H  H9  1  0.21987645  0.90087575  0.13537286  1
  H  H10  1  0.78012355  0.09912425  0.86462714  1
  H  H11  1  0.22638639  0.06106169  0.23734327  1
  H  H12  1  0.77361361  0.93893831  0.76265673  1
  H  H13  1  0.14282012  0.80249107  0.85849533  1
  H  H14  1  0.85717988  0.19750893  0.14150467  1
  H  H15  1  0.31408869  0.86896771  0.75795389  1
  H  H16  1  0.68591131  0.13103229  0.24204611  1
  H  H17  1  0.99555610  0.84340803  0.38013048  1
  H  H18  1  0.00444390  0.15659197  0.61986952  1
  H  H19  1  0.74037211  0.84938519  0.38890729  1
  H  H20  1  0.25962789  0.15061481  0.61109271  1
  Se  Se21  1  0.78457043  0.48732890  0.48503354  1
  Se  Se22  1  0.21542957  0.51267110  0.51496646  1
  Se  Se23  1  0.59983475  0.19000088  0.48070345  1
  Se  Se24  1  0.40016525  0.80999912  0.51929655  1
  O  O25  1  0.73993219  0.50984114  0.10548379  1
  O  O26  1  0.26006781  0.49015886  0.89451621  1
  O  O27  1  0.28578673  0.72721186  0.13845617  1
  O  O28  1  0.71421327  0.27278814  0.86154383  1
  O  O29  1  0.88372372  0.66009901  0.87758716  1
  O  O30  1  0.11627628  0.33990099  0.12241284  1
  O  O31  1  0.15627950  0.99638637  0.13543618  1
  O  O32  1  0.84372050  0.00361363  0.86456382  1
  O  O33  1  0.31206493  0.88531632  0.86017534  1
  O  O34  1  0.68793507  0.11468368  0.13982466  1
  O  O35  1  0.84554451  0.85724910  0.32431750  1
  O  O36  1  0.15445549  0.14275090  0.67568250  1
