# generated using pymatgen
data_Mg2PH7O8
_symmetry_space_group_name_H-M   'P 1'
_cell_length_a   4.78742022
_cell_length_b   10.39923582
_cell_length_c   13.02226010
_cell_angle_alpha   90.00000000
_cell_angle_beta   90.00000000
_cell_angle_gamma   101.42930027
_symmetry_Int_Tables_number   1
_chemical_formula_structural   Mg2PH7O8
_chemical_formula_sum   'Mg8 P4 H28 O32'
_cell_volume   635.46367976
_cell_formula_units_Z   4
loop_
 _symmetry_equiv_pos_site_id
 _symmetry_equiv_pos_as_xyz
  1  'x, y, z'
loop_
 _atom_site_type_symbol
 _atom_site_label
 _atom_site_symmetry_multiplicity
 _atom_site_fract_x
 _atom_site_fract_y
 _atom_site_fract_z
 _atom_site_occupancy
  Mg  Mg0  1  0.60834990  0.65445869  0.98731565  1
  Mg  Mg1  1  0.89165010  0.84554131  0.48731565  1
  Mg  Mg2  1  0.39165010  0.34554131  0.01268435  1
  Mg  Mg3  1  0.10834990  0.15445869  0.51268435  1
  Mg  Mg4  1  0.06353714  0.99713530  0.71128853  1
  Mg  Mg5  1  0.43646286  0.50286470  0.21128853  1
  Mg  Mg6  1  0.93646286  0.00286470  0.28871147  1
  Mg  Mg7  1  0.56353714  0.49713530  0.78871147  1
  P  P8  1  0.12793378  0.72094288  0.81986406  1
  P  P9  1  0.37206622  0.77905712  0.31986406  1
  P  P10  1  0.87206622  0.27905712  0.18013594  1
  P  P11  1  0.62793378  0.22094288  0.68013594  1
  H  H12  1  0.09958641  0.53247065  0.06363076  1
  H  H13  1  0.40041359  0.96752935  0.56363076  1
  H  H14  1  0.90041359  0.46752935  0.93636924  1
  H  H15  1  0.59958641  0.03247065  0.43636924  1
  H  H16  1  0.97534451  0.66170955  0.18265068  1
  H  H17  1  0.52465549  0.83829045  0.68265068  1
  H  H18  1  0.02465549  0.33829045  0.81734932  1
  H  H19  1  0.47534451  0.16170955  0.31734932  1
  H  H20  1  0.73066622  0.74304006  0.18061882  1
  H  H21  1  0.76933378  0.75695994  0.68061882  1
  H  H22  1  0.26933378  0.25695994  0.81938118  1
  H  H23  1  0.23066622  0.24304006  0.31938118  1
  H  H24  1  0.26752367  0.81699281  0.00453385  1
  H  H25  1  0.23247633  0.68300719  0.50453385  1
  H  H26  1  0.73247633  0.18300719  0.99546615  1
  H  H27  1  0.76752367  0.31699281  0.49546615  1
  H  H28  1  0.47653109  0.85075912  0.10111011  1
  H  H29  1  0.02346891  0.64924088  0.60111011  1
  H  H30  1  0.52346891  0.14924088  0.89888989  1
  H  H31  1  0.97653109  0.35075912  0.39888989  1
  H  H32  1  0.86907440  0.91147345  0.88608074  1
  H  H33  1  0.63092560  0.58852655  0.38608074  1
  H  H34  1  0.13092560  0.08852655  0.11391926  1
  H  H35  1  0.36907440  0.41147345  0.61391926  1
  H  H36  1  0.62560639  0.96350038  0.82890833  1
  H  H37  1  0.87439361  0.53649962  0.32890833  1
  H  H38  1  0.37439361  0.03649962  0.17109167  1
  H  H39  1  0.12560639  0.46350038  0.67109167  1
  O  O40  1  0.27291304  0.85041384  0.76483221  1
  O  O41  1  0.22708696  0.64958616  0.26483221  1
  O  O42  1  0.72708696  0.14958616  0.23516779  1
  O  O43  1  0.77291304  0.35041384  0.73516779  1
  O  O44  1  0.90692411  0.64110224  0.74348621  1
  O  O45  1  0.59307589  0.85889776  0.24348621  1
  O  O46  1  0.09307589  0.35889776  0.25651379  1
  O  O47  1  0.40692411  0.14110224  0.75651379  1
  O  O48  1  0.35198013  0.63923015  0.85145222  1
  O  O49  1  0.14801987  0.86076985  0.35145222  1
  O  O50  1  0.64801987  0.36076985  0.14854778  1
  O  O51  1  0.85198013  0.13923015  0.64854778  1
  O  O52  1  0.97372936  0.75938458  0.91775226  1
  O  O53  1  0.52627064  0.74061542  0.41775226  1
  O  O54  1  0.02627064  0.24061542  0.08224774  1
  O  O55  1  0.47372936  0.25938458  0.58224774  1
  O  O56  1  0.29428314  0.51903229  0.06366877  1
  O  O57  1  0.20571686  0.98096771  0.56366877  1
  O  O58  1  0.70571686  0.48096771  0.93633123  1
  O  O59  1  0.79428314  0.01903229  0.43633123  1
  O  O60  1  0.78765189  0.66456714  0.14733511  1
  O  O61  1  0.71234811  0.83543286  0.64733511  1
  O  O62  1  0.21234811  0.33543286  0.85266489  1
  O  O63  1  0.28765189  0.16456714  0.35266489  1
  O  O64  1  0.46563805  0.82195470  0.02876367  1
  O  O65  1  0.03436195  0.67804530  0.52876367  1
  O  O66  1  0.53436195  0.17804530  0.97123633  1
  O  O67  1  0.96563805  0.32195470  0.47123633  1
  O  O68  1  0.82981144  0.98739917  0.84569624  1
  O  O69  1  0.67018856  0.51260083  0.34569624  1
  O  O70  1  0.17018856  0.01260083  0.15430376  1
  O  O71  1  0.32981144  0.48739917  0.65430376  1
