# generated using pymatgen
data_UH10Cl2O15
_symmetry_space_group_name_H-M   'P 1'
_cell_length_a   5.49977011
_cell_length_b   15.01194678
_cell_length_c   15.80306683
_cell_angle_alpha   90.00000000
_cell_angle_beta   90.00000000
_cell_angle_gamma   97.97063207
_symmetry_Int_Tables_number   1
_chemical_formula_structural   UH10Cl2O15
_chemical_formula_sum   'U4 H40 Cl8 O60'
_cell_volume   1292.13214771
_cell_formula_units_Z   4
loop_
 _symmetry_equiv_pos_site_id
 _symmetry_equiv_pos_as_xyz
  1  'x, y, z'
loop_
 _atom_site_type_symbol
 _atom_site_label
 _atom_site_symmetry_multiplicity
 _atom_site_fract_x
 _atom_site_fract_y
 _atom_site_fract_z
 _atom_site_occupancy
  U  U0  1  0.26929860  0.79685469  0.39128053  1
  U  U1  1  0.76929860  0.29685469  0.10871947  1
  U  U2  1  0.73070140  0.20314531  0.60871947  1
  U  U3  1  0.23070140  0.70314531  0.89128053  1
  H  H4  1  0.42312247  0.71506433  0.55456938  1
  H  H5  1  0.92312247  0.21506433  0.94543062  1
  H  H6  1  0.57687753  0.28493567  0.44543062  1
  H  H7  1  0.07687753  0.78493567  0.05456938  1
  H  H8  1  0.19592594  0.76989747  0.58275328  1
  H  H9  1  0.69592594  0.26989747  0.91724672  1
  H  H10  1  0.80407406  0.23010253  0.41724672  1
  H  H11  1  0.30407406  0.73010253  0.08275328  1
  H  H12  1  0.32995804  0.97109576  0.28240827  1
  H  H13  1  0.82995804  0.47109576  0.21759173  1
  H  H14  1  0.67004196  0.02890424  0.71759173  1
  H  H15  1  0.17004196  0.52890424  0.78240827  1
  H  H16  1  0.53270008  0.91126753  0.25001467  1
  H  H17  1  0.03270008  0.41126753  0.24998533  1
  H  H18  1  0.46729992  0.08873247  0.74998533  1
  H  H19  1  0.96729992  0.58873247  0.75001467  1
  H  H20  1  0.08131101  0.59103585  0.40780744  1
  H  H21  1  0.58131101  0.09103585  0.09219256  1
  H  H22  1  0.91868899  0.40896415  0.59219256  1
  H  H23  1  0.41868899  0.90896415  0.90780744  1
  H  H24  1  0.87201876  0.64350867  0.44357382  1
  H  H25  1  0.37201876  0.14350867  0.05642618  1
  H  H26  1  0.12798124  0.35649133  0.55642618  1
  H  H27  1  0.62798124  0.85649133  0.94357382  1
  H  H28  1  0.94639266  0.79495918  0.23498791  1
  H  H29  1  0.44639266  0.29495918  0.26501209  1
  H  H30  1  0.05360734  0.20504082  0.76501209  1
  H  H31  1  0.55360734  0.70504082  0.73498791  1
  H  H32  1  0.95707547  0.69119041  0.25318196  1
  H  H33  1  0.45707547  0.19119041  0.24681804  1
  H  H34  1  0.04292453  0.30880959  0.74681804  1
  H  H35  1  0.54292453  0.80880959  0.75318196  1
  H  H36  1  0.57156154  0.93849203  0.51436024  1
  H  H37  1  0.07156154  0.43849203  0.98563976  1
  H  H38  1  0.42843846  0.06150797  0.48563976  1
  H  H39  1  0.92843846  0.56150797  0.01436024  1
  H  H40  1  0.73984161  0.92632542  0.43683885  1
  H  H41  1  0.23984161  0.42632542  0.06316115  1
  H  H42  1  0.26015839  0.07367458  0.56316115  1
  H  H43  1  0.76015839  0.57367458  0.93683885  1
  Cl  Cl44  1  0.51356889  0.60137569  0.17082409  1
  Cl  Cl45  1  0.01356889  0.10137569  0.32917591  1
  Cl  Cl46  1  0.48643111  0.39862431  0.82917591  1
  Cl  Cl47  1  0.98643111  0.89862431  0.67082409  1
  Cl  Cl48  1  0.84370376  0.93047185  0.11004862  1
  Cl  Cl49  1  0.34370376  0.43047185  0.38995138  1
  Cl  Cl50  1  0.15629624  0.06952815  0.88995138  1
  Cl  Cl51  1  0.65629624  0.56952815  0.61004862  1
  O  O52  1  0.52758315  0.74282363  0.36168674  1
  O  O53  1  0.02758315  0.24282363  0.13831326  1
  O  O54  1  0.47241685  0.25717637  0.63831326  1
  O  O55  1  0.97241685  0.75717637  0.86168674  1
  O  O56  1  0.01742431  0.85214793  0.42513404  1
  O  O57  1  0.51742431  0.35214793  0.07486596  1
  O  O58  1  0.98257569  0.14785207  0.57486596  1
  O  O59  1  0.48257569  0.64785207  0.92513404  1
  O  O60  1  0.31513578  0.75974717  0.53748361  1
  O  O61  1  0.81513578  0.25974717  0.96251639  1
  O  O62  1  0.68486422  0.24025283  0.46251639  1
  O  O63  1  0.18486422  0.74025283  0.03748361  1
  O  O64  1  0.38405231  0.91094800  0.28567557  1
  O  O65  1  0.88405231  0.41094800  0.21432443  1
  O  O66  1  0.61594769  0.08905200  0.71432443  1
  O  O67  1  0.11594769  0.58905200  0.78567557  1
  O  O68  1  0.02394326  0.65059778  0.41004742  1
  O  O69  1  0.52394326  0.15059778  0.08995258  1
  O  O70  1  0.97605674  0.34940222  0.58995258  1
  O  O71  1  0.47605674  0.84940222  0.91004742  1
  O  O72  1  0.04824909  0.75228365  0.25968305  1
  O  O73  1  0.54824909  0.25228365  0.24031695  1
  O  O74  1  0.95175091  0.24771635  0.74031695  1
  O  O75  1  0.45175091  0.74771635  0.75968305  1
  O  O76  1  0.56666820  0.92168736  0.45463714  1
  O  O77  1  0.06666820  0.42168736  0.04536286  1
  O  O78  1  0.43333180  0.07831264  0.54536286  1
  O  O79  1  0.93333180  0.57831264  0.95463714  1
  O  O80  1  0.73829278  0.58768153  0.21822338  1
  O  O81  1  0.23829278  0.08768153  0.28177662  1
  O  O82  1  0.26170722  0.41231847  0.78177662  1
  O  O83  1  0.76170722  0.91231847  0.71822338  1
  O  O84  1  0.49572865  0.54325519  0.09651358  1
  O  O85  1  0.99572865  0.04325519  0.40348642  1
  O  O86  1  0.50427135  0.45674481  0.90348642  1
  O  O87  1  0.00427135  0.95674481  0.59651358  1
  O  O88  1  0.54174567  0.69617973  0.14404914  1
  O  O89  1  0.04174567  0.19617973  0.35595086  1
  O  O90  1  0.45825433  0.30382027  0.85595086  1
  O  O91  1  0.95825433  0.80382027  0.64404914  1
  O  O92  1  0.29890654  0.58084844  0.22386696  1
  O  O93  1  0.79890654  0.08084844  0.27613304  1
  O  O94  1  0.70109346  0.41915156  0.77613304  1
  O  O95  1  0.20109346  0.91915156  0.72386696  1
  O  O96  1  0.85167185  0.85639678  0.04867582  1
  O  O97  1  0.35167185  0.35639678  0.45132418  1
  O  O98  1  0.14832815  0.14360322  0.95132418  1
  O  O99  1  0.64832815  0.64360322  0.54867582  1
  O  O100  1  0.80541031  0.89002063  0.19572086  1
  O  O101  1  0.30541031  0.39002063  0.30427914  1
  O  O102  1  0.19458969  0.10997937  0.80427914  1
  O  O103  1  0.69458969  0.60997937  0.69572086  1
  O  O104  1  0.63144219  0.97472319  0.08956118  1
  O  O105  1  0.13144219  0.47472319  0.41043882  1
  O  O106  1  0.36855781  0.02527681  0.91043882  1
  O  O107  1  0.86855781  0.52527681  0.58956118  1
  O  O108  1  0.06918265  0.99128140  0.10785383  1
  O  O109  1  0.56918265  0.49128140  0.39214617  1
  O  O110  1  0.93081735  0.00871860  0.89214617  1
  O  O111  1  0.43081735  0.50871860  0.60785383  1
