# generated using pymatgen
data_RbAlP2(HO4)2
_symmetry_space_group_name_H-M   'P 1'
_cell_length_a   8.23529890
_cell_length_b   8.23529890
_cell_length_c   17.82336615
_cell_angle_alpha   76.64255411
_cell_angle_beta   76.64255411
_cell_angle_gamma   60.00000116
_symmetry_Int_Tables_number   1
_chemical_formula_structural   RbAlP2(HO4)2
_chemical_formula_sum   'Rb6 Al6 P12 H12 O48'
_cell_volume   1008.90136037
_cell_formula_units_Z   6
loop_
 _symmetry_equiv_pos_site_id
 _symmetry_equiv_pos_as_xyz
  1  'x, y, z'
loop_
 _atom_site_type_symbol
 _atom_site_label
 _atom_site_symmetry_multiplicity
 _atom_site_fract_x
 _atom_site_fract_y
 _atom_site_fract_z
 _atom_site_occupancy
  Rb  Rb0  1  0.25000000  0.25000000  0.25000000  1
  Rb  Rb1  1  0.75000000  0.75000000  0.75000000  1
  Rb  Rb2  1  0.16664478  0.16664478  0.50006565  1
  Rb  Rb3  1  0.66664478  0.66664478  0.00006565  1
  Rb  Rb4  1  0.83335522  0.83335522  0.49993435  1
  Rb  Rb5  1  0.33335522  0.33335522  0.99993435  1
  Al  Al6  1  0.50000000  0.50000000  0.50000000  1
  Al  Al7  1  0.00000000  -0.00000000  -0.00000000  1
  Al  Al8  1  0.58765805  0.58765705  0.23702785  1
  Al  Al9  1  0.08765805  0.08765705  0.73702785  1
  Al  Al10  1  0.41234195  0.41234295  0.76297215  1
  Al  Al11  1  0.91234195  0.91234295  0.26297215  1
  P  P12  1  0.60751475  0.24703850  0.36138501  1
  P  P13  1  0.24703850  0.78406174  0.36138501  1
  P  P14  1  0.78406174  0.60751475  0.36138501  1
  P  P15  1  0.10751475  0.28406174  0.86138501  1
  P  P16  1  0.28406174  0.74703850  0.86138501  1
  P  P17  1  0.74703850  0.10751475  0.86138501  1
  P  P18  1  0.39248525  0.75296150  0.63861499  1
  P  P19  1  0.75296150  0.21593826  0.63861499  1
  P  P20  1  0.21593826  0.39248525  0.63861499  1
  P  P21  1  0.89248525  0.71593826  0.13861499  1
  P  P22  1  0.71593826  0.25296150  0.13861499  1
  P  P23  1  0.25296150  0.89248525  0.13861499  1
  H  H24  1  0.57316893  -0.00015858  0.36439657  1
  H  H25  1  -0.00015858  0.06259308  0.36439657  1
  H  H26  1  0.06259308  0.57316893  0.36439657  1
  H  H27  1  0.07316893  0.56259308  0.86439657  1
  H  H28  1  0.56259308  0.49984142  0.86439657  1
  H  H29  1  0.49984142  0.07316893  0.86439657  1
  H  H30  1  0.42683107  0.00015858  0.63560343  1
  H  H31  1  0.00015858  0.93740692  0.63560343  1
  H  H32  1  0.93740692  0.42683107  0.63560343  1
  H  H33  1  0.92683107  0.43740692  0.13560343  1
  H  H34  1  0.43740692  0.50015858  0.13560343  1
  H  H35  1  0.50015858  0.92683107  0.13560343  1
  O  O36  1  0.60542462  0.30123301  0.43748197  1
  O  O37  1  0.30123301  0.65586040  0.43748197  1
  O  O38  1  0.65586040  0.60542462  0.43748197  1
  O  O39  1  0.10542462  0.15586040  0.93748197  1
  O  O40  1  0.15586040  0.80123301  0.93748197  1
  O  O41  1  0.80123301  0.10542462  0.93748197  1
  O  O42  1  0.39457538  0.69876699  0.56251803  1
  O  O43  1  0.69876699  0.34413960  0.56251803  1
  O  O44  1  0.34413960  0.39457538  0.56251803  1
  O  O45  1  0.89457538  0.84413960  0.06251803  1
  O  O46  1  0.84413960  0.19876699  0.06251803  1
  O  O47  1  0.19876699  0.89457538  0.06251803  1
  O  O48  1  0.51020890  0.41179067  0.29917541  1
  O  O49  1  0.41179067  0.77882502  0.29917541  1
  O  O50  1  0.77882502  0.51020890  0.29917541  1
  O  O51  1  0.01020890  0.27882502  0.79917541  1
  O  O52  1  0.27882502  0.91179067  0.79917541  1
  O  O53  1  0.91179067  0.01020890  0.79917541  1
  O  O54  1  0.48979110  0.58820933  0.70082459  1
  O  O55  1  0.58820933  0.22117498  0.70082459  1
  O  O56  1  0.22117498  0.48979110  0.70082459  1
  O  O57  1  0.98979110  0.72117498  0.20082459  1
  O  O58  1  0.72117498  0.08820933  0.20082459  1
  O  O59  1  0.08820933  0.98979110  0.20082459  1
  O  O60  1  0.81438936  0.10188501  0.33265193  1
  O  O61  1  0.10188501  0.75107370  0.33265193  1
  O  O62  1  0.75107370  0.81438936  0.33265193  1
  O  O63  1  0.31438936  0.25107370  0.83265193  1
  O  O64  1  0.25107370  0.60188501  0.83265193  1
  O  O65  1  0.60188501  0.31438936  0.83265193  1
  O  O66  1  0.18561064  0.89811499  0.66734807  1
  O  O67  1  0.89811499  0.24892630  0.66734807  1
  O  O68  1  0.24892630  0.18561064  0.66734807  1
  O  O69  1  0.68561064  0.74892630  0.16734807  1
  O  O70  1  0.74892630  0.39811499  0.16734807  1
  O  O71  1  0.39811499  0.68561064  0.16734807  1
  O  O72  1  0.48850201  0.13064404  0.38092645  1
  O  O73  1  0.13064404  0.99992750  0.38092645  1
  O  O74  1  0.99992750  0.48850201  0.38092645  1
  O  O75  1  0.98850201  0.49992750  0.88092645  1
  O  O76  1  0.49992750  0.63064404  0.88092645  1
  O  O77  1  0.63064404  0.98850201  0.88092645  1
  O  O78  1  0.51149799  0.86935596  0.61907355  1
  O  O79  1  0.86935596  0.00007250  0.61907355  1
  O  O80  1  0.00007250  0.51149799  0.61907355  1
  O  O81  1  0.01149799  0.50007250  0.11907355  1
  O  O82  1  0.50007250  0.36935596  0.11907355  1
  O  O83  1  0.36935596  0.01149799  0.11907355  1
