# generated using pymatgen
data_MgH22SO15
_symmetry_space_group_name_H-M   'P 1'
_cell_length_a   6.78214261
_cell_length_b   6.87808571
_cell_length_c   17.46256308
_cell_angle_alpha   87.78368904
_cell_angle_beta   89.36043107
_cell_angle_gamma   62.72866548
_symmetry_Int_Tables_number   1
_chemical_formula_structural   MgH22SO15
_chemical_formula_sum   'Mg2 H44 S2 O30'
_cell_volume   723.48988683
_cell_formula_units_Z   2
loop_
 _symmetry_equiv_pos_site_id
 _symmetry_equiv_pos_as_xyz
  1  'x, y, z'
loop_
 _atom_site_type_symbol
 _atom_site_label
 _atom_site_symmetry_multiplicity
 _atom_site_fract_x
 _atom_site_fract_y
 _atom_site_fract_z
 _atom_site_occupancy
  Mg  Mg0  1  -0.00000000  0.00000000  0.00000000  1
  Mg  Mg1  1  -0.00000000  0.00000000  0.50000000  1
  H  H2  1  0.44457542  0.76693079  0.94907525  1
  H  H3  1  0.55542458  0.23306921  0.05092475  1
  H  H4  1  0.43583178  0.81016276  0.03798430  1
  H  H5  1  0.56416822  0.18983724  0.96201570  1
  H  H6  1  0.88315330  0.40464971  0.92597594  1
  H  H7  1  0.11684670  0.59535029  0.07402406  1
  H  H8  1  0.14569236  0.26984691  0.92319961  1
  H  H9  1  0.85430764  0.73015309  0.07680039  1
  H  H10  1  0.95697317  0.95969521  0.84472968  1
  H  H11  1  0.04302683  0.04030479  0.15527032  1
  H  H12  1  0.86687564  0.80811880  0.88894756  1
  H  H13  1  0.13312436  0.19188120  0.11105244  1
  H  H14  1  0.69718399  0.12333719  0.61646714  1
  H  H15  1  0.30281601  0.87666281  0.38353286  1
  H  H16  1  0.92160974  0.08765965  0.65664515  1
  H  H17  1  0.07839026  0.91234035  0.34335485  1
  H  H18  1  0.22888912  0.24420621  0.47473820  1
  H  H19  1  0.77111088  0.75579379  0.52526180  1
  H  H20  1  0.28771238  0.13943787  0.55963626  1
  H  H21  1  0.71228762  0.86056213  0.44036374  1
  H  H22  1  0.19956061  0.66606242  0.60247703  1
  H  H23  1  0.80043939  0.33393758  0.39752297  1
  H  H24  1  0.40011654  0.68475997  0.56221167  1
  H  H25  1  0.59988346  0.31524003  0.43778833  1
  H  H26  1  0.71191660  0.59232229  0.64326693  1
  H  H27  1  0.28808340  0.40767771  0.35673307  1
  H  H28  1  0.76108015  0.44130229  0.57366809  1
  H  H29  1  0.23891985  0.55869771  0.42633191  1
  H  H30  1  0.44053055  0.12896046  0.84410851  1
  H  H31  1  0.55946945  0.87103954  0.15589149  1
  H  H32  1  0.41004279  0.36933176  0.85436004  1
  H  H33  1  0.58995721  0.63066824  0.14563996  1
  H  H34  1  0.46344068  0.04392229  0.68358613  1
  H  H35  1  0.53655932  0.95607771  0.31641387  1
  H  H36  1  0.34091680  0.29532334  0.66028706  1
  H  H37  1  0.65908320  0.70467666  0.33971294  1
  H  H38  1  0.25768675  0.58676890  0.73169159  1
  H  H39  1  0.74231325  0.41323110  0.26830841  1
  H  H40  1  0.02808346  0.58300017  0.71475424  1
  H  H41  1  0.97191654  0.41699983  0.28524576  1
  H  H42  1  0.93697097  0.25064502  0.75959841  1
  H  H43  1  0.06302903  0.74935498  0.24040159  1
  H  H44  1  0.16576068  0.03273450  0.76117175  1
  H  H45  1  0.83423932  0.96726550  0.23882825  1
  S  S46  1  0.59372188  0.68004474  0.79890601  1
  S  S47  1  0.40627812  0.31995526  0.20109399  1
  O  O48  1  0.34279882  0.82681795  0.99215758  1
  O  O49  1  0.65720118  0.17318205  0.00784242  1
  O  O50  1  0.01011186  0.26857370  0.94457516  1
  O  O51  1  0.98988814  0.73142630  0.05542484  1
  O  O52  1  0.95243704  0.88987807  0.89480344  1
  O  O53  1  0.04756296  0.11012193  0.10519656  1
  O  O54  1  0.84682166  0.11341346  0.60593040  1
  O  O55  1  0.15317834  0.88658654  0.39406960  1
  O  O56  1  0.19598540  0.15446493  0.51371654  1
  O  O57  1  0.80401460  0.84553507  0.48628346  1
  O  O58  1  0.24329909  0.71641026  0.55408953  1
  O  O59  1  0.75670091  0.28358974  0.44591047  1
  O  O60  1  0.68348786  0.66838858  0.87735390  1
  O  O61  1  0.31651214  0.33161142  0.12264610  1
  O  O62  1  0.78128209  0.56315493  0.74443713  1
  O  O63  1  0.21871791  0.43684507  0.25556287  1
  O  O64  1  0.46823587  0.91703754  0.77266738  1
  O  O65  1  0.53176413  0.08296246  0.22733262  1
  O  O66  1  0.44182945  0.57901620  0.79942621  1
  O  O67  1  0.55817055  0.42098380  0.20057379  1
  O  O68  1  0.68721329  0.59649124  0.58722028  1
  O  O69  1  0.31278671  0.40350876  0.41277972  1
  O  O70  1  0.39496196  0.24694145  0.88088009  1
  O  O71  1  0.60503804  0.75305855  0.11911991  1
  O  O72  1  0.43898010  0.14844638  0.63965972  1
  O  O73  1  0.56101990  0.85155362  0.36034028  1
  O  O74  1  0.17128530  0.55829720  0.69178946  1
  O  O75  1  0.82871470  0.44170280  0.30821054  1
  O  O76  1  0.00367780  0.09062431  0.75390958  1
  O  O77  1  0.99632220  0.90937569  0.24609042  1
