# generated using pymatgen
data_Dy2(Ni5B3)3
_symmetry_space_group_name_H-M   'P 1'
_cell_length_a   9.81594799
_cell_length_b   9.81594799
_cell_length_c   11.25123224
_cell_angle_alpha   90.00000000
_cell_angle_beta   90.00000000
_cell_angle_gamma   107.78096580
_symmetry_Int_Tables_number   1
_chemical_formula_structural   Dy2(Ni5B3)3
_chemical_formula_sum   'Dy8 Ni60 B36'
_cell_volume   1032.30220443
_cell_formula_units_Z   4
loop_
 _symmetry_equiv_pos_site_id
 _symmetry_equiv_pos_as_xyz
  1  'x, y, z'
loop_
 _atom_site_type_symbol
 _atom_site_label
 _atom_site_symmetry_multiplicity
 _atom_site_fract_x
 _atom_site_fract_y
 _atom_site_fract_z
 _atom_site_occupancy
  Dy  Dy0  1  0.26115645  0.26115645  0.95876834  1
  Dy  Dy1  1  0.73884355  0.73884355  0.04123166  1
  Dy  Dy2  1  0.23884355  0.23884355  0.45876834  1
  Dy  Dy3  1  0.76115645  0.76115645  0.54123166  1
  Dy  Dy4  1  0.19166869  0.69166869  0.75000000  1
  Dy  Dy5  1  0.30833131  0.80833131  0.25000000  1
  Dy  Dy6  1  0.80833131  0.30833131  0.25000000  1
  Dy  Dy7  1  0.69166869  0.19166869  0.75000000  1
  Ni  Ni8  1  0.50000000  0.50000000  -0.00000000  1
  Ni  Ni9  1  0.00000000  -0.00000000  0.50000000  1
  Ni  Ni10  1  0.50000000  0.50000000  0.50000000  1
  Ni  Ni11  1  0.00000000  -0.00000000  -0.00000000  1
  Ni  Ni12  1  0.23433439  0.23433439  0.71180177  1
  Ni  Ni13  1  0.76566561  0.76566561  0.28819823  1
  Ni  Ni14  1  0.26566561  0.26566561  0.21180177  1
  Ni  Ni15  1  0.73433439  0.73433439  0.78819823  1
  Ni  Ni16  1  0.93116187  0.43116187  0.75000000  1
  Ni  Ni17  1  0.56883813  0.06883813  0.25000000  1
  Ni  Ni18  1  0.06883813  0.56883813  0.25000000  1
  Ni  Ni19  1  0.43116187  0.93116187  0.75000000  1
  Ni  Ni20  1  0.99012874  0.18290530  0.84015759  1
  Ni  Ni21  1  0.81709470  0.00987126  0.15984241  1
  Ni  Ni22  1  0.31709470  0.50987126  0.34015759  1
  Ni  Ni23  1  0.49012874  0.68290530  0.65984241  1
  Ni  Ni24  1  0.00987126  0.81709470  0.15984241  1
  Ni  Ni25  1  0.18290530  0.99012874  0.84015759  1
  Ni  Ni26  1  0.68290530  0.49012874  0.65984241  1
  Ni  Ni27  1  0.50987126  0.31709470  0.34015759  1
  Ni  Ni28  1  0.25709225  0.47134324  0.59673140  1
  Ni  Ni29  1  0.52865676  0.74290775  0.40326860  1
  Ni  Ni30  1  0.02865676  0.24290775  0.09673140  1
  Ni  Ni31  1  0.75709225  0.97134324  0.90326860  1
  Ni  Ni32  1  0.74290775  0.52865676  0.40326860  1
  Ni  Ni33  1  0.47134324  0.25709225  0.59673140  1
  Ni  Ni34  1  0.97134324  0.75709225  0.90326860  1
  Ni  Ni35  1  0.24290775  0.02865676  0.09673140  1
  Ni  Ni36  1  0.99499490  0.22668914  0.61866424  1
  Ni  Ni37  1  0.77331086  0.00500510  0.38133576  1
  Ni  Ni38  1  0.27331086  0.50500510  0.11866424  1
  Ni  Ni39  1  0.49499490  0.72668914  0.88133576  1
  Ni  Ni40  1  0.00500510  0.77331086  0.38133576  1
  Ni  Ni41  1  0.22668914  0.99499490  0.61866424  1
  Ni  Ni42  1  0.72668914  0.49499490  0.88133576  1
  Ni  Ni43  1  0.50500510  0.27331086  0.11866424  1
  Ni  Ni44  1  0.10703206  0.44664818  0.91455086  1
  Ni  Ni45  1  0.55335182  0.89296794  0.08544914  1
  Ni  Ni46  1  0.05335182  0.39296794  0.41455086  1
  Ni  Ni47  1  0.60703206  0.94664818  0.58544914  1
  Ni  Ni48  1  0.89296794  0.55335182  0.08544914  1
  Ni  Ni49  1  0.44664818  0.10703206  0.91455086  1
  Ni  Ni50  1  0.94664818  0.60703206  0.58544914  1
  Ni  Ni51  1  0.39296794  0.05335182  0.41455086  1
  Ni  Ni52  1  0.33110268  0.48946242  0.80566684  1
  Ni  Ni53  1  0.51053758  0.66889732  0.19433316  1
  Ni  Ni54  1  0.01053758  0.16889732  0.30566684  1
  Ni  Ni55  1  0.83110268  0.98946242  0.69433316  1
  Ni  Ni56  1  0.66889732  0.51053758  0.19433316  1
  Ni  Ni57  1  0.48946242  0.33110268  0.80566684  1
  Ni  Ni58  1  0.98946242  0.83110268  0.69433316  1
  Ni  Ni59  1  0.16889732  0.01053758  0.30566684  1
  Ni  Ni60  1  0.83846229  0.36320884  0.52958697  1
  Ni  Ni61  1  0.63679116  0.16153771  0.47041303  1
  Ni  Ni62  1  0.13679116  0.66153771  0.02958697  1
  Ni  Ni63  1  0.33846229  0.86320884  0.97041303  1
  Ni  Ni64  1  0.16153771  0.63679116  0.47041303  1
  Ni  Ni65  1  0.36320884  0.83846229  0.52958697  1
  Ni  Ni66  1  0.86320884  0.33846229  0.97041303  1
  Ni  Ni67  1  0.66153771  0.13679116  0.02958697  1
  B  B68  1  0.36436699  0.63563301  0.50000000  1
  B  B69  1  0.86436699  0.13563301  -0.00000000  1
  B  B70  1  0.63563301  0.36436699  0.50000000  1
  B  B71  1  0.13563301  0.86436699  -0.00000000  1
  B  B72  1  0.45238588  0.45238588  0.67136319  1
  B  B73  1  0.54761412  0.54761412  0.32863681  1
  B  B74  1  0.04761412  0.04761412  0.17136319  1
  B  B75  1  0.95238588  0.95238588  0.82863681  1
  B  B76  1  0.05697067  0.05697067  0.70182325  1
  B  B77  1  0.94302933  0.94302933  0.29817675  1
  B  B78  1  0.44302933  0.44302933  0.20182325  1
  B  B79  1  0.55697067  0.55697067  0.79817675  1
  B  B80  1  0.12005037  0.37836635  0.74404931  1
  B  B81  1  0.62163365  0.87994963  0.25595069  1
  B  B82  1  0.12163365  0.37994963  0.24404931  1
  B  B83  1  0.62005037  0.87836635  0.75595069  1
  B  B84  1  0.87994963  0.62163365  0.25595069  1
  B  B85  1  0.37836635  0.12005037  0.74404931  1
  B  B86  1  0.87836635  0.62005037  0.75595069  1
  B  B87  1  0.37994963  0.12163365  0.24404931  1
  B  B88  1  0.29843168  0.59165910  0.94944911  1
  B  B89  1  0.40834090  0.70156832  0.05055089  1
  B  B90  1  0.90834090  0.20156832  0.44944911  1
  B  B91  1  0.79843168  0.09165910  0.55055089  1
  B  B92  1  0.70156832  0.40834090  0.05055089  1
  B  B93  1  0.59165910  0.29843168  0.94944911  1
  B  B94  1  0.09165910  0.79843168  0.55055089  1
  B  B95  1  0.20156832  0.90834090  0.44944911  1
  B  B96  1  0.04850624  0.44925375  0.59983171  1
  B  B97  1  0.55074625  0.95149376  0.40016829  1
  B  B98  1  0.05074625  0.45149376  0.09983171  1
  B  B99  1  0.54850624  0.94925375  0.90016829  1
  B  B100  1  0.95149376  0.55074625  0.40016829  1
  B  B101  1  0.44925375  0.04850624  0.59983171  1
  B  B102  1  0.94925375  0.54850624  0.90016829  1
  B  B103  1  0.45149376  0.05074625  0.09983171  1
