# generated using pymatgen
data_Li2V2(PO4)3
_symmetry_space_group_name_H-M   'P 1'
_cell_length_a   8.63631348
_cell_length_b   8.76140408
_cell_length_c   12.10594698
_cell_angle_alpha   90.00000000
_cell_angle_beta   90.00000000
_cell_angle_gamma   90.00000000
_symmetry_Int_Tables_number   1
_chemical_formula_structural   Li2V2(PO4)3
_chemical_formula_sum   'Li8 V8 P12 O48'
_cell_volume   916.01139470
_cell_formula_units_Z   4
loop_
 _symmetry_equiv_pos_site_id
 _symmetry_equiv_pos_as_xyz
  1  'x, y, z'
loop_
 _atom_site_type_symbol
 _atom_site_label
 _atom_site_symmetry_multiplicity
 _atom_site_fract_x
 _atom_site_fract_y
 _atom_site_fract_z
 _atom_site_occupancy
  Li  Li0  1  0.71251306  0.77956070  0.31658162  1
  Li  Li1  1  0.78748694  0.27956070  0.18341838  1
  Li  Li2  1  0.78748694  0.22043930  0.81658162  1
  Li  Li3  1  0.71251306  0.72043930  0.68341838  1
  Li  Li4  1  0.28748694  0.22043930  0.68341838  1
  Li  Li5  1  0.21251306  0.72043930  0.81658162  1
  Li  Li6  1  0.21251306  0.77956070  0.18341838  1
  Li  Li7  1  0.28748694  0.27956070  0.31658162  1
  V  V8  1  0.74668437  0.96601841  0.11265712  1
  V  V9  1  0.75331563  0.46601841  0.38734288  1
  V  V10  1  0.75331563  0.03398159  0.61265712  1
  V  V11  1  0.74668437  0.53398159  0.88734288  1
  V  V12  1  0.25331563  0.03398159  0.88734288  1
  V  V13  1  0.24668437  0.53398159  0.61265712  1
  V  V14  1  0.24668437  0.96601841  0.38734288  1
  V  V15  1  0.25331563  0.46601841  0.11265712  1
  P  P16  1  0.89465694  0.60682716  0.14628310  1
  P  P17  1  0.60534306  0.10682716  0.35371690  1
  P  P18  1  0.60534306  0.39317284  0.64628310  1
  P  P19  1  0.89465694  0.89317284  0.85371690  1
  P  P20  1  0.10534306  0.39317284  0.85371690  1
  P  P21  1  0.39465694  0.89317284  0.64628310  1
  P  P22  1  0.39465694  0.60682716  0.35371690  1
  P  P23  1  0.10534306  0.10682716  0.14628310  1
  P  P24  1  0.96266646  0.75000000  0.50000000  1
  P  P25  1  0.53733354  0.25000000  -0.00000000  1
  P  P26  1  0.03733354  0.25000000  0.50000000  1
  P  P27  1  0.46266646  0.75000000  -0.00000000  1
  O  O28  1  0.83690040  0.76846203  0.17620914  1
  O  O29  1  0.66309960  0.26846203  0.32379086  1
  O  O30  1  0.66309960  0.23153797  0.67620914  1
  O  O31  1  0.83690040  0.73153797  0.82379086  1
  O  O32  1  0.16309960  0.23153797  0.82379086  1
  O  O33  1  0.33690040  0.73153797  0.67620914  1
  O  O34  1  0.33690040  0.76846203  0.32379086  1
  O  O35  1  0.16309960  0.26846203  0.17620914  1
  O  O36  1  0.85567447  0.66596150  0.41739854  1
  O  O37  1  0.64432553  0.16596150  0.08260146  1
  O  O38  1  0.64432553  0.33403850  0.91739854  1
  O  O39  1  0.85567447  0.83403850  0.58260146  1
  O  O40  1  0.14432553  0.33403850  0.58260146  1
  O  O41  1  0.35567447  0.83403850  0.91739854  1
  O  O42  1  0.35567447  0.66596150  0.08260146  1
  O  O43  1  0.14432553  0.16596150  0.41739854  1
  O  O44  1  0.57396446  0.60562165  0.34431898  1
  O  O45  1  0.92603554  0.10562165  0.15568102  1
  O  O46  1  0.92603554  0.39437835  0.84431898  1
  O  O47  1  0.57396446  0.89437835  0.65568102  1
  O  O48  1  0.42603554  0.39437835  0.65568102  1
  O  O49  1  0.07396446  0.89437835  0.84431898  1
  O  O50  1  0.07396446  0.60562165  0.15568102  1
  O  O51  1  0.42603554  0.10562165  0.34431898  1
  O  O52  1  0.84509606  0.55686437  0.02995633  1
  O  O53  1  0.65490394  0.05686437  0.47004367  1
  O  O54  1  0.65490394  0.44313563  0.52995633  1
  O  O55  1  0.84509606  0.94313563  0.97004367  1
  O  O56  1  0.15490394  0.44313563  0.97004367  1
  O  O57  1  0.34509606  0.94313563  0.52995633  1
  O  O58  1  0.34509606  0.55686437  0.47004367  1
  O  O59  1  0.15490394  0.05686437  0.02995633  1
  O  O60  1  0.56056571  0.86249847  0.06731033  1
  O  O61  1  0.93943429  0.36249847  0.43268967  1
  O  O62  1  0.93943429  0.13750153  0.56731033  1
  O  O63  1  0.56056571  0.63750153  0.93268967  1
  O  O64  1  0.43943429  0.13750153  0.93268967  1
  O  O65  1  0.06056571  0.63750153  0.56731033  1
  O  O66  1  0.06056571  0.86249847  0.43268967  1
  O  O67  1  0.43943429  0.36249847  0.06731033  1
  O  O68  1  0.67367876  0.98792111  0.27138988  1
  O  O69  1  0.82632124  0.48792111  0.22861012  1
  O  O70  1  0.82632124  0.01207889  0.77138988  1
  O  O71  1  0.67367876  0.51207889  0.72861012  1
  O  O72  1  0.32632124  0.01207889  0.72861012  1
  O  O73  1  0.17367876  0.51207889  0.77138988  1
  O  O74  1  0.17367876  0.98792111  0.22861012  1
  O  O75  1  0.32632124  0.48792111  0.27138988  1
