# generated using pymatgen
data_Na4Si4H18O19
_symmetry_space_group_name_H-M   'P 1'
_cell_length_a   9.96802343
_cell_length_b   12.57218644
_cell_length_c   14.95417544
_cell_angle_alpha   90.00000000
_cell_angle_beta   104.44861149
_cell_angle_gamma   90.00000000
_symmetry_Int_Tables_number   1
_chemical_formula_structural   Na4Si4H18O19
_chemical_formula_sum   'Na16 Si16 H72 O76'
_cell_volume   1814.78205188
_cell_formula_units_Z   4
loop_
 _symmetry_equiv_pos_site_id
 _symmetry_equiv_pos_as_xyz
  1  'x, y, z'
loop_
 _atom_site_type_symbol
 _atom_site_label
 _atom_site_symmetry_multiplicity
 _atom_site_fract_x
 _atom_site_fract_y
 _atom_site_fract_z
 _atom_site_occupancy
  Na  Na0  1  0.04502216  0.87667590  0.56661498  1
  Na  Na1  1  0.95497784  0.37667590  0.93338502  1
  Na  Na2  1  0.95497784  0.12332410  0.43338502  1
  Na  Na3  1  0.04502216  0.62332410  0.06661498  1
  Na  Na4  1  0.76252204  0.64012169  0.55697091  1
  Na  Na5  1  0.23747796  0.14012169  0.94302909  1
  Na  Na6  1  0.23747796  0.35987831  0.44302909  1
  Na  Na7  1  0.76252204  0.85987831  0.05697091  1
  Na  Na8  1  0.31003703  0.60690322  0.57227365  1
  Na  Na9  1  0.68996297  0.10690322  0.92772635  1
  Na  Na10  1  0.68996297  0.39309678  0.42772635  1
  Na  Na11  1  0.31003703  0.89309678  0.07227365  1
  Na  Na12  1  0.48102897  0.87637722  0.55080209  1
  Na  Na13  1  0.51897103  0.37637722  0.94919791  1
  Na  Na14  1  0.51897103  0.12362278  0.44919791  1
  Na  Na15  1  0.48102897  0.62362278  0.05080209  1
  Si  Si16  1  0.59561722  0.67775829  0.73363178  1
  Si  Si17  1  0.40438278  0.17775829  0.76636822  1
  Si  Si18  1  0.40438278  0.32224171  0.26636822  1
  Si  Si19  1  0.59561722  0.82224171  0.23363178  1
  Si  Si20  1  0.85680995  0.81900750  0.73812024  1
  Si  Si21  1  0.14319005  0.31900750  0.76187976  1
  Si  Si22  1  0.14319005  0.18099250  0.26187976  1
  Si  Si23  1  0.85680995  0.68099250  0.23812024  1
  Si  Si24  1  0.34271960  0.82871489  0.73585672  1
  Si  Si25  1  0.65728040  0.32871489  0.76414328  1
  Si  Si26  1  0.65728040  0.17128511  0.26414328  1
  Si  Si27  1  0.34271960  0.67128511  0.23585672  1
  Si  Si28  1  0.10269346  0.66914009  0.74043978  1
  Si  Si29  1  0.89730654  0.16914009  0.75956022  1
  Si  Si30  1  0.89730654  0.33085991  0.25956022  1
  Si  Si31  1  0.10269346  0.83085991  0.24043978  1
  H  H32  1  0.99983329  0.08833630  0.62054233  1
  H  H33  1  0.00016671  0.58833630  0.87945767  1
  H  H34  1  0.00016671  0.91166370  0.37945767  1
  H  H35  1  0.99983329  0.41166370  0.12054233  1
  H  H36  1  0.16078280  0.08829961  0.62167636  1
  H  H37  1  0.83921720  0.58829961  0.87832364  1
  H  H38  1  0.83921720  0.91170039  0.37832364  1
  H  H39  1  0.16078280  0.41170039  0.12167636  1
  H  H40  1  0.66525988  0.83034755  0.43937617  1
  H  H41  1  0.33474012  0.33034755  0.06062383  1
  H  H42  1  0.33474012  0.16965245  0.56062383  1
  H  H43  1  0.66525988  0.66965245  0.93937617  1
  H  H44  1  0.74291515  0.85323571  0.54455533  1
  H  H45  1  0.25708485  0.35323571  0.95544467  1
  H  H46  1  0.25708485  0.14676429  0.45544467  1
  H  H47  1  0.74291515  0.64676429  0.04455533  1
  H  H48  1  0.02766083  0.64942975  0.54726152  1
  H  H49  1  0.97233917  0.14942975  0.95273848  1
  H  H50  1  0.97233917  0.35057025  0.45273848  1
  H  H51  1  0.02766083  0.85057025  0.04726152  1
  H  H52  1  0.95402518  0.67939131  0.44237600  1
  H  H53  1  0.04597482  0.17939131  0.05762400  1
  H  H54  1  0.04597482  0.32060869  0.55762400  1
  H  H55  1  0.95402518  0.82060869  0.94237600  1
  H  H56  1  0.25693799  0.78725951  0.42990332  1
  H  H57  1  0.74306201  0.28725951  0.07009668  1
  H  H58  1  0.74306201  0.21274049  0.57009668  1
  H  H59  1  0.25693799  0.71274049  0.92990332  1
  H  H60  1  0.36954374  0.70303918  0.42427381  1
  H  H61  1  0.63045626  0.20303918  0.07572619  1
  H  H62  1  0.63045626  0.29696082  0.57572619  1
  H  H63  1  0.36954374  0.79696082  0.92427381  1
  H  H64  1  0.85727975  0.97704893  0.65870188  1
  H  H65  1  0.14272025  0.47704893  0.84129812  1
  H  H66  1  0.14272025  0.02295107  0.34129812  1
  H  H67  1  0.85727975  0.52295107  0.15870188  1
  H  H68  1  0.59302332  0.51902149  0.65637387  1
  H  H69  1  0.40697668  0.01902149  0.84362613  1
  H  H70  1  0.40697668  0.48097851  0.34362613  1
  H  H71  1  0.59302332  0.98097851  0.15637387  1
  H  H72  1  0.91152531  0.42743693  0.61994840  1
  H  H73  1  0.08847469  0.92743693  0.88005160  1
  H  H74  1  0.08847469  0.57256307  0.38005160  1
  H  H75  1  0.91152531  0.07256307  0.11994840  1
  H  H76  1  0.75408369  0.42931062  0.62216928  1
  H  H77  1  0.24591631  0.92931062  0.87783072  1
  H  H78  1  0.24591631  0.57068938  0.37783072  1
  H  H79  1  0.75408369  0.07068938  0.12216928  1
  H  H80  1  0.33855010  0.99047814  0.66132594  1
  H  H81  1  0.66144990  0.49047814  0.83867406  1
  H  H82  1  0.66144990  0.00952186  0.33867406  1
  H  H83  1  0.33855010  0.50952186  0.16132594  1
  H  H84  1  0.10605202  0.50947861  0.66208063  1
  H  H85  1  0.89394798  0.00947861  0.83791937  1
  H  H86  1  0.89394798  0.49052139  0.33791937  1
  H  H87  1  0.10605202  0.99052139  0.16208063  1
  H  H88  1  0.67544630  0.06740879  0.62981107  1
  H  H89  1  0.32455370  0.56740879  0.87018893  1
  H  H90  1  0.32455370  0.93259121  0.37018893  1
  H  H91  1  0.67544630  0.43259121  0.12981107  1
  H  H92  1  0.51653775  0.07448646  0.63362325  1
  H  H93  1  0.48346225  0.57448646  0.86637675  1
  H  H94  1  0.48346225  0.92551354  0.36637675  1
  H  H95  1  0.51653775  0.42551354  0.13362325  1
  H  H96  1  0.42408490  0.39925383  0.62616440  1
  H  H97  1  0.57591510  0.89925383  0.87383560  1
  H  H98  1  0.57591510  0.60074617  0.37383560  1
  H  H99  1  0.42408490  0.10074617  0.12616440  1
  H  H100  1  0.26306503  0.39775070  0.62912920  1
  H  H101  1  0.73693497  0.89775070  0.87087080  1
  H  H102  1  0.73693497  0.60224930  0.37087080  1
  H  H103  1  0.26306503  0.10224930  0.12912920  1
  O  O104  1  0.06872840  0.06264609  0.58758750  1
  O  O105  1  0.93127160  0.56264609  0.91241250  1
  O  O106  1  0.93127160  0.93735391  0.41241250  1
  O  O107  1  0.06872840  0.43735391  0.08758750  1
  O  O108  1  0.67046487  0.80912620  0.50453079  1
  O  O109  1  0.32953513  0.30912620  0.99546921  1
  O  O110  1  0.32953513  0.19087380  0.49546921  1
  O  O111  1  0.67046487  0.69087380  0.00453079  1
  O  O112  1  0.97349695  0.70511208  0.50769239  1
  O  O113  1  0.02650305  0.20511208  0.99230761  1
  O  O114  1  0.02650305  0.29488792  0.49230761  1
  O  O115  1  0.97349695  0.79488792  0.00769239  1
  O  O116  1  0.33218721  0.74465111  0.46957924  1
  O  O117  1  0.66781279  0.24465111  0.03042076  1
  O  O118  1  0.66781279  0.25534889  0.53042076  1
  O  O119  1  0.33218721  0.75534889  0.96957924  1
  O  O120  1  0.39830979  0.88366594  0.83547235  1
  O  O121  1  0.60169021  0.38366594  0.66452765  1
  O  O122  1  0.60169021  0.11633406  0.16452765  1
  O  O123  1  0.39830979  0.61633406  0.33547235  1
  O  O124  1  0.91073640  0.87937753  0.83531204  1
  O  O125  1  0.08926360  0.37937753  0.66468796  1
  O  O126  1  0.08926360  0.12062247  0.16468796  1
  O  O127  1  0.91073640  0.62062247  0.33531204  1
  O  O128  1  0.15357900  0.61288126  0.83981020  1
  O  O129  1  0.84642100  0.11288126  0.66018980  1
  O  O130  1  0.84642100  0.38711874  0.16018980  1
  O  O131  1  0.15357900  0.88711874  0.33981020  1
  O  O132  1  0.64351119  0.61646637  0.83073878  1
  O  O133  1  0.35648881  0.11646637  0.66926122  1
  O  O134  1  0.35648881  0.38353363  0.16926122  1
  O  O135  1  0.64351119  0.88353363  0.33073878  1
  O  O136  1  0.86587446  0.89796001  0.65004650  1
  O  O137  1  0.13412554  0.39796001  0.84995350  1
  O  O138  1  0.13412554  0.10203999  0.34995350  1
  O  O139  1  0.86587446  0.60203999  0.15004650  1
  O  O140  1  0.93940370  0.70937210  0.72071218  1
  O  O141  1  0.06059630  0.20937210  0.77928782  1
  O  O142  1  0.06059630  0.29062790  0.27928782  1
  O  O143  1  0.93940370  0.79062790  0.22071218  1
  O  O144  1  0.43712091  0.72814069  0.71384363  1
  O  O145  1  0.56287909  0.22814069  0.78615637  1
  O  O146  1  0.56287909  0.27185931  0.28615637  1
  O  O147  1  0.43712091  0.77185931  0.21384363  1
  O  O148  1  0.58543684  0.59785037  0.64345752  1
  O  O149  1  0.41456316  0.09785037  0.85654248  1
  O  O150  1  0.41456316  0.40214963  0.35654248  1
  O  O151  1  0.58543684  0.90214963  0.14345752  1
  O  O152  1  0.69417068  0.77942190  0.72089319  1
  O  O153  1  0.30582932  0.27942190  0.77910681  1
  O  O154  1  0.30582932  0.22057810  0.27910681  1
  O  O155  1  0.69417068  0.72057810  0.22089319  1
  O  O156  1  0.18600452  0.77777899  0.72341296  1
  O  O157  1  0.81399548  0.27777899  0.77658704  1
  O  O158  1  0.81399548  0.22222101  0.27658704  1
  O  O159  1  0.18600452  0.72222101  0.22341296  1
  O  O160  1  0.82069040  0.45956821  0.58986815  1
  O  O161  1  0.17930960  0.95956821  0.91013185  1
  O  O162  1  0.17930960  0.54043179  0.41013185  1
  O  O163  1  0.82069040  0.04043179  0.08986815  1
  O  O164  1  0.32588588  0.91098856  0.64749692  1
  O  O165  1  0.67411412  0.41098856  0.85250308  1
  O  O166  1  0.67411412  0.08901144  0.35250308  1
  O  O167  1  0.32588588  0.58901144  0.14749692  1
  O  O168  1  0.11811012  0.58906515  0.65464935  1
  O  O169  1  0.88188988  0.08906515  0.84535065  1
  O  O170  1  0.88188988  0.41093485  0.34535065  1
  O  O171  1  0.11811012  0.91093485  0.15464935  1
  O  O172  1  0.58086311  0.03921680  0.60239718  1
  O  O173  1  0.41913689  0.53921680  0.89760282  1
  O  O174  1  0.41913689  0.96078320  0.39760282  1
  O  O175  1  0.58086311  0.46078320  0.10239718  1
  O  O176  1  0.32884178  0.42419936  0.59485435  1
  O  O177  1  0.67115822  0.92419936  0.90514565  1
  O  O178  1  0.67115822  0.57580064  0.40514565  1
  O  O179  1  0.32884178  0.07580064  0.09485435  1
