# generated using pymatgen
data_Cs2Al2Si3O10
_symmetry_space_group_name_H-M   'P 1'
_cell_length_a   6.69475203
_cell_length_b   9.84872299
_cell_length_c   10.23014244
_cell_angle_alpha   83.61487797
_cell_angle_beta   70.90065318
_cell_angle_gamma   70.13048913
_symmetry_Int_Tables_number   1
_chemical_formula_structural   Cs2Al2Si3O10
_chemical_formula_sum   'Cs4 Al4 Si6 O20'
_cell_volume   599.44685148
_cell_formula_units_Z   2
loop_
 _symmetry_equiv_pos_site_id
 _symmetry_equiv_pos_as_xyz
  1  'x, y, z'
loop_
 _atom_site_type_symbol
 _atom_site_label
 _atom_site_symmetry_multiplicity
 _atom_site_fract_x
 _atom_site_fract_y
 _atom_site_fract_z
 _atom_site_occupancy
  Cs  Cs0  1  0.02864233  0.58856099  0.10428395  1
  Cs  Cs1  1  0.72148728  0.41143901  0.89571605  1
  Cs  Cs2  1  0.36720333  0.91143901  0.60428395  1
  Cs  Cs3  1  0.88292628  0.08856099  0.39571605  1
  Al  Al4  1  0.41116225  0.58637763  0.32223612  1
  Al  Al5  1  0.31977600  0.41362237  0.67776388  1
  Al  Al6  1  0.74753988  0.91362237  0.82223612  1
  Al  Al7  1  0.48339837  0.08637763  0.17776388  1
  Si  Si8  1  0.75126343  0.50000000  0.50000000  1
  Si  Si9  1  0.00126343  0.00000000  0.00000000  1
  Si  Si10  1  0.42974932  0.81000068  0.08190785  1
  Si  Si11  1  0.32165785  0.18999932  0.91809215  1
  Si  Si12  1  0.98975000  0.68999932  0.58190785  1
  Si  Si13  1  0.26165717  0.31000068  0.41809215  1
  O  O14  1  0.64834501  0.56254886  0.37373421  1
  O  O15  1  0.58462808  0.43745114  0.62626579  1
  O  O16  1  0.96089387  0.93745114  0.87373421  1
  O  O17  1  0.77207922  0.06254886  0.12626579  1
  O  O18  1  0.45639789  0.64961390  0.15050166  1
  O  O19  1  0.25651345  0.35038610  0.84949834  1
  O  O20  1  0.85601179  0.85038610  0.65050166  1
  O  O21  1  0.35689954  0.14961390  0.34949834  1
  O  O22  1  0.17028150  0.70653190  0.43432902  1
  O  O23  1  0.31114242  0.29346810  0.56567098  1
  O  O24  1  0.62681340  0.79346810  0.93432902  1
  O  O25  1  0.35461052  0.20653190  0.06567098  1
  O  O26  1  0.43723151  0.92020473  0.18575527  1
  O  O27  1  0.54319150  0.07979527  0.81424473  1
  O  O28  1  0.10743623  0.57979527  0.68575527  1
  O  O29  1  0.37298678  0.42020473  0.31424473  1
  O  O30  1  0.17974042  0.86836574  0.05858362  1
  O  O31  1  0.10668979  0.13163426  0.94141638  1
  O  O32  1  0.79810616  0.63163426  0.55858362  1
  O  O33  1  0.98832404  0.36836574  0.44141638  1
