# generated using pymatgen
data_Sm5Mg41
_symmetry_space_group_name_H-M   'P 1'
_cell_length_a   10.35205685
_cell_length_b   11.59191949
_cell_length_c   11.59191949
_cell_angle_alpha   78.49926573
_cell_angle_beta   63.47934359
_cell_angle_gamma   63.47934359
_symmetry_Int_Tables_number   1
_chemical_formula_structural   Sm5Mg41
_chemical_formula_sum   'Sm5 Mg41'
_cell_volume   1113.68796977
_cell_formula_units_Z   1
loop_
 _symmetry_equiv_pos_site_id
 _symmetry_equiv_pos_as_xyz
  1  'x, y, z'
loop_
 _atom_site_type_symbol
 _atom_site_label
 _atom_site_symmetry_multiplicity
 _atom_site_fract_x
 _atom_site_fract_y
 _atom_site_fract_z
 _atom_site_occupancy
  Sm  Sm0  1  -0.00000000  0.00000000  0.00000000  1
  Sm  Sm1  1  0.57130062  0.66480118  0.19259758  1
  Sm  Sm2  1  0.42869938  0.33519882  0.80740242  1
  Sm  Sm3  1  0.76389820  0.80740242  0.66480118  1
  Sm  Sm4  1  0.23610180  0.19259758  0.33519882  1
  Mg  Mg5  1  0.50000000  0.00000000  0.00000000  1
  Mg  Mg6  1  -0.00000000  0.50000000  0.00000000  1
  Mg  Mg7  1  0.50000000  0.50000000  0.00000000  1
  Mg  Mg8  1  -0.00000000  0.00000000  0.50000000  1
  Mg  Mg9  1  0.50000000  0.00000000  0.50000000  1
  Mg  Mg10  1  0.59747015  0.39296986  0.41208983  1
  Mg  Mg11  1  0.40252985  0.60703014  0.58791017  1
  Mg  Mg12  1  0.00955998  0.58791017  0.39296986  1
  Mg  Mg13  1  0.99044002  0.41208983  0.60703014  1
  Mg  Mg14  1  0.77808472  0.34401523  0.09981533  1
  Mg  Mg15  1  0.22191528  0.65598477  0.90018467  1
  Mg  Mg16  1  0.87790005  0.90018467  0.34401523  1
  Mg  Mg17  1  0.12209995  0.09981533  0.65598477  1
  Mg  Mg18  1  0.78266266  0.55861031  0.87606437  1
  Mg  Mg19  1  0.21733734  0.44138969  0.12393563  1
  Mg  Mg20  1  0.65872703  0.12393563  0.55861031  1
  Mg  Mg21  1  0.34127297  0.87606437  0.44138969  1
  Mg  Mg22  1  0.08633009  0.28787621  0.83429078  1
  Mg  Mg23  1  0.20849708  0.71212379  0.16570922  1
  Mg  Mg24  1  0.92062087  0.16570922  0.28787621  1
  Mg  Mg25  1  0.37420630  0.83429078  0.71212379  1
  Mg  Mg26  1  0.91366991  0.71212379  0.16570922  1
  Mg  Mg27  1  0.79150292  0.28787621  0.83429078  1
  Mg  Mg28  1  0.07937913  0.83429078  0.71212379  1
  Mg  Mg29  1  0.62579370  0.16570922  0.28787621  1
  Mg  Mg30  1  0.82581800  0.78693668  0.94074268  1
  Mg  Mg31  1  0.55349737  0.21306332  0.05925732  1
  Mg  Mg32  1  0.76656068  0.05925732  0.78693668  1
  Mg  Mg33  1  0.61275469  0.94074268  0.21306332  1
  Mg  Mg34  1  0.17418200  0.21306332  0.05925732  1
  Mg  Mg35  1  0.44650263  0.78693668  0.94074268  1
  Mg  Mg36  1  0.23343932  0.94074268  0.21306332  1
  Mg  Mg37  1  0.38724531  0.05925732  0.78693668  1
  Mg  Mg38  1  0.89199120  0.44350429  0.28974460  1
  Mg  Mg39  1  0.62524009  0.55649571  0.71025540  1
  Mg  Mg40  1  0.18173580  0.71025540  0.44350429  1
  Mg  Mg41  1  0.33549549  0.28974460  0.55649571  1
  Mg  Mg42  1  0.10800880  0.55649571  0.71025540  1
  Mg  Mg43  1  0.37475991  0.44350429  0.28974460  1
  Mg  Mg44  1  0.81826420  0.28974460  0.55649571  1
  Mg  Mg45  1  0.66450451  0.71025540  0.44350429  1
