# generated using pymatgen
data_KNaH12CO9
_symmetry_space_group_name_H-M   'P 1'
_cell_length_a   8.64686403
_cell_length_b   9.62451232
_cell_length_c   11.90846087
_cell_angle_alpha   90.00000000
_cell_angle_beta   90.00000000
_cell_angle_gamma   102.58126684
_symmetry_Int_Tables_number   1
_chemical_formula_structural   KNaH12CO9
_chemical_formula_sum   'K4 Na4 H48 C4 O36'
_cell_volume   967.24721726
_cell_formula_units_Z   4
loop_
 _symmetry_equiv_pos_site_id
 _symmetry_equiv_pos_as_xyz
  1  'x, y, z'
loop_
 _atom_site_type_symbol
 _atom_site_label
 _atom_site_symmetry_multiplicity
 _atom_site_fract_x
 _atom_site_fract_y
 _atom_site_fract_z
 _atom_site_occupancy
  K  K0  1  0.14300631  0.16131592  0.59178963  1
  K  K1  1  0.35699369  0.33868408  0.09178963  1
  K  K2  1  0.85699369  0.83868408  0.40821037  1
  K  K3  1  0.64300631  0.66131592  0.90821037  1
  Na  Na4  1  0.42931557  0.61859306  0.58624342  1
  Na  Na5  1  0.07068443  0.88140694  0.08624342  1
  Na  Na6  1  0.57068443  0.38140694  0.41375658  1
  Na  Na7  1  0.92931557  0.11859306  0.91375658  1
  H  H8  1  0.08518143  0.46671008  0.60043735  1
  H  H9  1  0.41481857  0.03328992  0.10043735  1
  H  H10  1  0.91481857  0.53328992  0.39956265  1
  H  H11  1  0.58518143  0.96671008  0.89956265  1
  H  H12  1  0.15170103  0.46267801  0.47847696  1
  H  H13  1  0.34829897  0.03732199  0.97847696  1
  H  H14  1  0.84829897  0.53732199  0.52152304  1
  H  H15  1  0.65170103  0.96267801  0.02152304  1
  H  H16  1  0.17254124  0.84748034  0.56244377  1
  H  H17  1  0.32745876  0.65251966  0.06244377  1
  H  H18  1  0.82745876  0.15251966  0.43755623  1
  H  H19  1  0.67254124  0.34748034  0.93755623  1
  H  H20  1  0.02167552  0.81001541  0.64279173  1
  H  H21  1  0.47832448  0.68998459  0.14279173  1
  H  H22  1  0.97832448  0.18998459  0.35720827  1
  H  H23  1  0.52167552  0.31001541  0.85720827  1
  H  H24  1  0.26297886  0.64125099  0.79330924  1
  H  H25  1  0.23702114  0.85874901  0.29330924  1
  H  H26  1  0.73702114  0.35874901  0.20669076  1
  H  H27  1  0.76297886  0.14125099  0.70669076  1
  H  H28  1  0.37830582  0.79177806  0.78892008  1
  H  H29  1  0.12169418  0.70822194  0.28892008  1
  H  H30  1  0.62169418  0.20822194  0.21107992  1
  H  H31  1  0.87830582  0.29177806  0.71107992  1
  H  H32  1  0.49519766  0.65758725  0.33988407  1
  H  H33  1  0.00480234  0.84241275  0.83988407  1
  H  H34  1  0.50480234  0.34241275  0.66011593  1
  H  H35  1  0.99519766  0.15758725  0.16011593  1
  H  H36  1  0.33404238  0.54534258  0.35489960  1
  H  H37  1  0.16595762  0.95465742  0.85489960  1
  H  H38  1  0.66595762  0.45465742  0.64510040  1
  H  H39  1  0.83404238  0.04534258  0.14510040  1
  H  H40  1  0.65927118  0.86636209  0.65419333  1
  H  H41  1  0.84072882  0.63363791  0.15419333  1
  H  H42  1  0.34072882  0.13363791  0.34580667  1
  H  H43  1  0.15927118  0.36636209  0.84580667  1
  H  H44  1  0.76345054  0.75009941  0.66791798  1
  H  H45  1  0.73654946  0.74990059  0.16791798  1
  H  H46  1  0.23654946  0.24990059  0.33208202  1
  H  H47  1  0.26345054  0.25009941  0.83208202  1
  H  H48  1  0.42973785  0.90558833  0.58120031  1
  H  H49  1  0.07026215  0.59441167  0.08120031  1
  H  H50  1  0.57026215  0.09441167  0.41879969  1
  H  H51  1  0.92973785  0.40558833  0.91879969  1
  H  H52  1  0.40052869  0.86762763  0.45254079  1
  H  H53  1  0.09947131  0.63237237  0.95254079  1
  H  H54  1  0.59947131  0.13237237  0.54745921  1
  H  H55  1  0.90052869  0.36762763  0.04745921  1
  C  C56  1  0.44751182  0.07435749  0.74843129  1
  C  C57  1  0.05248818  0.42564251  0.24843129  1
  C  C58  1  0.55248818  0.92564251  0.25156871  1
  C  C59  1  0.94751182  0.57435749  0.75156871  1
  O  O60  1  0.39335938  0.98458782  0.82892609  1
  O  O61  1  0.10664062  0.51541218  0.32892609  1
  O  O62  1  0.60664062  0.01541218  0.17107391  1
  O  O63  1  0.89335938  0.48458782  0.67107391  1
  O  O64  1  0.40526590  0.19584475  0.74231392  1
  O  O65  1  0.09473410  0.30415525  0.24231392  1
  O  O66  1  0.59473410  0.80415525  0.25768608  1
  O  O67  1  0.90526590  0.69584475  0.75768608  1
  O  O68  1  0.54515683  0.04135511  0.67424028  1
  O  O69  1  0.95484317  0.45864489  0.17424028  1
  O  O70  1  0.45484317  0.95864489  0.32575972  1
  O  O71  1  0.04515683  0.54135511  0.82575972  1
  O  O72  1  0.17850275  0.45186057  0.55825169  1
  O  O73  1  0.32149725  0.04813943  0.05825169  1
  O  O74  1  0.82149725  0.54813943  0.44174831  1
  O  O75  1  0.67850275  0.95186057  0.94174831  1
  O  O76  1  0.07032983  0.87335682  0.58147194  1
  O  O77  1  0.42967017  0.62664318  0.08147194  1
  O  O78  1  0.92967017  0.12664318  0.41852806  1
  O  O79  1  0.57032983  0.37335682  0.91852806  1
  O  O80  1  0.37234167  0.68942882  0.77415262  1
  O  O81  1  0.12765833  0.81057118  0.27415262  1
  O  O82  1  0.62765833  0.31057118  0.22584738  1
  O  O83  1  0.87234167  0.18942882  0.72584738  1
  O  O84  1  0.44441609  0.56929774  0.38114171  1
  O  O85  1  0.05558391  0.93070226  0.88114171  1
  O  O86  1  0.55558391  0.43070226  0.61885829  1
  O  O87  1  0.94441609  0.06929774  0.11885829  1
  O  O88  1  0.68578436  0.78300301  0.61831092  1
  O  O89  1  0.81421564  0.71699699  0.11831092  1
  O  O90  1  0.31421564  0.21699699  0.38168908  1
  O  O91  1  0.18578436  0.28300301  0.88168908  1
  O  O92  1  0.36388591  0.83603812  0.52975651  1
  O  O93  1  0.13611409  0.66396188  0.02975651  1
  O  O94  1  0.63611409  0.16396188  0.47024349  1
  O  O95  1  0.86388591  0.33603812  0.97024349  1
