# generated using pymatgen
data_Cs13Nb2(In3As5)2
_symmetry_space_group_name_H-M   'P 1'
_cell_length_a   9.92223790
_cell_length_b   9.97488257
_cell_length_c   14.26385873
_cell_angle_alpha   83.22926121
_cell_angle_beta   80.51304930
_cell_angle_gamma   64.61675481
_symmetry_Int_Tables_number   1
_chemical_formula_structural   Cs13Nb2(In3As5)2
_chemical_formula_sum   'Cs13 Nb2 In6 As10'
_cell_volume   1256.23756060
_cell_formula_units_Z   1
loop_
 _symmetry_equiv_pos_site_id
 _symmetry_equiv_pos_as_xyz
  1  'x, y, z'
loop_
 _atom_site_type_symbol
 _atom_site_label
 _atom_site_symmetry_multiplicity
 _atom_site_fract_x
 _atom_site_fract_y
 _atom_site_fract_z
 _atom_site_occupancy
  Cs  Cs0  1  0.49573767  0.86573147  0.35464105  1
  Cs  Cs1  1  0.50434847  0.13420799  0.64535197  1
  Cs  Cs2  1  0.85247136  0.58316931  0.88017751  1
  Cs  Cs3  1  0.14760750  0.41684061  0.11983398  1
  Cs  Cs4  1  0.08928655  0.77555385  0.43067604  1
  Cs  Cs5  1  0.91084750  0.22434173  0.56927502  1
  Cs  Cs6  1  0.74551550  0.68358111  0.59181328  1
  Cs  Cs7  1  0.25459281  0.31636909  0.40817459  1
  Cs  Cs8  1  0.50005687  0.49994722  0.00001513  1
  Cs  Cs9  1  0.31225834  0.92688258  0.08507382  1
  Cs  Cs10  1  0.68785006  0.07298015  0.91492166  1
  Cs  Cs11  1  0.89188665  0.85852054  0.17124860  1
  Cs  Cs12  1  0.10658106  0.14268048  0.82886425  1
  Nb  Nb13  1  0.37741092  0.74043446  0.77477619  1
  Nb  Nb14  1  0.62250091  0.25939514  0.22513568  1
  In  In15  1  0.03405297  0.80445517  0.70656619  1
  In  In16  1  0.96614899  0.19545302  0.29337249  1
  In  In17  1  0.60666633  0.44506419  0.41013321  1
  In  In18  1  0.39354250  0.55490687  0.58990128  1
  In  In19  1  0.72218449  0.55776016  0.17418088  1
  In  In20  1  0.27801279  0.44213577  0.82585175  1
  As  As21  1  0.44264929  0.53561015  0.25366302  1
  As  As22  1  0.55719763  0.46456250  0.74638772  1
  As  As23  1  0.14753753  0.74451591  0.88685678  1
  As  As24  1  0.85276337  0.25541977  0.11304509  1
  As  As25  1  0.71034078  0.13686660  0.38385459  1
  As  As26  1  0.28986989  0.86287049  0.61626646  1
  As  As27  1  0.85928983  0.50842682  0.34855809  1
  As  As28  1  0.14079496  0.49144654  0.65143436  1
  As  As29  1  0.49954562  0.86661095  0.84049824  1
  As  As30  1  0.50045087  0.13325934  0.15945106  1
