# generated using pymatgen
data_TbAu6
_symmetry_space_group_name_H-M   'P 1'
_cell_length_a   9.91404305
_cell_length_b   10.53437210
_cell_length_c   10.53437210
_cell_angle_alpha   90.00000000
_cell_angle_beta   90.00000000
_cell_angle_gamma   90.00000000
_symmetry_Int_Tables_number   1
_chemical_formula_structural   TbAu6
_chemical_formula_sum   'Tb8 Au48'
_cell_volume   1100.19105518
_cell_formula_units_Z   8
loop_
 _symmetry_equiv_pos_site_id
 _symmetry_equiv_pos_as_xyz
  1  'x, y, z'
loop_
 _atom_site_type_symbol
 _atom_site_label
 _atom_site_symmetry_multiplicity
 _atom_site_fract_x
 _atom_site_fract_y
 _atom_site_fract_z
 _atom_site_occupancy
  Tb  Tb0  1  0.28775297  0.57571896  0.57571896  1
  Tb  Tb1  1  0.78775297  0.57571896  0.92428104  1
  Tb  Tb2  1  0.78775297  0.92428104  0.57571896  1
  Tb  Tb3  1  0.28775297  0.92428104  0.92428104  1
  Tb  Tb4  1  0.71224703  0.42428104  0.42428104  1
  Tb  Tb5  1  0.21224703  0.42428104  0.07571896  1
  Tb  Tb6  1  0.21224703  0.07571896  0.42428104  1
  Tb  Tb7  1  0.71224703  0.07571896  0.07571896  1
  Au  Au8  1  0.92052288  0.51288304  0.18027754  1
  Au  Au9  1  0.42052288  0.51288304  0.31972246  1
  Au  Au10  1  0.42052288  0.98711696  0.18027754  1
  Au  Au11  1  0.92052288  0.98711696  0.31972246  1
  Au  Au12  1  0.92052288  0.18027754  0.51288304  1
  Au  Au13  1  0.42052288  0.31972246  0.51288304  1
  Au  Au14  1  0.42052288  0.18027754  0.98711696  1
  Au  Au15  1  0.92052288  0.31972246  0.98711696  1
  Au  Au16  1  0.07947712  0.48711696  0.81972246  1
  Au  Au17  1  0.57947712  0.48711696  0.68027754  1
  Au  Au18  1  0.57947712  0.01288304  0.81972246  1
  Au  Au19  1  0.07947712  0.01288304  0.68027754  1
  Au  Au20  1  0.07947712  0.81972246  0.48711696  1
  Au  Au21  1  0.57947712  0.68027754  0.48711696  1
  Au  Au22  1  0.57947712  0.81972246  0.01288304  1
  Au  Au23  1  0.07947712  0.68027754  0.01288304  1
  Au  Au24  1  0.85552721  0.79978424  0.12324568  1
  Au  Au25  1  0.35552721  0.79978424  0.37675432  1
  Au  Au26  1  0.35552721  0.70021576  0.12324568  1
  Au  Au27  1  0.85552721  0.70021576  0.37675432  1
  Au  Au28  1  0.85552721  0.12324568  0.79978424  1
  Au  Au29  1  0.35552721  0.37675432  0.79978424  1
  Au  Au30  1  0.35552721  0.12324568  0.70021576  1
  Au  Au31  1  0.85552721  0.37675432  0.70021576  1
  Au  Au32  1  0.14447279  0.20021576  0.87675432  1
  Au  Au33  1  0.64447279  0.20021576  0.62324568  1
  Au  Au34  1  0.64447279  0.29978424  0.87675432  1
  Au  Au35  1  0.14447279  0.29978424  0.62324568  1
  Au  Au36  1  0.14447279  0.87675432  0.20021576  1
  Au  Au37  1  0.64447279  0.62324568  0.20021576  1
  Au  Au38  1  0.64447279  0.87675432  0.29978424  1
  Au  Au39  1  0.14447279  0.62324568  0.29978424  1
  Au  Au40  1  0.82076255  0.64668160  0.64668160  1
  Au  Au41  1  0.32076255  0.64668160  0.85331840  1
  Au  Au42  1  0.32076255  0.85331840  0.64668160  1
  Au  Au43  1  0.82076255  0.85331840  0.85331840  1
  Au  Au44  1  0.17923745  0.35331840  0.35331840  1
  Au  Au45  1  0.67923745  0.35331840  0.14668160  1
  Au  Au46  1  0.67923745  0.14668160  0.35331840  1
  Au  Au47  1  0.17923745  0.14668160  0.14668160  1
  Au  Au48  1  0.56721104  0.75000000  0.75000000  1
  Au  Au49  1  0.06721104  0.75000000  0.75000000  1
  Au  Au50  1  0.43278896  0.25000000  0.25000000  1
  Au  Au51  1  0.93278896  0.25000000  0.25000000  1
  Au  Au52  1  0.00000000  0.50000000  0.50000000  1
  Au  Au53  1  0.50000000  0.50000000  -0.00000000  1
  Au  Au54  1  0.50000000  -0.00000000  0.50000000  1
  Au  Au55  1  0.00000000  -0.00000000  -0.00000000  1
