# generated using pymatgen
data_Ba8Si6Sn
_symmetry_space_group_name_H-M   'P 1'
_cell_length_a   8.82667655
_cell_length_b   8.83476501
_cell_length_c   27.43303727
_cell_angle_alpha   90.00000000
_cell_angle_beta   90.00000000
_cell_angle_gamma   90.00000000
_symmetry_Int_Tables_number   1
_chemical_formula_structural   Ba8Si6Sn
_chemical_formula_sum   'Ba32 Si24 Sn4'
_cell_volume   2139.27249960
_cell_formula_units_Z   4
loop_
 _symmetry_equiv_pos_site_id
 _symmetry_equiv_pos_as_xyz
  1  'x, y, z'
loop_
 _atom_site_type_symbol
 _atom_site_label
 _atom_site_symmetry_multiplicity
 _atom_site_fract_x
 _atom_site_fract_y
 _atom_site_fract_z
 _atom_site_occupancy
  Ba  Ba0  1  0.32041373  0.94974777  0.08616032  1
  Ba  Ba1  1  0.17958627  0.55025223  0.58616032  1
  Ba  Ba2  1  0.17958627  0.44974777  0.91383968  1
  Ba  Ba3  1  0.32041373  0.05025223  0.41383968  1
  Ba  Ba4  1  0.67958627  0.05025223  0.91383968  1
  Ba  Ba5  1  0.82041373  0.44974777  0.41383968  1
  Ba  Ba6  1  0.82041373  0.55025223  0.08616032  1
  Ba  Ba7  1  0.67958627  0.94974777  0.58616032  1
  Ba  Ba8  1  0.00848284  0.81463535  0.31413712  1
  Ba  Ba9  1  0.49151716  0.68536465  0.81413712  1
  Ba  Ba10  1  0.49151716  0.31463535  0.68586288  1
  Ba  Ba11  1  0.00848284  0.18536465  0.18586288  1
  Ba  Ba12  1  0.99151716  0.18536465  0.68586288  1
  Ba  Ba13  1  0.50848284  0.31463535  0.18586288  1
  Ba  Ba14  1  0.50848284  0.68536465  0.31413712  1
  Ba  Ba15  1  0.99151716  0.81463535  0.81413712  1
  Ba  Ba16  1  0.00680176  0.78821534  0.47816469  1
  Ba  Ba17  1  0.49319824  0.71178466  0.97816469  1
  Ba  Ba18  1  0.49319824  0.28821534  0.52183531  1
  Ba  Ba19  1  0.00680176  0.21178466  0.02183531  1
  Ba  Ba20  1  0.99319824  0.21178466  0.52183531  1
  Ba  Ba21  1  0.50680176  0.28821534  0.02183531  1
  Ba  Ba22  1  0.50680176  0.71178466  0.47816469  1
  Ba  Ba23  1  0.99319824  0.78821534  0.97816469  1
  Ba  Ba24  1  0.13043773  0.67473194  0.17517178  1
  Ba  Ba25  1  0.36956227  0.82526806  0.67517178  1
  Ba  Ba26  1  0.36956227  0.17473194  0.82482822  1
  Ba  Ba27  1  0.13043773  0.32526806  0.32482822  1
  Ba  Ba28  1  0.86956227  0.32526806  0.82482822  1
  Ba  Ba29  1  0.63043773  0.17473194  0.32482822  1
  Ba  Ba30  1  0.63043773  0.82526806  0.17517178  1
  Ba  Ba31  1  0.86956227  0.67473194  0.67517178  1
  Si  Si32  1  0.23245549  0.63136206  0.39233156  1
  Si  Si33  1  0.26754451  0.86863794  0.89233156  1
  Si  Si34  1  0.26754451  0.13136206  0.60766844  1
  Si  Si35  1  0.23245549  0.36863794  0.10766844  1
  Si  Si36  1  0.76754451  0.36863794  0.60766844  1
  Si  Si37  1  0.73245549  0.13136206  0.10766844  1
  Si  Si38  1  0.73245549  0.86863794  0.39233156  1
  Si  Si39  1  0.76754451  0.63136206  0.89233156  1
  Si  Si40  1  0.20714043  0.44008082  0.45404007  1
  Si  Si41  1  0.29285957  0.05991918  0.95404007  1
  Si  Si42  1  0.29285957  0.94008082  0.54595993  1
  Si  Si43  1  0.20714043  0.55991918  0.04595993  1
  Si  Si44  1  0.79285957  0.55991918  0.54595993  1
  Si  Si45  1  0.70714043  0.94008082  0.04595993  1
  Si  Si46  1  0.70714043  0.05991918  0.45404007  1
  Si  Si47  1  0.79285957  0.44008082  0.95404007  1
  Si  Si48  1  0.42351801  0.42993832  0.39939163  1
  Si  Si49  1  0.07648199  0.07006168  0.89939163  1
  Si  Si50  1  0.07648199  0.92993832  0.60060837  1
  Si  Si51  1  0.42351801  0.57006168  0.10060837  1
  Si  Si52  1  0.57648199  0.57006168  0.60060837  1
  Si  Si53  1  0.92351801  0.92993832  0.10060837  1
  Si  Si54  1  0.92351801  0.07006168  0.39939163  1
  Si  Si55  1  0.57648199  0.42993832  0.89939163  1
  Sn  Sn56  1  0.32597466  0.00000000  0.25000000  1
  Sn  Sn57  1  0.17402534  0.50000000  0.75000000  1
  Sn  Sn58  1  0.67402534  0.00000000  0.75000000  1
  Sn  Sn59  1  0.82597466  0.50000000  0.25000000  1
