# generated using pymatgen
data_KGe
_symmetry_space_group_name_H-M   'P 1'
_cell_length_a   10.87740765
_cell_length_b   10.87740765
_cell_length_c   11.72090289
_cell_angle_alpha   117.64665652
_cell_angle_beta   117.64665652
_cell_angle_gamma   90.00000000
_symmetry_Int_Tables_number   1
_chemical_formula_structural   KGe
_chemical_formula_sum   'K16 Ge16'
_cell_volume   1046.43258357
_cell_formula_units_Z   16
loop_
 _symmetry_equiv_pos_site_id
 _symmetry_equiv_pos_as_xyz
  1  'x, y, z'
loop_
 _atom_site_type_symbol
 _atom_site_label
 _atom_site_symmetry_multiplicity
 _atom_site_fract_x
 _atom_site_fract_y
 _atom_site_fract_z
 _atom_site_occupancy
  K  K0  1  0.25000000  0.38398660  0.00000000  1
  K  K1  1  0.25000000  0.88398660  0.00000000  1
  K  K2  1  0.11601340  0.75000000  0.50000000  1
  K  K3  1  0.88398660  0.25000000  0.50000000  1
  K  K4  1  0.75000000  0.61601340  1.00000000  1
  K  K5  1  0.75000000  0.11601340  1.00000000  1
  K  K6  1  0.61601340  0.75000000  0.50000000  1
  K  K7  1  0.38398660  0.25000000  0.50000000  1
  K  K8  1  0.75178461  0.24821539  0.75000000  1
  K  K9  1  0.49821539  0.74821539  0.75000000  1
  K  K10  1  0.00178461  0.99821539  0.25000000  1
  K  K11  1  0.74821539  0.49821539  0.25000000  1
  K  K12  1  0.24821539  0.75178461  0.25000000  1
  K  K13  1  0.50178461  0.25178461  0.25000000  1
  K  K14  1  0.99821539  0.00178461  0.75000000  1
  K  K15  1  0.25178461  0.50178461  0.75000000  1
  Ge  Ge16  1  0.28311936  0.48407791  0.35375369  1
  Ge  Ge17  1  0.57063433  0.98407791  0.35375369  1
  Ge  Ge18  1  0.36967579  0.07063433  0.85375369  1
  Ge  Ge19  1  0.98407791  0.57063433  0.85375369  1
  Ge  Ge20  1  0.71688064  0.51592209  0.64624631  1
  Ge  Ge21  1  0.42936567  0.01592209  0.64624631  1
  Ge  Ge22  1  0.63032421  0.92936567  0.14624631  1
  Ge  Ge23  1  0.01592209  0.42936567  0.14624631  1
  Ge  Ge24  1  0.78311936  0.86967579  0.35375369  1
  Ge  Ge25  1  0.07063433  0.36967579  0.35375369  1
  Ge  Ge26  1  0.86967579  0.78311936  0.85375369  1
  Ge  Ge27  1  0.48407791  0.28311936  0.85375369  1
  Ge  Ge28  1  0.21688064  0.13032421  0.64624631  1
  Ge  Ge29  1  0.92936567  0.63032421  0.64624631  1
  Ge  Ge30  1  0.13032421  0.21688064  0.14624631  1
  Ge  Ge31  1  0.51592209  0.71688064  0.14624631  1
