# generated using pymatgen
data_AgSn3
_symmetry_space_group_name_H-M   'P 1'
_cell_length_a   6.77345427
_cell_length_b   6.77345440
_cell_length_c   5.15562499
_cell_angle_alpha   90.00000000
_cell_angle_beta   90.00000000
_cell_angle_gamma   120.00001319
_symmetry_Int_Tables_number   1
_chemical_formula_structural   AgSn3
_chemical_formula_sum   'Ag2 Sn6'
_cell_volume   204.84827370
_cell_formula_units_Z   2
loop_
 _symmetry_equiv_pos_site_id
 _symmetry_equiv_pos_as_xyz
  1  'x, y, z'
loop_
 _atom_site_type_symbol
 _atom_site_label
 _atom_site_symmetry_multiplicity
 _atom_site_fract_x
 _atom_site_fract_y
 _atom_site_fract_z
 _atom_site_occupancy
  Ag  Ag0  1  0.33333300  0.66666600  0.75000000  1
  Ag  Ag1  1  0.66666700  0.33333300  0.24999900  1
  Sn  Sn2  1  0.16951872  0.33903643  0.24999900  1
  Sn  Sn3  1  0.66096357  0.83048128  0.24999900  1
  Sn  Sn4  1  0.16951872  0.83048128  0.24999900  1
  Sn  Sn5  1  0.83048228  0.66096457  0.75000000  1
  Sn  Sn6  1  0.33903743  0.16951772  0.75000000  1
  Sn  Sn7  1  0.83048028  0.16951772  0.75000000  1
