# generated using pymatgen
data_K4Mo5H4Se2O23
_symmetry_space_group_name_H-M   'P 1'
_cell_length_a   10.28606638
_cell_length_b   11.13870573
_cell_length_c   12.18601597
_cell_angle_alpha   104.29226586
_cell_angle_beta   90.00000000
_cell_angle_gamma   117.49855570
_symmetry_Int_Tables_number   1
_chemical_formula_structural   K4Mo5H4Se2O23
_chemical_formula_sum   'K8 Mo10 H8 Se4 O46'
_cell_volume   1189.52537505
_cell_formula_units_Z   2
loop_
 _symmetry_equiv_pos_site_id
 _symmetry_equiv_pos_as_xyz
  1  'x, y, z'
loop_
 _atom_site_type_symbol
 _atom_site_label
 _atom_site_symmetry_multiplicity
 _atom_site_fract_x
 _atom_site_fract_y
 _atom_site_fract_z
 _atom_site_occupancy
  K  K0  1  0.98660015  0.64880215  0.22750212  1
  K  K1  1  0.33779800  0.35119785  0.77249788  1
  K  K2  1  0.33714798  0.98180137  0.75310909  1
  K  K3  1  0.35534661  0.01819863  0.24689091  1
  K  K4  1  0.74517356  0.35871792  0.90745193  1
  K  K5  1  0.38645564  0.64128208  0.09254807  1
  K  K6  1  0.92224525  0.62880510  0.59152609  1
  K  K7  1  0.29344015  0.37119490  0.40847391  1
  Mo  Mo8  1  0.69063127  1.00000000  1.00000000  1
  Mo  Mo9  1  0.73904134  0.70647336  0.89689558  1
  Mo  Mo10  1  0.03256798  0.29352664  0.10310442  1
  Mo  Mo11  1  0.10141387  0.80232844  0.96114099  1
  Mo  Mo12  1  0.29908543  0.19767156  0.03885901  1
  Mo  Mo13  1  0.64233620  0.71078321  0.38076933  1
  Mo  Mo14  1  0.93155298  0.28921679  0.61923067  1
  Mo  Mo15  1  0.36953068  0.80193621  0.44567292  1
  Mo  Mo16  1  0.56759447  0.19806379  0.55432708  1
  Mo  Mo17  1  0.98116155  0.00000000  0.50000000  1
  H  H18  1  0.95680164  0.42646087  0.36642239  1
  H  H19  1  0.53034077  0.57353913  0.63357761  1
  H  H20  1  0.79231493  0.39252772  0.36102220  1
  H  H21  1  0.39978721  0.60747228  0.63897780  1
  H  H22  1  0.71563590  0.33356577  0.15693863  1
  H  H23  1  0.38207013  0.66643423  0.84306137  1
  H  H24  1  0.63313479  0.42193305  0.16609003  1
  H  H25  1  0.21120174  0.57806695  0.83390997  1
  Se  Se26  1  0.98073928  0.01926014  0.83015205  1
  Se  Se27  1  0.96147914  0.98073986  0.16984795  1
  Se  Se28  1  0.67972155  0.96060111  0.66385059  1
  Se  Se29  1  0.71912044  0.03939889  0.33614941  1
  O  O30  1  0.89281214  0.47033306  0.37174690  1
  O  O31  1  0.42247908  0.52966694  0.62825310  1
  O  O32  1  0.16710769  0.11738791  0.85581028  1
  O  O33  1  0.04971978  0.88261209  0.14418972  1
  O  O34  1  0.72158160  0.41771589  0.14126692  1
  O  O35  1  0.30386571  0.58228411  0.85873308  1
  O  O36  1  0.91849898  0.11325505  0.93371961  1
  O  O37  1  0.80524393  0.88674495  0.06628039  1
  O  O38  1  0.95880316  0.87991160  0.88521829  1
  O  O39  1  0.07889156  0.12008840  0.11478171  1
  O  O40  1  0.49419803  0.86057343  0.62798367  1
  O  O41  1  0.63362460  0.13942657  0.37201633  1
  O  O42  1  0.74969438  0.88058349  0.55623791  1
  O  O43  1  0.86911089  0.11941651  0.44376209  1
  O  O44  1  0.71005620  0.11334914  0.62616789  1
  O  O45  1  0.59670707  0.88665086  0.37383211  1
  O  O46  1  0.89168831  0.66742661  0.95159768  1
  O  O47  1  0.22426170  0.33257339  0.04840232  1
  O  O48  1  0.66377718  0.83623276  0.87754629  1
  O  O49  1  0.82754442  0.16376724  0.12245371  1
  O  O50  1  0.18105469  0.73748666  0.04116335  1
  O  O51  1  0.44356803  0.26251334  0.95883665  1
  O  O52  1  0.59016123  0.58976158  0.95079379  1
  O  O53  1  0.00039965  0.41023842  0.04920621  1
  O  O54  1  0.84938349  0.84503953  0.36879166  1
  O  O55  1  0.00434396  0.15496047  0.63120834  1
  O  O56  1  0.66874639  0.59547426  0.44057276  1
  O  O57  1  0.07327213  0.40452574  0.55942724  1
  O  O58  1  0.13801447  0.74737913  0.82195540  1
  O  O59  1  0.39063534  0.25262087  0.17804460  1
  O  O60  1  0.44229574  0.66559616  0.42326152  1
  O  O61  1  0.77669959  0.33440384  0.57673848  1
  O  O62  1  0.42347219  0.00000000  0.50000000  1
  O  O63  1  0.28752711  0.76744607  0.30614702  1
  O  O64  1  0.52008104  0.23255393  0.69385298  1
  O  O65  1  0.04311435  0.91519453  0.57344779  1
  O  O66  1  0.12791982  0.08480547  0.42655221  1
  O  O67  1  0.54897539  0.92649197  0.08119980  1
  O  O68  1  0.62248342  0.07350803  0.91880020  1
  O  O69  1  0.71339157  0.62038363  0.75126724  1
  O  O70  1  0.09300794  0.37961637  0.24873276  1
  O  O71  1  0.59269014  0.62457983  0.23483961  1
  O  O72  1  0.96811031  0.37542017  0.76516039  1
  O  O73  1  0.21686386  0.72737768  0.51545497  1
  O  O74  1  0.48948618  0.27262232  0.48454503  1
  O  O75  1  0.25025490  1.00000000  1.00000000  1
