# generated using pymatgen
data_Ti2Bi2O7
_symmetry_space_group_name_H-M   'P 1'
_cell_length_a   7.42726908
_cell_length_b   7.45512169
_cell_length_c   10.52072379
_cell_angle_alpha   90.00000000
_cell_angle_beta   90.00000000
_cell_angle_gamma   90.00000000
_symmetry_Int_Tables_number   1
_chemical_formula_structural   Ti2Bi2O7
_chemical_formula_sum   'Ti8 Bi8 O28'
_cell_volume   582.54504658
_cell_formula_units_Z   4
loop_
 _symmetry_equiv_pos_site_id
 _symmetry_equiv_pos_as_xyz
  1  'x, y, z'
loop_
 _atom_site_type_symbol
 _atom_site_label
 _atom_site_symmetry_multiplicity
 _atom_site_fract_x
 _atom_site_fract_y
 _atom_site_fract_z
 _atom_site_occupancy
  Ti  Ti0  1  0.00970700  0.00495012  0.98982542  1
  Ti  Ti1  1  0.99029300  0.50495012  0.01017458  1
  Ti  Ti2  1  0.49029300  0.50495012  0.48982542  1
  Ti  Ti3  1  0.50970700  0.00495012  0.51017458  1
  Ti  Ti4  1  0.23942760  0.24495743  0.26236006  1
  Ti  Ti5  1  0.76057240  0.74495743  0.73763994  1
  Ti  Ti6  1  0.26057240  0.74495743  0.76236006  1
  Ti  Ti7  1  0.73942760  0.24495743  0.23763994  1
  Bi  Bi8  1  0.03681844  0.97484677  0.52924410  1
  Bi  Bi9  1  0.96318156  0.47484677  0.47075590  1
  Bi  Bi10  1  0.46318156  0.47484677  0.02924410  1
  Bi  Bi11  1  0.53681844  0.97484677  0.97075590  1
  Bi  Bi12  1  0.28218336  0.29190317  0.73372641  1
  Bi  Bi13  1  0.71781664  0.79190317  0.26627359  1
  Bi  Bi14  1  0.21781664  0.79190317  0.23372641  1
  Bi  Bi15  1  0.78218336  0.29190317  0.76627359  1
  O  O16  1  0.19027691  0.43718876  0.12330464  1
  O  O17  1  0.80972309  0.93718876  0.87669536  1
  O  O18  1  0.30972309  0.93718876  0.62330464  1
  O  O19  1  0.69027691  0.43718876  0.37669536  1
  O  O20  1  0.70258589  0.93223269  0.61634507  1
  O  O21  1  0.29741411  0.43223269  0.38365493  1
  O  O22  1  0.79741411  0.43223269  0.11634507  1
  O  O23  1  0.20258589  0.93223269  0.88365493  1
  O  O24  1  0.78996274  0.04633641  0.12439356  1
  O  O25  1  0.21003726  0.54633641  0.87560644  1
  O  O26  1  0.71003726  0.54633641  0.62439356  1
  O  O27  1  0.28996274  0.04633641  0.37560644  1
  O  O28  1  0.32858479  0.55263454  0.63525874  1
  O  O29  1  0.67141521  0.05263454  0.36474126  1
  O  O30  1  0.17141521  0.05263454  0.13525874  1
  O  O31  1  0.82858479  0.55263454  0.86474126  1
  O  O32  1  0.98790256  0.26165332  0.31629753  1
  O  O33  1  0.01209744  0.76165332  0.68370247  1
  O  O34  1  0.51209744  0.76165332  0.81629753  1
  O  O35  1  0.48790256  0.26165332  0.18370247  1
  O  O36  1  0.50412324  0.74496192  0.42909340  1
  O  O37  1  0.49587676  0.24496192  0.57090660  1
  O  O38  1  0.99587676  0.24496192  0.92909340  1
  O  O39  1  0.00412324  0.74496192  0.07090660  1
  O  O40  1  0.98333574  0.75821487  0.37727964  1
  O  O41  1  0.01666426  0.25821487  0.62272036  1
  O  O42  1  0.51666426  0.25821487  0.87727964  1
  O  O43  1  0.48333574  0.75821487  0.12272036  1
