# generated using pymatgen
data_Pr6TlFe13
_symmetry_space_group_name_H-M   'P 1'
_cell_length_a   8.06930804
_cell_length_b   8.06930804
_cell_length_c   13.17107013
_cell_angle_alpha   107.83801321
_cell_angle_beta   107.83801321
_cell_angle_gamma   90.00000000
_symmetry_Int_Tables_number   1
_chemical_formula_structural   Pr6TlFe13
_chemical_formula_sum   'Pr12 Tl2 Fe26'
_cell_volume   772.96398901
_cell_formula_units_Z   2
loop_
 _symmetry_equiv_pos_site_id
 _symmetry_equiv_pos_as_xyz
  1  'x, y, z'
loop_
 _atom_site_type_symbol
 _atom_site_label
 _atom_site_symmetry_multiplicity
 _atom_site_fract_x
 _atom_site_fract_y
 _atom_site_fract_z
 _atom_site_occupancy
  Pr  Pr0  1  0.98118883  0.48118883  0.63324503  1
  Pr  Pr1  1  0.65205620  0.15205620  0.63324503  1
  Pr  Pr2  1  0.15205620  0.98118883  0.63324503  1
  Pr  Pr3  1  0.48118883  0.65205620  0.63324503  1
  Pr  Pr4  1  0.01881117  0.51881117  0.36675497  1
  Pr  Pr5  1  0.34794380  0.84794380  0.36675497  1
  Pr  Pr6  1  0.84794380  0.01881117  0.36675497  1
  Pr  Pr7  1  0.51881117  0.34794380  0.36675497  1
  Pr  Pr8  1  0.60378655  0.60378655  0.20757310  1
  Pr  Pr9  1  0.10378655  0.10378655  0.20757310  1
  Pr  Pr10  1  0.39621345  0.39621345  0.79242690  1
  Pr  Pr11  1  0.89621345  0.89621345  0.79242690  1
  Tl  Tl12  1  0.25000000  0.25000000  0.50000000  1
  Tl  Tl13  1  0.75000000  0.75000000  0.50000000  1
  Fe  Fe14  1  -0.00000000  0.50000000  0.00000000  1
  Fe  Fe15  1  0.50000000  0.00000000  0.00000000  1
  Fe  Fe16  1  0.70955206  0.56702638  1.00000000  1
  Fe  Fe17  1  0.29044794  0.43297362  0.00000000  1
  Fe  Fe18  1  0.79044794  0.06702638  1.00000000  1
  Fe  Fe19  1  0.20955206  0.93297362  0.00000000  1
  Fe  Fe20  1  0.56702638  0.29044794  1.00000000  1
  Fe  Fe21  1  0.43297362  0.70955206  0.00000000  1
  Fe  Fe22  1  0.06702638  0.20955206  1.00000000  1
  Fe  Fe23  1  0.93297362  0.79044794  0.00000000  1
  Fe  Fe24  1  0.12028602  0.62028602  0.88466777  1
  Fe  Fe25  1  0.76438175  0.26438175  0.88466777  1
  Fe  Fe26  1  0.26438175  0.12028602  0.88466777  1
  Fe  Fe27  1  0.62028602  0.76438175  0.88466777  1
  Fe  Fe28  1  0.87971398  0.37971398  0.11533223  1
  Fe  Fe29  1  0.23561825  0.73561825  0.11533223  1
  Fe  Fe30  1  0.73561825  0.87971398  0.11533223  1
  Fe  Fe31  1  0.37971398  0.23561825  0.11533223  1
  Fe  Fe32  1  0.29477718  0.79477718  0.81529324  1
  Fe  Fe33  1  0.52051606  0.02051606  0.81529324  1
  Fe  Fe34  1  0.02051606  0.29477718  0.81529324  1
  Fe  Fe35  1  0.79477718  0.52051606  0.81529324  1
  Fe  Fe36  1  0.70522282  0.20522282  0.18470676  1
  Fe  Fe37  1  0.47948394  0.97948394  0.18470676  1
  Fe  Fe38  1  0.97948394  0.70522282  0.18470676  1
  Fe  Fe39  1  0.20522282  0.47948394  0.18470676  1
