# generated using pymatgen
data_LaH3CSO7
_symmetry_space_group_name_H-M   'P 1'
_cell_length_a   7.10762944
_cell_length_b   7.10762944
_cell_length_c   11.99669709
_cell_angle_alpha   90.00000000
_cell_angle_beta   90.00000000
_cell_angle_gamma   90.00000000
_symmetry_Int_Tables_number   1
_chemical_formula_structural   LaH3CSO7
_chemical_formula_sum   'La4 H12 C4 S4 O28'
_cell_volume   606.05389736
_cell_formula_units_Z   4
loop_
 _symmetry_equiv_pos_site_id
 _symmetry_equiv_pos_as_xyz
  1  'x, y, z'
loop_
 _atom_site_type_symbol
 _atom_site_label
 _atom_site_symmetry_multiplicity
 _atom_site_fract_x
 _atom_site_fract_y
 _atom_site_fract_z
 _atom_site_occupancy
  La  La0  1  0.39319412  0.86042115  0.50730603  1
  La  La1  1  0.60680588  0.13957885  0.00730603  1
  La  La2  1  0.86042115  0.60680588  0.75730603  1
  La  La3  1  0.13957885  0.39319412  0.25730603  1
  H  H4  1  0.46754832  0.33579642  0.55213619  1
  H  H5  1  0.53245168  0.66420358  0.05213619  1
  H  H6  1  0.33579642  0.53245168  0.80213619  1
  H  H7  1  0.66420358  0.46754832  0.30213619  1
  H  H8  1  0.12150589  0.03846650  0.68949566  1
  H  H9  1  0.87849411  0.96153350  0.18949566  1
  H  H10  1  0.03846650  0.87849411  0.93949566  1
  H  H11  1  0.96153350  0.12150589  0.43949566  1
  H  H12  1  0.32338526  0.09242063  0.73261411  1
  H  H13  1  0.67661474  0.90757937  0.23261411  1
  H  H14  1  0.09242063  0.67661474  0.98261411  1
  H  H15  1  0.90757937  0.32338526  0.48261411  1
  C  C16  1  0.39600923  0.34600478  0.47087495  1
  C  C17  1  0.60399077  0.65399522  0.97087495  1
  C  C18  1  0.34600478  0.60399077  0.72087495  1
  C  C19  1  0.65399522  0.39600923  0.22087495  1
  S  S20  1  0.25327776  0.88738384  0.20173251  1
  S  S21  1  0.74672224  0.11261616  0.70173251  1
  S  S22  1  0.88738384  0.74672224  0.45173251  1
  S  S23  1  0.11261616  0.25327776  0.95173251  1
  O  O24  1  0.37789974  0.95770553  0.11215360  1
  O  O25  1  0.62210026  0.04229447  0.61215360  1
  O  O26  1  0.95770553  0.62210026  0.36215360  1
  O  O27  1  0.04229447  0.37789974  0.86215360  1
  O  O28  1  0.11391823  0.03816457  0.23039662  1
  O  O29  1  0.88608177  0.96183543  0.73039662  1
  O  O30  1  0.03816457  0.88608177  0.48039662  1
  O  O31  1  0.96183543  0.11391823  0.98039662  1
  O  O32  1  0.35795317  0.19493455  0.41875157  1
  O  O33  1  0.64204683  0.80506545  0.91875157  1
  O  O34  1  0.19493455  0.64204683  0.66875157  1
  O  O35  1  0.80506545  0.35795317  0.16875157  1
  O  O36  1  0.71650982  0.84595216  0.41144819  1
  O  O37  1  0.28349018  0.15404784  0.91144819  1
  O  O38  1  0.84595216  0.28349018  0.66144819  1
  O  O39  1  0.15404784  0.71650982  0.16144819  1
  O  O40  1  0.36732956  0.83708985  0.30121933  1
  O  O41  1  0.63267044  0.16291015  0.80121933  1
  O  O42  1  0.83708985  0.63267044  0.55121933  1
  O  O43  1  0.16291015  0.36732956  0.05121933  1
  O  O44  1  0.35434593  0.50777251  0.43212048  1
  O  O45  1  0.64565407  0.49222749  0.93212048  1
  O  O46  1  0.50777251  0.64565407  0.68212048  1
  O  O47  1  0.49222749  0.35434593  0.18212048  1
  O  O48  1  0.25330583  0.05633240  0.66560076  1
  O  O49  1  0.74669417  0.94366760  0.16560076  1
  O  O50  1  0.05633240  0.74669417  0.91560076  1
  O  O51  1  0.94366760  0.25330583  0.41560076  1
