# generated using pymatgen
data_HgH16(Br3N2)2
_symmetry_space_group_name_H-M   'P 1'
_cell_length_a   9.09754983
_cell_length_b   9.43880690
_cell_length_c   9.43880690
_cell_angle_alpha   90.00000000
_cell_angle_beta   90.00000000
_cell_angle_gamma   90.00000000
_symmetry_Int_Tables_number   1
_chemical_formula_structural   HgH16(Br3N2)2
_chemical_formula_sum   'Hg2 H32 Br12 N8'
_cell_volume   810.51050055
_cell_formula_units_Z   2
loop_
 _symmetry_equiv_pos_site_id
 _symmetry_equiv_pos_as_xyz
  1  'x, y, z'
loop_
 _atom_site_type_symbol
 _atom_site_label
 _atom_site_symmetry_multiplicity
 _atom_site_fract_x
 _atom_site_fract_y
 _atom_site_fract_z
 _atom_site_occupancy
  Hg  Hg0  1  0.00000000  -0.00000000  -0.00000000  1
  Hg  Hg1  1  0.50000000  0.50000000  0.50000000  1
  H  H2  1  0.68802016  0.14584986  0.73690413  1
  H  H3  1  0.68802016  0.85415014  0.26309587  1
  H  H4  1  0.18802016  0.35415014  0.23690413  1
  H  H5  1  0.18802016  0.64584986  0.76309587  1
  H  H6  1  0.68802016  0.73690413  0.85415014  1
  H  H7  1  0.68802016  0.26309587  0.14584986  1
  H  H8  1  0.18802016  0.23690413  0.64584986  1
  H  H9  1  0.18802016  0.76309587  0.35415014  1
  H  H10  1  0.31197984  0.85415014  0.26309587  1
  H  H11  1  0.31197984  0.14584986  0.73690413  1
  H  H12  1  0.81197984  0.64584986  0.76309587  1
  H  H13  1  0.81197984  0.35415014  0.23690413  1
  H  H14  1  0.31197984  0.26309587  0.14584986  1
  H  H15  1  0.31197984  0.73690413  0.85415014  1
  H  H16  1  0.81197984  0.76309587  0.35415014  1
  H  H17  1  0.81197984  0.23690413  0.64584986  1
  H  H18  1  0.81954002  0.05796575  0.64670211  1
  H  H19  1  0.81954002  0.94203425  0.35329789  1
  H  H20  1  0.31954002  0.44203425  0.14670211  1
  H  H21  1  0.31954002  0.55796575  0.85329789  1
  H  H22  1  0.81954002  0.64670211  0.94203425  1
  H  H23  1  0.81954002  0.35329789  0.05796575  1
  H  H24  1  0.31954002  0.14670211  0.55796575  1
  H  H25  1  0.31954002  0.85329789  0.44203425  1
  H  H26  1  0.18045998  0.94203425  0.35329789  1
  H  H27  1  0.18045998  0.05796575  0.64670211  1
  H  H28  1  0.68045998  0.55796575  0.85329789  1
  H  H29  1  0.68045998  0.44203425  0.14670211  1
  H  H30  1  0.18045998  0.35329789  0.05796575  1
  H  H31  1  0.18045998  0.64670211  0.94203425  1
  H  H32  1  0.68045998  0.85329789  0.44203425  1
  H  H33  1  0.68045998  0.14670211  0.55796575  1
  Br  Br34  1  0.71986208  -0.00000000  0.00000000  1
  Br  Br35  1  0.21986208  0.50000000  0.50000000  1
  Br  Br36  1  0.28013792  0.00000000  -0.00000000  1
  Br  Br37  1  0.78013792  0.50000000  0.50000000  1
  Br  Br38  1  0.00000000  0.88078576  0.67823717  1
  Br  Br39  1  0.00000000  0.11921424  0.32176283  1
  Br  Br40  1  0.50000000  0.61921424  0.17823717  1
  Br  Br41  1  0.50000000  0.38078576  0.82176283  1
  Br  Br42  1  0.00000000  0.67823717  0.11921424  1
  Br  Br43  1  0.00000000  0.32176283  0.88078576  1
  Br  Br44  1  0.50000000  0.17823717  0.38078576  1
  Br  Br45  1  0.50000000  0.82176283  0.61921424  1
  N  N46  1  0.75000000  0.14604905  0.64604905  1
  N  N47  1  0.75000000  0.85395095  0.35395095  1
  N  N48  1  0.25000000  0.35395095  0.14604905  1
  N  N49  1  0.25000000  0.64604905  0.85395095  1
  N  N50  1  0.75000000  0.64604905  0.85395095  1
  N  N51  1  0.75000000  0.35395095  0.14604905  1
  N  N52  1  0.25000000  0.14604905  0.64604905  1
  N  N53  1  0.25000000  0.85395095  0.35395095  1
