# generated using pymatgen
data_Nd4B4O11F2
_symmetry_space_group_name_H-M   'P 1'
_cell_length_a   4.74149603
_cell_length_b   7.38037319
_cell_length_c   14.04956699
_cell_angle_alpha   91.02704212
_cell_angle_beta   90.00000000
_cell_angle_gamma   108.73692674
_symmetry_Int_Tables_number   1
_chemical_formula_structural   Nd4B4O11F2
_chemical_formula_sum   'Nd8 B8 O22 F4'
_cell_volume   465.51149276
_cell_formula_units_Z   2
loop_
 _symmetry_equiv_pos_site_id
 _symmetry_equiv_pos_as_xyz
  1  'x, y, z'
loop_
 _atom_site_type_symbol
 _atom_site_label
 _atom_site_symmetry_multiplicity
 _atom_site_fract_x
 _atom_site_fract_y
 _atom_site_fract_z
 _atom_site_occupancy
  Nd  Nd0  1  0.46548372  0.88334130  0.12940503  1
  Nd  Nd1  1  0.58214241  0.11665870  0.37059497  1
  Nd  Nd2  1  0.53451628  0.11665870  0.87059497  1
  Nd  Nd3  1  0.41785759  0.88334130  0.62940503  1
  Nd  Nd4  1  0.74187268  0.44165778  0.12858196  1
  Nd  Nd5  1  0.30021490  0.55834222  0.37141804  1
  Nd  Nd6  1  0.25812732  0.55834222  0.87141804  1
  Nd  Nd7  1  0.69978510  0.44165778  0.62858196  1
  B  B8  1  0.07293899  0.18521136  0.21485568  1
  B  B9  1  0.88772763  0.81478864  0.28514432  1
  B  B10  1  0.92706101  0.81478864  0.78514432  1
  B  B11  1  0.11227237  0.18521136  0.71485568  1
  B  B12  1  0.85806109  0.81114077  0.97331836  1
  B  B13  1  0.04692032  0.18885923  0.52668164  1
  B  B14  1  0.14193891  0.18885923  0.02668164  1
  B  B15  1  0.95307968  0.81114077  0.47331836  1
  O  O16  1  0.96172018  0.17510376  0.10706944  1
  O  O17  1  0.78661642  0.82489624  0.39293056  1
  O  O18  1  0.03827982  0.82489624  0.89293056  1
  O  O19  1  0.21338358  0.17510376  0.60706944  1
  O  O20  1  0.64679392  0.65741949  0.24262381  1
  O  O21  1  0.98937443  0.34258051  0.25737619  1
  O  O22  1  0.35320608  0.34258051  0.75737619  1
  O  O23  1  0.01062557  0.65741949  0.74262381  1
  O  O24  1  0.58595752  0.84014934  0.96359550  1
  O  O25  1  0.74580818  0.15985066  0.53640450  1
  O  O26  1  0.41404248  0.15985066  0.03640450  1
  O  O27  1  0.25419182  0.84014934  0.46359550  1
  O  O28  1  0.85583743  0.00000000  0.25000000  1
  O  O29  1  0.14416257  1.00000000  0.75000000  1
  O  O30  1  0.94548376  0.77396091  0.06228823  1
  O  O31  1  0.17152285  0.22603909  0.43771177  1
  O  O32  1  0.05451624  0.22603909  0.93771177  1
  O  O33  1  0.82847715  0.77396091  0.56228823  1
  O  O34  1  0.37802268  0.19940375  0.22523617  1
  O  O35  1  0.17861894  0.80059625  0.27476383  1
  O  O36  1  0.62197732  0.80059625  0.77476383  1
  O  O37  1  0.82138106  0.19940375  0.72523617  1
  F  F38  1  0.29256067  0.53911379  0.07562337  1
  F  F39  1  0.75344688  0.46088621  0.42437663  1
  F  F40  1  0.70743933  0.46088621  0.92437663  1
  F  F41  1  0.24655312  0.53911379  0.57562337  1
