# generated using pymatgen
data_BaLa2Ti3O10
_symmetry_space_group_name_H-M   'P 1'
_cell_length_a   3.92151989
_cell_length_b   7.74441323
_cell_length_c   14.49959753
_cell_angle_alpha   90.00000000
_cell_angle_beta   97.77183763
_cell_angle_gamma   90.00000000
_symmetry_Int_Tables_number   1
_chemical_formula_structural   BaLa2Ti3O10
_chemical_formula_sum   'Ba2 La4 Ti6 O20'
_cell_volume   436.30602487
_cell_formula_units_Z   2
loop_
 _symmetry_equiv_pos_site_id
 _symmetry_equiv_pos_as_xyz
  1  'x, y, z'
loop_
 _atom_site_type_symbol
 _atom_site_label
 _atom_site_symmetry_multiplicity
 _atom_site_fract_x
 _atom_site_fract_y
 _atom_site_fract_z
 _atom_site_occupancy
  Ba  Ba0  1  0.73498226  0.75000000  0.46996452  1
  Ba  Ba1  1  0.26501774  0.25000000  0.53003548  1
  La  La2  1  0.42305915  0.75000000  0.84611830  1
  La  La3  1  0.57694085  0.25000000  0.15388170  1
  La  La4  1  0.57449514  0.75000000  0.14899029  1
  La  La5  1  0.42550486  0.25000000  0.85100971  1
  Ti  Ti6  1  -0.00000000  0.50000000  -0.00000000  1
  Ti  Ti7  1  -0.00000000  0.00000000  -0.00000000  1
  Ti  Ti8  1  0.85322139  0.49923172  0.70644278  1
  Ti  Ti9  1  0.14677861  0.50076828  0.29355722  1
  Ti  Ti10  1  0.85322139  0.00076828  0.70644278  1
  Ti  Ti11  1  0.14677861  0.99923172  0.29355722  1
  O  O12  1  0.50000000  0.50000000  -0.00000000  1
  O  O13  1  0.50000000  0.00000000  -0.00000000  1
  O  O14  1  0.00368307  0.75000000  0.00736615  1
  O  O15  1  0.99631693  0.25000000  0.99263385  1
  O  O16  1  0.12917897  0.75000000  0.25835795  1
  O  O17  1  0.87082103  0.25000000  0.74164205  1
  O  O18  1  0.86308202  0.75000000  0.72616404  1
  O  O19  1  0.13691798  0.25000000  0.27383596  1
  O  O20  1  0.93242273  0.51327583  0.86484547  1
  O  O21  1  0.06757727  0.48672417  0.13515453  1
  O  O22  1  0.93242273  0.98672417  0.86484547  1
  O  O23  1  0.06757727  0.01327583  0.13515453  1
  O  O24  1  0.79208950  0.47221234  0.58417901  1
  O  O25  1  0.20791050  0.52778766  0.41582099  1
  O  O26  1  0.79208950  0.02778766  0.58417901  1
  O  O27  1  0.20791050  0.97221234  0.41582099  1
  O  O28  1  0.36711119  0.49633430  0.73422237  1
  O  O29  1  0.63288881  0.50366570  0.26577763  1
  O  O30  1  0.36711119  0.00366570  0.73422237  1
  O  O31  1  0.63288881  0.99633430  0.26577763  1
