# generated using pymatgen
data_La4Cu3MoO12
_symmetry_space_group_name_H-M   'P 1'
_cell_length_a   6.93006616
_cell_length_b   7.97376889
_cell_length_c   10.98149963
_cell_angle_alpha   90.00000000
_cell_angle_beta   90.00000000
_cell_angle_gamma   90.04695732
_symmetry_Int_Tables_number   1
_chemical_formula_structural   La4Cu3MoO12
_chemical_formula_sum   'La8 Cu6 Mo2 O24'
_cell_volume   606.82369412
_cell_formula_units_Z   2
loop_
 _symmetry_equiv_pos_site_id
 _symmetry_equiv_pos_as_xyz
  1  'x, y, z'
loop_
 _atom_site_type_symbol
 _atom_site_label
 _atom_site_symmetry_multiplicity
 _atom_site_fract_x
 _atom_site_fract_y
 _atom_site_fract_z
 _atom_site_occupancy
  La  La0  1  0.74755911  0.88168372  0.75174629  1
  La  La1  1  0.74755911  0.88168372  0.24825371  1
  La  La2  1  0.75628416  0.37175950  0.75052011  1
  La  La3  1  0.75628416  0.37175950  0.24947989  1
  La  La4  1  0.23340287  0.63408240  0.74754527  1
  La  La5  1  0.23340287  0.63408240  0.25245473  1
  La  La6  1  0.24400901  0.12352677  0.75005110  1
  La  La7  1  0.24400901  0.12352677  0.24994890  1
  Cu  Cu8  1  0.45357830  0.87697696  0.50000000  1
  Cu  Cu9  1  0.88293332  0.65977263  0.50000000  1
  Cu  Cu10  1  0.88894194  0.09736030  0.50000000  1
  Cu  Cu11  1  0.54108785  0.14004158  -0.00000000  1
  Cu  Cu12  1  0.10692939  0.91221075  -0.00000000  1
  Cu  Cu13  1  0.10439385  0.34885415  -0.00000000  1
  Mo  Mo14  1  0.41250860  0.37865711  0.50000000  1
  Mo  Mo15  1  0.57218931  0.62487135  0.00000000  1
  O  O16  1  0.73609452  0.88028005  0.50000000  1
  O  O17  1  0.68086569  0.37828476  0.50000000  1
  O  O18  1  0.27786472  0.57883678  0.50000000  1
  O  O19  1  0.27667267  0.17923876  0.50000000  1
  O  O20  1  0.57727516  0.62391535  0.82390066  1
  O  O21  1  0.57727516  0.62391535  0.17609934  1
  O  O22  1  0.57933492  0.12662152  0.83443323  1
  O  O23  1  0.57933492  0.12662152  0.16556677  1
  O  O24  1  0.08005911  0.88118579  0.83332141  1
  O  O25  1  0.08005911  0.88118579  0.16667859  1
  O  O26  1  0.07755690  0.37859673  0.83376607  1
  O  O27  1  0.07755690  0.37859673  0.16623393  1
  O  O28  1  0.91197640  0.12571452  0.66661056  1
  O  O29  1  0.91197640  0.12571452  0.33338944  1
  O  O30  1  0.41350880  0.37824666  0.67611901  1
  O  O31  1  0.41350880  0.37824666  0.32388099  1
  O  O32  1  0.41242336  0.87744602  0.66504918  1
  O  O33  1  0.41242336  0.87744602  0.33495082  1
  O  O34  1  0.91234385  0.63006379  0.66676334  1
  O  O35  1  0.91234385  0.63006379  0.33323666  1
  O  O36  1  0.25687786  0.13337126  0.00000000  1
  O  O37  1  0.30660919  0.64403915  0.00000000  1
  O  O38  1  0.68711236  0.41313789  -0.00000000  1
  O  O39  1  0.71327312  0.82088099  -0.00000000  1
