# generated using pymatgen
data_AgIO3
_symmetry_space_group_name_H-M   'P 1'
_cell_length_a   5.91228316
_cell_length_b   6.29886878
_cell_length_c   17.39620159
_cell_angle_alpha   90.00000000
_cell_angle_beta   90.00000000
_cell_angle_gamma   90.00000000
_symmetry_Int_Tables_number   1
_chemical_formula_structural   AgIO3
_chemical_formula_sum   'Ag8 I8 O24'
_cell_volume   647.84665175
_cell_formula_units_Z   8
loop_
 _symmetry_equiv_pos_site_id
 _symmetry_equiv_pos_as_xyz
  1  'x, y, z'
loop_
 _atom_site_type_symbol
 _atom_site_label
 _atom_site_symmetry_multiplicity
 _atom_site_fract_x
 _atom_site_fract_y
 _atom_site_fract_z
 _atom_site_occupancy
  Ag  Ag0  1  0.51659686  0.28728144  0.53993154  1
  Ag  Ag1  1  0.48340314  0.78728144  0.96006846  1
  Ag  Ag2  1  0.98340314  0.71271856  0.03993154  1
  Ag  Ag3  1  0.01659686  0.21271856  0.46006846  1
  Ag  Ag4  1  0.48340314  0.71271856  0.46006846  1
  Ag  Ag5  1  0.51659686  0.21271856  0.03993154  1
  Ag  Ag6  1  0.01659686  0.28728144  0.96006846  1
  Ag  Ag7  1  0.98340314  0.78728144  0.53993154  1
  I  I8  1  0.01352130  0.30953001  0.66103959  1
  I  I9  1  0.98647870  0.80953001  0.83896041  1
  I  I10  1  0.48647870  0.69046999  0.16103959  1
  I  I11  1  0.51352130  0.19046999  0.33896041  1
  I  I12  1  0.98647870  0.69046999  0.33896041  1
  I  I13  1  0.01352130  0.19046999  0.16103959  1
  I  I14  1  0.51352130  0.30953001  0.83896041  1
  I  I15  1  0.48647870  0.80953001  0.66103959  1
  O  O16  1  0.14291844  0.40388079  0.56947232  1
  O  O17  1  0.85708156  0.90388079  0.93052768  1
  O  O18  1  0.35708156  0.59611921  0.06947232  1
  O  O19  1  0.64291844  0.09611921  0.43052768  1
  O  O20  1  0.85708156  0.59611921  0.43052768  1
  O  O21  1  0.14291844  0.09611921  0.06947232  1
  O  O22  1  0.64291844  0.40388079  0.93052768  1
  O  O23  1  0.35708156  0.90388079  0.56947232  1
  O  O24  1  0.24448295  0.15854110  0.70524600  1
  O  O25  1  0.75551705  0.65854110  0.79475400  1
  O  O26  1  0.25551705  0.84145890  0.20524600  1
  O  O27  1  0.74448295  0.34145890  0.29475400  1
  O  O28  1  0.75551705  0.84145890  0.29475400  1
  O  O29  1  0.24448295  0.34145890  0.20524600  1
  O  O30  1  0.74448295  0.15854110  0.79475400  1
  O  O31  1  0.25551705  0.65854110  0.70524600  1
  O  O32  1  0.84247777  0.09853701  0.61366716  1
  O  O33  1  0.15752223  0.59853701  0.88633284  1
  O  O34  1  0.65752223  0.90146299  0.11366716  1
  O  O35  1  0.34247777  0.40146299  0.38633284  1
  O  O36  1  0.15752223  0.90146299  0.38633284  1
  O  O37  1  0.84247777  0.40146299  0.11366716  1
  O  O38  1  0.34247777  0.09853701  0.88633284  1
  O  O39  1  0.65752223  0.59853701  0.61366716  1
