# generated using pymatgen
data_Na4Cr2H6O11
_symmetry_space_group_name_H-M   'P 1'
_cell_length_a   5.55735765
_cell_length_b   5.55735765
_cell_length_c   18.19683689
_cell_angle_alpha   96.71930915
_cell_angle_beta   96.71930915
_cell_angle_gamma   103.51866770
_symmetry_Int_Tables_number   1
_chemical_formula_structural   Na4Cr2H6O11
_chemical_formula_sum   'Na8 Cr4 H12 O22'
_cell_volume   536.57273676
_cell_formula_units_Z   2
loop_
 _symmetry_equiv_pos_site_id
 _symmetry_equiv_pos_as_xyz
  1  'x, y, z'
loop_
 _atom_site_type_symbol
 _atom_site_label
 _atom_site_symmetry_multiplicity
 _atom_site_fract_x
 _atom_site_fract_y
 _atom_site_fract_z
 _atom_site_occupancy
  Na  Na0  1  0.56407509  0.23769123  0.18954392  1
  Na  Na1  1  0.04814730  0.37453116  0.81045608  1
  Na  Na2  1  0.62453116  0.79814730  0.31045608  1
  Na  Na3  1  0.48769123  0.31407509  0.68954392  1
  Na  Na4  1  0.90084723  0.31395103  0.00718003  1
  Na  Na5  1  0.30677100  0.89366720  0.99281997  1
  Na  Na6  1  0.14366720  0.05677100  0.49281997  1
  Na  Na7  1  0.56395103  0.65084723  0.50718003  1
  Cr  Cr8  1  0.86412521  0.84041518  0.12270998  1
  Cr  Cr9  1  0.71770520  0.74141523  0.87729002  1
  Cr  Cr10  1  0.99141523  0.46770520  0.37729002  1
  Cr  Cr11  1  0.09041518  0.61412521  0.62270998  1
  H  H12  1  0.15924164  0.49198032  0.23031626  1
  H  H13  1  0.26166406  0.92892538  0.76968374  1
  H  H14  1  0.17892538  0.01166406  0.26968374  1
  H  H15  1  0.74198032  0.90924164  0.73031626  1
  H  H16  1  0.27792647  0.63507868  0.16921761  1
  H  H17  1  0.46586107  0.10870886  0.83078239  1
  H  H18  1  0.35870886  0.21586107  0.33078239  1
  H  H19  1  0.88507868  0.02792647  0.66921761  1
  H  H20  1  0.46710664  0.41907021  0.04263628  1
  H  H21  1  0.37643393  0.42447036  0.95736372  1
  H  H22  1  0.67447036  0.12643393  0.45736372  1
  H  H23  1  0.66907021  0.21710664  0.54263628  1
  O  O24  1  0.73297131  0.53106836  0.10418263  1
  O  O25  1  0.42688573  0.62878868  0.89581737  1
  O  O26  1  0.87878868  0.17688573  0.39581737  1
  O  O27  1  0.78106836  0.48297131  0.60418263  1
  O  O28  1  0.71179489  0.98497990  0.06512059  1
  O  O29  1  0.91985931  0.64667430  0.93487941  1
  O  O30  1  0.89667430  0.66985931  0.43487941  1
  O  O31  1  0.23497990  0.46179489  0.56512059  1
  O  O32  1  0.84216688  0.94818933  0.20988443  1
  O  O33  1  0.73830490  0.63228245  0.79011557  1
  O  O34  1  0.88228245  0.48830490  0.29011557  1
  O  O35  1  0.19818933  0.59216688  0.70988443  1
  O  O36  1  0.16643397  0.89358842  0.11239297  1
  O  O37  1  0.78119545  0.05404099  0.88760703  1
  O  O38  1  0.30404099  0.53119545  0.38760703  1
  O  O39  1  0.14358842  0.91643397  0.61239297  1
  O  O40  1  0.31239061  0.52950691  0.20692331  1
  O  O41  1  0.32258359  0.10546730  0.79307669  1
  O  O42  1  0.35546730  0.07258359  0.29307669  1
  O  O43  1  0.77950691  0.06239061  0.70692331  1
  O  O44  1  0.33230850  0.33230850  0.00000000  1
  O  O45  1  0.58230850  0.08230850  0.50000000  1
