# generated using pymatgen
data_KH3CN2O
_symmetry_space_group_name_H-M   'P 1'
_cell_length_a   7.27323392
_cell_length_b   7.58495881
_cell_length_c   13.71678094
_cell_angle_alpha   90.00000000
_cell_angle_beta   90.00000000
_cell_angle_gamma   90.00000000
_symmetry_Int_Tables_number   1
_chemical_formula_structural   KH3CN2O
_chemical_formula_sum   'K8 H24 C8 N16 O8'
_cell_volume   756.71611900
_cell_formula_units_Z   8
loop_
 _symmetry_equiv_pos_site_id
 _symmetry_equiv_pos_as_xyz
  1  'x, y, z'
loop_
 _atom_site_type_symbol
 _atom_site_label
 _atom_site_symmetry_multiplicity
 _atom_site_fract_x
 _atom_site_fract_y
 _atom_site_fract_z
 _atom_site_occupancy
  K  K0  1  0.38875453  0.95085360  0.19685982  1
  K  K1  1  0.88875453  0.54914640  0.80314018  1
  K  K2  1  0.61124547  0.45085360  0.30314018  1
  K  K3  1  0.11124547  0.04914640  0.69685982  1
  K  K4  1  0.61124547  0.04914640  0.80314018  1
  K  K5  1  0.11124547  0.45085360  0.19685982  1
  K  K6  1  0.38875453  0.54914640  0.69685982  1
  K  K7  1  0.88875453  0.95085360  0.30314018  1
  H  H8  1  0.89697307  0.89992521  0.96167016  1
  H  H9  1  0.39697307  0.60007479  0.03832984  1
  H  H10  1  0.10302693  0.39992521  0.53832984  1
  H  H11  1  0.60302693  0.10007479  0.46167016  1
  H  H12  1  0.10302693  0.10007479  0.03832984  1
  H  H13  1  0.60302693  0.39992521  0.96167016  1
  H  H14  1  0.89697307  0.60007479  0.46167016  1
  H  H15  1  0.39697307  0.89992521  0.53832984  1
  H  H16  1  0.72800408  0.74543809  0.97841333  1
  H  H17  1  0.22800408  0.75456191  0.02158667  1
  H  H18  1  0.27199592  0.24543809  0.52158667  1
  H  H19  1  0.77199592  0.25456191  0.47841333  1
  H  H20  1  0.27199592  0.25456191  0.02158667  1
  H  H21  1  0.77199592  0.24543809  0.97841333  1
  H  H22  1  0.72800408  0.75456191  0.47841333  1
  H  H23  1  0.22800408  0.74543809  0.52158667  1
  H  H24  1  0.69296345  0.63372181  0.12470938  1
  H  H25  1  0.19296345  0.86627819  0.87529062  1
  H  H26  1  0.30703655  0.13372181  0.37529062  1
  H  H27  1  0.80703655  0.36627819  0.62470938  1
  H  H28  1  0.30703655  0.36627819  0.87529062  1
  H  H29  1  0.80703655  0.13372181  0.12470938  1
  H  H30  1  0.69296345  0.86627819  0.62470938  1
  H  H31  1  0.19296345  0.63372181  0.37529062  1
  C  C32  1  0.89924336  0.78415948  0.09714012  1
  C  C33  1  0.39924336  0.71584052  0.90285988  1
  C  C34  1  0.10075664  0.28415948  0.40285988  1
  C  C35  1  0.60075664  0.21584052  0.59714012  1
  C  C36  1  0.10075664  0.21584052  0.90285988  1
  C  C37  1  0.60075664  0.28415948  0.09714012  1
  C  C38  1  0.89924336  0.71584052  0.59714012  1
  C  C39  1  0.39924336  0.78415948  0.40285988  1
  N  N40  1  0.85634272  0.78806468  0.99768982  1
  N  N41  1  0.35634272  0.71193532  0.00231018  1
  N  N42  1  0.14365728  0.28806468  0.50231018  1
  N  N43  1  0.64365728  0.21193532  0.49768982  1
  N  N44  1  0.14365728  0.21193532  0.00231018  1
  N  N45  1  0.64365728  0.28806468  0.99768982  1
  N  N46  1  0.85634272  0.71193532  0.49768982  1
  N  N47  1  0.35634272  0.78806468  0.50231018  1
  N  N48  1  0.80223974  0.68934001  0.16034282  1
  N  N49  1  0.30223974  0.81065999  0.83965718  1
  N  N50  1  0.19776026  0.18934001  0.33965718  1
  N  N51  1  0.69776026  0.31065999  0.66034282  1
  N  N52  1  0.19776026  0.31065999  0.83965718  1
  N  N53  1  0.69776026  0.18934001  0.16034282  1
  N  N54  1  0.80223974  0.81065999  0.66034282  1
  N  N55  1  0.30223974  0.68934001  0.33965718  1
  O  O56  1  0.04400524  0.87373910  0.12276544  1
  O  O57  1  0.54400524  0.62626090  0.87723456  1
  O  O58  1  0.95599476  0.37373910  0.37723456  1
  O  O59  1  0.45599476  0.12626090  0.62276544  1
  O  O60  1  0.95599476  0.12626090  0.87723456  1
  O  O61  1  0.45599476  0.37373910  0.12276544  1
  O  O62  1  0.04400524  0.62626090  0.62276544  1
  O  O63  1  0.54400524  0.87373910  0.37723456  1
