# generated using pymatgen
data_Na3AlCl6
_symmetry_space_group_name_H-M   'P 1'
_cell_length_a   7.09000383
_cell_length_b   7.09000406
_cell_length_c   7.09000405
_cell_angle_alpha   59.99999925
_cell_angle_beta   59.99999880
_cell_angle_gamma   59.99999886
_symmetry_Int_Tables_number   1
_chemical_formula_structural   Na3AlCl6
_chemical_formula_sum   'Na3 Al1 Cl6'
_cell_volume   252.01386158
_cell_formula_units_Z   1
loop_
 _symmetry_equiv_pos_site_id
 _symmetry_equiv_pos_as_xyz
  1  'x, y, z'
loop_
 _atom_site_type_symbol
 _atom_site_label
 _atom_site_symmetry_multiplicity
 _atom_site_fract_x
 _atom_site_fract_y
 _atom_site_fract_z
 _atom_site_occupancy
  Na  Na0  1  0.25000000  0.25000000  0.25000000  1
  Na  Na1  1  0.75000000  0.75000000  0.75000000  1
  Na  Na2  1  0.50000000  0.50000000  0.50000000  1
  Al  Al3  1  -0.00000000  0.00000000  -0.00000000  1
  Cl  Cl4  1  0.23224289  0.76775711  0.23224289  1
  Cl  Cl5  1  0.76775711  0.76775711  0.23224289  1
  Cl  Cl6  1  0.76775711  0.23224289  0.76775711  1
  Cl  Cl7  1  0.76775711  0.23224289  0.23224289  1
  Cl  Cl8  1  0.23224289  0.76775711  0.76775711  1
  Cl  Cl9  1  0.23224289  0.23224289  0.76775711  1
