# generated using pymatgen
data_Ba3Ac
_symmetry_space_group_name_H-M   'P 1'
_cell_length_a   8.72922098
_cell_length_b   8.72764629
_cell_length_c   6.93561042
_cell_angle_alpha   89.97941271
_cell_angle_beta   90.02032822
_cell_angle_gamma   119.99475991
_symmetry_Int_Tables_number   1
_chemical_formula_structural   Ba3Ac
_chemical_formula_sum   'Ba6 Ac2'
_cell_volume   457.62615611
_cell_formula_units_Z   2
loop_
 _symmetry_equiv_pos_site_id
 _symmetry_equiv_pos_as_xyz
  1  'x, y, z'
loop_
 _atom_site_type_symbol
 _atom_site_label
 _atom_site_symmetry_multiplicity
 _atom_site_fract_x
 _atom_site_fract_y
 _atom_site_fract_z
 _atom_site_occupancy
  Ba  Ba0  1  0.17077384  0.34135865  0.24998148  1
  Ba  Ba1  1  0.65870163  0.82930660  0.24997809  1
  Ba  Ba2  1  0.17072832  0.82935421  0.24996473  1
  Ba  Ba3  1  0.82930130  0.65879333  0.75001491  1
  Ba  Ba4  1  0.34115129  0.17061895  0.75001812  1
  Ba  Ba5  1  0.82932990  0.17058421  0.75005000  1
  Ac  Ac6  1  0.33331431  0.66664002  0.74999692  1
  Ac  Ac7  1  0.66670143  0.33334403  0.24999976  1
