# generated using pymatgen
data_Ba2H20Ru2Cl10O11
_symmetry_space_group_name_H-M   'P 1'
_cell_length_a   8.96096245
_cell_length_b   11.56647959
_cell_length_c   14.04610524
_cell_angle_alpha   79.19555953
_cell_angle_beta   71.39851338
_cell_angle_gamma   67.20918659
_symmetry_Int_Tables_number   1
_chemical_formula_structural   Ba2H20Ru2Cl10O11
_chemical_formula_sum   'Ba4 H40 Ru4 Cl20 O22'
_cell_volume   1268.64961466
_cell_formula_units_Z   2
loop_
 _symmetry_equiv_pos_site_id
 _symmetry_equiv_pos_as_xyz
  1  'x, y, z'
loop_
 _atom_site_type_symbol
 _atom_site_label
 _atom_site_symmetry_multiplicity
 _atom_site_fract_x
 _atom_site_fract_y
 _atom_site_fract_z
 _atom_site_occupancy
  Ba  Ba0  1  0.28765607  0.21170425  0.16943903  1
  Ba  Ba1  1  0.66879936  0.28829575  0.33056097  1
  Ba  Ba2  1  0.71234393  0.78829575  0.83056097  1
  Ba  Ba3  1  0.33120064  0.71170425  0.66943903  1
  H  H4  1  0.10736279  0.04252996  0.09821830  1
  H  H5  1  0.24811105  0.45747004  0.40178170  1
  H  H6  1  0.89263721  0.95747004  0.90178170  1
  H  H7  1  0.75188895  0.54252996  0.59821830  1
  H  H8  1  0.20309832  0.09667561  0.99685143  1
  H  H9  1  0.29662537  0.40332439  0.50314857  1
  H  H10  1  0.79690168  0.90332439  0.00314857  1
  H  H11  1  0.70337463  0.59667561  0.49685143  1
  H  H12  1  0.01988873  0.21449385  0.40400846  1
  H  H13  1  0.63839104  0.28550615  0.09599154  1
  H  H14  1  0.98011127  0.78550615  0.59599154  1
  H  H15  1  0.36160896  0.71449385  0.90400846  1
  H  H16  1  0.04807503  0.09384727  0.35478900  1
  H  H17  1  0.49671131  0.40615273  0.14521100  1
  H  H18  1  0.95192497  0.90615273  0.64521100  1
  H  H19  1  0.50328869  0.59384727  0.85478900  1
  H  H20  1  0.58729517  0.93276412  0.20839662  1
  H  H21  1  0.72845591  0.56723588  0.29160338  1
  H  H22  1  0.41270483  0.06723588  0.79160338  1
  H  H23  1  0.27154409  0.43276412  0.70839662  1
  H  H24  1  0.52308339  0.91250045  0.12210674  1
  H  H25  1  0.55769057  0.58749955  0.37789326  1
  H  H26  1  0.47691661  0.08749955  0.87789326  1
  H  H27  1  0.44230943  0.41250045  0.62210674  1
  H  H28  1  0.91310619  0.31977982  0.08905350  1
  H  H29  1  0.32193951  0.18022018  0.41094650  1
  H  H30  1  0.08689381  0.68022018  0.91094650  1
  H  H31  1  0.67806049  0.81977982  0.58905350  1
  H  H32  1  0.90457129  0.43337692  0.13808038  1
  H  H33  1  0.47602859  0.06662308  0.36191962  1
  H  H34  1  0.09542871  0.56662308  0.86191962  1
  H  H35  1  0.52397141  0.93337692  0.63808038  1
  H  H36  1  0.61070101  0.10655362  0.96395422  1
  H  H37  1  0.68120885  0.39344638  0.53604578  1
  H  H38  1  0.38929899  0.89344638  0.03604578  1
  H  H39  1  0.31879115  0.60655362  0.46395422  1
  H  H40  1  0.52593644  0.24605236  0.92450922  1
  H  H41  1  0.69649803  0.25394764  0.57549078  1
  H  H42  1  0.47406356  0.75394764  0.07549078  1
  H  H43  1  0.30350197  0.74605236  0.42450922  1
  Ru  Ru44  1  0.11438735  0.63322238  0.16045398  1
  Ru  Ru45  1  0.90806370  0.86677762  0.33954602  1
  Ru  Ru46  1  0.88561265  0.36677762  0.83954602  1
  Ru  Ru47  1  0.09193630  0.13322238  0.66045398  1
  Cl  Cl48  1  0.13590682  0.78596364  0.02111654  1
  Cl  Cl49  1  0.94298700  0.71403636  0.47888346  1
  Cl  Cl50  1  0.86409318  0.21403636  0.97888346  1
  Cl  Cl51  1  0.05701300  0.28596364  0.52111654  1
  Cl  Cl52  1  0.10303703  0.46658644  0.28928017  1
  Cl  Cl53  1  0.85890364  0.03341356  0.21071983  1
  Cl  Cl54  1  0.89696297  0.53341356  0.71071983  1
  Cl  Cl55  1  0.14109636  0.96658644  0.78928017  1
  Cl  Cl56  1  0.24809803  0.48205530  0.04025975  1
  Cl  Cl57  1  0.77041308  0.01794470  0.45974025  1
  Cl  Cl58  1  0.75190197  0.51794470  0.95974025  1
  Cl  Cl59  1  0.22958692  0.98205530  0.54025975  1
  Cl  Cl60  1  0.85556250  0.64317701  0.13835696  1
  Cl  Cl61  1  0.63709646  0.85682299  0.36164304  1
  Cl  Cl62  1  0.14443750  0.35682299  0.86164304  1
  Cl  Cl63  1  0.36290354  0.14317701  0.63835696  1
  Cl  Cl64  1  0.38720490  0.60537257  0.17335169  1
  Cl  Cl65  1  0.16592916  0.89462743  0.32664831  1
  Cl  Cl66  1  0.61279510  0.39462743  0.82664831  1
  Cl  Cl67  1  0.83407084  0.10537257  0.67335169  1
  O  O68  1  0.01128527  0.75000000  0.25000000  1
  O  O69  1  0.98871473  0.25000000  0.75000000  1
  O  O70  1  0.21242688  0.05928313  0.06435154  1
  O  O71  1  0.33606155  0.44071687  0.43564846  1
  O  O72  1  0.78757312  0.94071687  0.93564846  1
  O  O73  1  0.66393845  0.55928313  0.56435154  1
  O  O74  1  0.01618348  0.18637669  0.34257142  1
  O  O75  1  0.54513159  0.31362331  0.15742858  1
  O  O76  1  0.98381652  0.81362331  0.65742858  1
  O  O77  1  0.45486841  0.68637669  0.84257142  1
  O  O78  1  0.53515078  0.97709862  0.15376121  1
  O  O79  1  0.66601061  0.52290138  0.34623879  1
  O  O80  1  0.46484922  0.02290138  0.84623879  1
  O  O81  1  0.33398939  0.47709862  0.65376121  1
  O  O82  1  0.92259580  0.34255106  0.15043066  1
  O  O83  1  0.41557752  0.15744894  0.34956934  1
  O  O84  1  0.07740420  0.65744894  0.84956934  1
  O  O85  1  0.58442248  0.84255106  0.65043066  1
  O  O86  1  0.50013779  0.17266971  0.96436449  1
  O  O87  1  0.63717199  0.32733029  0.53563551  1
  O  O88  1  0.49986221  0.82733029  0.03563551  1
  O  O89  1  0.36282801  0.67266971  0.46436449  1
