# generated using pymatgen
data_SrSnS3
_symmetry_space_group_name_H-M   'P 1'
_cell_length_a   3.92376072
_cell_length_b   8.45336187
_cell_length_c   14.22579880
_cell_angle_alpha   90.00000000
_cell_angle_beta   90.00000000
_cell_angle_gamma   90.00000000
_symmetry_Int_Tables_number   1
_chemical_formula_structural   SrSnS3
_chemical_formula_sum   'Sr4 Sn4 S12'
_cell_volume   471.85508306
_cell_formula_units_Z   4
loop_
 _symmetry_equiv_pos_site_id
 _symmetry_equiv_pos_as_xyz
  1  'x, y, z'
loop_
 _atom_site_type_symbol
 _atom_site_label
 _atom_site_symmetry_multiplicity
 _atom_site_fract_x
 _atom_site_fract_y
 _atom_site_fract_z
 _atom_site_occupancy
  Sr  Sr0  1  0.25000000  0.93629405  0.67882564  1
  Sr  Sr1  1  0.25000000  0.43629405  0.82117436  1
  Sr  Sr2  1  0.75000000  0.06370595  0.32117436  1
  Sr  Sr3  1  0.75000000  0.56370595  0.17882564  1
  Sn  Sn4  1  0.75000000  0.32786284  0.55641733  1
  Sn  Sn5  1  0.75000000  0.82786284  0.94358267  1
  Sn  Sn6  1  0.25000000  0.67213716  0.44358267  1
  Sn  Sn7  1  0.25000000  0.17213716  0.05641733  1
  S  S8  1  0.25000000  0.52500306  0.60438135  1
  S  S9  1  0.25000000  0.02500306  0.89561865  1
  S  S10  1  0.75000000  0.47499694  0.39561865  1
  S  S11  1  0.75000000  0.97499694  0.10438135  1
  S  S12  1  0.25000000  0.15017974  0.49481175  1
  S  S13  1  0.25000000  0.65017974  0.00518825  1
  S  S14  1  0.75000000  0.84982026  0.50518825  1
  S  S15  1  0.75000000  0.34982026  0.99481175  1
  S  S16  1  0.75000000  0.21055446  0.71658666  1
  S  S17  1  0.75000000  0.71055446  0.78341334  1
  S  S18  1  0.25000000  0.78944554  0.28341334  1
  S  S19  1  0.25000000  0.28944554  0.21658666  1
