# generated using pymatgen
data_Sc2CoGe2
_symmetry_space_group_name_H-M   'P 1'
_cell_length_a   4.03464654
_cell_length_b   5.41994013
_cell_length_c   8.70515900
_cell_angle_alpha   82.21944989
_cell_angle_beta   76.60053803
_cell_angle_gamma   68.14839893
_symmetry_Int_Tables_number   1
_chemical_formula_structural   Sc2CoGe2
_chemical_formula_sum   'Sc4 Co2 Ge4'
_cell_volume   171.61897512
_cell_formula_units_Z   2
loop_
 _symmetry_equiv_pos_site_id
 _symmetry_equiv_pos_as_xyz
  1  'x, y, z'
loop_
 _atom_site_type_symbol
 _atom_site_label
 _atom_site_symmetry_multiplicity
 _atom_site_fract_x
 _atom_site_fract_y
 _atom_site_fract_z
 _atom_site_occupancy
  Sc  Sc0  1  0.99579956  0.67689811  0.33150277  1
  Sc  Sc1  1  0.00420044  0.32310189  0.66849723  1
  Sc  Sc2  1  0.81772109  0.25987258  0.10468524  1
  Sc  Sc3  1  0.18227891  0.74012742  0.89531476  1
  Co  Co4  1  0.72401069  0.92217034  0.62980829  1
  Co  Co5  1  0.27598931  0.07782966  0.37019171  1
  Ge  Ge6  1  0.64759461  0.27856807  0.42624272  1
  Ge  Ge7  1  0.35240539  0.72143193  0.57375728  1
  Ge  Ge8  1  0.51779445  0.83775969  0.12665140  1
  Ge  Ge9  1  0.48220555  0.16224031  0.87334860  1
