# generated using pymatgen
data_Cs3P11(H3N)3
_symmetry_space_group_name_H-M   'P 1'
_cell_length_a   9.58776461
_cell_length_b   15.30158457
_cell_length_c   15.86668068
_cell_angle_alpha   90.00000000
_cell_angle_beta   90.00000000
_cell_angle_gamma   88.63427404
_symmetry_Int_Tables_number   1
_chemical_formula_structural   Cs3P11(H3N)3
_chemical_formula_sum   'Cs12 P44 H36 N12'
_cell_volume   2327.10758776
_cell_formula_units_Z   4
loop_
 _symmetry_equiv_pos_site_id
 _symmetry_equiv_pos_as_xyz
  1  'x, y, z'
loop_
 _atom_site_type_symbol
 _atom_site_label
 _atom_site_symmetry_multiplicity
 _atom_site_fract_x
 _atom_site_fract_y
 _atom_site_fract_z
 _atom_site_occupancy
  Cs  Cs0  1  0.33904586  0.14231046  0.21013015  1
  Cs  Cs1  1  0.83904586  0.64231046  0.28986985  1
  Cs  Cs2  1  0.66095414  0.85768954  0.78986985  1
  Cs  Cs3  1  0.16095414  0.35768954  0.71013015  1
  Cs  Cs4  1  0.24688649  0.45193131  0.39627898  1
  Cs  Cs5  1  0.74688649  0.95193131  0.10372102  1
  Cs  Cs6  1  0.75311351  0.54806869  0.60372102  1
  Cs  Cs7  1  0.25311351  0.04806869  0.89627898  1
  Cs  Cs8  1  0.59957655  0.43441408  0.13943035  1
  Cs  Cs9  1  0.09957655  0.93441408  0.36056965  1
  Cs  Cs10  1  0.40042345  0.56558592  0.86056965  1
  Cs  Cs11  1  0.90042345  0.06558592  0.63943035  1
  P  P12  1  0.35906158  0.90516691  0.09919824  1
  P  P13  1  0.85906158  0.40516691  0.40080176  1
  P  P14  1  0.64093842  0.09483309  0.90080176  1
  P  P15  1  0.14093842  0.59483309  0.59919824  1
  P  P16  1  0.20824069  0.74936953  0.22758602  1
  P  P17  1  0.70824069  0.24936953  0.27241398  1
  P  P18  1  0.79175931  0.25063047  0.77241398  1
  P  P19  1  0.29175931  0.75063047  0.72758602  1
  P  P20  1  0.56628776  0.75755869  0.99717722  1
  P  P21  1  0.06628776  0.25755869  0.50282278  1
  P  P22  1  0.43371224  0.24244131  0.00282278  1
  P  P23  1  0.93371224  0.74244131  0.49717722  1
  P  P24  1  0.33130723  0.62198795  0.08381199  1
  P  P25  1  0.83130723  0.12198795  0.41618801  1
  P  P26  1  0.66869277  0.37801205  0.91618801  1
  P  P27  1  0.16869277  0.87801205  0.58381199  1
  P  P28  1  0.08137146  0.79039851  0.11683470  1
  P  P29  1  0.58137146  0.29039851  0.38316530  1
  P  P30  1  0.91862854  0.20960149  0.88316530  1
  P  P31  1  0.41862854  0.70960149  0.61683470  1
  P  P32  1  0.23058133  0.60985638  0.20573269  1
  P  P33  1  0.73058133  0.10985638  0.29426731  1
  P  P34  1  0.76941867  0.39014362  0.79426731  1
  P  P35  1  0.26941867  0.89014362  0.70573269  1
  P  P36  1  0.51939923  0.69715942  0.11787915  1
  P  P37  1  0.01939923  0.19715942  0.38212085  1
  P  P38  1  0.48060077  0.30284058  0.88212085  1
  P  P39  1  0.98060077  0.80284058  0.61787915  1
  P  P40  1  0.41946430  0.80489857  0.19805313  1
  P  P41  1  0.91946430  0.30489857  0.30194687  1
  P  P42  1  0.58053570  0.19510143  0.80194687  1
  P  P43  1  0.08053570  0.69510143  0.69805313  1
  P  P44  1  0.36575433  0.82497245  0.98184660  1
  P  P45  1  0.86575433  0.32497245  0.51815340  1
  P  P46  1  0.63424567  0.17502755  0.01815340  1
  P  P47  1  0.13424567  0.67502755  0.48184660  1
  P  P48  1  0.13548276  0.92788632  0.11235607  1
  P  P49  1  0.63548276  0.42788632  0.38764393  1
  P  P50  1  0.86451724  0.07211368  0.88764393  1
  P  P51  1  0.36451724  0.57211368  0.61235607  1
  P  P52  1  0.20380419  0.72388461  0.01127565  1
  P  P53  1  0.70380419  0.22388461  0.48872435  1
  P  P54  1  0.79619581  0.27611539  0.98872435  1
  P  P55  1  0.29619581  0.77611539  0.51127565  1
  H  H56  1  0.19089532  0.35508462  0.12995160  1
  H  H57  1  0.69089532  0.85508462  0.37004840  1
  H  H58  1  0.80910468  0.64491538  0.87004840  1
  H  H59  1  0.30910468  0.14491538  0.62995160  1
  H  H60  1  0.24236861  0.44965815  0.16627445  1
  H  H61  1  0.74236861  0.94965815  0.33372555  1
  H  H62  1  0.75763139  0.55034185  0.83372555  1
  H  H63  1  0.25763139  0.05034185  0.66627445  1
  H  H64  1  0.32523960  0.35814579  0.19237865  1
  H  H65  1  0.82523960  0.85814579  0.30762135  1
  H  H66  1  0.67476040  0.64185421  0.80762135  1
  H  H67  1  0.17476040  0.14185421  0.69237865  1
  H  H68  1  0.97828515  0.14125050  0.17658934  1
  H  H69  1  0.47828515  0.64125050  0.32341066  1
  H  H70  1  0.02171485  0.85874950  0.82341066  1
  H  H71  1  0.52171485  0.35874950  0.67658934  1
  H  H72  1  0.00339305  0.21630017  0.10563004  1
  H  H73  1  0.50339305  0.71630017  0.39436996  1
  H  H74  1  0.99660695  0.78369983  0.89436996  1
  H  H75  1  0.49660695  0.28369983  0.60563004  1
  H  H76  1  0.03749791  0.11339864  0.08351789  1
  H  H77  1  0.53749791  0.61339864  0.41648211  1
  H  H78  1  0.96250209  0.88660136  0.91648211  1
  H  H79  1  0.46250209  0.38660136  0.58351789  1
  H  H80  1  0.88784367  0.48121242  0.05204302  1
  H  H81  1  0.38784367  0.98121242  0.44795698  1
  H  H82  1  0.11215633  0.51878758  0.94795698  1
  H  H83  1  0.61215633  0.01878758  0.55204302  1
  H  H84  1  0.97711646  0.53535839  0.12252029  1
  H  H85  1  0.47711646  0.03535839  0.37747971  1
  H  H86  1  0.02288354  0.46464161  0.87747971  1
  H  H87  1  0.52288354  0.96464161  0.62252029  1
  H  H88  1  0.85402681  0.58554238  0.06772961  1
  H  H89  1  0.35402681  0.08554238  0.43227039  1
  H  H90  1  0.14597319  0.41445762  0.93227039  1
  H  H91  1  0.64597319  0.91445762  0.56772961  1
  N  N92  1  0.04585564  0.15946331  0.12998539  1
  N  N93  1  0.54585564  0.65946331  0.37001461  1
  N  N94  1  0.95414436  0.84053669  0.87001461  1
  N  N95  1  0.45414436  0.34053669  0.62998539  1
  N  N96  1  0.22833162  0.38549854  0.18240047  1
  N  N97  1  0.72833162  0.88549854  0.31759953  1
  N  N98  1  0.77166838  0.61450146  0.81759953  1
  N  N99  1  0.27166838  0.11450146  0.68240047  1
  N  N100  1  0.87913143  0.52804817  0.09804217  1
  N  N101  1  0.37913143  0.02804817  0.40195783  1
  N  N102  1  0.12086857  0.47195183  0.90195783  1
  N  N103  1  0.62086857  0.97195183  0.59804217  1
