# generated using pymatgen
data_MgB6(H3O4)4
_symmetry_space_group_name_H-M   'P 1'
_cell_length_a   10.59953228
_cell_length_b   10.88597008
_cell_length_c   11.40326393
_cell_angle_alpha   95.07371588
_cell_angle_beta   90.00000000
_cell_angle_gamma   90.00000000
_symmetry_Int_Tables_number   1
_chemical_formula_structural   MgB6(H3O4)4
_chemical_formula_sum   'Mg4 B24 H48 O64'
_cell_volume   1310.62362798
_cell_formula_units_Z   4
loop_
 _symmetry_equiv_pos_site_id
 _symmetry_equiv_pos_as_xyz
  1  'x, y, z'
loop_
 _atom_site_type_symbol
 _atom_site_label
 _atom_site_symmetry_multiplicity
 _atom_site_fract_x
 _atom_site_fract_y
 _atom_site_fract_z
 _atom_site_occupancy
  Mg  Mg0  1  0.50000000  0.00000000  0.50000000  1
  Mg  Mg1  1  0.00000000  0.00000000  0.00000000  1
  Mg  Mg2  1  0.50000000  0.50000000  0.00000000  1
  Mg  Mg3  1  0.00000000  0.50000000  0.50000000  1
  B  B4  1  0.60110186  0.91020400  0.24809997  1
  B  B5  1  0.10110186  0.08979600  0.25190003  1
  B  B6  1  0.39889814  0.08979600  0.75190003  1
  B  B7  1  0.89889814  0.91020400  0.74809997  1
  B  B8  1  0.60283640  0.74708712  0.40319472  1
  B  B9  1  0.10283640  0.25291288  0.09680528  1
  B  B10  1  0.39716360  0.25291288  0.59680528  1
  B  B11  1  0.89716360  0.74708712  0.90319472  1
  B  B12  1  0.38698580  0.80969789  0.30953304  1
  B  B13  1  0.88698580  0.19030211  0.19046696  1
  B  B14  1  0.61301420  0.19030211  0.69046696  1
  B  B15  1  0.11301420  0.80969789  0.80953304  1
  B  B16  1  0.41069858  0.90406503  0.11980644  1
  B  B17  1  0.91069858  0.09593497  0.38019356  1
  B  B18  1  0.58930142  0.09593497  0.88019356  1
  B  B19  1  0.08930142  0.90406503  0.61980644  1
  B  B20  1  0.41319259  0.60637800  0.38674340  1
  B  B21  1  0.91319259  0.39362200  0.11325660  1
  B  B22  1  0.58680741  0.39362200  0.61325660  1
  B  B23  1  0.08680741  0.60637800  0.88674340  1
  B  B24  1  0.79418096  0.79310048  0.29328895  1
  B  B25  1  0.29418096  0.20689952  0.20671105  1
  B  B26  1  0.20581904  0.20689952  0.70671105  1
  B  B27  1  0.70581904  0.79310048  0.79328895  1
  H  H28  1  0.66731756  0.07131772  0.33178432  1
  H  H29  1  0.16731756  0.92868228  0.16821568  1
  H  H30  1  0.33268244  0.92868228  0.66821568  1
  H  H31  1  0.83268244  0.07131772  0.83178432  1
  H  H32  1  0.27894415  0.90167934  0.44832813  1
  H  H33  1  0.77894415  0.09832066  0.05167187  1
  H  H34  1  0.72105585  0.09832066  0.55167187  1
  H  H35  1  0.22105585  0.90167934  0.94832813  1
  H  H36  1  0.68051842  0.84465687  0.55233398  1
  H  H37  1  0.18051842  0.15534313  0.94766602  1
  H  H38  1  0.31948158  0.15534313  0.44766602  1
  H  H39  1  0.81948158  0.84465687  0.05233398  1
  H  H40  1  0.96245037  0.84086744  0.23329583  1
  H  H41  1  0.46245037  0.15913256  0.26670417  1
  H  H42  1  0.03754963  0.15913256  0.76670417  1
  H  H43  1  0.53754963  0.84086744  0.73329583  1
  H  H44  1  0.40069292  0.98896728  0.96596534  1
  H  H45  1  0.90069292  0.01103272  0.53403466  1
  H  H46  1  0.59930708  0.01103272  0.03403466  1
  H  H47  1  0.09930708  0.98896728  0.46596534  1
  H  H48  1  0.40845254  0.44605245  0.46127529  1
  H  H49  1  0.90845254  0.55394755  0.03872471  1
  H  H50  1  0.59154746  0.55394755  0.53872471  1
  H  H51  1  0.09154746  0.44605245  0.96127529  1
  H  H52  1  0.66743787  0.42671447  0.81715712  1
  H  H53  1  0.16743787  0.57328553  0.68284288  1
  H  H54  1  0.33256213  0.57328553  0.18284288  1
  H  H55  1  0.83256213  0.42671447  0.31715712  1
  H  H56  1  0.70073490  0.56378899  0.87199848  1
  H  H57  1  0.20073490  0.43621101  0.62800152  1
  H  H58  1  0.29926510  0.43621101  0.12800152  1
  H  H59  1  0.79926510  0.56378899  0.37199848  1
  H  H60  1  0.51666832  0.29933538  0.12746340  1
  H  H61  1  0.01666832  0.70066462  0.37253660  1
  H  H62  1  0.48333168  0.70066462  0.87253660  1
  H  H63  1  0.98333168  0.29933538  0.62746340  1
  H  H64  1  0.65635079  0.33761798  0.09859755  1
  H  H65  1  0.15635079  0.66238202  0.40140245  1
  H  H66  1  0.34364921  0.66238202  0.90140245  1
  H  H67  1  0.84364921  0.33761798  0.59859755  1
  H  H68  1  0.29192324  0.42398071  0.88438378  1
  H  H69  1  0.79192324  0.57601929  0.61561622  1
  H  H70  1  0.70807676  0.57601929  0.11561622  1
  H  H71  1  0.20807676  0.42398071  0.38438378  1
  H  H72  1  0.39273997  0.31657602  0.84549464  1
  H  H73  1  0.89273997  0.68342398  0.65450536  1
  H  H74  1  0.60726003  0.68342398  0.15450536  1
  H  H75  1  0.10726003  0.31657602  0.34549464  1
  O  O76  1  0.58846042  0.02327712  0.33036854  1
  O  O77  1  0.08846042  0.97672288  0.16963146  1
  O  O78  1  0.41153958  0.97672288  0.66963146  1
  O  O79  1  0.91153958  0.02327712  0.83036854  1
  O  O80  1  0.36434451  0.89598446  0.41209291  1
  O  O81  1  0.86434451  0.10401554  0.08790709  1
  O  O82  1  0.63565549  0.10401554  0.58790709  1
  O  O83  1  0.13565549  0.89598446  0.91209291  1
  O  O84  1  0.60340037  0.83980993  0.50538339  1
  O  O85  1  0.10340037  0.16019007  0.99461661  1
  O  O86  1  0.39659963  0.16019007  0.49461661  1
  O  O87  1  0.89659963  0.83980993  0.00538339  1
  O  O88  1  0.92403569  0.78290441  0.28411799  1
  O  O89  1  0.42403569  0.21709559  0.21588201  1
  O  O90  1  0.07596431  0.21709559  0.71588201  1
  O  O91  1  0.57596431  0.78290441  0.78411799  1
  O  O92  1  0.35104384  0.94217733  0.02173893  1
  O  O93  1  0.85104384  0.05782267  0.47826107  1
  O  O94  1  0.64895616  0.05782267  0.97826107  1
  O  O95  1  0.14895616  0.94217733  0.52173893  1
  O  O96  1  0.36009838  0.49453530  0.40633763  1
  O  O97  1  0.86009838  0.50546470  0.09366237  1
  O  O98  1  0.63990162  0.50546470  0.59366237  1
  O  O99  1  0.13990162  0.49453530  0.90633763  1
  O  O100  1  0.53345066  0.80407823  0.30204648  1
  O  O101  1  0.03345066  0.19592177  0.19795352  1
  O  O102  1  0.46654934  0.19592177  0.69795352  1
  O  O103  1  0.96654934  0.80407823  0.80204648  1
  O  O104  1  0.53842745  0.92518408  0.13541983  1
  O  O105  1  0.03842745  0.07481592  0.36458017  1
  O  O106  1  0.46157255  0.07481592  0.86458017  1
  O  O107  1  0.96157255  0.92518408  0.63541983  1
  O  O108  1  0.73195916  0.87437246  0.22827270  1
  O  O109  1  0.23195916  0.12562754  0.27172730  1
  O  O110  1  0.26804084  0.12562754  0.77172730  1
  O  O111  1  0.76804084  0.87437246  0.72827270  1
  O  O112  1  0.73230792  0.71708950  0.36496548  1
  O  O113  1  0.23230792  0.28291050  0.13503452  1
  O  O114  1  0.26769208  0.28291050  0.63503452  1
  O  O115  1  0.76769208  0.71708950  0.86496548  1
  O  O116  1  0.53296778  0.63601747  0.42695145  1
  O  O117  1  0.03296778  0.36398253  0.07304855  1
  O  O118  1  0.46703222  0.36398253  0.57304855  1
  O  O119  1  0.96703222  0.63601747  0.92695145  1
  O  O120  1  0.34127904  0.68392030  0.32414851  1
  O  O121  1  0.84127904  0.31607970  0.17585149  1
  O  O122  1  0.65872096  0.31607970  0.67585149  1
  O  O123  1  0.15872096  0.68392030  0.82414851  1
  O  O124  1  0.33799517  0.84970102  0.19966169  1
  O  O125  1  0.83799517  0.15029898  0.30033831  1
  O  O126  1  0.66200483  0.15029898  0.80033831  1
  O  O127  1  0.16200483  0.84970102  0.69966169  1
  O  O128  1  0.65403106  0.48745279  0.88490342  1
  O  O129  1  0.15403106  0.51254721  0.61509658  1
  O  O130  1  0.34596894  0.51254721  0.11509658  1
  O  O131  1  0.84596894  0.48745279  0.38490342  1
  O  O132  1  0.37858557  0.39231486  0.89516549  1
  O  O133  1  0.87858557  0.60768514  0.60483451  1
  O  O134  1  0.62141443  0.60768514  0.10483451  1
  O  O135  1  0.12141443  0.39231486  0.39516549  1
  O  O136  1  0.56885820  0.34355086  0.07229187  1
  O  O137  1  0.06885820  0.65644914  0.42770813  1
  O  O138  1  0.43114180  0.65644914  0.92770813  1
  O  O139  1  0.93114180  0.34355086  0.57229187  1
