# generated using pymatgen
data_Zn7H10(CO8)2
_symmetry_space_group_name_H-M   'P 1'
_cell_length_a   5.52902804
_cell_length_b   8.09241205
_cell_length_c   16.20255070
_cell_angle_alpha   95.43785764
_cell_angle_beta   90.00000000
_cell_angle_gamma   109.97548507
_symmetry_Int_Tables_number   1
_chemical_formula_structural   Zn7H10(CO8)2
_chemical_formula_sum   'Zn14 H20 C4 O32'
_cell_volume   677.86702154
_cell_formula_units_Z   2
loop_
 _symmetry_equiv_pos_site_id
 _symmetry_equiv_pos_as_xyz
  1  'x, y, z'
loop_
 _atom_site_type_symbol
 _atom_site_label
 _atom_site_symmetry_multiplicity
 _atom_site_fract_x
 _atom_site_fract_y
 _atom_site_fract_z
 _atom_site_occupancy
  Zn  Zn0  1  0.57483663  0.60197600  0.81422228  1
  Zn  Zn1  1  0.42516337  0.39802400  0.18577772  1
  Zn  Zn2  1  0.97286063  0.39802400  0.68577772  1
  Zn  Zn3  1  0.02713937  0.60197600  0.31422228  1
  Zn  Zn4  1  0.47463087  0.43569741  0.59028939  1
  Zn  Zn5  1  0.52536913  0.56430259  0.40971061  1
  Zn  Zn6  1  0.03893346  0.56430259  0.90971061  1
  Zn  Zn7  1  0.96106654  0.43569741  0.09028939  1
  Zn  Zn8  1  0.38503528  0.28094579  0.96203900  1
  Zn  Zn9  1  0.61496472  0.71905421  0.03796100  1
  Zn  Zn10  1  0.10408950  0.71905421  0.53796100  1
  Zn  Zn11  1  0.89591050  0.28094579  0.46203900  1
  Zn  Zn12  1  0.78066054  -0.00000000  0.75000000  1
  Zn  Zn13  1  0.21933946  -0.00000000  0.25000000  1
  H  H14  1  0.91053736  0.83567519  0.92832178  1
  H  H15  1  0.08946264  0.16432481  0.07167822  1
  H  H16  1  0.07486217  0.16432481  0.57167822  1
  H  H17  1  0.92513783  0.83567519  0.42832178  1
  H  H18  1  0.54317932  0.75286169  0.55456392  1
  H  H19  1  0.45682068  0.24713831  0.44543608  1
  H  H20  1  0.79031763  0.24713831  0.94543608  1
  H  H21  1  0.20968237  0.75286169  0.05456392  1
  H  H22  1  0.38328356  0.67068365  0.68713035  1
  H  H23  1  0.61671644  0.32931635  0.31286965  1
  H  H24  1  0.71259991  0.32931635  0.81286965  1
  H  H25  1  0.28740009  0.67068365  0.18713035  1
  H  H26  1  0.20209090  0.33115809  0.83136306  1
  H  H27  1  0.79790910  0.66884191  0.16863694  1
  H  H28  1  0.87093281  0.66884191  0.66863694  1
  H  H29  1  0.12906719  0.33115809  0.33136306  1
  H  H30  1  0.21840728  0.19389946  0.71464108  1
  H  H31  1  0.78159272  0.80610054  0.28535892  1
  H  H32  1  0.02450782  0.80610054  0.78535892  1
  H  H33  1  0.97549218  0.19389946  0.21464108  1
  C  C34  1  0.39170632  0.95429706  0.87530536  1
  C  C35  1  0.60829368  0.04570294  0.12469464  1
  C  C36  1  0.43740925  0.04570294  0.62469464  1
  C  C37  1  0.56259075  0.95429706  0.37530536  1
  O  O38  1  0.53793670  0.93566421  0.65161516  1
  O  O39  1  0.46206330  0.06433579  0.34838484  1
  O  O40  1  0.60227249  0.06433579  0.84838484  1
  O  O41  1  0.39772751  0.93566421  0.15161516  1
  O  O42  1  0.86290876  0.78786229  0.75498354  1
  O  O43  1  0.13709124  0.21213771  0.24501646  1
  O  O44  1  0.07504646  0.21213771  0.74501646  1
  O  O45  1  0.92495354  0.78786229  0.25498354  1
  O  O46  1  0.78912946  0.71469309  0.93157037  1
  O  O47  1  0.21087054  0.28530691  0.06842963  1
  O  O48  1  0.07443638  0.28530691  0.56842963  1
  O  O49  1  0.92556362  0.71469309  0.43157037  1
  O  O50  1  0.36387923  0.55183680  0.70096606  1
  O  O51  1  0.63612077  0.44816320  0.29903394  1
  O  O52  1  0.81204243  0.44816320  0.79903394  1
  O  O53  1  0.18795757  0.55183680  0.20096606  1
  O  O54  1  0.29151252  0.42031314  0.87968438  1
  O  O55  1  0.70848748  0.57968686  0.12031562  1
  O  O56  1  0.87119938  0.57968686  0.62031562  1
  O  O57  1  0.12880062  0.42031314  0.37968438  1
  O  O58  1  0.58444905  0.35294743  0.47420887  1
  O  O59  1  0.41555095  0.64705257  0.52579113  1
  O  O60  1  0.23150162  0.64705257  0.02579113  1
  O  O61  1  0.76849838  0.35294743  0.97420887  1
  O  O62  1  0.53145534  0.21312485  0.64948612  1
  O  O63  1  0.46854466  0.78687515  0.35051388  1
  O  O64  1  0.31833049  0.78687515  0.85051388  1
  O  O65  1  0.68166951  0.21312485  0.14948612  1
  O  O66  1  0.25304094  0.01594541  0.92571644  1
  O  O67  1  0.74695906  0.98405459  0.07428356  1
  O  O68  1  0.23709553  0.98405459  0.57428356  1
  O  O69  1  0.76290447  0.01594541  0.42571644  1
