# generated using pymatgen
data_RbCoBr3
_symmetry_space_group_name_H-M   'P 1'
_cell_length_a   6.21832689
_cell_length_b   7.49246459
_cell_length_c   7.49246459
_cell_angle_alpha   119.99999759
_cell_angle_beta   90.00000000
_cell_angle_gamma   90.00000000
_symmetry_Int_Tables_number   1
_chemical_formula_structural   RbCoBr3
_chemical_formula_sum   'Rb2 Co2 Br6'
_cell_volume   302.31074862
_cell_formula_units_Z   2
loop_
 _symmetry_equiv_pos_site_id
 _symmetry_equiv_pos_as_xyz
  1  'x, y, z'
loop_
 _atom_site_type_symbol
 _atom_site_label
 _atom_site_symmetry_multiplicity
 _atom_site_fract_x
 _atom_site_fract_y
 _atom_site_fract_z
 _atom_site_occupancy
  Rb  Rb0  1  0.25000000  0.66666700  0.33333300  1
  Rb  Rb1  1  0.75000000  0.33333300  0.66666700  1
  Co  Co2  1  -0.00000000  0.00000000  0.00000000  1
  Co  Co3  1  0.50000000  0.00000000  0.00000000  1
  Br  Br4  1  0.75000000  0.83990475  0.16009525  1
  Br  Br5  1  0.25000000  0.16009525  0.83990475  1
  Br  Br6  1  0.75000000  0.32019051  0.16009525  1
  Br  Br7  1  0.25000000  0.67980949  0.83990475  1
  Br  Br8  1  0.75000000  0.83990475  0.67980949  1
  Br  Br9  1  0.25000000  0.16009525  0.32019051  1
