# generated using pymatgen
data_KYbI3
_symmetry_space_group_name_H-M   'P 1'
_cell_length_a   4.59149755
_cell_length_b   8.04725367
_cell_length_c   11.78395412
_cell_angle_alpha   90.00000000
_cell_angle_beta   90.00000000
_cell_angle_gamma   106.57579614
_symmetry_Int_Tables_number   1
_chemical_formula_structural   KYbI3
_chemical_formula_sum   'K2 Yb2 I6'
_cell_volume   417.31064223
_cell_formula_units_Z   2
loop_
 _symmetry_equiv_pos_site_id
 _symmetry_equiv_pos_as_xyz
  1  'x, y, z'
loop_
 _atom_site_type_symbol
 _atom_site_label
 _atom_site_symmetry_multiplicity
 _atom_site_fract_x
 _atom_site_fract_y
 _atom_site_fract_z
 _atom_site_occupancy
  K  K0  1  0.75099055  0.50198111  0.25000000  1
  K  K1  1  0.24900945  0.49801889  0.75000000  1
  Yb  Yb2  1  -0.00000000  -0.00000000  0.00000000  1
  Yb  Yb3  1  -0.00000000  -0.00000000  0.50000000  1
  I  I4  1  0.36690725  0.73381449  0.05578483  1
  I  I5  1  0.63309275  0.26618551  0.94421517  1
  I  I6  1  0.63309275  0.26618551  0.55578483  1
  I  I7  1  0.36690725  0.73381449  0.44421517  1
  I  I8  1  0.07357211  0.14714423  0.25000000  1
  I  I9  1  0.92642789  0.85285577  0.75000000  1
