# generated using pymatgen
data_Zn2P3H10C(NO4)3
_symmetry_space_group_name_H-M   'P 1'
_cell_length_a   5.24240973
_cell_length_b   7.93501464
_cell_length_c   16.67984415
_cell_angle_alpha   90.00000000
_cell_angle_beta   90.22769836
_cell_angle_gamma   90.00000000
_symmetry_Int_Tables_number   1
_chemical_formula_structural   Zn2P3H10C(NO4)3
_chemical_formula_sum   'Zn4 P6 H20 C2 N6 O24'
_cell_volume   693.85265222
_cell_formula_units_Z   2
loop_
 _symmetry_equiv_pos_site_id
 _symmetry_equiv_pos_as_xyz
  1  'x, y, z'
loop_
 _atom_site_type_symbol
 _atom_site_label
 _atom_site_symmetry_multiplicity
 _atom_site_fract_x
 _atom_site_fract_y
 _atom_site_fract_z
 _atom_site_occupancy
  Zn  Zn0  1  0.30379963  0.00275688  0.07912399  1
  Zn  Zn1  1  0.69620037  0.50275688  0.92087601  1
  Zn  Zn2  1  0.29914106  0.22489925  0.41453351  1
  Zn  Zn3  1  0.70085894  0.72489925  0.58546649  1
  P  P4  1  0.20470888  0.60131113  0.49924912  1
  P  P5  1  0.79529112  0.10131113  0.50075088  1
  P  P6  1  0.04617408  0.12175793  0.24642632  1
  P  P7  1  0.95382592  0.62175793  0.75357368  1
  P  P8  1  0.19627450  0.61895330  0.01079728  1
  P  P9  1  0.80372550  0.11895330  0.98920272  1
  H  H10  1  0.14434923  0.03199652  0.83044541  1
  H  H11  1  0.85565077  0.53199652  0.16955459  1
  H  H12  1  0.78249276  0.03439913  0.33856037  1
  H  H13  1  0.21750724  0.53439913  0.66143963  1
  H  H14  1  0.18065712  0.34503553  0.04113011  1
  H  H15  1  0.81934288  0.84503553  0.95886989  1
  H  H16  1  0.31783475  0.76831986  0.23019668  1
  H  H17  1  0.68216525  0.26831986  0.76980332  1
  H  H18  1  0.89821502  0.46496915  0.30684439  1
  H  H19  1  0.10178498  0.96496915  0.69315561  1
  H  H20  1  0.59745109  0.65007744  0.13689652  1
  H  H21  1  0.40254891  0.15007744  0.86310348  1
  H  H22  1  0.33384844  0.70755375  0.32924632  1
  H  H23  1  0.66615156  0.20755375  0.67075368  1
  H  H24  1  0.17425993  0.87589436  0.46158449  1
  H  H25  1  0.82574007  0.37589436  0.53841551  1
  H  H26  1  0.77302434  0.18085129  0.14897768  1
  H  H27  1  0.22697566  0.68085129  0.85102232  1
  H  H28  1  0.33274847  0.03564195  0.62668687  1
  H  H29  1  0.66725153  0.53564195  0.37331313  1
  C  C30  1  0.38385996  0.11259468  0.74236644  1
  C  C31  1  0.61614004  0.61259468  0.25763356  1
  N  N32  1  0.39214889  0.68794621  0.27169561  1
  N  N33  1  0.60785111  0.18794621  0.72830439  1
  N  N34  1  0.25395113  0.04102491  0.68223404  1
  N  N35  1  0.74604887  0.54102491  0.31776596  1
  N  N36  1  0.28859298  0.11215335  0.81692053  1
  N  N37  1  0.71140702  0.61215335  0.18307947  1
  O  O38  1  0.31417901  0.46008464  0.44828295  1
  O  O39  1  0.68582099  0.96008464  0.55171705  1
  O  O40  1  0.22398253  0.45667831  0.06596124  1
  O  O41  1  0.77601747  0.95667831  0.93403876  1
  O  O42  1  0.64699525  0.13096761  0.42131761  1
  O  O43  1  0.35300475  0.63096761  0.57868239  1
  O  O44  1  0.08123348  0.07233414  0.48066744  1
  O  O45  1  0.91876652  0.57233414  0.51933256  1
  O  O46  1  0.22326492  0.01975651  0.19306818  1
  O  O47  1  0.77673508  0.51975651  0.80693182  1
  O  O48  1  0.65417974  0.09112178  0.06814059  1
  O  O49  1  0.34582026  0.59112178  0.93185941  1
  O  O50  1  0.30486025  0.75911834  0.06352090  1
  O  O51  1  0.69513975  0.25911834  0.93647910  1
  O  O52  1  0.23528450  0.76214830  0.44277570  1
  O  O53  1  0.76471550  0.26214830  0.55722430  1
  O  O54  1  0.11846627  0.48560482  0.70710255  1
  O  O55  1  0.88153373  0.98560482  0.29289745  1
  O  O56  1  0.08882294  0.14990308  0.01060177  1
  O  O57  1  0.91117706  0.64990308  0.98939823  1
  O  O58  1  0.17388763  0.24369509  0.30465846  1
  O  O59  1  0.82611237  0.74369509  0.69534154  1
  O  O60  1  0.86106594  0.23825076  0.19535549  1
  O  O61  1  0.13893406  0.73825076  0.80464451  1
