# generated using pymatgen
data_U2NiAs2(HO)24
_symmetry_space_group_name_H-M   'P 1'
_cell_length_a   7.16599655
_cell_length_b   7.21504856
_cell_length_c   11.30425668
_cell_angle_alpha   82.30597698
_cell_angle_beta   84.69681051
_cell_angle_gamma   89.71970463
_symmetry_Int_Tables_number   1
_chemical_formula_structural   U2NiAs2(HO)24
_chemical_formula_sum   'U2 Ni1 As2 H24 O24'
_cell_volume   576.70647703
_cell_formula_units_Z   1
loop_
 _symmetry_equiv_pos_site_id
 _symmetry_equiv_pos_as_xyz
  1  'x, y, z'
loop_
 _atom_site_type_symbol
 _atom_site_label
 _atom_site_symmetry_multiplicity
 _atom_site_fract_x
 _atom_site_fract_y
 _atom_site_fract_z
 _atom_site_occupancy
  U  U0  1  0.22822414  0.72268833  0.58163684  1
  U  U1  1  0.77177586  0.27731167  0.41836316  1
  Ni  Ni2  1  0.00000000  -0.00000000  0.00000000  1
  As  As3  1  0.74032229  0.75669285  0.49902596  1
  As  As4  1  0.25967771  0.24330715  0.50097404  1
  H  H5  1  0.71798965  0.81947668  0.92672969  1
  H  H6  1  0.28201035  0.18052332  0.07327031  1
  H  H7  1  0.34835927  0.91169101  0.90146921  1
  H  H8  1  0.65164073  0.08830899  0.09853079  1
  H  H9  1  0.82847764  0.05059649  0.80422045  1
  H  H10  1  0.17152236  0.94940351  0.19577955  1
  H  H11  1  0.90109607  0.24632179  0.82047833  1
  H  H12  1  0.09890393  0.75367821  0.17952167  1
  H  H13  1  0.56446107  0.90964490  0.72948227  1
  H  H14  1  0.43553893  0.09035510  0.27051773  1
  H  H15  1  0.82800345  0.54112112  0.73054783  1
  H  H16  1  0.17199655  0.45887888  0.26945217  1
  H  H17  1  0.62565046  0.65028278  0.25722123  1
  H  H18  1  0.37434954  0.34971722  0.74277877  1
  H  H19  1  0.73083287  0.72427778  0.05874100  1
  H  H20  1  0.26916713  0.27572222  -0.05874100  1
  H  H21  1  0.46980759  0.90662880  0.20562068  1
  H  H22  1  0.53019241  0.09337120  0.79437932  1
  H  H23  1  0.19770138  0.78030086  0.87069710  1
  H  H24  1  0.80229862  0.21969914  0.12930290  1
  H  H25  1  0.54822123  0.38141829  0.81663688  1
  H  H26  1  0.45177877  0.61858171  0.18336312  1
  H  H27  1  0.82303656  0.53611345  0.87048414  1
  H  H28  1  0.17696344  0.46388655  0.12951586  1
  O  O29  1  0.91051785  0.68315253  0.59254647  1
  O  O30  1  0.08948215  0.31684747  0.40745353  1
  O  O31  1  0.57696154  0.96093989  0.80507415  1
  O  O32  1  0.42303846  0.03906011  0.19492585  1
  O  O33  1  0.43284534  0.30487110  0.81760777  1
  O  O34  1  0.56715466  0.69512890  0.18239223  1
  O  O35  1  0.19542650  0.68303154  0.74640004  1
  O  O36  1  0.80457350  0.31696846  0.25359996  1
  O  O37  1  0.79684641  0.96722110  0.41581553  1
  O  O38  1  0.20315359  0.03277890  0.58418447  1
  O  O39  1  0.78714420  0.46422668  0.80833213  1
  O  O40  1  0.21285580  0.53577332  0.19166787  1
  O  O41  1  0.74152102  0.25256512  0.58119506  1
  O  O42  1  0.25847898  0.74743488  0.41880494  1
  O  O43  1  0.54059269  0.77250164  0.59442453  1
  O  O44  1  0.45940731  0.22749836  0.40557547  1
  O  O45  1  0.06137717  0.88770265  0.17105651  1
  O  O46  1  0.93862283  0.11229735  0.82894349  1
  O  O47  1  0.80977429  0.76605397  0.98167363  1
  O  O48  1  0.19022571  0.23394603  0.01832637  1
  O  O49  1  0.71713082  0.59510997  0.40219286  1
  O  O50  1  0.28286918  0.40489003  0.59780714  1
  O  O51  1  0.22773638  0.85257638  0.93588024  1
  O  O52  1  0.77226362  0.14742362  0.06411976  1
