# generated using pymatgen
data_Tb2B4O9
_symmetry_space_group_name_H-M   'P 1'
_cell_length_a   4.43622142
_cell_length_b   12.88978190
_cell_length_c   24.96099945
_cell_angle_alpha   99.76065391
_cell_angle_beta   90.00000000
_cell_angle_gamma   99.90894387
_symmetry_Int_Tables_number   1
_chemical_formula_structural   Tb2B4O9
_chemical_formula_sum   'Tb20 B40 O90'
_cell_volume   1385.04733642
_cell_formula_units_Z   10
loop_
 _symmetry_equiv_pos_site_id
 _symmetry_equiv_pos_as_xyz
  1  'x, y, z'
loop_
 _atom_site_type_symbol
 _atom_site_label
 _atom_site_symmetry_multiplicity
 _atom_site_fract_x
 _atom_site_fract_y
 _atom_site_fract_z
 _atom_site_occupancy
  Tb  Tb0  1  0.65887276  0.97639100  0.82144043  1
  Tb  Tb1  1  0.34112724  0.02360900  0.17855957  1
  Tb  Tb2  1  0.68248176  0.02360900  0.67855957  1
  Tb  Tb3  1  0.31751824  0.97639100  0.32144043  1
  Tb  Tb4  1  0.53629888  0.71840637  0.70758051  1
  Tb  Tb5  1  0.46370112  0.28159363  0.29241949  1
  Tb  Tb6  1  0.81789252  0.28159363  0.79241949  1
  Tb  Tb7  1  0.18210748  0.71840637  0.20758051  1
  Tb  Tb8  1  0.42111048  0.43099850  0.62933499  1
  Tb  Tb9  1  0.57888952  0.56900150  0.37066501  1
  Tb  Tb10  1  0.99011198  0.56900150  0.87066501  1
  Tb  Tb11  1  0.00988802  0.43099850  0.12933499  1
  Tb  Tb12  1  0.73517849  0.87078391  0.42800181  1
  Tb  Tb13  1  0.26482151  0.12921609  0.57199819  1
  Tb  Tb14  1  0.86439457  0.12921609  0.07199819  1
  Tb  Tb15  1  0.13560543  0.87078391  0.92800181  1
  Tb  Tb16  1  0.61441925  0.69201285  0.53892858  1
  Tb  Tb17  1  0.38558075  0.30798715  0.46107142  1
  Tb  Tb18  1  0.92240640  0.30798715  0.96107142  1
  Tb  Tb19  1  0.07759360  0.69201285  0.03892858  1
  B  B20  1  0.78458347  0.94044066  0.56546651  1
  B  B21  1  0.21541653  0.05955934  0.43453349  1
  B  B22  1  0.84414281  0.05955934  0.93453349  1
  B  B23  1  0.15585719  0.94044066  0.06546651  1
  B  B24  1  0.27308293  0.19814456  0.69225194  1
  B  B25  1  0.72691707  0.80185544  0.30774806  1
  B  B26  1  0.07493837  0.80185544  0.80774806  1
  B  B27  1  0.92506163  0.19814456  0.19225194  1
  B  B28  1  0.54699617  0.70881678  0.83718252  1
  B  B29  1  0.45300383  0.29118322  0.16281748  1
  B  B30  1  0.83817939  0.29118322  0.66281748  1
  B  B31  1  0.16182061  0.70881678  0.33718252  1
  B  B32  1  0.35315207  0.39073894  0.86631734  1
  B  B33  1  0.64684793  0.60926106  0.13368266  1
  B  B34  1  0.96241313  0.60926106  0.63368266  1
  B  B35  1  0.03758687  0.39073894  0.36631734  1
  B  B36  1  0.37376877  0.14536902  0.96974329  1
  B  B37  1  0.62623123  0.85463098  0.03025671  1
  B  B38  1  0.22839975  0.85463098  0.53025671  1
  B  B39  1  0.77160025  0.14536902  0.46974329  1
  B  B40  1  0.42114498  0.50251887  0.78178475  1
  B  B41  1  0.57885502  0.49748113  0.21821525  1
  B  B42  1  0.91862610  0.49748113  0.71821525  1
  B  B43  1  0.08137390  0.50251887  0.28178475  1
  B  B44  1  0.48103537  0.51584647  0.96113314  1
  B  B45  1  0.51896463  0.48415353  0.03886686  1
  B  B46  1  0.96518890  0.48415353  0.53886686  1
  B  B47  1  0.03481110  0.51584647  0.46113314  1
  B  B48  1  0.23033050  0.10432391  0.77529842  1
  B  B49  1  0.76966950  0.89567609  0.22470158  1
  B  B50  1  0.12600658  0.89567609  0.72470158  1
  B  B51  1  0.87399342  0.10432391  0.27529842  1
  B  B52  1  0.22297678  0.18317719  0.87653392  1
  B  B53  1  0.77702322  0.81682281  0.12346608  1
  B  B54  1  0.03979959  0.81682281  0.62346608  1
  B  B55  1  0.96020041  0.18317719  0.37653392  1
  B  B56  1  0.57517456  0.70567060  0.94123792  1
  B  B57  1  0.42482544  0.29432940  0.05876208  1
  B  B58  1  0.86950397  0.29432940  0.55876208  1
  B  B59  1  0.13049603  0.70567060  0.44123792  1
  O  O60  1  0.74838389  0.78706064  0.98417840  1
  O  O61  1  0.25161611  0.21293936  0.01582160  1
  O  O62  1  0.96132325  0.21293936  0.51582160  1
  O  O63  1  0.03867675  0.78706064  0.48417840  1
  O  O64  1  0.68822736  0.45814813  0.75674697  1
  O  O65  1  0.31177264  0.54185187  0.24325303  1
  O  O66  1  0.23007922  0.54185187  0.74325303  1
  O  O67  1  0.76992078  0.45814813  0.25674697  1
  O  O68  1  0.80553594  0.89658817  0.72607739  1
  O  O69  1  0.19446406  0.10341183  0.27392261  1
  O  O70  1  0.90894777  0.10341183  0.77392261  1
  O  O71  1  0.09105223  0.89658817  0.22607739  1
  O  O72  1  0.70044505  0.74128484  0.89097950  1
  O  O73  1  0.29955495  0.25871516  0.10902050  1
  O  O74  1  0.95916021  0.25871516  0.60902050  1
  O  O75  1  0.04083979  0.74128484  0.39097950  1
  O  O76  1  0.66682471  0.95645815  0.91435997  1
  O  O77  1  0.33317529  0.04354185  0.08564003  1
  O  O78  1  0.71036656  0.04354185  0.58564003  1
  O  O79  1  0.28963344  0.95645815  0.41435997  1
  O  O80  1  0.32109264  0.00000000  0.75000000  1
  O  O81  1  0.67890736  0.00000000  0.25000000  1
  O  O82  1  0.14655561  0.28504428  0.86387977  1
  O  O83  1  0.85344439  0.71495572  0.13612023  1
  O  O84  1  0.86151133  0.71495572  0.63612023  1
  O  O85  1  0.13848867  0.28504428  0.36387977  1
  O  O86  1  0.49576218  0.27328853  0.66445635  1
  O  O87  1  0.50423782  0.72671147  0.33554365  1
  O  O88  1  0.22247365  0.72671147  0.83554365  1
  O  O89  1  0.77752635  0.27328853  0.16445635  1
  O  O90  1  0.22263828  0.09255654  0.65952132  1
  O  O91  1  0.77736172  0.90744346  0.34047868  1
  O  O92  1  0.13008174  0.90744346  0.84047868  1
  O  O93  1  0.86991826  0.09255654  0.15952132  1
  O  O94  1  0.23065641  0.42492051  0.81342218  1
  O  O95  1  0.76934359  0.57507949  0.18657782  1
  O  O96  1  0.80573590  0.57507949  0.68657782  1
  O  O97  1  0.19426410  0.42492051  0.31342218  1
  O  O98  1  0.55581165  0.30502218  0.55554597  1
  O  O99  1  0.44418835  0.69497782  0.44445403  1
  O  O100  1  0.25078947  0.69497782  0.94445403  1
  O  O101  1  0.74921053  0.30502218  0.05554597  1
  O  O102  1  0.25080502  0.45770967  0.91846697  1
  O  O103  1  0.74919498  0.54229033  0.08153303  1
  O  O104  1  0.79309535  0.54229033  0.58153303  1
  O  O105  1  0.20690465  0.45770967  0.41846697  1
  O  O106  1  0.66139220  0.44601980  0.98595098  1
  O  O107  1  0.33860780  0.55398020  0.01404902  1
  O  O108  1  0.21537240  0.55398020  0.51404902  1
  O  O109  1  0.78462760  0.44601980  0.48595098  1
  O  O110  1  0.14623134  0.04923917  0.95668210  1
  O  O111  1  0.85376866  0.95076083  0.04331790  1
  O  O112  1  0.09699217  0.95076083  0.54331790  1
  O  O113  1  0.90300783  0.04923917  0.45668210  1
  O  O114  1  0.66971216  0.39473392  0.86617412  1
  O  O115  1  0.33028784  0.60526608  0.13382588  1
  O  O116  1  0.27497825  0.60526608  0.63382588  1
  O  O117  1  0.72502175  0.39473392  0.36617412  1
  O  O118  1  0.68742370  0.60205651  0.94447051  1
  O  O119  1  0.31257630  0.39794349  0.05552949  1
  O  O120  1  0.08536720  0.39794349  0.55552949  1
  O  O121  1  0.91463280  0.60205651  0.44447051  1
  O  O122  1  0.79403702  0.87636381  0.61090716  1
  O  O123  1  0.20596298  0.12363619  0.38909284  1
  O  O124  1  0.91767322  0.12363619  0.88909284  1
  O  O125  1  0.08232678  0.87636381  0.11090716  1
  O  O126  1  0.38805944  0.19301239  0.74689816  1
  O  O127  1  0.61194056  0.80698761  0.25310184  1
  O  O128  1  0.19504705  0.80698761  0.75310184  1
  O  O129  1  0.80495295  0.19301239  0.24689816  1
  O  O130  1  0.40791334  0.21661113  0.92743971  1
  O  O131  1  0.59208666  0.78338887  0.07256029  1
  O  O132  1  0.19130221  0.78338887  0.57256029  1
  O  O133  1  0.80869779  0.21661113  0.42743971  1
  O  O134  1  0.73263762  0.76201098  0.79879999  1
  O  O135  1  0.26736238  0.23798902  0.20120001  1
  O  O136  1  0.97062665  0.23798902  0.70120001  1
  O  O137  1  0.02937335  0.76201098  0.29879999  1
  O  O138  1  0.53606642  0.59103410  0.82771769  1
  O  O139  1  0.46393358  0.40896590  0.17228231  1
  O  O140  1  0.94503232  0.40896590  0.67228231  1
  O  O141  1  0.05496768  0.59103410  0.32771769  1
  O  O142  1  0.55913599  0.87455841  0.52080723  1
  O  O143  1  0.44086401  0.12544159  0.47919277  1
  O  O144  1  0.68457758  0.12544159  0.97919277  1
  O  O145  1  0.31542242  0.87455841  0.02080723  1
  O  O146  1  0.37970708  0.13004703  0.83126551  1
  O  O147  1  0.62029292  0.86995297  0.16873449  1
  O  O148  1  0.24966005  0.86995297  0.66873449  1
  O  O149  1  0.75033995  0.13004703  0.33126551  1
