# generated using pymatgen
data_Tb3Fe2Si7
_symmetry_space_group_name_H-M   'P 1'
_cell_length_a   4.08539788
_cell_length_b   4.05151061
_cell_length_c   12.36101437
_cell_angle_alpha   99.43232923
_cell_angle_beta   90.00000000
_cell_angle_gamma   90.00000000
_symmetry_Int_Tables_number   1
_chemical_formula_structural   Tb3Fe2Si7
_chemical_formula_sum   'Tb3 Fe2 Si7'
_cell_volume   201.83369392
_cell_formula_units_Z   1
loop_
 _symmetry_equiv_pos_site_id
 _symmetry_equiv_pos_as_xyz
  1  'x, y, z'
loop_
 _atom_site_type_symbol
 _atom_site_label
 _atom_site_symmetry_multiplicity
 _atom_site_fract_x
 _atom_site_fract_y
 _atom_site_fract_z
 _atom_site_occupancy
  Tb  Tb0  1  0.50000000  0.90213982  0.80427964  1
  Tb  Tb1  1  0.50000000  0.53300838  0.06601676  1
  Tb  Tb2  1  0.00000000  0.21736434  0.43472869  1
  Fe  Fe3  1  0.00000000  0.34418247  0.68836495  1
  Fe  Fe4  1  0.00000000  0.09046898  0.18093796  1
  Si  Si5  1  -0.00000000  0.62918819  0.25837638  1
  Si  Si6  1  -0.00000000  0.43800015  0.87600030  1
  Si  Si7  1  0.50000000  0.12969794  0.25939587  1
  Si  Si8  1  -0.00000000  0.99630719  0.99261437  1
  Si  Si9  1  -0.00000000  0.80593008  0.61186017  1
  Si  Si10  1  0.50000000  0.71072392  0.42144783  1
  Si  Si11  1  0.50000000  0.30628854  0.61257708  1
