# generated using pymatgen
data_VAs2Pb2O9
_symmetry_space_group_name_H-M   'P 1'
_cell_length_a   7.09437844
_cell_length_b   7.35247034
_cell_length_c   16.70474419
_cell_angle_alpha   90.00000000
_cell_angle_beta   90.00000000
_cell_angle_gamma   115.80198424
_symmetry_Int_Tables_number   1
_chemical_formula_structural   VAs2Pb2O9
_chemical_formula_sum   'V4 As8 Pb8 O36'
_cell_volume   784.47028290
_cell_formula_units_Z   4
loop_
 _symmetry_equiv_pos_site_id
 _symmetry_equiv_pos_as_xyz
  1  'x, y, z'
loop_
 _atom_site_type_symbol
 _atom_site_label
 _atom_site_symmetry_multiplicity
 _atom_site_fract_x
 _atom_site_fract_y
 _atom_site_fract_z
 _atom_site_occupancy
  V  V0  1  0.74997352  0.72328469  0.75520715  1
  V  V1  1  0.25002648  0.27671531  0.24479285  1
  V  V2  1  0.25002648  0.77671531  0.25520715  1
  V  V3  1  0.74997352  0.22328469  0.74479285  1
  As  As4  1  0.74675335  0.99755247  0.92012861  1
  As  As5  1  0.25324665  0.00244753  0.07987139  1
  As  As6  1  0.25324665  0.50244753  0.42012861  1
  As  As7  1  0.74675335  0.49755247  0.57987139  1
  As  As8  1  0.24992473  0.99436393  0.66323232  1
  As  As9  1  0.75007527  0.00563607  0.33676768  1
  As  As10  1  0.75007527  0.50563607  0.16323232  1
  As  As11  1  0.24992473  0.49436393  0.83676768  1
  Pb  Pb12  1  0.74445993  0.98582672  0.53630624  1
  Pb  Pb13  1  0.25554007  0.01417328  0.46369376  1
  Pb  Pb14  1  0.25554007  0.51417328  0.03630624  1
  Pb  Pb15  1  0.74445993  0.48582672  0.96369376  1
  Pb  Pb16  1  0.24736564  0.98782717  0.87965607  1
  Pb  Pb17  1  0.75263436  0.01217283  0.12034393  1
  Pb  Pb18  1  0.75263436  0.51217283  0.37965607  1
  Pb  Pb19  1  0.24736564  0.48782717  0.62034393  1
  O  O20  1  0.44667599  0.66587683  0.77688601  1
  O  O21  1  0.55332401  0.33412317  0.22311399  1
  O  O22  1  0.55332401  0.83412317  0.27688601  1
  O  O23  1  0.44667599  0.16587683  0.72311399  1
  O  O24  1  0.86269521  0.89171366  0.39861809  1
  O  O25  1  0.13730479  0.10828634  0.60138191  1
  O  O26  1  0.13730479  0.60828634  0.89861809  1
  O  O27  1  0.86269521  0.39171366  0.10138191  1
  O  O28  1  0.93039449  0.66726178  0.51782731  1
  O  O29  1  0.06960551  0.33273822  0.48217269  1
  O  O30  1  0.06960551  0.83273822  0.01782731  1
  O  O31  1  0.93039449  0.16726178  0.98217269  1
  O  O32  1  0.35102996  0.87492320  0.59924546  1
  O  O33  1  0.64897004  0.12507680  0.40075454  1
  O  O34  1  0.64897004  0.62507680  0.09924546  1
  O  O35  1  0.35102996  0.37492320  0.90075454  1
  O  O36  1  0.54838704  0.82835716  0.97682533  1
  O  O37  1  0.45161296  0.17164284  0.02317467  1
  O  O38  1  0.45161296  0.67164284  0.47682533  1
  O  O39  1  0.54838704  0.32835716  0.52317467  1
  O  O40  1  0.93511902  0.66306077  0.23049327  1
  O  O41  1  0.06488098  0.33693923  0.76950673  1
  O  O42  1  0.06488098  0.83693923  0.73049327  1
  O  O43  1  0.93511902  0.16306077  0.26950673  1
  O  O44  1  0.74468232  0.49868673  0.78428426  1
  O  O45  1  0.25531768  0.50131327  0.21571574  1
  O  O46  1  0.25531768  0.00131327  0.28428426  1
  O  O47  1  0.74468232  0.99868673  0.71571574  1
  O  O48  1  0.85099028  0.86771329  0.86117445  1
  O  O49  1  0.14900972  0.13228671  0.13882555  1
  O  O50  1  0.14900972  0.63228671  0.36117445  1
  O  O51  1  0.85099028  0.36771329  0.63882555  1
  O  O52  1  0.65756600  0.63644208  0.64137565  1
  O  O53  1  0.34243400  0.36355792  0.35862435  1
  O  O54  1  0.34243400  0.86355792  0.14137565  1
  O  O55  1  0.65756600  0.13644208  0.85862435  1
