# generated using pymatgen
data_Yb2Be2GeO7
_symmetry_space_group_name_H-M   'P 1'
_cell_length_a   4.96191330
_cell_length_b   7.41620310
_cell_length_c   7.41620310
_cell_angle_alpha   90.00000000
_cell_angle_beta   90.00000000
_cell_angle_gamma   90.00000000
_symmetry_Int_Tables_number   1
_chemical_formula_structural   Yb2Be2GeO7
_chemical_formula_sum   'Yb4 Be4 Ge2 O14'
_cell_volume   272.90557100
_cell_formula_units_Z   2
loop_
 _symmetry_equiv_pos_site_id
 _symmetry_equiv_pos_as_xyz
  1  'x, y, z'
loop_
 _atom_site_type_symbol
 _atom_site_label
 _atom_site_symmetry_multiplicity
 _atom_site_fract_x
 _atom_site_fract_y
 _atom_site_fract_z
 _atom_site_occupancy
  Yb  Yb0  1  0.50844898  0.16255558  0.66255558  1
  Yb  Yb1  1  0.50844898  0.83744442  0.33744442  1
  Yb  Yb2  1  0.49155102  0.66255558  0.83744442  1
  Yb  Yb3  1  0.49155102  0.33744442  0.16255558  1
  Be  Be4  1  0.93916320  0.63577423  0.13577423  1
  Be  Be5  1  0.93916320  0.36422577  0.86422577  1
  Be  Be6  1  0.06083680  0.13577423  0.36422577  1
  Be  Be7  1  0.06083680  0.86422577  0.63577423  1
  Ge  Ge8  1  0.00000000  -0.00000000  -0.00000000  1
  Ge  Ge9  1  0.00000000  0.50000000  0.50000000  1
  O  O10  1  0.19391410  -0.00000000  0.50000000  1
  O  O11  1  0.80608590  0.50000000  -0.00000000  1
  O  O12  1  0.26415364  0.62720117  0.12720117  1
  O  O13  1  0.26415364  0.37279883  0.87279883  1
  O  O14  1  0.73584636  0.12720117  0.37279883  1
  O  O15  1  0.73584636  0.87279883  0.62720117  1
  O  O16  1  0.21270373  0.07794213  0.17426746  1
  O  O17  1  0.21270373  0.92205787  0.82573254  1
  O  O18  1  0.78729627  0.17426746  0.92205787  1
  O  O19  1  0.78729627  0.42205787  0.67426746  1
  O  O20  1  0.78729627  0.82573254  0.07794213  1
  O  O21  1  0.78729627  0.57794213  0.32573254  1
  O  O22  1  0.21270373  0.32573254  0.42205787  1
  O  O23  1  0.21270373  0.67426746  0.57794213  1
