# generated using pymatgen
data_TmZr6(PO4)9
_symmetry_space_group_name_H-M   'P 1'
_cell_length_a   8.94227986
_cell_length_b   8.94227986
_cell_length_c   22.88307906
_cell_angle_alpha   90.00000000
_cell_angle_beta   90.00000000
_cell_angle_gamma   119.99999618
_symmetry_Int_Tables_number   1
_chemical_formula_structural   TmZr6(PO4)9
_chemical_formula_sum   'Tm2 Zr12 P18 O72'
_cell_volume   1584.68017546
_cell_formula_units_Z   2
loop_
 _symmetry_equiv_pos_site_id
 _symmetry_equiv_pos_as_xyz
  1  'x, y, z'
loop_
 _atom_site_type_symbol
 _atom_site_label
 _atom_site_symmetry_multiplicity
 _atom_site_fract_x
 _atom_site_fract_y
 _atom_site_fract_z
 _atom_site_occupancy
  Tm  Tm0  1  0.00000000  -0.00000000  -0.00000000  1
  Tm  Tm1  1  0.00000000  -0.00000000  0.50000000  1
  Zr  Zr2  1  0.66666700  0.33333300  0.97165130  1
  Zr  Zr3  1  0.33333300  0.66666700  0.02834870  1
  Zr  Zr4  1  0.33333300  0.66666700  0.52834870  1
  Zr  Zr5  1  0.66666700  0.33333300  0.47165130  1
  Zr  Zr6  1  0.00000000  -0.00000000  0.85103714  1
  Zr  Zr7  1  0.00000000  -0.00000000  0.14896286  1
  Zr  Zr8  1  0.00000000  -0.00000000  0.64896286  1
  Zr  Zr9  1  0.00000000  -0.00000000  0.35103714  1
  Zr  Zr10  1  0.66666700  0.33333300  0.68708235  1
  Zr  Zr11  1  0.33333300  0.66666700  0.31291765  1
  Zr  Zr12  1  0.33333300  0.66666700  0.81291765  1
  Zr  Zr13  1  0.66666700  0.33333300  0.18708235  1
  P  P14  1  0.62761016  0.94642556  0.92130306  1
  P  P15  1  0.37238984  0.05357444  0.07869694  1
  P  P16  1  0.31881541  0.37238984  0.92130306  1
  P  P17  1  0.68118459  0.05357444  0.57869694  1
  P  P18  1  0.68118459  0.62761016  0.07869694  1
  P  P19  1  0.31881541  0.94642556  0.42130306  1
  P  P20  1  0.05357444  0.68118459  0.92130306  1
  P  P21  1  0.94642556  0.62761016  0.57869694  1
  P  P22  1  0.94642556  0.31881541  0.07869694  1
  P  P23  1  0.05357444  0.37238984  0.42130306  1
  P  P24  1  0.37238984  0.31881541  0.57869694  1
  P  P25  1  0.62761016  0.68118459  0.42130306  1
  P  P26  1  0.70779674  0.70779674  0.75000000  1
  P  P27  1  0.29220326  0.29220326  0.25000000  1
  P  P28  1  1.00000000  0.29220326  0.75000000  1
  P  P29  1  0.00000000  0.70779674  0.25000000  1
  P  P30  1  0.29220326  1.00000000  0.75000000  1
  P  P31  1  0.70779674  0.00000000  0.25000000  1
  O  O32  1  0.54596189  0.82907524  0.97466977  1
  O  O33  1  0.45403811  0.17092476  0.02533023  1
  O  O34  1  0.28311335  0.45403811  0.97466977  1
  O  O35  1  0.71688665  0.17092476  0.52533023  1
  O  O36  1  0.71688665  0.54596189  0.02533023  1
  O  O37  1  0.28311335  0.82907524  0.47466977  1
  O  O38  1  0.17092476  0.71688665  0.97466977  1
  O  O39  1  0.82907524  0.54596189  0.52533023  1
  O  O40  1  0.82907524  0.28311335  0.02533023  1
  O  O41  1  0.17092476  0.45403811  0.47466977  1
  O  O42  1  0.45403811  0.28311335  0.52533023  1
  O  O43  1  0.54596189  0.71688665  0.47466977  1
  O  O44  1  0.62475238  0.11623637  0.92524488  1
  O  O45  1  0.37524762  0.88376363  0.07475512  1
  O  O46  1  0.49148399  0.37524762  0.92524488  1
  O  O47  1  0.50851601  0.88376363  0.57475512  1
  O  O48  1  0.50851601  0.62475238  0.07475512  1
  O  O49  1  0.49148399  0.11623637  0.42524488  1
  O  O50  1  0.88376363  0.50851601  0.92524488  1
  O  O51  1  0.11623637  0.62475238  0.57475512  1
  O  O52  1  0.11623637  0.49148399  0.07475512  1
  O  O53  1  0.88376363  0.37524762  0.42524488  1
  O  O54  1  0.37524762  0.49148399  0.57475512  1
  O  O55  1  0.62475238  0.50851601  0.42524488  1
  O  O56  1  0.82409779  0.99173765  0.92264306  1
  O  O57  1  0.17590221  0.00826235  0.07735694  1
  O  O58  1  0.16763987  0.17590221  0.92264306  1
  O  O59  1  0.83236013  0.00826235  0.57735694  1
  O  O60  1  0.83236013  0.82409779  0.07735694  1
  O  O61  1  0.16763987  0.99173765  0.42264306  1
  O  O62  1  0.00826235  0.83236013  0.92264306  1
  O  O63  1  0.99173765  0.82409779  0.57735694  1
  O  O64  1  0.99173765  0.16763987  0.07735694  1
  O  O65  1  0.00826235  0.17590221  0.42264306  1
  O  O66  1  0.17590221  0.16763987  0.57735694  1
  O  O67  1  0.82409779  0.83236013  0.42264306  1
  O  O68  1  0.97025535  0.17477367  0.80425331  1
  O  O69  1  0.02974465  0.82522633  0.19574669  1
  O  O70  1  0.20451833  0.02974465  0.80425331  1
  O  O71  1  0.79548167  0.82522633  0.69574669  1
  O  O72  1  0.79548167  0.97025535  0.19574669  1
  O  O73  1  0.20451833  0.17477367  0.30425331  1
  O  O74  1  0.82522633  0.79548167  0.80425331  1
  O  O75  1  0.17477367  0.97025535  0.69574669  1
  O  O76  1  0.17477367  0.20451833  0.19574669  1
  O  O77  1  0.82522633  0.02974465  0.30425331  1
  O  O78  1  0.02974465  0.20451833  0.69574669  1
  O  O79  1  0.97025535  0.79548167  0.30425331  1
  O  O80  1  0.53957941  0.85346327  0.86446681  1
  O  O81  1  0.46042059  0.14653673  0.13553319  1
  O  O82  1  0.31388386  0.46042059  0.86446681  1
  O  O83  1  0.68611614  0.14653673  0.63553319  1
  O  O84  1  0.68611614  0.53957941  0.13553319  1
  O  O85  1  0.31388386  0.85346327  0.36446681  1
  O  O86  1  0.14653673  0.68611614  0.86446681  1
  O  O87  1  0.85346327  0.53957941  0.63553319  1
  O  O88  1  0.85346327  0.31388386  0.13553319  1
  O  O89  1  0.14653673  0.46042059  0.36446681  1
  O  O90  1  0.46042059  0.31388386  0.63553319  1
  O  O91  1  0.53957941  0.68611614  0.36446681  1
  O  O92  1  0.53133986  0.69078817  0.75958934  1
  O  O93  1  0.46866014  0.30921183  0.24041066  1
  O  O94  1  0.15944831  0.46866014  0.75958934  1
  O  O95  1  0.84055169  0.30921183  0.74041066  1
  O  O96  1  0.84055169  0.53133986  0.24041066  1
  O  O97  1  0.15944831  0.69078817  0.25958934  1
  O  O98  1  0.30921183  0.84055169  0.75958934  1
  O  O99  1  0.69078817  0.53133986  0.74041066  1
  O  O100  1  0.69078817  0.15944831  0.24041066  1
  O  O101  1  0.30921183  0.46866014  0.25958934  1
  O  O102  1  0.46866014  0.15944831  0.74041066  1
  O  O103  1  0.53133986  0.84055169  0.25958934  1
