# generated using pymatgen
data_Sm3HfSb5
_symmetry_space_group_name_H-M   'P 1'
_cell_length_a   6.34216862
_cell_length_b   9.41175839
_cell_length_c   9.41175839
_cell_angle_alpha   120.00000404
_cell_angle_beta   90.00000000
_cell_angle_gamma   90.00000000
_symmetry_Int_Tables_number   1
_chemical_formula_structural   Sm3HfSb5
_chemical_formula_sum   'Sm6 Hf2 Sb10'
_cell_volume   486.53035186
_cell_formula_units_Z   2
loop_
 _symmetry_equiv_pos_site_id
 _symmetry_equiv_pos_as_xyz
  1  'x, y, z'
loop_
 _atom_site_type_symbol
 _atom_site_label
 _atom_site_symmetry_multiplicity
 _atom_site_fract_x
 _atom_site_fract_y
 _atom_site_fract_z
 _atom_site_occupancy
  Sm  Sm0  1  0.75000000  0.38293736  0.38293736  1
  Sm  Sm1  1  0.25000000  0.61706264  0.61706264  1
  Sm  Sm2  1  0.75000000  0.00000000  0.61706264  1
  Sm  Sm3  1  0.25000000  1.00000000  0.38293736  1
  Sm  Sm4  1  0.75000000  0.61706264  0.00000000  1
  Sm  Sm5  1  0.25000000  0.38293736  1.00000000  1
  Hf  Hf6  1  0.00000000  0.00000000  0.00000000  1
  Hf  Hf7  1  0.50000000  0.00000000  0.00000000  1
  Sb  Sb8  1  0.75000000  0.73549150  0.73549150  1
  Sb  Sb9  1  0.25000000  0.26450850  0.26450850  1
  Sb  Sb10  1  0.75000000  0.00000000  0.26450850  1
  Sb  Sb11  1  0.25000000  1.00000000  0.73549150  1
  Sb  Sb12  1  0.75000000  0.26450850  0.00000000  1
  Sb  Sb13  1  0.25000000  0.73549150  1.00000000  1
  Sb  Sb14  1  -0.00000000  0.66666700  0.33333300  1
  Sb  Sb15  1  -0.00000000  0.33333300  0.66666700  1
  Sb  Sb16  1  0.50000000  0.33333300  0.66666700  1
  Sb  Sb17  1  0.50000000  0.66666700  0.33333300  1
