# generated using pymatgen
data_RbCoBr3
_symmetry_space_group_name_H-M   'P 1'
_cell_length_a   6.20955652
_cell_length_b   13.07014887
_cell_length_c   13.07014887
_cell_angle_alpha   120.00000458
_cell_angle_beta   90.00000000
_cell_angle_gamma   90.00000000
_symmetry_Int_Tables_number   1
_chemical_formula_structural   RbCoBr3
_chemical_formula_sum   'Rb6 Co6 Br18'
_cell_volume   918.65462167
_cell_formula_units_Z   6
loop_
 _symmetry_equiv_pos_site_id
 _symmetry_equiv_pos_as_xyz
  1  'x, y, z'
loop_
 _atom_site_type_symbol
 _atom_site_label
 _atom_site_symmetry_multiplicity
 _atom_site_fract_x
 _atom_site_fract_y
 _atom_site_fract_z
 _atom_site_occupancy
  Rb  Rb0  1  0.75000000  0.33205308  0.33205308  1
  Rb  Rb1  1  0.25000000  0.66794692  0.66794692  1
  Rb  Rb2  1  0.75000000  1.00000000  0.66794692  1
  Rb  Rb3  1  0.25000000  0.00000000  0.33205308  1
  Rb  Rb4  1  0.75000000  0.66794692  1.00000000  1
  Rb  Rb5  1  0.25000000  0.33205308  0.00000000  1
  Co  Co6  1  0.96915665  0.66666700  0.33333300  1
  Co  Co7  1  0.03084335  0.33333300  0.66666700  1
  Co  Co8  1  0.53084335  0.33333300  0.66666700  1
  Co  Co9  1  0.46915665  0.66666700  0.33333300  1
  Co  Co10  1  0.00000000  -0.00000000  0.00000000  1
  Co  Co11  1  0.50000000  -0.00000000  0.00000000  1
  Br  Br12  1  0.78192489  0.49067400  0.66660218  1
  Br  Br13  1  0.21807511  0.50932600  0.33339782  1
  Br  Br14  1  0.78192489  0.17592819  0.50932600  1
  Br  Br15  1  0.71807511  0.82407181  0.33339782  1
  Br  Br16  1  0.21807511  0.82407181  0.49067400  1
  Br  Br17  1  0.28192489  0.17592819  0.66660218  1
  Br  Br18  1  0.78192489  0.33339782  0.82407181  1
  Br  Br19  1  0.71807511  0.66660218  0.49067400  1
  Br  Br20  1  0.21807511  0.66660218  0.17592819  1
  Br  Br21  1  0.28192489  0.33339782  0.50932600  1
  Br  Br22  1  0.71807511  0.50932600  0.17592819  1
  Br  Br23  1  0.28192489  0.49067400  0.82407181  1
  Br  Br24  1  0.75000000  0.84287207  0.84287207  1
  Br  Br25  1  0.25000000  0.15712793  0.15712793  1
  Br  Br26  1  0.75000000  1.00000000  0.15712793  1
  Br  Br27  1  0.25000000  0.00000000  0.84287207  1
  Br  Br28  1  0.75000000  0.15712793  1.00000000  1
  Br  Br29  1  0.25000000  0.84287207  0.00000000  1
