# generated using pymatgen
data_Rb3LaBr6
_symmetry_space_group_name_H-M   'P 1'
_cell_length_a   8.60082795
_cell_length_b   14.57137654
_cell_length_c   13.90039496
_cell_angle_alpha   108.52154011
_cell_angle_beta   90.00000000
_cell_angle_gamma   90.00000000
_symmetry_Int_Tables_number   1
_chemical_formula_structural   Rb3LaBr6
_chemical_formula_sum   'Rb12 La4 Br24'
_cell_volume   1651.84731368
_cell_formula_units_Z   4
loop_
 _symmetry_equiv_pos_site_id
 _symmetry_equiv_pos_as_xyz
  1  'x, y, z'
loop_
 _atom_site_type_symbol
 _atom_site_label
 _atom_site_symmetry_multiplicity
 _atom_site_fract_x
 _atom_site_fract_y
 _atom_site_fract_z
 _atom_site_occupancy
  Rb  Rb0  1  0.43470636  0.68355965  0.73387974  1
  Rb  Rb1  1  0.56529364  0.31644035  0.26612026  1
  Rb  Rb2  1  0.93470636  0.31644035  0.76612026  1
  Rb  Rb3  1  0.06529364  0.68355965  0.23387974  1
  Rb  Rb4  1  0.96453649  0.90245906  0.64143960  1
  Rb  Rb5  1  0.03546351  0.09754094  0.35856040  1
  Rb  Rb6  1  0.46453649  0.09754094  0.85856040  1
  Rb  Rb7  1  0.53546351  0.90245906  0.14143960  1
  Rb  Rb8  1  0.93216752  0.68077475  0.88734108  1
  Rb  Rb9  1  0.06783248  0.31922525  0.11265892  1
  Rb  Rb10  1  0.43216752  0.31922525  0.61265892  1
  Rb  Rb11  1  0.56783248  0.68077475  0.38734108  1
  La  La12  1  0.00000000  0.50000000  0.50000000  1
  La  La13  1  0.50000000  0.50000000  0.00000000  1
  La  La14  1  0.00000000  -0.00000000  0.00000000  1
  La  La15  1  0.50000000  -0.00000000  0.50000000  1
  Br  Br16  1  0.50041652  0.87915305  0.63316436  1
  Br  Br17  1  0.49958348  0.12084695  0.36683564  1
  Br  Br18  1  0.00041652  0.12084695  0.86683564  1
  Br  Br19  1  0.99958348  0.87915305  0.13316436  1
  Br  Br20  1  0.28993006  0.65794842  0.99593511  1
  Br  Br21  1  0.71006994  0.34205158  0.00406489  1
  Br  Br22  1  0.78993006  0.34205158  0.50406489  1
  Br  Br23  1  0.21006994  0.65794842  0.49593511  1
  Br  Br24  1  0.78621164  0.65591809  0.60703619  1
  Br  Br25  1  0.21378836  0.34408191  0.39296381  1
  Br  Br26  1  0.28621164  0.34408191  0.89296381  1
  Br  Br27  1  0.71378836  0.65591809  0.10703619  1
  Br  Br28  1  0.64433000  0.50062100  0.80480976  1
  Br  Br29  1  0.35567000  0.49937900  0.19519024  1
  Br  Br30  1  0.14433000  0.49937900  0.69519024  1
  Br  Br31  1  0.85567000  0.50062100  0.30480976  1
  Br  Br32  1  0.17889687  0.85963631  0.84136089  1
  Br  Br33  1  0.82110313  0.14036369  0.15863911  1
  Br  Br34  1  0.67889687  0.14036369  0.65863911  1
  Br  Br35  1  0.32110313  0.85963631  0.34136089  1
  Br  Br36  1  0.71258122  0.89698448  0.90536482  1
  Br  Br37  1  0.28741878  0.10301552  0.09463518  1
  Br  Br38  1  0.21258122  0.10301552  0.59463518  1
  Br  Br39  1  0.78741878  0.89698448  0.40536482  1
