# generated using pymatgen
data_Rb5Dy3Br12
_symmetry_space_group_name_H-M   'P 1'
_cell_length_a   4.29260001
_cell_length_b   14.38930655
_cell_length_c   14.38930655
_cell_angle_alpha   120.00000273
_cell_angle_beta   90.00000000
_cell_angle_gamma   90.00000000
_symmetry_Int_Tables_number   1
_chemical_formula_structural   Rb5Dy3Br12
_chemical_formula_sum   'Rb5 Dy3 Br12'
_cell_volume   769.71645683
_cell_formula_units_Z   1
loop_
 _symmetry_equiv_pos_site_id
 _symmetry_equiv_pos_as_xyz
  1  'x, y, z'
loop_
 _atom_site_type_symbol
 _atom_site_label
 _atom_site_symmetry_multiplicity
 _atom_site_fract_x
 _atom_site_fract_y
 _atom_site_fract_z
 _atom_site_occupancy
  Rb  Rb0  1  -0.00000000  0.66666700  0.33333300  1
  Rb  Rb1  1  0.00000000  0.33333300  0.66666700  1
  Rb  Rb2  1  -0.00000000  0.28310283  0.28310283  1
  Rb  Rb3  1  0.00000000  0.00000000  0.71689717  1
  Rb  Rb4  1  0.00000000  0.71689717  0.00000000  1
  Dy  Dy5  1  0.50000000  0.67599530  0.67599530  1
  Dy  Dy6  1  0.50000000  1.00000000  0.32400470  1
  Dy  Dy7  1  0.50000000  0.32400470  1.00000000  1
  Br  Br8  1  -0.00000000  0.81324523  0.81324523  1
  Br  Br9  1  0.00000000  0.00000000  0.18675477  1
  Br  Br10  1  0.00000000  0.18675477  0.00000000  1
  Br  Br11  1  0.00000000  0.54126634  0.54126634  1
  Br  Br12  1  -0.00000000  1.00000000  0.45873366  1
  Br  Br13  1  -0.00000000  0.45873366  1.00000000  1
  Br  Br14  1  0.50000000  0.77189366  0.21116276  1
  Br  Br15  1  0.50000000  0.43926910  0.22810634  1
  Br  Br16  1  0.50000000  0.56073090  0.78883724  1
  Br  Br17  1  0.50000000  0.78883724  0.56073090  1
  Br  Br18  1  0.50000000  0.21116276  0.77189366  1
  Br  Br19  1  0.50000000  0.22810634  0.43926910  1
