# generated using pymatgen
data_Nb3Se5Br7
_symmetry_space_group_name_H-M   'P 1'
_cell_length_a   8.62502949
_cell_length_b   8.96593995
_cell_length_c   13.23919169
_cell_angle_alpha   90.00000000
_cell_angle_beta   90.00000000
_cell_angle_gamma   109.56962287
_symmetry_Int_Tables_number   1
_chemical_formula_structural   Nb3Se5Br7
_chemical_formula_sum   'Nb6 Se10 Br14'
_cell_volume   964.66649688
_cell_formula_units_Z   2
loop_
 _symmetry_equiv_pos_site_id
 _symmetry_equiv_pos_as_xyz
  1  'x, y, z'
loop_
 _atom_site_type_symbol
 _atom_site_label
 _atom_site_symmetry_multiplicity
 _atom_site_fract_x
 _atom_site_fract_y
 _atom_site_fract_z
 _atom_site_occupancy
  Nb  Nb0  1  0.52366070  0.55626285  0.89361528  1
  Nb  Nb1  1  0.47633930  0.44373715  0.10638472  1
  Nb  Nb2  1  0.47633930  0.44373715  0.39361528  1
  Nb  Nb3  1  0.52366070  0.55626285  0.60638472  1
  Nb  Nb4  1  0.89789452  0.97382414  0.75000000  1
  Nb  Nb5  1  0.10210548  0.02617586  0.25000000  1
  Se  Se6  1  0.91716853  0.23603865  0.75000000  1
  Se  Se7  1  0.08283147  0.76396135  0.25000000  1
  Se  Se8  1  0.76173625  0.62390384  0.46946671  1
  Se  Se9  1  0.23826375  0.37609616  0.53053329  1
  Se  Se10  1  0.23826375  0.37609616  0.96946671  1
  Se  Se11  1  0.76173625  0.62390384  0.03053329  1
  Se  Se12  1  0.66529570  0.36347896  0.97468134  1
  Se  Se13  1  0.33470430  0.63652104  0.02531866  1
  Se  Se14  1  0.33470430  0.63652104  0.47468134  1
  Se  Se15  1  0.66529570  0.36347896  0.52531866  1
  Br  Br16  1  0.65040334  0.88947937  0.88695374  1
  Br  Br17  1  0.34959666  0.11052063  0.11304626  1
  Br  Br18  1  0.34959666  0.11052063  0.38695374  1
  Br  Br19  1  0.65040334  0.88947937  0.61304626  1
  Br  Br20  1  0.09173107  0.95571320  0.88509945  1
  Br  Br21  1  0.90826893  0.04428680  0.11490055  1
  Br  Br22  1  0.90826893  0.04428680  0.38509945  1
  Br  Br23  1  0.09173107  0.95571320  0.61490055  1
  Br  Br24  1  0.77725887  0.62394276  0.75000000  1
  Br  Br25  1  0.22274113  0.37605724  0.25000000  1
  Br  Br26  1  0.33426346  0.63409453  0.75000000  1
  Br  Br27  1  0.66573654  0.36590547  0.25000000  1
  Br  Br28  1  0.44195088  0.31461832  0.75000000  1
  Br  Br29  1  0.55804912  0.68538168  0.25000000  1
