# generated using pymatgen
data_RbCoBr3
_symmetry_space_group_name_H-M   'P 1'
_cell_length_a   6.23035556
_cell_length_b   13.05552545
_cell_length_c   13.05552545
_cell_angle_alpha   120.00000209
_cell_angle_beta   90.00000000
_cell_angle_gamma   90.00000000
_symmetry_Int_Tables_number   1
_chemical_formula_structural   RbCoBr3
_chemical_formula_sum   'Rb6 Co6 Br18'
_cell_volume   919.67030990
_cell_formula_units_Z   6
loop_
 _symmetry_equiv_pos_site_id
 _symmetry_equiv_pos_as_xyz
  1  'x, y, z'
loop_
 _atom_site_type_symbol
 _atom_site_label
 _atom_site_symmetry_multiplicity
 _atom_site_fract_x
 _atom_site_fract_y
 _atom_site_fract_z
 _atom_site_occupancy
  Rb  Rb0  1  0.79540193  0.33409429  0.33409429  1
  Rb  Rb1  1  0.79540193  1.00000000  0.66590571  1
  Rb  Rb2  1  0.29540193  0.66590571  0.66590571  1
  Rb  Rb3  1  0.29540193  0.00000000  0.33409429  1
  Rb  Rb4  1  0.79540193  0.66590571  1.00000000  1
  Rb  Rb5  1  0.29540193  0.33409429  0.00000000  1
  Co  Co6  1  0.01262916  -0.00000000  -0.00000000  1
  Co  Co7  1  0.51262916  -0.00000000  -0.00000000  1
  Co  Co8  1  0.56615703  0.66666700  0.33333300  1
  Co  Co9  1  0.06615703  0.33333300  0.66666700  1
  Co  Co10  1  0.06615703  0.66666700  0.33333300  1
  Co  Co11  1  0.56615703  0.33333300  0.66666700  1
  Br  Br12  1  0.81658810  0.82400928  0.33276226  1
  Br  Br13  1  0.81658810  0.50875298  0.17599072  1
  Br  Br14  1  0.31658810  0.17599072  0.66723774  1
  Br  Br15  1  0.31658810  0.50875298  0.33276226  1
  Br  Br16  1  0.81658810  0.66723774  0.49124702  1
  Br  Br17  1  0.31658810  0.49124702  0.82400928  1
  Br  Br18  1  0.31658810  0.66723774  0.17599072  1
  Br  Br19  1  0.81658810  0.49124702  0.66723774  1
  Br  Br20  1  0.31658810  0.33276226  0.50875298  1
  Br  Br21  1  0.81658810  0.33276226  0.82400928  1
  Br  Br22  1  0.31658810  0.82400928  0.49124702  1
  Br  Br23  1  0.81658810  0.17599072  0.50875298  1
  Br  Br24  1  0.76087414  0.84250806  0.84250806  1
  Br  Br25  1  0.76087414  1.00000000  0.15749194  1
  Br  Br26  1  0.26087414  0.15749194  0.15749194  1
  Br  Br27  1  0.26087414  0.00000000  0.84250806  1
  Br  Br28  1  0.76087414  0.15749194  1.00000000  1
  Br  Br29  1  0.26087414  0.84250806  0.00000000  1
