# generated using pymatgen
data_RbSr2I5
_symmetry_space_group_name_H-M   'P 1'
_cell_length_a   9.19350569
_cell_length_b   10.17046735
_cell_length_c   14.71558409
_cell_angle_alpha   90.25094789
_cell_angle_beta   90.00000000
_cell_angle_gamma   90.00000000
_symmetry_Int_Tables_number   1
_chemical_formula_structural   RbSr2I5
_chemical_formula_sum   'Rb4 Sr8 I20'
_cell_volume   1375.92701711
_cell_formula_units_Z   4
loop_
 _symmetry_equiv_pos_site_id
 _symmetry_equiv_pos_as_xyz
  1  'x, y, z'
loop_
 _atom_site_type_symbol
 _atom_site_label
 _atom_site_symmetry_multiplicity
 _atom_site_fract_x
 _atom_site_fract_y
 _atom_site_fract_z
 _atom_site_occupancy
  Rb  Rb0  1  0.96284573  0.49699576  0.67292573  1
  Rb  Rb1  1  0.03715427  0.50300424  0.32707427  1
  Rb  Rb2  1  0.46284573  0.50300424  0.82707427  1
  Rb  Rb3  1  0.53715427  0.49699576  0.17292573  1
  Sr  Sr4  1  0.97802959  0.99727987  0.67886179  1
  Sr  Sr5  1  0.02197041  0.00272013  0.32113821  1
  Sr  Sr6  1  0.47802959  0.00272013  0.82113821  1
  Sr  Sr7  1  0.52197041  0.99727987  0.17886179  1
  Sr  Sr8  1  0.92974052  0.75395973  0.99459137  1
  Sr  Sr9  1  0.07025948  0.24604027  0.00540863  1
  Sr  Sr10  1  0.42974052  0.24604027  0.50540863  1
  Sr  Sr11  1  0.57025948  0.75395973  0.49459137  1
  I  I12  1  0.83328586  0.46586820  0.91304707  1
  I  I13  1  0.16671414  0.53413180  0.08695293  1
  I  I14  1  0.33328586  0.53413180  0.58695293  1
  I  I15  1  0.66671414  0.46586820  0.41304707  1
  I  I16  1  0.16664561  0.78475007  0.81949741  1
  I  I17  1  0.83335439  0.21524993  0.18050259  1
  I  I18  1  0.66664561  0.21524993  0.68050259  1
  I  I19  1  0.33335439  0.78475007  0.31949741  1
  I  I20  1  0.69342799  0.77452438  0.71257003  1
  I  I21  1  0.30657201  0.22547562  0.28742997  1
  I  I22  1  0.19342799  0.22547562  0.78742997  1
  I  I23  1  0.80657201  0.77452438  0.21257003  1
  I  I24  1  0.54615167  0.78766967  0.99535294  1
  I  I25  1  0.45384833  0.21233033  0.00464706  1
  I  I26  1  0.04615167  0.21233033  0.50464706  1
  I  I27  1  0.95384833  0.78766967  0.49535294  1
  I  I28  1  0.34003454  0.95852881  0.60262175  1
  I  I29  1  0.65996546  0.04147119  0.39737825  1
  I  I30  1  0.84003454  0.04147119  0.89737825  1
  I  I31  1  0.15996546  0.95852881  0.10262175  1
