# generated using pymatgen
data_Na5(ZnSn5)2
_symmetry_space_group_name_H-M   'P 1'
_cell_length_a   10.92221496
_cell_length_b   13.18698366
_cell_length_c   13.21190286
_cell_angle_alpha   90.00000000
_cell_angle_beta   90.00000000
_cell_angle_gamma   90.00000000
_symmetry_Int_Tables_number   1
_chemical_formula_structural   Na5(ZnSn5)2
_chemical_formula_sum   'Na20 Zn8 Sn40'
_cell_volume   1902.92450842
_cell_formula_units_Z   4
loop_
 _symmetry_equiv_pos_site_id
 _symmetry_equiv_pos_as_xyz
  1  'x, y, z'
loop_
 _atom_site_type_symbol
 _atom_site_label
 _atom_site_symmetry_multiplicity
 _atom_site_fract_x
 _atom_site_fract_y
 _atom_site_fract_z
 _atom_site_occupancy
  Na  Na0  1  0.54992720  0.84482193  0.60664652  1
  Na  Na1  1  0.45007280  0.15517807  0.39335348  1
  Na  Na2  1  0.95007280  0.65517807  0.10664652  1
  Na  Na3  1  0.54992720  0.15517807  0.89335348  1
  Na  Na4  1  0.04992720  0.34482193  0.89335348  1
  Na  Na5  1  0.45007280  0.84482193  0.10664652  1
  Na  Na6  1  0.95007280  0.34482193  0.39335348  1
  Na  Na7  1  0.04992720  0.65517807  0.60664652  1
  Na  Na8  1  0.95676809  0.86131861  0.90084143  1
  Na  Na9  1  0.04323191  0.13868139  0.09915857  1
  Na  Na10  1  0.54323191  0.63868139  0.40084143  1
  Na  Na11  1  0.95676809  0.13868139  0.59915857  1
  Na  Na12  1  0.45676809  0.36131861  0.59915857  1
  Na  Na13  1  0.04323191  0.86131861  0.40084143  1
  Na  Na14  1  0.54323191  0.36131861  0.09915857  1
  Na  Na15  1  0.45676809  0.63868139  0.90084143  1
  Na  Na16  1  0.74805641  -0.00000000  0.75000000  1
  Na  Na17  1  0.25194359  -0.00000000  0.25000000  1
  Na  Na18  1  0.75194359  0.50000000  0.25000000  1
  Na  Na19  1  0.24805641  0.50000000  0.75000000  1
  Zn  Zn20  1  0.85959951  0.83742240  0.58649824  1
  Zn  Zn21  1  0.14040049  0.16257760  0.41350176  1
  Zn  Zn22  1  0.64040049  0.66257760  0.08649824  1
  Zn  Zn23  1  0.85959951  0.16257760  0.91350176  1
  Zn  Zn24  1  0.35959951  0.33742240  0.91350176  1
  Zn  Zn25  1  0.14040049  0.83742240  0.08649824  1
  Zn  Zn26  1  0.64040049  0.33742240  0.41350176  1
  Zn  Zn27  1  0.35959951  0.66257760  0.58649824  1
  Sn  Sn28  1  0.74867887  0.50535117  0.97812185  1
  Sn  Sn29  1  0.25132113  0.49464883  0.02187815  1
  Sn  Sn30  1  0.75132113  0.99464883  0.47812185  1
  Sn  Sn31  1  0.74867887  0.49464883  0.52187815  1
  Sn  Sn32  1  0.24867887  0.00535117  0.52187815  1
  Sn  Sn33  1  0.25132113  0.50535117  0.47812185  1
  Sn  Sn34  1  0.75132113  0.00535117  0.02187815  1
  Sn  Sn35  1  0.24867887  0.99464883  0.97812185  1
  Sn  Sn36  1  0.93048935  0.58012702  0.83361641  1
  Sn  Sn37  1  0.06951065  0.41987298  0.16638359  1
  Sn  Sn38  1  0.56951065  0.91987298  0.33361641  1
  Sn  Sn39  1  0.93048935  0.41987298  0.66638359  1
  Sn  Sn40  1  0.43048935  0.08012702  0.66638359  1
  Sn  Sn41  1  0.06951065  0.58012702  0.33361641  1
  Sn  Sn42  1  0.56951065  0.08012702  0.16638359  1
  Sn  Sn43  1  0.43048935  0.91987298  0.83361641  1
  Sn  Sn44  1  0.76116202  0.72878002  0.74539662  1
  Sn  Sn45  1  0.23883798  0.27121998  0.25460338  1
  Sn  Sn46  1  0.73883798  0.77121998  0.24539662  1
  Sn  Sn47  1  0.76116202  0.27121998  0.75460338  1
  Sn  Sn48  1  0.26116202  0.22878002  0.75460338  1
  Sn  Sn49  1  0.23883798  0.72878002  0.24539662  1
  Sn  Sn50  1  0.73883798  0.22878002  0.25460338  1
  Sn  Sn51  1  0.26116202  0.77121998  0.74539662  1
  Sn  Sn52  1  0.64567077  0.81982497  0.92815167  1
  Sn  Sn53  1  0.35432923  0.18017503  0.07184833  1
  Sn  Sn54  1  0.85432923  0.68017503  0.42815167  1
  Sn  Sn55  1  0.64567077  0.18017503  0.57184833  1
  Sn  Sn56  1  0.14567077  0.31982497  0.57184833  1
  Sn  Sn57  1  0.35432923  0.81982497  0.42815167  1
  Sn  Sn58  1  0.85432923  0.31982497  0.07184833  1
  Sn  Sn59  1  0.14567077  0.68017503  0.92815167  1
  Sn  Sn60  1  0.57577565  0.58530313  0.66754332  1
  Sn  Sn61  1  0.42422435  0.41469687  0.33245668  1
  Sn  Sn62  1  0.92422435  0.91469687  0.16754332  1
  Sn  Sn63  1  0.57577565  0.41469687  0.83245668  1
  Sn  Sn64  1  0.07577565  0.08530313  0.83245668  1
  Sn  Sn65  1  0.42422435  0.58530313  0.16754332  1
  Sn  Sn66  1  0.92422435  0.08530313  0.33245668  1
  Sn  Sn67  1  0.07577565  0.91469687  0.66754332  1
