# generated using pymatgen
data_Sr3Dy2(BO3)4
_symmetry_space_group_name_H-M   'P 1'
_cell_length_a   7.38869962
_cell_length_b   8.72976914
_cell_length_c   16.36008068
_cell_angle_alpha   90.00000000
_cell_angle_beta   90.00000000
_cell_angle_gamma   90.00000000
_symmetry_Int_Tables_number   1
_chemical_formula_structural   Sr3Dy2(BO3)4
_chemical_formula_sum   'Sr12 Dy8 B16 O48'
_cell_volume   1055.25206592
_cell_formula_units_Z   4
loop_
 _symmetry_equiv_pos_site_id
 _symmetry_equiv_pos_as_xyz
  1  'x, y, z'
loop_
 _atom_site_type_symbol
 _atom_site_label
 _atom_site_symmetry_multiplicity
 _atom_site_fract_x
 _atom_site_fract_y
 _atom_site_fract_z
 _atom_site_occupancy
  Sr  Sr0  1  0.02903177  0.33160341  0.45779453  1
  Sr  Sr1  1  0.97096823  0.66839659  0.95779453  1
  Sr  Sr2  1  0.52903177  0.16839659  0.45779453  1
  Sr  Sr3  1  0.47096823  0.83160341  0.95779453  1
  Sr  Sr4  1  0.18402902  0.84925808  0.41365290  1
  Sr  Sr5  1  0.81597098  0.15074192  0.91365290  1
  Sr  Sr6  1  0.68402902  0.65074192  0.41365290  1
  Sr  Sr7  1  0.31597098  0.34925808  0.91365290  1
  Sr  Sr8  1  0.32012895  0.35530027  0.66372671  1
  Sr  Sr9  1  0.67987105  0.64469973  0.16372671  1
  Sr  Sr10  1  0.82012895  0.14469973  0.66372671  1
  Sr  Sr11  1  0.17987105  0.85530027  0.16372671  1
  Dy  Dy12  1  0.31709457  0.46891001  0.28929951  1
  Dy  Dy13  1  0.68290543  0.53108999  0.78929951  1
  Dy  Dy14  1  0.81709457  0.03108999  0.28929951  1
  Dy  Dy15  1  0.18290543  0.96891001  0.78929951  1
  Dy  Dy16  1  0.01966449  0.32761986  0.12062659  1
  Dy  Dy17  1  0.98033551  0.67238014  0.62062659  1
  Dy  Dy18  1  0.51966449  0.17238014  0.12062659  1
  Dy  Dy19  1  0.48033551  0.82761986  0.62062659  1
  B  B20  1  0.16554344  0.06639201  0.99878777  1
  B  B21  1  0.83445656  0.93360799  0.49878777  1
  B  B22  1  0.66554344  0.43360799  0.99878777  1
  B  B23  1  0.33445656  0.56639201  0.49878777  1
  B  B24  1  0.00888514  0.37401273  0.78467878  1
  B  B25  1  0.99111486  0.62598727  0.28467878  1
  B  B26  1  0.50888514  0.12598727  0.78467878  1
  B  B27  1  0.49111486  0.87401273  0.28467878  1
  B  B28  1  0.16434561  0.04613616  0.58729795  1
  B  B29  1  0.83565439  0.95386384  0.08729795  1
  B  B30  1  0.66434561  0.45386384  0.58729795  1
  B  B31  1  0.33565439  0.54613616  0.08729795  1
  B  B32  1  0.21329262  0.15373936  0.28625115  1
  B  B33  1  0.78670738  0.84626064  0.78625115  1
  B  B34  1  0.71329262  0.34626064  0.28625115  1
  B  B35  1  0.28670738  0.65373936  0.78625115  1
  O  O36  1  0.23927505  0.22666915  0.21119061  1
  O  O37  1  0.76072495  0.77333085  0.71119061  1
  O  O38  1  0.73927505  0.27333085  0.21119061  1
  O  O39  1  0.26072495  0.72666915  0.71119061  1
  O  O40  1  0.10237569  0.19507397  0.58341725  1
  O  O41  1  0.89762431  0.80492603  0.08341725  1
  O  O42  1  0.60237569  0.30492603  0.58341725  1
  O  O43  1  0.39762431  0.69507397  0.08341725  1
  O  O44  1  0.08117969  0.20879029  0.00380902  1
  O  O45  1  0.91882031  0.79120971  0.50380902  1
  O  O46  1  0.58117969  0.29120971  0.00380902  1
  O  O47  1  0.41882031  0.70879029  0.50380902  1
  O  O48  1  0.12474407  0.01622478  0.29217438  1
  O  O49  1  0.87525593  0.98377522  0.79217438  1
  O  O50  1  0.62474407  0.48377522  0.29217438  1
  O  O51  1  0.37525593  0.51622478  0.79217438  1
  O  O52  1  0.19446656  0.49713364  0.03799477  1
  O  O53  1  0.80553344  0.50286636  0.53799477  1
  O  O54  1  0.69446656  0.00286636  0.03799477  1
  O  O55  1  0.30553344  0.99713364  0.53799477  1
  O  O56  1  0.11281046  0.24153935  0.78184607  1
  O  O57  1  0.88718954  0.75846065  0.28184607  1
  O  O58  1  0.61281046  0.25846065  0.78184607  1
  O  O59  1  0.38718954  0.74153935  0.28184607  1
  O  O60  1  0.04411108  0.54641056  0.21379564  1
  O  O61  1  0.95588892  0.45358944  0.71379564  1
  O  O62  1  0.54411108  0.95358944  0.21379564  1
  O  O63  1  0.45588892  0.04641056  0.71379564  1
  O  O64  1  0.27290171  0.23237575  0.35385461  1
  O  O65  1  0.72709829  0.76762425  0.85385461  1
  O  O66  1  0.77290171  0.26762425  0.35385461  1
  O  O67  1  0.22709829  0.73237575  0.85385461  1
  O  O68  1  0.38576682  0.46849025  0.43711905  1
  O  O69  1  0.61423318  0.53150975  0.93711905  1
  O  O70  1  0.88576682  0.03150975  0.43711905  1
  O  O71  1  0.11423318  0.96849025  0.93711905  1
  O  O72  1  0.41328049  0.44567050  0.14392054  1
  O  O73  1  0.58671951  0.55432950  0.64392054  1
  O  O74  1  0.91328049  0.05432950  0.14392054  1
  O  O75  1  0.08671951  0.94567050  0.64392054  1
  O  O76  1  0.30453879  0.03326423  0.05373186  1
  O  O77  1  0.69546121  0.96673577  0.55373186  1
  O  O78  1  0.80453879  0.46673577  0.05373186  1
  O  O79  1  0.19546121  0.53326423  0.55373186  1
  O  O80  1  0.06013846  0.57171170  0.35803031  1
  O  O81  1  0.93986154  0.42828830  0.85803031  1
  O  O82  1  0.56013846  0.92828830  0.35803031  1
  O  O83  1  0.43986154  0.07171170  0.85803031  1
