# generated using pymatgen
data_LaCrSe2O
_symmetry_space_group_name_H-M   'P 1'
_cell_length_a   3.91054114
_cell_length_b   8.78929974
_cell_length_c   11.72196944
_cell_angle_alpha   90.00000000
_cell_angle_beta   90.00000000
_cell_angle_gamma   90.00000000
_symmetry_Int_Tables_number   1
_chemical_formula_structural   LaCrSe2O
_chemical_formula_sum   'La4 Cr4 Se8 O4'
_cell_volume   402.89485306
_cell_formula_units_Z   4
loop_
 _symmetry_equiv_pos_site_id
 _symmetry_equiv_pos_as_xyz
  1  'x, y, z'
loop_
 _atom_site_type_symbol
 _atom_site_label
 _atom_site_symmetry_multiplicity
 _atom_site_fract_x
 _atom_site_fract_y
 _atom_site_fract_z
 _atom_site_occupancy
  La  La0  1  0.75000000  0.95412786  0.86217319  1
  La  La1  1  0.25000000  0.04587214  0.13782681  1
  La  La2  1  0.25000000  0.54587214  0.36217319  1
  La  La3  1  0.75000000  0.45412786  0.63782681  1
  Cr  Cr4  1  0.75000000  0.82448408  0.52649178  1
  Cr  Cr5  1  0.25000000  0.17551592  0.47350822  1
  Cr  Cr6  1  0.25000000  0.67551592  0.02649178  1
  Cr  Cr7  1  0.75000000  0.32448408  0.97350822  1
  Se  Se8  1  0.75000000  0.74585852  0.17129860  1
  Se  Se9  1  0.25000000  0.25414148  0.82870140  1
  Se  Se10  1  0.25000000  0.75414148  0.67129860  1
  Se  Se11  1  0.75000000  0.24585852  0.32870140  1
  Se  Se12  1  0.75000000  0.59576684  0.89340188  1
  Se  Se13  1  0.25000000  0.40423316  0.10659812  1
  Se  Se14  1  0.25000000  0.90423316  0.39340188  1
  Se  Se15  1  0.75000000  0.09576684  0.60659812  1
  O  O16  1  0.75000000  0.60918627  0.46419068  1
  O  O17  1  0.25000000  0.39081373  0.53580932  1
  O  O18  1  0.25000000  0.89081373  0.96419068  1
  O  O19  1  0.75000000  0.10918627  0.03580932  1
