# generated using pymatgen
data_Li2Zn2(MoO4)3
_symmetry_space_group_name_H-M   'P 1'
_cell_length_a   5.18302679
_cell_length_b   10.67790669
_cell_length_c   17.85860023
_cell_angle_alpha   90.00000000
_cell_angle_beta   90.00000000
_cell_angle_gamma   90.00000000
_symmetry_Int_Tables_number   1
_chemical_formula_structural   Li2Zn2(MoO4)3
_chemical_formula_sum   'Li8 Zn8 Mo12 O48'
_cell_volume   988.36416444
_cell_formula_units_Z   4
loop_
 _symmetry_equiv_pos_site_id
 _symmetry_equiv_pos_as_xyz
  1  'x, y, z'
loop_
 _atom_site_type_symbol
 _atom_site_label
 _atom_site_symmetry_multiplicity
 _atom_site_fract_x
 _atom_site_fract_y
 _atom_site_fract_z
 _atom_site_occupancy
  Li  Li0  1  0.25625109  0.25000000  0.69818094  1
  Li  Li1  1  0.74374891  0.75000000  0.30181906  1
  Li  Li2  1  0.24374891  0.75000000  0.19818094  1
  Li  Li3  1  0.75625109  0.25000000  0.80181906  1
  Li  Li4  1  0.10594343  0.25000000  0.24899809  1
  Li  Li5  1  0.89405657  0.75000000  0.75100191  1
  Li  Li6  1  0.39405657  0.75000000  0.74899809  1
  Li  Li7  1  0.60594343  0.25000000  0.25100191  1
  Zn  Zn8  1  0.24511433  0.07873352  0.52985495  1
  Zn  Zn9  1  0.75488567  0.92126648  0.47014505  1
  Zn  Zn10  1  0.25488567  0.92126648  0.02985495  1
  Zn  Zn11  1  0.75488567  0.57873352  0.47014505  1
  Zn  Zn12  1  0.74511433  0.07873352  0.97014505  1
  Zn  Zn13  1  0.24511433  0.42126648  0.52985495  1
  Zn  Zn14  1  0.74511433  0.42126648  0.97014505  1
  Zn  Zn15  1  0.25488567  0.57873352  0.02985495  1
  Mo  Mo16  1  0.27766794  0.52653287  0.34293988  1
  Mo  Mo17  1  0.72233206  0.47346713  0.65706012  1
  Mo  Mo18  1  0.22233206  0.47346713  0.84293988  1
  Mo  Mo19  1  0.72233206  0.02653287  0.65706012  1
  Mo  Mo20  1  0.77766794  0.52653287  0.15706012  1
  Mo  Mo21  1  0.27766794  0.97346713  0.34293988  1
  Mo  Mo22  1  0.77766794  0.97346713  0.15706012  1
  Mo  Mo23  1  0.22233206  0.02653287  0.84293988  1
  Mo  Mo24  1  0.27827318  0.25000000  0.05714619  1
  Mo  Mo25  1  0.72172682  0.75000000  0.94285381  1
  Mo  Mo26  1  0.22172682  0.75000000  0.55714619  1
  Mo  Mo27  1  0.77827318  0.25000000  0.44285381  1
  O  O28  1  0.06046957  0.25000000  0.50700237  1
  O  O29  1  0.93953043  0.75000000  0.49299763  1
  O  O30  1  0.43953043  0.75000000  0.00700237  1
  O  O31  1  0.56046957  0.25000000  0.99299763  1
  O  O32  1  0.35403500  0.11427785  0.29548134  1
  O  O33  1  0.64596500  0.88572215  0.70451866  1
  O  O34  1  0.14596500  0.88572215  0.79548134  1
  O  O35  1  0.64596500  0.61427785  0.70451866  1
  O  O36  1  0.85403500  0.11427785  0.20451866  1
  O  O37  1  0.35403500  0.38572215  0.29548134  1
  O  O38  1  0.85403500  0.38572215  0.20451866  1
  O  O39  1  0.14596500  0.61427785  0.79548134  1
  O  O40  1  0.35948605  0.25000000  0.15242094  1
  O  O41  1  0.64051395  0.75000000  0.84757906  1
  O  O42  1  0.14051395  0.75000000  0.65242094  1
  O  O43  1  0.85948605  0.25000000  0.34757906  1
  O  O44  1  0.08047681  0.01148474  0.42665164  1
  O  O45  1  0.91952319  0.98851526  0.57334836  1
  O  O46  1  0.41952319  0.98851526  0.92665164  1
  O  O47  1  0.91952319  0.51148474  0.57334836  1
  O  O48  1  0.58047681  0.01148474  0.07334836  1
  O  O49  1  0.08047681  0.48851526  0.42665164  1
  O  O50  1  0.58047681  0.48851526  0.07334836  1
  O  O51  1  0.41952319  0.51148474  0.92665164  1
  O  O52  1  0.07825639  0.62293526  0.28683361  1
  O  O53  1  0.92174361  0.37706474  0.71316639  1
  O  O54  1  0.42174361  0.37706474  0.78683361  1
  O  O55  1  0.92174361  0.12293526  0.71316639  1
  O  O56  1  0.57825639  0.62293526  0.21316639  1
  O  O57  1  0.07825639  0.87706474  0.28683361  1
  O  O58  1  0.57825639  0.87706474  0.21316639  1
  O  O59  1  0.42174361  0.12293526  0.78683361  1
  O  O60  1  0.07857264  0.11491371  0.03693460  1
  O  O61  1  0.92142736  0.88508629  0.96306540  1
  O  O62  1  0.42142736  0.88508629  0.53693460  1
  O  O63  1  0.92142736  0.61491371  0.96306540  1
  O  O64  1  0.57857264  0.11491371  0.46306540  1
  O  O65  1  0.07857264  0.38508629  0.03693460  1
  O  O66  1  0.57857264  0.38508629  0.46306540  1
  O  O67  1  0.42142736  0.61491371  0.53693460  1
  O  O68  1  0.06244958  0.61340937  0.12585875  1
  O  O69  1  0.93755042  0.38659063  0.87414125  1
  O  O70  1  0.43755042  0.38659063  0.62585875  1
  O  O71  1  0.93755042  0.11340937  0.87414125  1
  O  O72  1  0.56244958  0.61340937  0.37414125  1
  O  O73  1  0.06244958  0.88659063  0.12585875  1
  O  O74  1  0.56244958  0.88659063  0.37414125  1
  O  O75  1  0.43755042  0.11340937  0.62585875  1
