# generated using pymatgen
data_H2PbCl2O7
_symmetry_space_group_name_H-M   'P 1'
_cell_length_a   7.47573376
_cell_length_b   7.47573376
_cell_length_c   7.68016839
_cell_angle_alpha   104.30674685
_cell_angle_beta   107.60129311
_cell_angle_gamma   115.81510855
_symmetry_Int_Tables_number   1
_chemical_formula_structural   H2PbCl2O7
_chemical_formula_sum   'H4 Pb2 Cl4 O14'
_cell_volume   330.46506849
_cell_formula_units_Z   2
loop_
 _symmetry_equiv_pos_site_id
 _symmetry_equiv_pos_as_xyz
  1  'x, y, z'
loop_
 _atom_site_type_symbol
 _atom_site_label
 _atom_site_symmetry_multiplicity
 _atom_site_fract_x
 _atom_site_fract_y
 _atom_site_fract_z
 _atom_site_occupancy
  H  H0  1  0.08811403  0.80020702  0.36930094  1
  H  H1  1  0.91188597  0.19979298  0.63069906  1
  H  H2  1  0.93090608  0.71881308  0.13069906  1
  H  H3  1  0.06909392  0.28118692  0.86930094  1
  Pb  Pb4  1  0.63350438  0.38350438  0.25000000  1
  Pb  Pb5  1  0.36649562  0.61649562  0.75000000  1
  Cl  Cl6  1  0.97453672  0.17899800  0.18961603  1
  Cl  Cl7  1  0.02546328  0.82100200  0.81038397  1
  Cl  Cl8  1  0.48938197  0.78492068  0.31038397  1
  Cl  Cl9  1  0.51061803  0.21507932  0.68961603  1
  O  O10  1  0.65026118  0.02961907  0.38947666  1
  O  O11  1  0.34973882  0.97038093  0.61052334  1
  O  O12  1  0.14014241  0.26078452  0.11052334  1
  O  O13  1  0.85985759  0.73921548  0.88947666  1
  O  O14  1  0.74999560  0.11311730  0.03228689  1
  O  O15  1  0.25000440  0.88688270  0.96771311  1
  O  O16  1  0.58083041  0.71770871  0.46771311  1
  O  O17  1  0.41916959  0.28229129  0.53228689  1
  O  O18  1  0.93849684  0.68849684  0.25000000  1
  O  O19  1  0.06150316  0.31150316  0.75000000  1
  O  O20  1  0.50749974  0.66878708  0.12912578  1
  O  O21  1  0.49250026  0.33121292  0.87087422  1
  O  O22  1  0.03966130  0.37837396  0.37087422  1
  O  O23  1  0.96033870  0.62162604  0.62912578  1
