# generated using pymatgen
data_Na2MgFe2(PO4)3
_symmetry_space_group_name_H-M   'P 1'
_cell_length_a   6.57116341
_cell_length_b   8.67776180
_cell_length_c   8.67776180
_cell_angle_alpha   93.28997641
_cell_angle_beta   106.22084116
_cell_angle_gamma   106.22084116
_symmetry_Int_Tables_number   1
_chemical_formula_structural   Na2MgFe2(PO4)3
_chemical_formula_sum   'Na4 Mg2 Fe4 P6 O24'
_cell_volume   451.27154207
_cell_formula_units_Z   2
loop_
 _symmetry_equiv_pos_site_id
 _symmetry_equiv_pos_as_xyz
  1  'x, y, z'
loop_
 _atom_site_type_symbol
 _atom_site_label
 _atom_site_symmetry_multiplicity
 _atom_site_fract_x
 _atom_site_fract_y
 _atom_site_fract_z
 _atom_site_occupancy
  Na  Na0  1  0.75000000  0.98350705  0.01649295  1
  Na  Na1  1  0.25000000  0.01649295  0.98350705  1
  Na  Na2  1  -0.00000000  0.50000000  0.50000000  1
  Na  Na3  1  0.50000000  0.50000000  0.50000000  1
  Mg  Mg4  1  0.75000000  0.26658175  0.73341825  1
  Mg  Mg5  1  0.25000000  0.73341825  0.26658175  1
  Fe  Fe6  1  0.62606082  0.38085160  0.05732115  1
  Fe  Fe7  1  0.37393918  0.61914840  0.94267885  1
  Fe  Fe8  1  0.87393918  0.94267885  0.61914840  1
  Fe  Fe9  1  0.12606082  0.05732115  0.38085160  1
  P  P10  1  0.75000000  0.71118593  0.28881407  1
  P  P11  1  0.25000000  0.28881407  0.71118593  1
  P  P12  1  0.88005489  0.65460334  0.87393073  1
  P  P13  1  0.11994511  0.34539666  0.12606927  1
  P  P14  1  0.61994511  0.12606927  0.34539666  1
  P  P15  1  0.38005489  0.87393073  0.65460334  1
  O  O16  1  0.74639875  0.53305168  0.26235036  1
  O  O17  1  0.25360125  0.46694832  0.73764964  1
  O  O18  1  0.75360125  0.73764964  0.46694832  1
  O  O19  1  0.24639875  0.26235036  0.53305168  1
  O  O20  1  0.82934409  0.52194286  0.73116324  1
  O  O21  1  0.17065591  0.47805714  0.26883676  1
  O  O22  1  0.67065591  0.26883676  0.47805714  1
  O  O23  1  0.32934409  0.73116324  0.52194286  1
  O  O24  1  0.53630215  0.74197727  0.17802113  1
  O  O25  1  0.46369785  0.25802273  0.82197887  1
  O  O26  1  0.96369785  0.82197887  0.25802273  1
  O  O27  1  0.03630215  0.17802113  0.74197727  1
  O  O28  1  0.69138844  0.60329738  0.95557738  1
  O  O29  1  0.30861156  0.39670262  0.04442262  1
  O  O30  1  0.80861156  0.04442262  0.39670262  1
  O  O31  1  0.19138844  0.95557738  0.60329738  1
  O  O32  1  0.88964969  0.82562978  0.82465141  1
  O  O33  1  0.11035031  0.17437022  0.17534859  1
  O  O34  1  0.61035031  0.17534859  0.17437022  1
  O  O35  1  0.38964969  0.82465141  0.82562978  1
  O  O36  1  0.89011110  0.32418372  0.99517701  1
  O  O37  1  0.10988890  0.67581628  0.00482299  1
  O  O38  1  0.60988890  0.00482299  0.67581628  1
  O  O39  1  0.39011110  0.99517701  0.32418372  1
