# generated using pymatgen
data_Na11TiNb2Si4P2(O12F)2
_symmetry_space_group_name_H-M   'P 1'
_cell_length_a   5.61723544
_cell_length_b   7.28603340
_cell_length_c   14.70666374
_cell_angle_alpha   92.80692650
_cell_angle_beta   95.61673313
_cell_angle_gamma   90.65110500
_symmetry_Int_Tables_number   1
_chemical_formula_structural   Na11TiNb2Si4P2(O12F)2
_chemical_formula_sum   'Na11 Ti1 Nb2 Si4 P2 O24 F2'
_cell_volume   598.21744203
_cell_formula_units_Z   1
loop_
 _symmetry_equiv_pos_site_id
 _symmetry_equiv_pos_as_xyz
  1  'x, y, z'
loop_
 _atom_site_type_symbol
 _atom_site_label
 _atom_site_symmetry_multiplicity
 _atom_site_fract_x
 _atom_site_fract_y
 _atom_site_fract_z
 _atom_site_occupancy
  Na  Na0  1  0.24616661  0.73546771  0.07853447  1
  Na  Na1  1  0.75383339  0.26453229  0.92146553  1
  Na  Na2  1  0.28969282  0.01085002  0.26417238  1
  Na  Na3  1  0.71030718  0.98914998  0.73582762  1
  Na  Na4  1  0.81603203  0.01909679  0.10058548  1
  Na  Na5  1  0.18396797  0.98090321  0.89941452  1
  Na  Na6  1  0.00000000  0.50000000  0.50000000  1
  Na  Na7  1  0.80216427  0.49357110  0.13329099  1
  Na  Na8  1  0.19783573  0.50642890  0.86670901  1
  Na  Na9  1  0.49706507  0.24384074  0.50150912  1
  Na  Na10  1  0.50293493  0.75615926  0.49849088  1
  Ti  Ti11  1  0.00000000  -0.00000000  0.50000000  1
  Nb  Nb12  1  0.29765975  0.49166399  0.28317617  1
  Nb  Nb13  1  0.70234025  0.50833601  0.71682383  1
  Si  Si14  1  0.18615472  0.21968864  0.69691311  1
  Si  Si15  1  0.81384528  0.78031136  0.30308689  1
  Si  Si16  1  0.79922975  0.20497312  0.31520920  1
  Si  Si17  1  0.20077025  0.79502688  0.68479080  1
  P  P18  1  0.31131208  0.25576072  0.06637141  1
  P  P19  1  0.68868792  0.74423928  0.93362859  1
  O  O20  1  0.01276296  0.31286746  0.27229283  1
  O  O21  1  0.98723704  0.68713254  0.72770717  1
  O  O22  1  0.84175307  0.19570935  0.42621136  1
  O  O23  1  0.15824693  0.80429065  0.57378864  1
  O  O24  1  0.25565593  0.43006549  0.12979145  1
  O  O25  1  0.74434407  0.56993451  0.87020855  1
  O  O26  1  0.20381365  0.00645914  0.73450757  1
  O  O27  1  0.79618635  0.99354086  0.26549243  1
  O  O28  1  0.31787721  0.51550047  0.40657264  1
  O  O29  1  0.68212279  0.48449953  0.59342736  1
  O  O30  1  0.53839124  0.28664444  0.28266719  1
  O  O31  1  0.46160876  0.71335556  0.71733281  1
  O  O32  1  0.56445928  0.67629030  0.25848108  1
  O  O33  1  0.43554072  0.32370970  0.74151892  1
  O  O34  1  0.58399017  0.25696732  0.05643597  1
  O  O35  1  0.41600983  0.74303268  0.94356403  1
  O  O36  1  0.23433630  0.07462610  0.10843126  1
  O  O37  1  0.76566370  0.92537390  0.89156874  1
  O  O38  1  0.16778743  0.27323172  0.97118866  1
  O  O39  1  0.83221257  0.72676828  0.02881134  1
  O  O40  1  0.04621989  0.69616334  0.25531066  1
  O  O41  1  0.95378011  0.30383666  0.74468934  1
  O  O42  1  0.16030745  0.20689286  0.58559985  1
  O  O43  1  0.83969255  0.79310714  0.41440015  1
  F  F44  1  0.27632869  0.00243171  0.42437324  1
  F  F45  1  0.72367131  0.99756829  0.57562676  1
