# generated using pymatgen
data_Mo6H30C5N15Cl17
_symmetry_space_group_name_H-M   'P 1'
_cell_length_a   11.66635575
_cell_length_b   11.60873708
_cell_length_c   22.43426371
_cell_angle_alpha   104.99458932
_cell_angle_beta   90.14708981
_cell_angle_gamma   119.83675602
_symmetry_Int_Tables_number   1
_chemical_formula_structural   Mo6H30C5N15Cl17
_chemical_formula_sum   'Mo12 H60 C10 N30 Cl34'
_cell_volume   2514.38377947
_cell_formula_units_Z   2
loop_
 _symmetry_equiv_pos_site_id
 _symmetry_equiv_pos_as_xyz
  1  'x, y, z'
loop_
 _atom_site_type_symbol
 _atom_site_label
 _atom_site_symmetry_multiplicity
 _atom_site_fract_x
 _atom_site_fract_y
 _atom_site_fract_z
 _atom_site_occupancy
  Mo  Mo0  1  0.99698289  0.10360198  0.44997305  1
  Mo  Mo1  1  0.00301711  0.89639802  0.55002695  1
  Mo  Mo2  1  0.50301711  0.15664605  0.05002695  1
  Mo  Mo3  1  0.49698289  0.84335395  0.94997305  1
  Mo  Mo4  1  0.15261202  0.15664109  0.55019085  1
  Mo  Mo5  1  0.84738798  0.84335891  0.44980915  1
  Mo  Mo6  1  0.34738798  0.95383823  0.94980915  1
  Mo  Mo7  1  0.65261202  0.04616177  0.05019085  1
  Mo  Mo8  1  0.10599293  0.95250886  0.45024703  1
  Mo  Mo9  1  0.89400707  0.04749114  0.54975297  1
  Mo  Mo10  1  0.39400707  0.89626890  0.04975297  1
  Mo  Mo11  1  0.60599293  0.10373110  0.95024703  1
  H  H12  1  0.94619620  0.65230732  0.05301118  1
  H  H13  1  0.05380380  0.34769268  0.94698882  1
  H  H14  1  0.55380380  0.15309994  0.44698882  1
  H  H15  1  0.44619620  0.84690006  0.55301118  1
  H  H16  1  0.65593540  0.63490007  0.71288747  1
  H  H17  1  0.34406460  0.36509993  0.28711253  1
  H  H18  1  0.84406460  0.76607721  0.78711253  1
  H  H19  1  0.15593540  0.23392279  0.21288747  1
  H  H20  1  0.86952673  0.79932808  0.05332425  1
  H  H21  1  0.13047327  0.20067192  0.94667575  1
  H  H22  1  0.63047327  0.37647710  0.44667575  1
  H  H23  1  0.36952673  0.62352290  0.55332425  1
  H  H24  1  0.76124318  0.53589743  0.21780927  1
  H  H25  1  0.23875682  0.46410257  0.78219073  1
  H  H26  1  0.73875682  0.05684497  0.28219073  1
  H  H27  1  0.26124318  0.94315503  0.71780927  1
  H  H28  1  0.49122818  0.63641522  0.21950937  1
  H  H29  1  0.50877182  0.36358478  0.78049063  1
  H  H30  1  0.00877182  0.42567767  0.28049063  1
  H  H31  1  0.99122818  0.57432233  0.71950937  1
  H  H32  1  0.07951389  0.05072018  0.18619805  1
  H  H33  1  0.92048611  0.94927982  0.81380195  1
  H  H34  1  0.42048611  0.28500824  0.31380195  1
  H  H35  1  0.57951389  0.71499176  0.68619805  1
  H  H36  1  0.41747281  0.77215605  0.27872307  1
  H  H37  1  0.58252719  0.22784395  0.72127693  1
  H  H38  1  0.08252719  0.57596017  0.22127693  1
  H  H39  1  0.91747281  0.42403983  0.77872307  1
  H  H40  1  0.65328880  0.71438767  0.19908735  1
  H  H41  1  0.34671120  0.28561233  0.80091265  1
  H  H42  1  0.84671120  0.36201151  0.30091265  1
  H  H43  1  0.15328880  0.63798849  0.69908735  1
  H  H44  1  0.26039161  0.39645098  0.10746619  1
  H  H45  1  0.73960839  0.60354902  0.89253381  1
  H  H46  1  0.23960839  0.52859319  0.39253381  1
  H  H47  1  0.76039161  0.47140681  0.60746619  1
  H  H48  1  0.09303616  0.48565180  0.01453494  1
  H  H49  1  0.90696384  0.51434820  0.98546506  1
  H  H50  1  0.40696384  0.87808069  0.48546506  1
  H  H51  1  0.59303616  0.12191931  0.51453494  1
  H  H52  1  0.21421773  0.21462132  0.01526793  1
  H  H53  1  0.78578227  0.78537868  0.98473207  1
  H  H54  1  0.28578227  0.48513566  0.48473207  1
  H  H55  1  0.71421773  0.51486434  0.51526793  1
  H  H56  1  0.17749220  0.94528182  0.22167405  1
  H  H57  1  0.82250780  0.05471818  0.77832595  1
  H  H58  1  0.32250780  0.04611557  0.27832595  1
  H  H59  1  0.67749220  0.95388443  0.72167405  1
  H  H60  1  0.20967890  0.51303308  0.10479236  1
  H  H61  1  0.79032110  0.48696692  0.89520764  1
  H  H62  1  0.29032110  0.69856182  0.39520764  1
  H  H63  1  0.70967890  0.30143818  0.60479236  1
  H  H64  1  0.97812139  0.63022442  0.19619638  1
  H  H65  1  0.02187861  0.36977558  0.80380362  1
  H  H66  1  0.52187861  0.95590666  0.30380362  1
  H  H67  1  0.47812139  0.04409334  0.69619638  1
  H  H68  1  0.79296907  0.95333573  0.23464975  1
  H  H69  1  0.20703093  0.04666427  0.76535025  1
  H  H70  1  0.70703093  0.42571690  0.26535025  1
  H  H71  1  0.29296907  0.57428310  0.73464975  1
  C  C72  1  0.60246796  0.84803375  0.25324633  1
  C  C73  1  0.39753204  0.15196625  0.74675367  1
  C  C74  1  0.89753204  0.49231946  0.24675367  1
  C  C75  1  0.10246796  0.50768054  0.75324633  1
  C  C76  1  0.15350301  0.35409881  0.02386677  1
  C  C77  1  0.84649699  0.64590119  0.97613323  1
  C  C78  1  0.34649699  0.67672904  0.47613323  1
  C  C79  1  0.65350301  0.32327096  0.52386677  1
  C  C80  1  0.25000000  0.15452321  0.25000000  1
  C  C81  1  0.75000000  0.84547679  0.75000000  1
  N  N82  1  0.72064818  0.96188761  0.25687865  1
  N  N83  1  0.27935182  0.03811239  0.74312135  1
  N  N84  1  0.77935182  0.48436078  0.24312135  1
  N  N85  1  0.22064818  0.51563922  0.75687865  1
  N  N86  1  0.91414009  0.60666556  0.00625011  1
  N  N87  1  0.08585991  0.39333444  0.99374989  1
  N  N88  1  0.58585991  0.18627536  0.49374989  1
  N  N89  1  0.41414009  0.81372464  0.50625011  1
  N  N90  1  0.15800076  0.14619763  0.21072061  1
  N  N91  1  0.84199924  0.85380237  0.78927939  1
  N  N92  1  0.34199924  0.27747626  0.28927939  1
  N  N93  1  0.65800076  0.72252374  0.71072061  1
  N  N94  1  0.57920314  0.72283915  0.21972186  1
  N  N95  1  0.42079686  0.27716085  0.78027814  1
  N  N96  1  0.92079686  0.42391416  0.28027814  1
  N  N97  1  0.07920314  0.57608584  0.71972186  1
  N  N98  1  0.50804326  0.85964013  0.28316810  1
  N  N99  1  0.49195674  0.14035987  0.71683190  1
  N  N100  1  0.99195674  0.56842878  0.21683190  1
  N  N101  1  0.00804326  0.43157122  0.78316810  1
  N  N102  1  0.20982832  0.42426291  0.08326616  1
  N  N103  1  0.79017168  0.57573709  0.91673384  1
  N  N104  1  0.29017168  0.63116844  0.41673384  1
  N  N105  1  0.70982832  0.36883156  0.58326616  1
  N  N106  1  0.84123734  0.75842977  0.00601389  1
  N  N107  1  0.15876266  0.24157023  0.99398611  1
  N  N108  1  0.65876266  0.41117854  0.49398611  1
  N  N109  1  0.34123734  0.58882146  0.50601389  1
  N  N110  1  0.25000000  0.03918540  0.25000000  1
  N  N111  1  0.75000000  0.96081460  0.75000000  1
  Cl  Cl112  1  0.25000000  0.49857566  0.25000000  1
  Cl  Cl113  1  0.75000000  0.50142434  0.75000000  1
  Cl  Cl114  1  0.35177128  0.36165027  0.61441791  1
  Cl  Cl115  1  0.64822872  0.63834973  0.38558209  1
  Cl  Cl116  1  0.14822872  0.89546109  0.88558209  1
  Cl  Cl117  1  0.85177128  0.10453891  0.11441791  1
  Cl  Cl118  1  0.95288134  0.90505453  0.35774981  1
  Cl  Cl119  1  0.04711866  0.09494547  0.64225019  1
  Cl  Cl120  1  0.54711866  0.09442338  0.14225019  1
  Cl  Cl121  1  0.45288134  0.90557662  0.85774981  1
  Cl  Cl122  1  0.54084644  0.79757410  0.04798301  1
  Cl  Cl123  1  0.45915356  0.20242590  0.95201699  1
  Cl  Cl124  1  0.95915356  0.70874466  0.45201699  1
  Cl  Cl125  1  0.04084644  0.29125534  0.54798301  1
  Cl  Cl126  1  0.50312267  0.36207118  0.11321392  1
  Cl  Cl127  1  0.49687733  0.63792882  0.88678608  1
  Cl  Cl128  1  0.99687733  0.24573460  0.38678608  1
  Cl  Cl129  1  0.00312267  0.75426540  0.61321392  1
  Cl  Cl130  1  0.24223432  0.20117492  0.45202073  1
  Cl  Cl131  1  0.75776568  0.79882508  0.54797927  1
  Cl  Cl132  1  0.25776568  0.00691987  0.04797927  1
  Cl  Cl133  1  0.74223432  0.99308013  0.95202073  1
  Cl  Cl134  1  0.25181236  0.88875620  0.38773492  1
  Cl  Cl135  1  0.74818764  0.11124380  0.61226508  1
  Cl  Cl136  1  0.24818764  0.74920892  0.11226508  1
  Cl  Cl137  1  0.75181236  0.25079108  0.88773492  1
  Cl  Cl138  1  0.89951850  0.78243945  0.16603447  1
  Cl  Cl139  1  0.10048150  0.21756055  0.83396553  1
  Cl  Cl140  1  0.60048150  0.21688648  0.33396553  1
  Cl  Cl141  1  0.39951850  0.78311352  0.66603447  1
  Cl  Cl142  1  0.75187801  0.99389371  0.45161603  1
  Cl  Cl143  1  0.24812199  0.00610629  0.54838397  1
  Cl  Cl144  1  0.74812199  0.29039968  0.04838397  1
  Cl  Cl145  1  0.25187801  0.70960032  0.95161603  1
