# generated using pymatgen
data_KNaTiSi3(HO5)2
_symmetry_space_group_name_H-M   'P 1'
_cell_length_a   6.48252570
_cell_length_b   11.53281586
_cell_length_c   12.94537647
_cell_angle_alpha   90.00000000
_cell_angle_beta   104.74309579
_cell_angle_gamma   90.00000000
_symmetry_Int_Tables_number   1
_chemical_formula_structural   KNaTiSi3(HO5)2
_chemical_formula_sum   'K4 Na4 Ti4 Si12 H8 O40'
_cell_volume   935.95543400
_cell_formula_units_Z   4
loop_
 _symmetry_equiv_pos_site_id
 _symmetry_equiv_pos_as_xyz
  1  'x, y, z'
loop_
 _atom_site_type_symbol
 _atom_site_label
 _atom_site_symmetry_multiplicity
 _atom_site_fract_x
 _atom_site_fract_y
 _atom_site_fract_z
 _atom_site_occupancy
  K  K0  1  0.31521822  0.61796821  0.11087026  1
  K  K1  1  0.68478178  0.38203179  0.88912974  1
  K  K2  1  0.68478178  0.11796821  0.38912974  1
  K  K3  1  0.31521822  0.88203179  0.61087026  1
  Na  Na4  1  0.21486373  0.54135372  0.40339357  1
  Na  Na5  1  0.78513627  0.45864628  0.59660643  1
  Na  Na6  1  0.78513627  0.04135372  0.09660643  1
  Na  Na7  1  0.21486373  0.95864628  0.90339357  1
  Ti  Ti8  1  0.11380634  0.27279709  0.21571593  1
  Ti  Ti9  1  0.88619366  0.72720291  0.78428407  1
  Ti  Ti10  1  0.88619366  0.77279709  0.28428407  1
  Ti  Ti11  1  0.11380634  0.22720291  0.71571593  1
  Si  Si12  1  0.19985547  0.23324536  0.47690868  1
  Si  Si13  1  0.80014453  0.76675464  0.52309132  1
  Si  Si14  1  0.80014453  0.73324536  0.02309132  1
  Si  Si15  1  0.19985547  0.26675464  0.97690868  1
  Si  Si16  1  0.15071659  0.01865724  0.33805407  1
  Si  Si17  1  0.84928341  0.98134276  0.66194593  1
  Si  Si18  1  0.84928341  0.51865724  0.16194593  1
  Si  Si19  1  0.15071659  0.48134276  0.83805407  1
  Si  Si20  1  0.58208665  0.30248251  0.15331463  1
  Si  Si21  1  0.41791335  0.69751749  0.84668537  1
  Si  Si22  1  0.41791335  0.80248251  0.34668537  1
  Si  Si23  1  0.58208665  0.19751749  0.65331463  1
  H  H24  1  0.55201674  0.41293531  0.34917440  1
  H  H25  1  0.44798326  0.58706469  0.65082560  1
  H  H26  1  0.44798326  0.91293531  0.15082560  1
  H  H27  1  0.55201674  0.08706469  0.84917440  1
  H  H28  1  0.33051052  0.03065413  0.14968595  1
  H  H29  1  0.66948948  0.96934587  0.85031405  1
  H  H30  1  0.66948948  0.53065413  0.35031405  1
  H  H31  1  0.33051052  0.46934587  0.64968595  1
  O  O32  1  0.42404165  0.29673509  0.23269461  1
  O  O33  1  0.57595835  0.70326491  0.76730539  1
  O  O34  1  0.57595835  0.79673509  0.26730539  1
  O  O35  1  0.42404165  0.20326491  0.73269461  1
  O  O36  1  0.14650029  0.30908511  0.36838128  1
  O  O37  1  0.85349971  0.69091489  0.63161872  1
  O  O38  1  0.85349971  0.80908511  0.13161872  1
  O  O39  1  0.14650029  0.19091489  0.86838128  1
  O  O40  1  0.45940779  0.25319464  0.03296023  1
  O  O41  1  0.54059221  0.74680536  0.96703977  1
  O  O42  1  0.54059221  0.75319464  0.46703977  1
  O  O43  1  0.45940779  0.24680536  0.53296023  1
  O  O44  1  0.06685196  0.23539199  0.06308321  1
  O  O45  1  0.93314804  0.76460801  0.93691679  1
  O  O46  1  0.93314804  0.73539199  0.43691679  1
  O  O47  1  0.06685196  0.26460801  0.56308321  1
  O  O48  1  0.14867337  0.09439794  0.44549112  1
  O  O49  1  0.85132663  0.90560206  0.55450888  1
  O  O50  1  0.85132663  0.59439794  0.05450888  1
  O  O51  1  0.14867337  0.40560206  0.94549112  1
  O  O52  1  0.59532059  0.48291526  0.39298483  1
  O  O53  1  0.40467941  0.51708474  0.60701517  1
  O  O54  1  0.40467941  0.98291526  0.10701517  1
  O  O55  1  0.59532059  0.01708474  0.89298483  1
  O  O56  1  0.62936504  0.44013984  0.13115746  1
  O  O57  1  0.37063496  0.55986016  0.86884254  1
  O  O58  1  0.37063496  0.94013984  0.36884254  1
  O  O59  1  0.62936504  0.05986016  0.63115746  1
  O  O60  1  0.19740539  0.73251731  0.30258893  1
  O  O61  1  0.80259461  0.26748269  0.69741107  1
  O  O62  1  0.80259461  0.23251731  0.19741107  1
  O  O63  1  0.19740539  0.76748269  0.80258893  1
  O  O64  1  0.05877457  0.43691168  0.18992842  1
  O  O65  1  0.94122543  0.56308832  0.81007158  1
  O  O66  1  0.94122543  0.93691168  0.31007158  1
  O  O67  1  0.05877457  0.06308832  0.68992842  1
  O  O68  1  0.16832258  0.10482569  0.24189190  1
  O  O69  1  0.83167742  0.89517431  0.75810810  1
  O  O70  1  0.83167742  0.60482569  0.25810810  1
  O  O71  1  0.16832258  0.39517431  0.74189190  1
