# generated using pymatgen
data_Ho6Mn4Al43
_symmetry_space_group_name_H-M   'P 1'
_cell_length_a   10.89272418
_cell_length_b   10.89272418
_cell_length_c   17.53404848
_cell_angle_alpha   90.00000000
_cell_angle_beta   90.00000000
_cell_angle_gamma   120.00000403
_symmetry_Int_Tables_number   1
_chemical_formula_structural   Ho6Mn4Al43
_chemical_formula_sum   'Ho12 Mn8 Al86'
_cell_volume   1801.71390744
_cell_formula_units_Z   2
loop_
 _symmetry_equiv_pos_site_id
 _symmetry_equiv_pos_as_xyz
  1  'x, y, z'
loop_
 _atom_site_type_symbol
 _atom_site_label
 _atom_site_symmetry_multiplicity
 _atom_site_fract_x
 _atom_site_fract_y
 _atom_site_fract_z
 _atom_site_occupancy
  Ho  Ho0  1  0.46805435  0.46805435  0.90489001  1
  Ho  Ho1  1  0.53194565  0.53194565  0.09510999  1
  Ho  Ho2  1  1.00000000  0.53194565  0.90489001  1
  Ho  Ho3  1  0.53194565  0.53194565  0.40489001  1
  Ho  Ho4  1  1.00000000  0.53194565  0.59510999  1
  Ho  Ho5  1  0.00000000  0.46805435  0.09510999  1
  Ho  Ho6  1  0.46805435  0.46805435  0.59510999  1
  Ho  Ho7  1  0.00000000  0.46805435  0.40489001  1
  Ho  Ho8  1  0.53194565  1.00000000  0.90489001  1
  Ho  Ho9  1  0.46805435  0.00000000  0.09510999  1
  Ho  Ho10  1  0.46805435  0.00000000  0.40489001  1
  Ho  Ho11  1  0.53194565  1.00000000  0.59510999  1
  Mn  Mn12  1  0.00000000  0.00000000  -0.00000000  1
  Mn  Mn13  1  0.00000000  0.00000000  0.50000000  1
  Mn  Mn14  1  0.26742180  0.26742180  0.75000000  1
  Mn  Mn15  1  0.73257820  0.73257820  0.25000000  1
  Mn  Mn16  1  1.00000000  0.73257820  0.75000000  1
  Mn  Mn17  1  0.00000000  0.26742180  0.25000000  1
  Mn  Mn18  1  0.73257820  1.00000000  0.75000000  1
  Mn  Mn19  1  0.26742180  0.00000000  0.25000000  1
  Al  Al20  1  0.85485646  0.45299696  0.75000000  1
  Al  Al21  1  0.14514354  0.54700304  0.25000000  1
  Al  Al22  1  0.59814050  0.14514354  0.75000000  1
  Al  Al23  1  0.40185950  0.54700304  0.75000000  1
  Al  Al24  1  0.40185950  0.85485646  0.25000000  1
  Al  Al25  1  0.59814050  0.45299696  0.25000000  1
  Al  Al26  1  0.54700304  0.40185950  0.75000000  1
  Al  Al27  1  0.45299696  0.85485646  0.75000000  1
  Al  Al28  1  0.45299696  0.59814050  0.25000000  1
  Al  Al29  1  0.54700304  0.14514354  0.25000000  1
  Al  Al30  1  0.14514354  0.59814050  0.75000000  1
  Al  Al31  1  0.85485646  0.40185950  0.25000000  1
  Al  Al32  1  0.84381991  0.84381991  0.38433201  1
  Al  Al33  1  0.15618009  0.15618009  0.61566799  1
  Al  Al34  1  0.00000000  0.15618009  0.38433201  1
  Al  Al35  1  0.15618009  0.15618009  0.88433201  1
  Al  Al36  1  0.00000000  0.15618009  0.11566799  1
  Al  Al37  1  1.00000000  0.84381991  0.61566799  1
  Al  Al38  1  0.84381991  0.84381991  0.11566799  1
  Al  Al39  1  1.00000000  0.84381991  0.88433201  1
  Al  Al40  1  0.15618009  0.00000000  0.38433201  1
  Al  Al41  1  0.84381991  1.00000000  0.61566799  1
  Al  Al42  1  0.84381991  1.00000000  0.88433201  1
  Al  Al43  1  0.15618009  0.00000000  0.11566799  1
  Al  Al44  1  0.75341460  0.24658540  -0.00000000  1
  Al  Al45  1  0.24658540  0.75341460  -0.00000000  1
  Al  Al46  1  0.49317080  0.24658540  -0.00000000  1
  Al  Al47  1  0.24658540  0.75341460  0.50000000  1
  Al  Al48  1  0.50682920  0.75341460  0.50000000  1
  Al  Al49  1  0.50682920  0.75341460  -0.00000000  1
  Al  Al50  1  0.75341460  0.24658540  0.50000000  1
  Al  Al51  1  0.49317080  0.24658540  0.50000000  1
  Al  Al52  1  0.75341460  0.50682920  -0.00000000  1
  Al  Al53  1  0.24658540  0.49317080  -0.00000000  1
  Al  Al54  1  0.24658540  0.49317080  0.50000000  1
  Al  Al55  1  0.75341460  0.50682920  0.50000000  1
  Al  Al56  1  0.85445166  0.85445166  0.75000000  1
  Al  Al57  1  0.14554834  0.14554834  0.25000000  1
  Al  Al58  1  0.00000000  0.14554834  0.75000000  1
  Al  Al59  1  1.00000000  0.85445166  0.25000000  1
  Al  Al60  1  0.14554834  0.00000000  0.75000000  1
  Al  Al61  1  0.85445166  1.00000000  0.25000000  1
  Al  Al62  1  0.66666700  0.33333300  0.87307002  1
  Al  Al63  1  0.33333300  0.66666700  0.12692998  1
  Al  Al64  1  0.33333300  0.66666700  0.37307002  1
  Al  Al65  1  0.33333300  0.66666700  0.62692998  1
  Al  Al66  1  0.66666700  0.33333300  0.62692998  1
  Al  Al67  1  0.66666700  0.33333300  0.37307002  1
  Al  Al68  1  0.66666700  0.33333300  0.12692998  1
  Al  Al69  1  0.33333300  0.66666700  0.87307002  1
  Al  Al70  1  0.74799050  0.74799050  0.96953059  1
  Al  Al71  1  0.25200950  0.25200950  0.03046941  1
  Al  Al72  1  0.00000000  0.25200950  0.96953059  1
  Al  Al73  1  0.25200950  0.25200950  0.46953059  1
  Al  Al74  1  0.00000000  0.25200950  0.53046941  1
  Al  Al75  1  1.00000000  0.74799050  0.03046941  1
  Al  Al76  1  0.74799050  0.74799050  0.53046941  1
  Al  Al77  1  1.00000000  0.74799050  0.46953059  1
  Al  Al78  1  0.25200950  0.00000000  0.96953059  1
  Al  Al79  1  0.74799050  1.00000000  0.03046941  1
  Al  Al80  1  0.74799050  1.00000000  0.46953059  1
  Al  Al81  1  0.25200950  0.00000000  0.53046941  1
  Al  Al82  1  0.84184659  0.23307076  0.83440805  1
  Al  Al83  1  0.15815341  0.76692924  0.16559195  1
  Al  Al84  1  0.39122417  0.15815341  0.83440805  1
  Al  Al85  1  0.15815341  0.76692924  0.33440805  1
  Al  Al86  1  0.60877583  0.76692924  0.66559195  1
  Al  Al87  1  0.60877583  0.84184659  0.16559195  1
  Al  Al88  1  0.84184659  0.23307076  0.66559195  1
  Al  Al89  1  0.39122417  0.23307076  0.33440805  1
  Al  Al90  1  0.76692924  0.60877583  0.83440805  1
  Al  Al91  1  0.60877583  0.84184659  0.33440805  1
  Al  Al92  1  0.23307076  0.84184659  0.66559195  1
  Al  Al93  1  0.23307076  0.39122417  0.16559195  1
  Al  Al94  1  0.39122417  0.15815341  0.66559195  1
  Al  Al95  1  0.76692924  0.15815341  0.33440805  1
  Al  Al96  1  0.39122417  0.23307076  0.16559195  1
  Al  Al97  1  0.60877583  0.76692924  0.83440805  1
  Al  Al98  1  0.23307076  0.39122417  0.33440805  1
  Al  Al99  1  0.76692924  0.15815341  0.16559195  1
  Al  Al100  1  0.76692924  0.60877583  0.66559195  1
  Al  Al101  1  0.23307076  0.84184659  0.83440805  1
  Al  Al102  1  0.15815341  0.39122417  0.66559195  1
  Al  Al103  1  0.84184659  0.60877583  0.33440805  1
  Al  Al104  1  0.84184659  0.60877583  0.16559195  1
  Al  Al105  1  0.15815341  0.39122417  0.83440805  1
