# generated using pymatgen
data_ErZr6(PO4)9
_symmetry_space_group_name_H-M   'P 1'
_cell_length_a   8.94697054
_cell_length_b   8.94697054
_cell_length_c   22.95961295
_cell_angle_alpha   90.00000000
_cell_angle_beta   90.00000000
_cell_angle_gamma   119.99999957
_symmetry_Int_Tables_number   1
_chemical_formula_structural   ErZr6(PO4)9
_chemical_formula_sum   'Er2 Zr12 P18 O72'
_cell_volume   1591.64867100
_cell_formula_units_Z   2
loop_
 _symmetry_equiv_pos_site_id
 _symmetry_equiv_pos_as_xyz
  1  'x, y, z'
loop_
 _atom_site_type_symbol
 _atom_site_label
 _atom_site_symmetry_multiplicity
 _atom_site_fract_x
 _atom_site_fract_y
 _atom_site_fract_z
 _atom_site_occupancy
  Er  Er0  1  -0.00000000  -0.00000000  0.00000000  1
  Er  Er1  1  -0.00000000  -0.00000000  0.50000000  1
  Zr  Zr2  1  0.66666700  0.33333300  0.97240523  1
  Zr  Zr3  1  0.33333300  0.66666700  0.02759477  1
  Zr  Zr4  1  0.33333300  0.66666700  0.52759477  1
  Zr  Zr5  1  0.66666700  0.33333300  0.47240523  1
  Zr  Zr6  1  -0.00000000  -0.00000000  0.85101524  1
  Zr  Zr7  1  -0.00000000  -0.00000000  0.14898476  1
  Zr  Zr8  1  -0.00000000  -0.00000000  0.64898476  1
  Zr  Zr9  1  -0.00000000  -0.00000000  0.35101524  1
  Zr  Zr10  1  0.66666700  0.33333300  0.68691311  1
  Zr  Zr11  1  0.33333300  0.66666700  0.31308689  1
  Zr  Zr12  1  0.33333300  0.66666700  0.81308689  1
  Zr  Zr13  1  0.66666700  0.33333300  0.18691311  1
  P  P14  1  0.62760909  0.94685582  0.92157364  1
  P  P15  1  0.37239091  0.05314418  0.07842636  1
  P  P16  1  0.31924673  0.37239091  0.92157364  1
  P  P17  1  0.68075327  0.05314418  0.57842636  1
  P  P18  1  0.68075327  0.62760909  0.07842636  1
  P  P19  1  0.31924673  0.94685582  0.42157364  1
  P  P20  1  0.05314418  0.68075327  0.92157364  1
  P  P21  1  0.94685582  0.62760909  0.57842636  1
  P  P22  1  0.94685582  0.31924673  0.07842636  1
  P  P23  1  0.05314418  0.37239091  0.42157364  1
  P  P24  1  0.37239091  0.31924673  0.57842636  1
  P  P25  1  0.62760909  0.68075327  0.42157364  1
  P  P26  1  0.70768844  0.70768844  0.75000000  1
  P  P27  1  0.29231156  0.29231156  0.25000000  1
  P  P28  1  1.00000000  0.29231156  0.75000000  1
  P  P29  1  0.00000000  0.70768844  0.25000000  1
  P  P30  1  0.29231156  1.00000000  0.75000000  1
  P  P31  1  0.70768844  0.00000000  0.25000000  1
  O  O32  1  0.54735864  0.82835734  0.97448280  1
  O  O33  1  0.45264136  0.17164266  0.02551720  1
  O  O34  1  0.28099870  0.45264136  0.97448280  1
  O  O35  1  0.71900130  0.17164266  0.52551720  1
  O  O36  1  0.71900130  0.54735864  0.02551720  1
  O  O37  1  0.28099870  0.82835734  0.47448280  1
  O  O38  1  0.17164266  0.71900130  0.97448280  1
  O  O39  1  0.82835734  0.54735864  0.52551720  1
  O  O40  1  0.82835734  0.28099870  0.02551720  1
  O  O41  1  0.17164266  0.45264136  0.47448280  1
  O  O42  1  0.45264136  0.28099870  0.52551720  1
  O  O43  1  0.54735864  0.71900130  0.47448280  1
  O  O44  1  0.62475141  0.11656546  0.92623500  1
  O  O45  1  0.37524859  0.88343454  0.07376500  1
  O  O46  1  0.49181405  0.37524859  0.92623500  1
  O  O47  1  0.50818595  0.88343454  0.57376500  1
  O  O48  1  0.50818595  0.62475141  0.07376500  1
  O  O49  1  0.49181405  0.11656546  0.42623500  1
  O  O50  1  0.88343454  0.50818595  0.92623500  1
  O  O51  1  0.11656546  0.62475141  0.57376500  1
  O  O52  1  0.11656546  0.49181405  0.07376500  1
  O  O53  1  0.88343454  0.37524859  0.42623500  1
  O  O54  1  0.37524859  0.49181405  0.57376500  1
  O  O55  1  0.62475141  0.50818595  0.42623500  1
  O  O56  1  0.82430610  0.99320006  0.92209747  1
  O  O57  1  0.17569390  0.00679994  0.07790253  1
  O  O58  1  0.16889396  0.17569390  0.92209747  1
  O  O59  1  0.83110604  0.00679994  0.57790253  1
  O  O60  1  0.83110604  0.82430610  0.07790253  1
  O  O61  1  0.16889396  0.99320006  0.42209747  1
  O  O62  1  0.00679994  0.83110604  0.92209747  1
  O  O63  1  0.99320006  0.82430610  0.57790253  1
  O  O64  1  0.99320006  0.16889396  0.07790253  1
  O  O65  1  0.00679994  0.17569390  0.42209747  1
  O  O66  1  0.17569390  0.16889396  0.57790253  1
  O  O67  1  0.82430610  0.83110604  0.42209747  1
  O  O68  1  0.97059313  0.17523936  0.80419655  1
  O  O69  1  0.02940687  0.82476064  0.19580345  1
  O  O70  1  0.20464623  0.02940687  0.80419655  1
  O  O71  1  0.79535377  0.82476064  0.69580345  1
  O  O72  1  0.79535377  0.97059313  0.19580345  1
  O  O73  1  0.20464623  0.17523936  0.30419655  1
  O  O74  1  0.82476064  0.79535377  0.80419655  1
  O  O75  1  0.17523936  0.97059313  0.69580345  1
  O  O76  1  0.17523936  0.20464623  0.19580345  1
  O  O77  1  0.82476064  0.02940687  0.30419655  1
  O  O78  1  0.02940687  0.20464623  0.69580345  1
  O  O79  1  0.97059313  0.79535377  0.30419655  1
  O  O80  1  0.53854102  0.85476798  0.86489891  1
  O  O81  1  0.46145898  0.14523202  0.13510109  1
  O  O82  1  0.31622695  0.46145898  0.86489891  1
  O  O83  1  0.68377305  0.14523202  0.63510109  1
  O  O84  1  0.68377305  0.53854102  0.13510109  1
  O  O85  1  0.31622695  0.85476798  0.36489891  1
  O  O86  1  0.14523202  0.68377305  0.86489891  1
  O  O87  1  0.85476798  0.53854102  0.63510109  1
  O  O88  1  0.85476798  0.31622695  0.13510109  1
  O  O89  1  0.14523202  0.46145898  0.36489891  1
  O  O90  1  0.46145898  0.31622695  0.63510109  1
  O  O91  1  0.53854102  0.68377305  0.36489891  1
  O  O92  1  0.53153647  0.69113778  0.75944797  1
  O  O93  1  0.46846353  0.30886222  0.24055203  1
  O  O94  1  0.15960131  0.46846353  0.75944797  1
  O  O95  1  0.84039869  0.30886222  0.74055203  1
  O  O96  1  0.84039869  0.53153647  0.24055203  1
  O  O97  1  0.15960131  0.69113778  0.25944797  1
  O  O98  1  0.30886222  0.84039869  0.75944797  1
  O  O99  1  0.69113778  0.53153647  0.74055203  1
  O  O100  1  0.69113778  0.15960131  0.24055203  1
  O  O101  1  0.30886222  0.46846353  0.25944797  1
  O  O102  1  0.46846353  0.15960131  0.74055203  1
  O  O103  1  0.53153647  0.84039869  0.25944797  1
