# generated using pymatgen
data_Cu3BO5
_symmetry_space_group_name_H-M   'P 1'
_cell_length_a   3.31083210
_cell_length_b   9.39220150
_cell_length_c   11.99556268
_cell_angle_alpha   90.00000000
_cell_angle_beta   94.50329726
_cell_angle_gamma   90.00000000
_symmetry_Int_Tables_number   1
_chemical_formula_structural   Cu3BO5
_chemical_formula_sum   'Cu12 B4 O20'
_cell_volume   371.86248150
_cell_formula_units_Z   4
loop_
 _symmetry_equiv_pos_site_id
 _symmetry_equiv_pos_as_xyz
  1  'x, y, z'
loop_
 _atom_site_type_symbol
 _atom_site_label
 _atom_site_symmetry_multiplicity
 _atom_site_fract_x
 _atom_site_fract_y
 _atom_site_fract_z
 _atom_site_occupancy
  Cu  Cu0  1  0.58090753  0.26421277  0.37704600  1
  Cu  Cu1  1  0.41909247  0.73578723  0.62295400  1
  Cu  Cu2  1  0.41909247  0.76421277  0.12295400  1
  Cu  Cu3  1  0.58090753  0.23578723  0.87704600  1
  Cu  Cu4  1  0.00000000  0.00000000  -0.00000000  1
  Cu  Cu5  1  0.00000000  0.50000000  0.50000000  1
  Cu  Cu6  1  0.06751122  0.01405670  0.27489975  1
  Cu  Cu7  1  0.93248878  0.98594330  0.72510025  1
  Cu  Cu8  1  0.93248878  0.51405670  0.22510025  1
  Cu  Cu9  1  0.06751122  0.48594330  0.77489975  1
  Cu  Cu10  1  0.50000000  0.50000000  -0.00000000  1
  Cu  Cu11  1  0.50000000  0.00000000  0.50000000  1
  B  B12  1  0.63199990  0.23367637  0.13081314  1
  B  B13  1  0.36800010  0.76632363  0.86918686  1
  B  B14  1  0.36800010  0.73367637  0.36918686  1
  B  B15  1  0.63199990  0.26632363  0.63081314  1
  O  O16  1  0.64967205  0.15846139  0.03302320  1
  O  O17  1  0.35032795  0.84153861  0.96697680  1
  O  O18  1  0.35032795  0.65846139  0.46697680  1
  O  O19  1  0.64967205  0.34153861  0.53302320  1
  O  O20  1  0.97745211  0.40945071  0.35635511  1
  O  O21  1  0.02254789  0.59054929  0.64364489  1
  O  O22  1  0.02254789  0.90945071  0.14364489  1
  O  O23  1  0.97745211  0.09054929  0.85635511  1
  O  O24  1  0.55843335  0.37945444  0.13191975  1
  O  O25  1  0.44156665  0.62054556  0.86808025  1
  O  O26  1  0.44156665  0.87945444  0.36808025  1
  O  O27  1  0.55843335  0.12054556  0.63191975  1
  O  O28  1  0.33183325  0.66336340  0.26731438  1
  O  O29  1  0.66816675  0.33663660  0.73268562  1
  O  O30  1  0.66816675  0.16336340  0.23268562  1
  O  O31  1  0.33183325  0.83663660  0.76731438  1
  O  O32  1  0.18056319  0.12366891  0.40903033  1
  O  O33  1  0.81943681  0.87633109  0.59096967  1
  O  O34  1  0.81943681  0.62366891  0.09096967  1
  O  O35  1  0.18056319  0.37633109  0.90903033  1
