# generated using pymatgen
data_LuZr6(PO4)9
_symmetry_space_group_name_H-M   'P 1'
_cell_length_a   8.94237482
_cell_length_b   8.94237482
_cell_length_c   22.75504331
_cell_angle_alpha   90.00000000
_cell_angle_beta   90.00000000
_cell_angle_gamma   120.00000164
_symmetry_Int_Tables_number   1
_chemical_formula_structural   LuZr6(PO4)9
_chemical_formula_sum   'Lu2 Zr12 P18 O72'
_cell_volume   1575.84692974
_cell_formula_units_Z   2
loop_
 _symmetry_equiv_pos_site_id
 _symmetry_equiv_pos_as_xyz
  1  'x, y, z'
loop_
 _atom_site_type_symbol
 _atom_site_label
 _atom_site_symmetry_multiplicity
 _atom_site_fract_x
 _atom_site_fract_y
 _atom_site_fract_z
 _atom_site_occupancy
  Lu  Lu0  1  0.00000000  0.00000000  0.00000000  1
  Lu  Lu1  1  0.00000000  0.00000000  0.50000000  1
  Zr  Zr2  1  0.66666700  0.33333300  0.97043056  1
  Zr  Zr3  1  0.33333300  0.66666700  0.02956944  1
  Zr  Zr4  1  0.33333300  0.66666700  0.52956944  1
  Zr  Zr5  1  0.66666700  0.33333300  0.47043056  1
  Zr  Zr6  1  0.00000000  0.00000000  0.85162446  1
  Zr  Zr7  1  0.00000000  0.00000000  0.14837554  1
  Zr  Zr8  1  0.00000000  0.00000000  0.64837554  1
  Zr  Zr9  1  0.00000000  0.00000000  0.35162446  1
  Zr  Zr10  1  0.66666700  0.33333300  0.68697375  1
  Zr  Zr11  1  0.33333300  0.66666700  0.31302625  1
  Zr  Zr12  1  0.33333300  0.66666700  0.81302625  1
  Zr  Zr13  1  0.66666700  0.33333300  0.18697375  1
  P  P14  1  0.62784113  0.94519744  0.92172038  1
  P  P15  1  0.37215887  0.05480256  0.07827962  1
  P  P16  1  0.31735630  0.37215887  0.92172038  1
  P  P17  1  0.68264370  0.05480256  0.57827962  1
  P  P18  1  0.68264370  0.62784113  0.07827962  1
  P  P19  1  0.31735630  0.94519744  0.42172038  1
  P  P20  1  0.05480256  0.68264370  0.92172038  1
  P  P21  1  0.94519744  0.62784113  0.57827962  1
  P  P22  1  0.94519744  0.31735630  0.07827962  1
  P  P23  1  0.05480256  0.37215887  0.42172038  1
  P  P24  1  0.37215887  0.31735630  0.57827962  1
  P  P25  1  0.62784113  0.68264370  0.42172038  1
  P  P26  1  0.70757134  0.70757134  0.75000000  1
  P  P27  1  0.29242866  0.29242866  0.25000000  1
  P  P28  1  0.00000000  0.29242866  0.75000000  1
  P  P29  1  1.00000000  0.70757134  0.25000000  1
  P  P30  1  0.29242866  0.00000000  0.75000000  1
  P  P31  1  0.70757134  1.00000000  0.25000000  1
  O  O32  1  0.54333881  0.83025306  0.97544062  1
  O  O33  1  0.45666119  0.16974694  0.02455938  1
  O  O34  1  0.28691424  0.45666119  0.97544062  1
  O  O35  1  0.71308576  0.16974694  0.52455938  1
  O  O36  1  0.71308576  0.54333881  0.02455938  1
  O  O37  1  0.28691424  0.83025306  0.47544062  1
  O  O38  1  0.16974694  0.71308576  0.97544062  1
  O  O39  1  0.83025306  0.54333881  0.52455938  1
  O  O40  1  0.83025306  0.28691424  0.02455938  1
  O  O41  1  0.16974694  0.45666119  0.47544062  1
  O  O42  1  0.45666119  0.28691424  0.52455938  1
  O  O43  1  0.54333881  0.71308576  0.47544062  1
  O  O44  1  0.62663835  0.11614736  0.92429123  1
  O  O45  1  0.37336165  0.88385264  0.07570877  1
  O  O46  1  0.48950901  0.37336165  0.92429123  1
  O  O47  1  0.51049099  0.88385264  0.57570877  1
  O  O48  1  0.51049099  0.62663835  0.07570877  1
  O  O49  1  0.48950901  0.11614736  0.42429123  1
  O  O50  1  0.88385264  0.51049099  0.92429123  1
  O  O51  1  0.11614736  0.62663835  0.57570877  1
  O  O52  1  0.11614736  0.48950901  0.07570877  1
  O  O53  1  0.88385264  0.37336165  0.42429123  1
  O  O54  1  0.37336165  0.48950901  0.57570877  1
  O  O55  1  0.62663835  0.51049099  0.42429123  1
  O  O56  1  0.82396227  0.98941715  0.92434678  1
  O  O57  1  0.17603773  0.01058285  0.07565322  1
  O  O58  1  0.16545488  0.17603773  0.92434678  1
  O  O59  1  0.83454512  0.01058285  0.57565322  1
  O  O60  1  0.83454512  0.82396227  0.07565322  1
  O  O61  1  0.16545488  0.98941715  0.42434678  1
  O  O62  1  0.01058285  0.83454512  0.92434678  1
  O  O63  1  0.98941715  0.82396227  0.57565322  1
  O  O64  1  0.98941715  0.16545488  0.07565322  1
  O  O65  1  0.01058285  0.17603773  0.42434678  1
  O  O66  1  0.17603773  0.16545488  0.57565322  1
  O  O67  1  0.82396227  0.83454512  0.42434678  1
  O  O68  1  0.97017700  0.17450711  0.80448602  1
  O  O69  1  0.02982300  0.82549289  0.19551398  1
  O  O70  1  0.20433011  0.02982300  0.80448602  1
  O  O71  1  0.79566989  0.82549289  0.69551398  1
  O  O72  1  0.79566989  0.97017700  0.19551398  1
  O  O73  1  0.20433011  0.17450711  0.30448602  1
  O  O74  1  0.82549289  0.79566989  0.80448602  1
  O  O75  1  0.17450711  0.97017700  0.69551398  1
  O  O76  1  0.17450711  0.20433011  0.19551398  1
  O  O77  1  0.82549289  0.02982300  0.30448602  1
  O  O78  1  0.02982300  0.20433011  0.69551398  1
  O  O79  1  0.97017700  0.79566989  0.30448602  1
  O  O80  1  0.54254392  0.85075614  0.86464325  1
  O  O81  1  0.45745608  0.14924386  0.13535675  1
  O  O82  1  0.30821222  0.45745608  0.86464325  1
  O  O83  1  0.69178778  0.14924386  0.63535675  1
  O  O84  1  0.69178778  0.54254392  0.13535675  1
  O  O85  1  0.30821222  0.85075614  0.36464325  1
  O  O86  1  0.14924386  0.69178778  0.86464325  1
  O  O87  1  0.85075614  0.54254392  0.63535675  1
  O  O88  1  0.85075614  0.30821222  0.13535675  1
  O  O89  1  0.14924386  0.45745608  0.36464325  1
  O  O90  1  0.45745608  0.30821222  0.63535675  1
  O  O91  1  0.54254392  0.69178778  0.36464325  1
  O  O92  1  0.53116304  0.69024637  0.75930281  1
  O  O93  1  0.46883696  0.30975363  0.24069719  1
  O  O94  1  0.15908333  0.46883696  0.75930281  1
  O  O95  1  0.84091667  0.30975363  0.74069719  1
  O  O96  1  0.84091667  0.53116304  0.24069719  1
  O  O97  1  0.15908333  0.69024637  0.25930281  1
  O  O98  1  0.30975363  0.84091667  0.75930281  1
  O  O99  1  0.69024637  0.53116304  0.74069719  1
  O  O100  1  0.69024637  0.15908333  0.24069719  1
  O  O101  1  0.30975363  0.46883696  0.25930281  1
  O  O102  1  0.46883696  0.15908333  0.74069719  1
  O  O103  1  0.53116304  0.84091667  0.25930281  1
