# generated using pymatgen
data_DyGaGe2O7
_symmetry_space_group_name_H-M   'P 1'
_cell_length_a   6.61465431
_cell_length_b   7.26935650
_cell_length_c   11.40035633
_cell_angle_alpha   96.06779594
_cell_angle_beta   90.00000000
_cell_angle_gamma   90.00000000
_symmetry_Int_Tables_number   1
_chemical_formula_structural   DyGaGe2O7
_chemical_formula_sum   'Dy4 Ga4 Ge8 O28'
_cell_volume   545.10677054
_cell_formula_units_Z   4
loop_
 _symmetry_equiv_pos_site_id
 _symmetry_equiv_pos_as_xyz
  1  'x, y, z'
loop_
 _atom_site_type_symbol
 _atom_site_label
 _atom_site_symmetry_multiplicity
 _atom_site_fract_x
 _atom_site_fract_y
 _atom_site_fract_z
 _atom_site_occupancy
  Dy  Dy0  1  0.64272039  0.72661488  0.47140554  1
  Dy  Dy1  1  0.35727961  0.27338512  0.52859446  1
  Dy  Dy2  1  0.14272039  0.77338512  0.02859446  1
  Dy  Dy3  1  0.85727961  0.22661488  0.97140554  1
  Ga  Ga4  1  0.59903109  0.01775235  0.72956237  1
  Ga  Ga5  1  0.40096891  0.98224765  0.27043763  1
  Ga  Ga6  1  0.09903109  0.48224765  0.77043763  1
  Ga  Ga7  1  0.90096891  0.51775235  0.22956237  1
  Ge  Ge8  1  0.34295252  0.24010145  0.95769150  1
  Ge  Ge9  1  0.65704748  0.75989855  0.04230850  1
  Ge  Ge10  1  0.84295252  0.25989855  0.54230850  1
  Ge  Ge11  1  0.15704748  0.74010145  0.45769150  1
  Ge  Ge12  1  0.08903243  0.92258337  0.72281599  1
  Ge  Ge13  1  0.91096757  0.07741663  0.27718401  1
  Ge  Ge14  1  0.58903243  0.57741663  0.77718401  1
  Ge  Ge15  1  0.41096757  0.42258337  0.22281599  1
  O  O16  1  0.62391847  0.76012764  0.68695219  1
  O  O17  1  0.37608153  0.23987236  0.31304781  1
  O  O18  1  0.12391847  0.73987236  0.81304781  1
  O  O19  1  0.87608153  0.26012764  0.18695219  1
  O  O20  1  0.17202606  0.06731122  0.98009059  1
  O  O21  1  0.82797394  0.93268878  0.01990941  1
  O  O22  1  0.67202606  0.43268878  0.51990941  1
  O  O23  1  0.32797394  0.56731122  0.48009059  1
  O  O24  1  0.38925797  0.43690592  0.71837268  1
  O  O25  1  0.61074203  0.56309408  0.28162732  1
  O  O26  1  0.88925797  0.06309408  0.78162732  1
  O  O27  1  0.11074203  0.93690592  0.21837268  1
  O  O28  1  0.99751789  0.82245430  0.57908275  1
  O  O29  1  0.00248211  0.17754570  0.42091725  1
  O  O30  1  0.49751789  0.67754570  0.92091725  1
  O  O31  1  0.50248211  0.32245430  0.07908275  1
  O  O32  1  0.55614701  0.16326949  0.87355199  1
  O  O33  1  0.44385299  0.83673051  0.12644801  1
  O  O34  1  0.05614701  0.33673051  0.62644801  1
  O  O35  1  0.94385299  0.66326949  0.37355199  1
  O  O36  1  0.15554838  0.40652884  0.92413505  1
  O  O37  1  0.84445162  0.59347116  0.07586495  1
  O  O38  1  0.65554838  0.09347116  0.57586495  1
  O  O39  1  0.34445162  0.90652884  0.42413505  1
  O  O40  1  0.31063030  0.03659012  0.68478005  1
  O  O41  1  0.68936970  0.96340988  0.31521995  1
  O  O42  1  0.81063030  0.46340988  0.81521995  1
  O  O43  1  0.18936970  0.53659012  0.18478005  1
