# generated using pymatgen
data_Dy2Sn3(PbS4)3
_symmetry_space_group_name_H-M   'P 1'
_cell_length_a   3.94170388
_cell_length_b   11.64465310
_cell_length_c   20.41630004
_cell_angle_alpha   90.00000000
_cell_angle_beta   90.00000000
_cell_angle_gamma   90.00000000
_symmetry_Int_Tables_number   1
_chemical_formula_structural   Dy2Sn3(PbS4)3
_chemical_formula_sum   'Dy4 Sn6 Pb6 S24'
_cell_volume   937.10356399
_cell_formula_units_Z   2
loop_
 _symmetry_equiv_pos_site_id
 _symmetry_equiv_pos_as_xyz
  1  'x, y, z'
loop_
 _atom_site_type_symbol
 _atom_site_label
 _atom_site_symmetry_multiplicity
 _atom_site_fract_x
 _atom_site_fract_y
 _atom_site_fract_z
 _atom_site_occupancy
  Dy  Dy0  1  0.50000000  0.64695853  0.41273209  1
  Dy  Dy1  1  0.50000000  0.14695853  0.58726791  1
  Dy  Dy2  1  0.50000000  0.82566729  0.89413909  1
  Dy  Dy3  1  0.50000000  0.32566729  0.10586091  1
  Sn  Sn4  1  -0.00000000  0.00218758  0.75011168  1
  Sn  Sn5  1  -0.00000000  0.50218758  0.24988832  1
  Sn  Sn6  1  0.00000000  0.51948115  0.91240152  1
  Sn  Sn7  1  0.00000000  0.01948115  0.08759848  1
  Sn  Sn8  1  0.00000000  0.99298630  0.42637891  1
  Sn  Sn9  1  0.00000000  0.49298630  0.57362109  1
  Pb  Pb10  1  0.50000000  0.40335360  0.74190177  1
  Pb  Pb11  1  0.50000000  0.90335360  0.25809823  1
  Pb  Pb12  1  0.50000000  0.19871334  0.91480132  1
  Pb  Pb13  1  0.50000000  0.69871334  0.08519868  1
  Pb  Pb14  1  0.50000000  0.77220383  0.62218810  1
  Pb  Pb15  1  0.50000000  0.27220383  0.37781190  1
  S  S16  1  -0.00000000  0.99061236  0.87537961  1
  S  S17  1  -0.00000000  0.49061236  0.12462039  1
  S  S18  1  -0.00000000  0.98448285  0.62636575  1
  S  S19  1  -0.00000000  0.48448285  0.37363425  1
  S  S20  1  -0.00000000  0.68158629  0.50954928  1
  S  S21  1  -0.00000000  0.18158629  0.49045072  1
  S  S22  1  0.50000000  0.64670103  0.25827547  1
  S  S23  1  0.50000000  0.14670103  0.74172453  1
  S  S24  1  0.50000000  0.85092435  0.75691843  1
  S  S25  1  0.50000000  0.35092435  0.24308157  1
  S  S26  1  0.50000000  0.60196719  0.84209341  1
  S  S27  1  0.50000000  0.10196719  0.15790659  1
  S  S28  1  0.50000000  0.43684471  0.98291774  1
  S  S29  1  0.50000000  0.93684471  0.01708226  1
  S  S30  1  0.50000000  0.93634801  0.49279946  1
  S  S31  1  0.50000000  0.43634801  0.50720054  1
  S  S32  1  -0.00000000  0.33811199  0.84316553  1
  S  S33  1  -0.00000000  0.83811199  0.15683447  1
  S  S34  1  0.00000000  0.71435223  0.96917507  1
  S  S35  1  -0.00000000  0.21435223  0.03082493  1
  S  S36  1  -0.00000000  0.80433611  0.36126939  1
  S  S37  1  -0.00000000  0.30433611  0.63873061  1
  S  S38  1  -0.00000000  0.60148125  0.67638633  1
  S  S39  1  0.00000000  0.10148125  0.32361367  1
