# generated using pymatgen
data_K7Bi2P6(W2O17)2
_symmetry_space_group_name_H-M   'P 1'
_cell_length_a   9.60348972
_cell_length_b   9.85676978
_cell_length_c   18.02163975
_cell_angle_alpha   89.98262320
_cell_angle_beta   103.18908247
_cell_angle_gamma   90.32349637
_symmetry_Int_Tables_number   1
_chemical_formula_structural   K7Bi2P6(W2O17)2
_chemical_formula_sum   'K14 Bi4 P12 W8 O68'
_cell_volume   1660.89204188
_cell_formula_units_Z   2
loop_
 _symmetry_equiv_pos_site_id
 _symmetry_equiv_pos_as_xyz
  1  'x, y, z'
loop_
 _atom_site_type_symbol
 _atom_site_label
 _atom_site_symmetry_multiplicity
 _atom_site_fract_x
 _atom_site_fract_y
 _atom_site_fract_z
 _atom_site_occupancy
  K  K0  1  0.17169219  0.17005692  0.50652105  1
  K  K1  1  0.82830781  0.82994308  0.49347895  1
  K  K2  1  0.60525618  0.01425022  0.72191033  1
  K  K3  1  0.39474382  0.98574978  0.27808967  1
  K  K4  1  0.66805441  0.33137304  0.49664618  1
  K  K5  1  0.33194559  0.66862696  0.50335382  1
  K  K6  1  0.11032916  0.50654372  0.71860766  1
  K  K7  1  0.88967084  0.49345628  0.28139234  1
  K  K8  1  0.00000000  0.50000000  0.50000000  1
  K  K9  1  0.98848657  0.87381538  0.10198818  1
  K  K10  1  0.01151343  0.12618462  0.89801182  1
  K  K11  1  0.49474835  0.67637934  0.09309004  1
  K  K12  1  0.50525165  0.32362066  0.90690996  1
  K  K13  1  0.50000000  -0.00000000  0.50000000  1
  Bi  Bi14  1  0.63192377  0.11418552  0.11296631  1
  Bi  Bi15  1  0.36807623  0.88581448  0.88703369  1
  Bi  Bi16  1  0.17971044  0.35243821  0.11005983  1
  Bi  Bi17  1  0.82028956  0.64756179  0.88994017  1
  P  P18  1  0.03961903  0.15416215  0.24657876  1
  P  P19  1  0.96038097  0.84583785  0.75342124  1
  P  P20  1  0.82456574  0.42867768  0.05136873  1
  P  P21  1  0.17543426  0.57132232  0.94863127  1
  P  P22  1  0.21343388  0.63699781  0.23900443  1
  P  P23  1  0.78656612  0.36300219  0.76099557  1
  P  P24  1  0.25728642  0.15885400  0.76116076  1
  P  P25  1  0.74271358  0.84114600  0.23883924  1
  P  P26  1  0.51871130  0.32284903  0.23947383  1
  P  P27  1  0.48128870  0.67715097  0.76052617  1
  P  P28  1  0.32620407  0.06914265  0.03980148  1
  P  P29  1  0.67379593  0.93085735  0.96019852  1
  W  W30  1  0.79130156  0.12751879  0.35160226  1
  W  W31  1  0.20869844  0.87248121  0.64839774  1
  W  W32  1  0.08174873  0.86959469  0.35432827  1
  W  W33  1  0.91825127  0.13040531  0.64567173  1
  W  W34  1  0.29405548  0.36714944  0.36064642  1
  W  W35  1  0.70594452  0.63285056  0.63935358  1
  W  W36  1  0.43617387  0.36920448  0.66696074  1
  W  W37  1  0.56382613  0.63079552  0.33303926  1
  O  O38  1  0.12795557  0.65149812  0.15764132  1
  O  O39  1  0.87204443  0.34850188  0.84235868  1
  O  O40  1  0.47846293  0.21812722  0.62217847  1
  O  O41  1  0.52153707  0.78187278  0.37782153  1
  O  O42  1  0.37290684  0.30804960  0.26247787  1
  O  O43  1  0.62709316  0.69195040  0.73752213  1
  O  O44  1  0.71743626  0.31785347  0.06461713  1
  O  O45  1  0.28256374  0.68214653  0.93538287  1
  O  O46  1  0.96402295  0.36716618  0.03592381  1
  O  O47  1  0.03597705  0.63283382  0.96407619  1
  O  O48  1  0.35867658  0.28107337  0.75178548  1
  O  O49  1  0.64132342  0.71892663  0.24821452  1
  O  O50  1  0.39897994  0.23953659  0.41850396  1
  O  O51  1  0.60102006  0.76046341  0.58149604  1
  O  O52  1  0.26478852  0.40557165  0.60660603  1
  O  O53  1  0.73521148  0.59442835  0.39339397  1
  O  O54  1  0.88081428  0.16989765  0.25127825  1
  O  O55  1  0.11918572  0.83010235  0.74872175  1
  O  O56  1  0.49170879  0.30148698  0.15322802  1
  O  O57  1  0.50829121  0.69851302  0.84677198  1
  O  O58  1  0.30247653  0.03875502  0.71705674  1
  O  O59  1  0.69752347  0.96124498  0.28294326  1
  O  O60  1  0.95493299  0.00766346  0.38303123  1
  O  O61  1  0.04506701  0.99233654  0.61696877  1
  O  O62  1  0.61680839  0.20618199  0.28082249  1
  O  O63  1  0.38319161  0.79381801  0.71917751  1
  O  O64  1  0.74351623  0.04054085  0.01898322  1
  O  O65  1  0.25648377  0.95945915  0.98101678  1
  O  O66  1  0.39934576  0.01002822  0.11880111  1
  O  O67  1  0.60065424  0.98997178  0.88119889  1
  O  O68  1  0.69969821  0.07695988  0.42310980  1
  O  O69  1  0.30030179  0.92304012  0.57689020  1
  O  O70  1  0.18207717  0.75202982  0.29359716  1
  O  O71  1  0.81792283  0.24797018  0.70640284  1
  O  O72  1  0.05803821  0.19942795  0.16854847  1
  O  O73  1  0.94196179  0.80057205  0.83145153  1
  O  O74  1  0.08546294  0.00378285  0.25815241  1
  O  O75  1  0.91453706  0.99621715  0.74184759  1
  O  O76  1  0.13357731  0.24076193  0.31289771  1
  O  O77  1  0.86642269  0.75923807  0.68710229  1
  O  O78  1  0.44585702  0.50505412  0.37788378  1
  O  O79  1  0.55414298  0.49494588  0.62211622  1
  O  O80  1  0.59331529  0.45854622  0.26475435  1
  O  O81  1  0.40668471  0.54145378  0.73524565  1
  O  O82  1  0.17794092  0.49928783  0.27295483  1
  O  O83  1  0.82205908  0.50071217  0.72704517  1
  O  O84  1  0.20083025  0.16918668  0.04264782  1
  O  O85  1  0.79916975  0.83081332  0.95735218  1
  O  O86  1  0.25110137  0.48617331  0.01801062  1
  O  O87  1  0.74889863  0.51382669  0.98198938  1
  O  O88  1  0.37578873  0.64805320  0.24148334  1
  O  O89  1  0.62421127  0.35194680  0.75851666  1
  O  O90  1  0.27942240  0.12520295  0.84569864  1
  O  O91  1  0.72057760  0.87479705  0.15430136  1
  O  O92  1  0.19945118  0.43548779  0.42685617  1
  O  O93  1  0.80054882  0.56451221  0.57314383  1
  O  O94  1  0.45026247  0.14407989  0.01183593  1
  O  O95  1  0.54973753  0.85592011  0.98816407  1
  O  O96  1  0.13181073  0.71539872  0.60836660  1
  O  O97  1  0.86818927  0.28460128  0.39163340  1
  O  O98  1  0.75633017  0.05126791  0.59532939  1
  O  O99  1  0.24366983  0.94873209  0.40467061  1
  O  O100  1  0.05573190  0.74399040  0.42199853  1
  O  O101  1  0.94426810  0.25600960  0.57800147  1
  O  O102  1  0.10289470  0.20430257  0.72542286  1
  O  O103  1  0.89710530  0.79569743  0.27457714  1
  O  O104  1  0.14954317  0.49195211  0.87240793  1
  O  O105  1  0.85045683  0.50804789  0.12759207  1
