# generated using pymatgen
data_Zr2Co3Mo
_symmetry_space_group_name_H-M   'P 1'
_cell_length_a   5.05449858
_cell_length_b   5.05544672
_cell_length_c   8.03945634
_cell_angle_alpha   90.00000000
_cell_angle_beta   90.00000000
_cell_angle_gamma   59.99380139
_symmetry_Int_Tables_number   1
_chemical_formula_structural   Zr2Co3Mo
_chemical_formula_sum   'Zr4 Co6 Mo2'
_cell_volume   177.89666204
_cell_formula_units_Z   2
loop_
 _symmetry_equiv_pos_site_id
 _symmetry_equiv_pos_as_xyz
  1  'x, y, z'
loop_
 _atom_site_type_symbol
 _atom_site_label
 _atom_site_symmetry_multiplicity
 _atom_site_fract_x
 _atom_site_fract_y
 _atom_site_fract_z
 _atom_site_occupancy
  Zr  Zr0  1  0.33335784  0.33332108  0.56271143  1
  Zr  Zr1  1  0.66664216  0.66667892  0.43728857  1
  Zr  Zr2  1  0.66664216  0.66667892  0.06271143  1
  Zr  Zr3  1  0.33335784  0.33332108  0.93728857  1
  Co  Co4  1  0.82822132  0.34356096  0.75000000  1
  Co  Co5  1  0.34357090  0.82821455  0.75000000  1
  Co  Co6  1  0.82822132  0.82821771  0.75000000  1
  Co  Co7  1  0.17177868  0.65643904  0.25000000  1
  Co  Co8  1  0.65642910  0.17178545  0.25000000  1
  Co  Co9  1  0.17177868  0.17178229  0.25000000  1
  Mo  Mo10  1  0.00000000  0.00000000  0.50000000  1
  Mo  Mo11  1  0.00000000  0.00000000  -0.00000000  1
