# generated using pymatgen
data_AgW6CCl18
_symmetry_space_group_name_H-M   'P 1'
_cell_length_a   9.09063454
_cell_length_b   9.09063455
_cell_length_c   17.79981869
_cell_angle_alpha   90.00000000
_cell_angle_beta   90.00000000
_cell_angle_gamma   120.00000462
_symmetry_Int_Tables_number   1
_chemical_formula_structural   AgW6CCl18
_chemical_formula_sum   'Ag2 W12 C2 Cl36'
_cell_volume   1273.89780080
_cell_formula_units_Z   2
loop_
 _symmetry_equiv_pos_site_id
 _symmetry_equiv_pos_as_xyz
  1  'x, y, z'
loop_
 _atom_site_type_symbol
 _atom_site_label
 _atom_site_symmetry_multiplicity
 _atom_site_fract_x
 _atom_site_fract_y
 _atom_site_fract_z
 _atom_site_occupancy
  Ag  Ag0  1  -0.00000000  0.00000000  0.00000000  1
  Ag  Ag1  1  -0.00000000  0.00000000  0.50000000  1
  W  W2  1  0.82250000  0.30489036  0.83458384  1
  W  W3  1  0.17750000  0.69510964  0.16541616  1
  W  W4  1  0.48239036  0.17750000  0.83458384  1
  W  W5  1  0.17750000  0.69510964  0.33458384  1
  W  W6  1  0.51760964  0.82250000  0.16541616  1
  W  W7  1  0.82250000  0.30489036  0.66541616  1
  W  W8  1  0.69510964  0.51760964  0.83458384  1
  W  W9  1  0.51760964  0.82250000  0.33458384  1
  W  W10  1  0.30489036  0.48239036  0.16541616  1
  W  W11  1  0.48239036  0.17750000  0.66541616  1
  W  W12  1  0.30489036  0.48239036  0.33458384  1
  W  W13  1  0.69510964  0.51760964  0.66541616  1
  C  C14  1  0.66666700  0.33333300  0.75000000  1
  C  C15  1  0.33333300  0.66666700  0.25000000  1
  Cl  Cl16  1  0.80758291  0.08461159  0.75000000  1
  Cl  Cl17  1  0.19241709  0.91538841  0.25000000  1
  Cl  Cl18  1  0.27702867  0.19241709  0.75000000  1
  Cl  Cl19  1  0.72297133  0.80758291  0.25000000  1
  Cl  Cl20  1  0.91538841  0.72297133  0.75000000  1
  Cl  Cl21  1  0.08461159  0.27702867  0.25000000  1
  Cl  Cl22  1  0.73234368  0.77265102  0.90052824  1
  Cl  Cl23  1  0.26765632  0.22734898  0.09947176  1
  Cl  Cl24  1  0.04030734  0.26765632  0.90052824  1
  Cl  Cl25  1  0.26765632  0.22734898  0.40052824  1
  Cl  Cl26  1  0.95969266  0.73234368  0.09947176  1
  Cl  Cl27  1  0.73234368  0.77265102  0.59947176  1
  Cl  Cl28  1  0.22734898  0.95969266  0.90052824  1
  Cl  Cl29  1  0.95969266  0.73234368  0.40052824  1
  Cl  Cl30  1  0.77265102  0.04030734  0.09947176  1
  Cl  Cl31  1  0.04030734  0.26765632  0.59947176  1
  Cl  Cl32  1  0.77265102  0.04030734  0.40052824  1
  Cl  Cl33  1  0.22734898  0.95969266  0.59947176  1
  Cl  Cl34  1  0.51266961  0.57234070  0.75000000  1
  Cl  Cl35  1  0.48733039  0.42765930  0.25000000  1
  Cl  Cl36  1  0.05967109  0.48733039  0.75000000  1
  Cl  Cl37  1  0.94032891  0.51266961  0.25000000  1
  Cl  Cl38  1  0.42765930  0.94032891  0.75000000  1
  Cl  Cl39  1  0.57234070  0.05967109  0.25000000  1
  Cl  Cl40  1  0.63204723  0.10743169  0.92618993  1
  Cl  Cl41  1  0.36795277  0.89256831  0.07381007  1
  Cl  Cl42  1  0.47538446  0.36795277  0.92618993  1
  Cl  Cl43  1  0.36795277  0.89256831  0.42618993  1
  Cl  Cl44  1  0.52461554  0.63204723  0.07381007  1
  Cl  Cl45  1  0.63204723  0.10743169  0.57381007  1
  Cl  Cl46  1  0.89256831  0.52461554  0.92618993  1
  Cl  Cl47  1  0.52461554  0.63204723  0.42618993  1
  Cl  Cl48  1  0.10743169  0.47538446  0.07381007  1
  Cl  Cl49  1  0.47538446  0.36795277  0.57381007  1
  Cl  Cl50  1  0.10743169  0.47538446  0.42618993  1
  Cl  Cl51  1  0.89256831  0.52461554  0.57381007  1
