# generated using pymatgen
data_Zn4Si2H2O9
_symmetry_space_group_name_H-M   'P 1'
_cell_length_a   5.20012663
_cell_length_b   7.34845688
_cell_length_c   7.34845688
_cell_angle_alpha   82.96740589
_cell_angle_beta   110.56784837
_cell_angle_gamma   69.43215163
_symmetry_Int_Tables_number   1
_chemical_formula_structural   Zn4Si2H2O9
_chemical_formula_sum   'Zn4 Si2 H2 O9'
_cell_volume   236.26795677
_cell_formula_units_Z   1
loop_
 _symmetry_equiv_pos_site_id
 _symmetry_equiv_pos_as_xyz
  1  'x, y, z'
loop_
 _atom_site_type_symbol
 _atom_site_label
 _atom_site_symmetry_multiplicity
 _atom_site_fract_x
 _atom_site_fract_y
 _atom_site_fract_z
 _atom_site_occupancy
  Zn  Zn0  1  0.78872621  0.36837149  0.94473824  1
  Zn  Zn1  1  0.20002454  0.63243083  0.04587097  1
  Zn  Zn2  1  0.20002454  0.95412903  0.36756917  1
  Zn  Zn3  1  0.78872621  0.05526176  0.63162851  1
  Si  Si4  1  0.50554685  0.14463211  0.14176044  1
  Si  Si5  1  0.50554685  0.85823956  0.85536789  1
  H  H6  1  0.59375195  0.43390675  0.56609325  1
  H  H7  1  0.58049310  0.67233112  0.32766888  1
  O  O8  1  0.19176710  0.16258367  0.15773628  1
  O  O9  1  0.19176710  0.84226372  0.83741633  1
  O  O10  1  0.47558654  0.36753833  0.04224303  1
  O  O11  1  0.79487968  0.63380464  0.96472970  1
  O  O12  1  0.79487968  0.03527030  0.36619536  1
  O  O13  1  0.47558654  0.95775697  0.63246167  1
  O  O14  1  0.73224057  0.31576018  0.68423982  1
  O  O15  1  0.37895035  0.68713617  0.31286383  1
  O  O16  1  0.59620220  0.99958337  0.00041663  1
