# generated using pymatgen
data_Ba3Nd(BO2)9
_symmetry_space_group_name_H-M   'P 1'
_cell_length_a   7.32404771
_cell_length_b   7.32404771
_cell_length_c   17.78722372
_cell_angle_alpha   90.00000000
_cell_angle_beta   90.00000000
_cell_angle_gamma   119.99999958
_symmetry_Int_Tables_number   1
_chemical_formula_structural   Ba3Nd(BO2)9
_chemical_formula_sum   'Ba6 Nd2 B18 O36'
_cell_volume   826.30642722
_cell_formula_units_Z   2
loop_
 _symmetry_equiv_pos_site_id
 _symmetry_equiv_pos_as_xyz
  1  'x, y, z'
loop_
 _atom_site_type_symbol
 _atom_site_label
 _atom_site_symmetry_multiplicity
 _atom_site_fract_x
 _atom_site_fract_y
 _atom_site_fract_z
 _atom_site_occupancy
  Ba  Ba0  1  0.66666700  0.33333300  0.86478905  1
  Ba  Ba1  1  0.33333300  0.66666700  0.13521095  1
  Ba  Ba2  1  0.33333300  0.66666700  0.36478905  1
  Ba  Ba3  1  0.66666700  0.33333300  0.63521095  1
  Ba  Ba4  1  -0.00000000  -0.00000000  0.75000000  1
  Ba  Ba5  1  -0.00000000  -0.00000000  0.25000000  1
  Nd  Nd6  1  -0.00000000  -0.00000000  -0.00000000  1
  Nd  Nd7  1  -0.00000000  -0.00000000  0.50000000  1
  B  B8  1  0.54732931  0.83629660  0.91709884  1
  B  B9  1  0.45267069  0.16370340  0.08290116  1
  B  B10  1  0.28896729  0.45267069  0.91709884  1
  B  B11  1  0.45267069  0.16370340  0.41709884  1
  B  B12  1  0.71103271  0.54732931  0.08290116  1
  B  B13  1  0.54732931  0.83629660  0.58290116  1
  B  B14  1  0.16370340  0.71103271  0.91709884  1
  B  B15  1  0.71103271  0.54732931  0.41709884  1
  B  B16  1  0.83629660  0.28896729  0.08290116  1
  B  B17  1  0.28896729  0.45267069  0.58290116  1
  B  B18  1  0.83629660  0.28896729  0.41709884  1
  B  B19  1  0.16370340  0.71103271  0.58290116  1
  B  B20  1  0.50378179  0.62221932  0.75000000  1
  B  B21  1  0.49621821  0.37778068  0.25000000  1
  B  B22  1  0.11843753  0.49621821  0.75000000  1
  B  B23  1  0.88156247  0.50378179  0.25000000  1
  B  B24  1  0.37778068  0.88156247  0.75000000  1
  B  B25  1  0.62221932  0.11843753  0.25000000  1
  O  O26  1  0.54049470  0.83162336  0.75000000  1
  O  O27  1  0.45950530  0.16837664  0.25000000  1
  O  O28  1  0.29112866  0.45950530  0.75000000  1
  O  O29  1  0.70887134  0.54049470  0.25000000  1
  O  O30  1  0.16837664  0.70887134  0.75000000  1
  O  O31  1  0.83162336  0.29112866  0.25000000  1
  O  O32  1  0.92188814  0.33469262  0.75000000  1
  O  O33  1  0.07811186  0.66530738  0.25000000  1
  O  O34  1  0.41280448  0.07811186  0.75000000  1
  O  O35  1  0.58719552  0.92188814  0.25000000  1
  O  O36  1  0.66530738  0.58719552  0.75000000  1
  O  O37  1  0.33469262  0.41280448  0.25000000  1
  O  O38  1  0.74444649  0.99782797  0.91607212  1
  O  O39  1  0.25555351  0.00217203  0.08392788  1
  O  O40  1  0.25338148  0.25555351  0.91607212  1
  O  O41  1  0.25555351  0.00217203  0.41607212  1
  O  O42  1  0.74661852  0.74444649  0.08392788  1
  O  O43  1  0.74444649  0.99782797  0.58392788  1
  O  O44  1  0.00217203  0.74661852  0.91607212  1
  O  O45  1  0.74661852  0.74444649  0.41607212  1
  O  O46  1  0.99782797  0.25338148  0.08392788  1
  O  O47  1  0.25338148  0.25555351  0.58392788  1
  O  O48  1  0.99782797  0.25338148  0.41607212  1
  O  O49  1  0.00217203  0.74661852  0.58392788  1
  O  O50  1  0.49798425  0.62389814  0.91791158  1
  O  O51  1  0.50201575  0.37610186  0.08208842  1
  O  O52  1  0.12591389  0.50201575  0.91791158  1
  O  O53  1  0.50201575  0.37610186  0.41791158  1
  O  O54  1  0.87408611  0.49798425  0.08208842  1
  O  O55  1  0.49798425  0.62389814  0.58208842  1
  O  O56  1  0.37610186  0.87408611  0.91791158  1
  O  O57  1  0.87408611  0.49798425  0.41791158  1
  O  O58  1  0.62389814  0.12591389  0.08208842  1
  O  O59  1  0.12591389  0.50201575  0.58208842  1
  O  O60  1  0.62389814  0.12591389  0.41791158  1
  O  O61  1  0.37610186  0.87408611  0.58208842  1
