# generated using pymatgen
data_Zn3Cr8FeS16
_symmetry_space_group_name_H-M   'P 1'
_cell_length_a   7.08612509
_cell_length_b   7.08612509
_cell_length_c   12.26538982
_cell_angle_alpha   73.20988500
_cell_angle_beta   90.00000000
_cell_angle_gamma   120.00000000
_symmetry_Int_Tables_number   1
_chemical_formula_structural   Zn3Cr8FeS16
_chemical_formula_sum   'Zn3 Cr8 Fe1 S16'
_cell_volume   502.82553931
_cell_formula_units_Z   1
loop_
 _symmetry_equiv_pos_site_id
 _symmetry_equiv_pos_as_xyz
  1  'x, y, z'
loop_
 _atom_site_type_symbol
 _atom_site_label
 _atom_site_symmetry_multiplicity
 _atom_site_fract_x
 _atom_site_fract_y
 _atom_site_fract_z
 _atom_site_occupancy
  Zn  Zn0  1  0.81252019  0.12504038  0.56243943  1
  Zn  Zn1  1  0.18752954  0.87505907  0.43741139  1
  Zn  Zn2  1  0.68744944  0.87489887  0.93765169  1
  Cr  Cr3  1  0.99940650  0.49881300  0.00178049  1
  Cr  Cr4  1  0.50007704  0.50015407  0.49976889  1
  Cr  Cr5  1  0.75112077  0.00224154  0.24911274  1
  Cr  Cr6  1  0.25041039  0.00082077  0.75036689  1
  Cr  Cr7  1  0.75112077  0.49976649  0.24911274  1
  Cr  Cr8  1  0.25041039  0.49922272  0.75036689  1
  Cr  Cr9  1  0.24864572  0.49976649  0.24911274  1
  Cr  Cr10  1  0.74881234  0.49922272  0.75036689  1
  Fe  Fe11  1  0.31249465  0.12498931  0.06251604  1
  S  S12  1  0.88022824  0.26045648  0.35931528  1
  S  S13  1  0.37909169  0.25818339  0.86272492  1
  S  S14  1  0.11290705  0.72581411  0.12905603  1
  S  S15  1  0.60936572  0.71873143  0.63021252  1
  S  S16  1  0.11290705  0.25803691  0.12905603  1
  S  S17  1  0.60936572  0.26042176  0.63021252  1
  S  S18  1  0.64512986  0.25803691  0.12905603  1
  S  S19  1  0.15105605  0.26042176  0.63021252  1
  S  S20  1  0.61967606  0.73935213  0.14097181  1
  S  S21  1  0.11971716  0.73943432  0.64084852  1
  S  S22  1  0.39090007  0.28180013  0.36961468  1
  S  S23  1  0.89094715  0.28189429  0.86982765  1
  S  S24  1  0.39090007  0.73948525  0.36961468  1
  S  S25  1  0.89094715  0.73922521  0.86982765  1
  S  S26  1  0.84858519  0.73948525  0.36961468  1
  S  S27  1  0.34827806  0.73922521  0.86982765  1
