# generated using pymatgen
data_Al2P3H12(NO4)3
_symmetry_space_group_name_H-M   'P 1'
_cell_length_a   8.53974694
_cell_length_b   8.53974694
_cell_length_c   8.92628996
_cell_angle_alpha   73.24666835
_cell_angle_beta   73.24666835
_cell_angle_gamma   74.91862586
_symmetry_Int_Tables_number   1
_chemical_formula_structural   Al2P3H12(NO4)3
_chemical_formula_sum   'Al4 P6 H24 N6 O24'
_cell_volume   585.64171068
_cell_formula_units_Z   2
loop_
 _symmetry_equiv_pos_site_id
 _symmetry_equiv_pos_as_xyz
  1  'x, y, z'
loop_
 _atom_site_type_symbol
 _atom_site_label
 _atom_site_symmetry_multiplicity
 _atom_site_fract_x
 _atom_site_fract_y
 _atom_site_fract_z
 _atom_site_occupancy
  Al  Al0  1  0.24643302  0.08902340  0.91610069  1
  Al  Al1  1  0.75356698  0.91097660  0.08389931  1
  Al  Al2  1  0.91097660  0.75356698  0.58389931  1
  Al  Al3  1  0.08902340  0.24643302  0.41610069  1
  P  P4  1  0.58176979  0.82896963  0.84407767  1
  P  P5  1  0.41823021  0.17103037  0.15592233  1
  P  P6  1  0.17103037  0.41823021  0.65592233  1
  P  P7  1  0.82896963  0.58176979  0.34407767  1
  P  P8  1  0.00644217  0.99355783  0.75000000  1
  P  P9  1  0.99355783  0.00644217  0.25000000  1
  H  H10  1  0.53075002  0.77507920  0.51749635  1
  H  H11  1  0.46924998  0.22492080  0.48250365  1
  H  H12  1  0.22492080  0.46924998  0.98250365  1
  H  H13  1  0.77507920  0.53075002  0.01749635  1
  H  H14  1  0.48773366  0.41904037  0.70767230  1
  H  H15  1  0.51226634  0.58095963  0.29232770  1
  H  H16  1  0.58095963  0.51226634  0.79232770  1
  H  H17  1  0.41904037  0.48773366  0.20767230  1
  H  H18  1  0.35371015  0.87015561  0.63018100  1
  H  H19  1  0.64628985  0.12984439  0.36981900  1
  H  H20  1  0.12984439  0.64628985  0.86981900  1
  H  H21  1  0.87015561  0.35371015  0.13018100  1
  H  H22  1  0.60496824  0.30077853  0.84297743  1
  H  H23  1  0.39503176  0.69922147  0.15702257  1
  H  H24  1  0.69922147  0.39503176  0.65702257  1
  H  H25  1  0.30077853  0.60496824  0.34297743  1
  H  H26  1  0.37129423  0.89373329  0.43348371  1
  H  H27  1  0.62870577  0.10626671  0.56651629  1
  H  H28  1  0.10626671  0.62870577  0.06651629  1
  H  H29  1  0.89373329  0.37129423  0.93348371  1
  H  H30  1  0.35094313  0.70204401  0.56694528  1
  H  H31  1  0.64905687  0.29795599  0.43305472  1
  H  H32  1  0.29795599  0.64905687  0.93305472  1
  H  H33  1  0.70204401  0.35094313  0.06694528  1
  N  N34  1  0.59652536  0.40347464  0.75000000  1
  N  N35  1  0.40347464  0.59652536  0.25000000  1
  N  N36  1  0.40259227  0.81063673  0.53540072  1
  N  N37  1  0.59740773  0.18936327  0.46459928  1
  N  N38  1  0.18936327  0.59740773  0.96459928  1
  N  N39  1  0.81063673  0.40259227  0.03540072  1
  O  O40  1  0.66905960  0.78967810  0.98404070  1
  O  O41  1  0.33094040  0.21032190  0.01595930  1
  O  O42  1  0.21032190  0.33094040  0.51595930  1
  O  O43  1  0.78967810  0.66905960  0.48404070  1
  O  O44  1  0.49684295  0.68259990  0.86851708  1
  O  O45  1  0.50315705  0.31740010  0.13148292  1
  O  O46  1  0.31740010  0.50315705  0.63148292  1
  O  O47  1  0.68259990  0.49684295  0.36851708  1
  O  O48  1  0.17292603  0.98070649  0.79369659  1
  O  O49  1  0.82707397  0.01929351  0.20630341  1
  O  O50  1  0.01929351  0.82707397  0.70630341  1
  O  O51  1  0.98070649  0.17292603  0.29369659  1
  O  O52  1  0.45630945  0.99711696  0.83299755  1
  O  O53  1  0.54369055  0.00288304  0.16700245  1
  O  O54  1  0.00288304  0.54369055  0.66700245  1
  O  O55  1  0.99711696  0.45630945  0.33299755  1
  O  O56  1  0.85785955  0.02480249  0.89374047  1
  O  O57  1  0.14214045  0.97519751  0.10625953  1
  O  O58  1  0.97519751  0.14214045  0.60625953  1
  O  O59  1  0.02480249  0.85785955  0.39374047  1
  O  O60  1  0.70950339  0.85677858  0.67890764  1
  O  O61  1  0.29049661  0.14322142  0.32109236  1
  O  O62  1  0.14322142  0.29049661  0.82109236  1
  O  O63  1  0.85677858  0.70950339  0.17890764  1
