# generated using pymatgen
data_CeSBr
_symmetry_space_group_name_H-M   'P 1'
_cell_length_a   6.95435908
_cell_length_b   7.17315176
_cell_length_c   13.75517172
_cell_angle_alpha   90.00000000
_cell_angle_beta   90.00000000
_cell_angle_gamma   90.00000000
_symmetry_Int_Tables_number   1
_chemical_formula_structural   CeSBr
_chemical_formula_sum   'Ce8 S8 Br8'
_cell_volume   686.17224433
_cell_formula_units_Z   8
loop_
 _symmetry_equiv_pos_site_id
 _symmetry_equiv_pos_as_xyz
  1  'x, y, z'
loop_
 _atom_site_type_symbol
 _atom_site_label
 _atom_site_symmetry_multiplicity
 _atom_site_fract_x
 _atom_site_fract_y
 _atom_site_fract_z
 _atom_site_occupancy
  Ce  Ce0  1  0.74086422  0.53252860  0.59062728  1
  Ce  Ce1  1  0.25913578  0.46747140  0.40937272  1
  Ce  Ce2  1  0.75913578  0.03252860  0.40937272  1
  Ce  Ce3  1  0.25913578  0.96747140  0.09062728  1
  Ce  Ce4  1  0.24086422  0.96747140  0.59062728  1
  Ce  Ce5  1  0.74086422  0.03252860  0.90937272  1
  Ce  Ce6  1  0.24086422  0.46747140  0.90937272  1
  Ce  Ce7  1  0.75913578  0.53252860  0.09062728  1
  S  S8  1  0.00097202  0.75826176  0.97452162  1
  S  S9  1  0.99902798  0.24173824  0.02547838  1
  S  S10  1  0.49902798  0.25826176  0.02547838  1
  S  S11  1  0.99902798  0.74173824  0.47452162  1
  S  S12  1  0.50097202  0.74173824  0.97452162  1
  S  S13  1  0.00097202  0.25826176  0.52547838  1
  S  S14  1  0.50097202  0.24173824  0.52547838  1
  S  S15  1  0.49902798  0.75826176  0.47452162  1
  Br  Br16  1  0.81897198  0.90176266  0.70115106  1
  Br  Br17  1  0.18102802  0.09823734  0.29884894  1
  Br  Br18  1  0.68102802  0.40176266  0.29884894  1
  Br  Br19  1  0.18102802  0.59823734  0.20115106  1
  Br  Br20  1  0.31897198  0.59823734  0.70115106  1
  Br  Br21  1  0.81897198  0.40176266  0.79884894  1
  Br  Br22  1  0.31897198  0.09823734  0.79884894  1
  Br  Br23  1  0.68102802  0.90176266  0.20115106  1
