# generated using pymatgen
data_Yb3Y(Si2O7)2
_symmetry_space_group_name_H-M   'P 1'
_cell_length_a   4.86256093
_cell_length_b   5.75043779
_cell_length_c   11.30406998
_cell_angle_alpha   77.45644773
_cell_angle_beta   100.69263749
_cell_angle_gamma   97.03938480
_symmetry_Int_Tables_number   1
_chemical_formula_structural   Yb3Y(Si2O7)2
_chemical_formula_sum   'Yb3 Y1 Si4 O14'
_cell_volume   302.06411493
_cell_formula_units_Z   1
loop_
 _symmetry_equiv_pos_site_id
 _symmetry_equiv_pos_as_xyz
  1  'x, y, z'
loop_
 _atom_site_type_symbol
 _atom_site_label
 _atom_site_symmetry_multiplicity
 _atom_site_fract_x
 _atom_site_fract_y
 _atom_site_fract_z
 _atom_site_occupancy
  Yb  Yb0  1  0.99849000  0.03912941  0.65343921  1
  Yb  Yb1  1  0.99814973  0.96030618  0.34671494  1
  Yb  Yb2  1  0.00082488  0.46010692  0.84659485  1
  Y  Y3  1  0.00064032  0.53894356  0.15374318  1
  Si  Si4  1  0.39937329  0.10890290  0.10922312  1
  Si  Si5  1  0.40679144  0.60832091  0.60803243  1
  Si  Si6  1  0.59632687  0.39080786  0.38989021  1
  Si  Si7  1  0.60057357  0.89147516  0.89290610  1
  O  O8  1  0.49565546  0.00271935  0.99885956  1
  O  O9  1  0.50460227  0.50379118  0.49871827  1
  O  O10  1  0.21961007  0.89209114  0.18849616  1
  O  O11  1  0.21948024  0.40090870  0.68853274  1
  O  O12  1  0.21728415  0.33815418  0.04744870  1
  O  O13  1  0.22101235  0.83365272  0.54496785  1
  O  O14  1  0.78167247  0.59827996  0.30724530  1
  O  O15  1  0.78066243  0.10017502  0.81021883  1
  O  O16  1  0.77433576  0.16235838  0.45526355  1
  O  O17  1  0.78415424  0.66584683  0.96034361  1
  O  O18  1  0.70599377  0.18930860  0.18552134  1
  O  O19  1  0.70699821  0.68638480  0.68838965  1
  O  O20  1  0.29018948  0.31602677  0.31156043  1
  O  O21  1  0.29717902  0.81230948  0.81388998  1
