# generated using pymatgen
data_Y2Mn3Sb3O14
_symmetry_space_group_name_H-M   'P 1'
_cell_length_a   7.37768502
_cell_length_b   7.29257405
_cell_length_c   7.35239983
_cell_angle_alpha   90.00000000
_cell_angle_beta   60.11330804
_cell_angle_gamma   121.28528153
_symmetry_Int_Tables_number   1
_chemical_formula_structural   Y2Mn3Sb3O14
_chemical_formula_sum   'Y2 Mn3 Sb3 O14'
_cell_volume   274.64455341
_cell_formula_units_Z   1
loop_
 _symmetry_equiv_pos_site_id
 _symmetry_equiv_pos_as_xyz
  1  'x, y, z'
loop_
 _atom_site_type_symbol
 _atom_site_label
 _atom_site_symmetry_multiplicity
 _atom_site_fract_x
 _atom_site_fract_y
 _atom_site_fract_z
 _atom_site_occupancy
  Y  Y0  1  -0.00000000  -0.00000000  0.50000000  1
  Y  Y1  1  -0.00000000  -0.00000000  0.00000000  1
  Mn  Mn2  1  0.50000000  -0.00000000  0.50000000  1
  Mn  Mn3  1  0.50000000  0.50000000  0.00000000  1
  Mn  Mn4  1  0.50000000  -0.00000000  0.00000000  1
  Sb  Sb5  1  0.50000000  0.50000000  0.50000000  1
  Sb  Sb6  1  -0.00000000  0.50000000  0.00000000  1
  Sb  Sb7  1  -0.00000000  0.50000000  0.50000000  1
  O  O8  1  0.26504508  0.13574336  0.11747746  1
  O  O9  1  0.73495492  0.86425664  0.88252254  1
  O  O10  1  0.68305456  0.83108519  0.40847272  1
  O  O11  1  0.84227025  0.41541958  0.82886487  1
  O  O12  1  0.24575418  0.83255716  0.82712280  1
  O  O13  1  0.25013182  0.42422257  0.42057487  1
  O  O14  1  0.25013182  0.42422257  0.82929331  1
  O  O15  1  0.24575418  0.83255716  0.42712302  1
  O  O16  1  0.31694544  0.16891481  0.59152728  1
  O  O17  1  0.15772975  0.58458042  0.17113513  1
  O  O18  1  0.75424582  0.16744284  0.17287720  1
  O  O19  1  0.74986818  0.57577743  0.57942513  1
  O  O20  1  0.74986818  0.57577743  0.17070669  1
  O  O21  1  0.75424582  0.16744284  0.57287698  1
