# generated using pymatgen
data_YAl7Fe5
_symmetry_space_group_name_H-M   'P 1'
_cell_length_a   5.02765851
_cell_length_b   6.60520153
_cell_length_c   6.60520153
_cell_angle_alpha   98.34696815
_cell_angle_beta   112.36981701
_cell_angle_gamma   67.63018299
_symmetry_Int_Tables_number   1
_chemical_formula_structural   YAl7Fe5
_chemical_formula_sum   'Y1 Al7 Fe5'
_cell_volume   187.57865604
_cell_formula_units_Z   1
loop_
 _symmetry_equiv_pos_site_id
 _symmetry_equiv_pos_as_xyz
  1  'x, y, z'
loop_
 _atom_site_type_symbol
 _atom_site_label
 _atom_site_symmetry_multiplicity
 _atom_site_fract_x
 _atom_site_fract_y
 _atom_site_fract_z
 _atom_site_occupancy
  Y  Y0  1  0.00445522  0.99554478  0.00445522  1
  Al  Al1  1  0.65960252  0.34039748  0.65960252  1
  Al  Al2  1  0.33727177  0.66272823  0.33727177  1
  Al  Al3  1  0.99129224  0.35197920  0.33456369  1
  Al  Al4  1  0.99129224  0.66543631  0.64802080  1
  Al  Al5  1  0.27701430  0.22298570  0.77701430  1
  Al  Al6  1  0.50452515  0.78397449  0.79302479  1
  Al  Al7  1  0.50452515  0.20697521  0.21602551  1
  Fe  Fe8  1  0.49696578  0.00150425  0.49932866  1
  Fe  Fe9  1  0.00085863  0.00150425  0.49932866  1
  Fe  Fe10  1  0.49696578  0.50067134  0.99849575  1
  Fe  Fe11  1  0.00085863  0.50067134  0.99849575  1
  Fe  Fe12  1  0.73437257  0.76562743  0.23437257  1
