# generated using pymatgen
data_Y4Ti3SnO14
_symmetry_space_group_name_H-M   'P 1'
_cell_length_a   7.25960444
_cell_length_b   7.25960444
_cell_length_c   7.26399017
_cell_angle_alpha   90.00000000
_cell_angle_beta   60.01997031
_cell_angle_gamma   120.00000000
_symmetry_Int_Tables_number   1
_chemical_formula_structural   Y4Ti3SnO14
_chemical_formula_sum   'Y4 Ti3 Sn1 O14'
_cell_volume   270.78037902
_cell_formula_units_Z   1
loop_
 _symmetry_equiv_pos_site_id
 _symmetry_equiv_pos_as_xyz
  1  'x, y, z'
loop_
 _atom_site_type_symbol
 _atom_site_label
 _atom_site_symmetry_multiplicity
 _atom_site_fract_x
 _atom_site_fract_y
 _atom_site_fract_z
 _atom_site_occupancy
  Y  Y0  1  0.75000000  0.37500000  0.87500000  1
  Y  Y1  1  0.25000000  0.37500000  0.37500000  1
  Y  Y2  1  0.25000000  0.87500000  0.37500000  1
  Y  Y3  1  0.75000000  0.37500000  0.37500000  1
  Ti  Ti4  1  0.25000000  0.87500000  0.87500000  1
  Ti  Ti5  1  0.25000000  0.37500000  0.87500000  1
  Ti  Ti6  1  0.75000000  0.87500000  0.87500000  1
  Sn  Sn7  1  0.75000000  0.87500000  0.37500000  1
  O  O8  1  0.50196526  0.25098263  0.24705211  1
  O  O9  1  0.99803474  0.49901737  0.50294789  1
  O  O10  1  0.92673244  0.96336622  0.54288949  1
  O  O11  1  0.49374429  0.53037807  0.54288949  1
  O  O12  1  0.49374429  0.96336622  0.54288949  1
  O  O13  1  0.10056526  0.55028263  0.94399642  1
  O  O14  1  0.50572095  0.95543832  0.94399642  1
  O  O15  1  0.50572095  0.55028263  0.94399642  1
  O  O16  1  0.57326756  0.78663378  0.20711051  1
  O  O17  1  0.00625571  0.21962193  0.20711051  1
  O  O18  1  0.00625571  0.78663378  0.20711051  1
  O  O19  1  0.39943474  0.19971737  0.80600358  1
  O  O20  1  0.99427905  0.79456168  0.80600358  1
  O  O21  1  0.99427905  0.19971737  0.80600358  1
