# generated using pymatgen
data_YThRe4
_symmetry_space_group_name_H-M   'P 1'
_cell_length_a   5.41038089
_cell_length_b   5.41160188
_cell_length_c   9.18508255
_cell_angle_alpha   90.00000000
_cell_angle_beta   90.00868521
_cell_angle_gamma   59.99253447
_symmetry_Int_Tables_number   1
_chemical_formula_structural   YThRe4
_chemical_formula_sum   'Y2 Th2 Re8'
_cell_volume   232.88134091
_cell_formula_units_Z   2
loop_
 _symmetry_equiv_pos_site_id
 _symmetry_equiv_pos_as_xyz
  1  'x, y, z'
loop_
 _atom_site_type_symbol
 _atom_site_label
 _atom_site_symmetry_multiplicity
 _atom_site_fract_x
 _atom_site_fract_y
 _atom_site_fract_z
 _atom_site_occupancy
  Y  Y0  1  0.66664208  0.66667896  0.06277500  1
  Y  Y1  1  0.33335792  0.33332104  0.93722500  1
  Th  Th2  1  0.33333190  0.33333405  0.56019501  1
  Th  Th3  1  0.66666810  0.66666595  0.43980499  1
  Re  Re4  1  0.00000000  -0.00000000  0.50000000  1
  Re  Re5  1  0.00000000  -0.00000000  0.00000000  1
  Re  Re6  1  0.83002237  0.33992769  0.75772877  1
  Re  Re7  1  0.33984653  0.83007673  0.75772999  1
  Re  Re8  1  0.83002237  0.83004994  0.75772877  1
  Re  Re9  1  0.16997763  0.66007231  0.24227123  1
  Re  Re10  1  0.66015347  0.16992327  0.24227001  1
  Re  Re11  1  0.16997763  0.16995006  0.24227123  1
