# generated using pymatgen
data_EuEr
_symmetry_space_group_name_H-M   'P 1'
_cell_length_a   3.66010695
_cell_length_b   3.66009285
_cell_length_c   6.05402541
_cell_angle_alpha   89.99894448
_cell_angle_beta   90.00131332
_cell_angle_gamma   120.00031624
_symmetry_Int_Tables_number   1
_chemical_formula_structural   EuEr
_chemical_formula_sum   'Eu1 Er1'
_cell_volume   70.23593466
_cell_formula_units_Z   1
loop_
 _symmetry_equiv_pos_site_id
 _symmetry_equiv_pos_as_xyz
  1  'x, y, z'
loop_
 _atom_site_type_symbol
 _atom_site_label
 _atom_site_symmetry_multiplicity
 _atom_site_fract_x
 _atom_site_fract_y
 _atom_site_fract_z
 _atom_site_occupancy
  Eu  Eu0  1  0.33333238  0.66667581  0.24999861  1
  Er  Er1  1  0.66666962  0.33332319  0.75000239  1
