# generated using pymatgen
data_Y4Zr3O12
_symmetry_space_group_name_H-M   'P 1'
_cell_length_a   6.39378319
_cell_length_b   6.60818144
_cell_length_c   6.43417619
_cell_angle_alpha   99.80219382
_cell_angle_beta   99.60750713
_cell_angle_gamma   98.45709748
_symmetry_Int_Tables_number   1
_chemical_formula_structural   Y4Zr3O12
_chemical_formula_sum   'Y4 Zr3 O12'
_cell_volume   259.78233303
_cell_formula_units_Z   1
loop_
 _symmetry_equiv_pos_site_id
 _symmetry_equiv_pos_as_xyz
  1  'x, y, z'
loop_
 _atom_site_type_symbol
 _atom_site_label
 _atom_site_symmetry_multiplicity
 _atom_site_fract_x
 _atom_site_fract_y
 _atom_site_fract_z
 _atom_site_occupancy
  Y  Y0  1  0.30425195  0.60981100  0.13542990  1
  Y  Y1  1  0.61265272  0.13499246  0.30070414  1
  Y  Y2  1  0.69574805  0.39018900  0.86457010  1
  Y  Y3  1  0.38734728  0.86500754  0.69929586  1
  Zr  Zr4  1  0.00000000  0.00000000  0.00000000  1
  Zr  Zr5  1  0.15043666  0.32861104  0.60338515  1
  Zr  Zr6  1  0.84956334  0.67138896  0.39661485  1
  O  O7  1  0.41327470  0.17917296  0.58192099  1
  O  O8  1  0.17237339  0.57369819  0.43011426  1
  O  O9  1  0.58975513  0.43526472  0.18809861  1
  O  O10  1  0.58672530  0.82082704  0.41807901  1
  O  O11  1  0.82762661  0.42630181  0.56988574  1
  O  O12  1  0.41024487  0.56473528  0.81190139  1
  O  O13  1  0.97467289  0.11538883  0.32156570  1
  O  O14  1  0.07873874  0.30567548  0.91413185  1
  O  O15  1  0.31452904  0.94051956  0.06813704  1
  O  O16  1  0.02532711  0.88461117  0.67843430  1
  O  O17  1  0.92126126  0.69432452  0.08586815  1
  O  O18  1  0.68547096  0.05948044  0.93186296  1
