# generated using pymatgen
data_Yb2Al3Cu
_symmetry_space_group_name_H-M   'P 1'
_cell_length_a   5.54395636
_cell_length_b   5.54395636
_cell_length_c   5.53275455
_cell_angle_alpha   90.00000000
_cell_angle_beta   59.93300297
_cell_angle_gamma   120.00000000
_symmetry_Int_Tables_number   1
_chemical_formula_structural   Yb2Al3Cu
_chemical_formula_sum   'Yb2 Al3 Cu1'
_cell_volume   120.12280849
_cell_formula_units_Z   1
loop_
 _symmetry_equiv_pos_site_id
 _symmetry_equiv_pos_as_xyz
  1  'x, y, z'
loop_
 _atom_site_type_symbol
 _atom_site_label
 _atom_site_symmetry_multiplicity
 _atom_site_fract_x
 _atom_site_fract_y
 _atom_site_fract_z
 _atom_site_occupancy
  Yb  Yb0  1  0.49970868  0.74985434  0.75043698  1
  Yb  Yb1  1  0.00029132  0.00014566  0.99956302  1
  Al  Al2  1  0.25000000  0.37500000  0.37500000  1
  Al  Al3  1  0.25000000  0.87500000  0.37500000  1
  Al  Al4  1  0.75000000  0.37500000  0.37500000  1
  Cu  Cu5  1  0.75000000  0.37500000  0.87500000  1
