# generated using pymatgen
data_Yb3Y9Al20O48
_symmetry_space_group_name_H-M   'P 1'
_cell_length_a   10.49078567
_cell_length_b   10.50571269
_cell_length_c   10.49078567
_cell_angle_alpha   70.64452290
_cell_angle_beta   70.58429635
_cell_angle_gamma   109.58492841
_symmetry_Int_Tables_number   1
_chemical_formula_structural   Yb3Y9Al20O48
_chemical_formula_sum   'Yb3 Y9 Al20 O48'
_cell_volume   890.68951372
_cell_formula_units_Z   1
loop_
 _symmetry_equiv_pos_site_id
 _symmetry_equiv_pos_as_xyz
  1  'x, y, z'
loop_
 _atom_site_type_symbol
 _atom_site_label
 _atom_site_symmetry_multiplicity
 _atom_site_fract_x
 _atom_site_fract_y
 _atom_site_fract_z
 _atom_site_occupancy
  Yb  Yb0  1  0.37554108  0.62512721  0.24886603  1
  Yb  Yb1  1  0.12600676  0.87487279  0.74958613  1
  Yb  Yb2  1  0.37442962  0.75000000  0.87557038  1
  Y  Y3  1  0.12644056  0.25000000  0.62355944  1
  Y  Y4  1  0.25019593  0.62681672  0.62533758  1
  Y  Y5  1  0.74784569  0.87318328  0.87662080  1
  Y  Y6  1  0.62506394  0.37506951  0.75000514  1
  Y  Y7  1  0.87492535  0.12493049  0.25000557  1
  Y  Y8  1  0.62507589  0.25000000  0.12492411  1
  Y  Y9  1  0.87484488  0.75000000  0.37515512  1
  Y  Y10  1  0.75002401  0.37500488  0.37500061  1
  Y  Y11  1  0.24999451  0.12499512  0.12498087  1
  Al  Al12  1  0.12589632  0.37579865  0.24988671  1
  Al  Al13  1  0.37431465  0.12420135  0.74990233  1
  Al  Al14  1  0.62419754  0.75000000  0.62580246  1
  Al  Al15  1  0.87502991  0.25000000  0.87497009  1
  Al  Al16  1  0.24998005  0.87497355  0.37490285  1
  Al  Al17  1  0.75012360  0.62502645  0.12499350  1
  Al  Al18  1  0.87595232  0.62601749  0.75021711  1
  Al  Al19  1  0.62376540  0.87398251  0.25006517  1
  Al  Al20  1  0.37494456  0.25000000  0.37505544  1
  Al  Al21  1  0.12541962  0.75000000  0.12458038  1
  Al  Al22  1  0.74950667  0.12501902  0.62531472  1
  Al  Al23  1  0.24966626  0.37498098  0.87551235  1
  Al  Al24  1  0.49938460  0.99828403  0.99972107  1
  Al  Al25  1  0.49940479  0.49973907  0.49905251  1
  Al  Al26  1  0.00199490  0.50171597  0.99889942  1
  Al  Al27  1  0.00120842  0.00026093  0.50033428  1
  Al  Al28  1  0.49971431  0.50102806  0.00091149  1
  Al  Al29  1  0.49806045  0.99897194  0.50131375  1
  Al  Al30  1  0.00171817  0.50117959  0.49867979  1
  Al  Al31  1  0.00014062  0.99882041  0.99946141  1
  O  O32  1  0.32011255  0.51759155  0.09646133  1
  O  O33  1  0.11526574  0.41517965  0.40438229  1
  O  O34  1  0.38594712  0.98240845  0.69747900  1
  O  O35  1  0.18043806  0.08482035  0.79991391  1
  O  O36  1  0.48030776  0.79992465  0.61527639  1
  O  O37  1  0.58479896  0.70007535  0.81961689  1
  O  O38  1  0.01993946  0.40185775  0.67983673  1
  O  O39  1  0.91830552  0.09814225  0.88191828  1
  O  O40  1  0.19729470  0.67954176  0.42005331  1
  O  O41  1  0.30262618  0.88258341  0.51788108  1
  O  O42  1  0.59953551  0.61741659  0.07995723  1
  O  O43  1  0.90040493  0.82045824  0.98224705  1
  O  O44  1  0.67986457  0.48002027  0.90163140  1
  O  O45  1  0.88164163  0.58152639  0.59843370  1
  O  O46  1  0.61834833  0.01997973  0.30015570  1
  O  O47  1  0.82003991  0.91847361  0.19988477  1
  O  O48  1  0.52050405  0.19988123  0.38118955  1
  O  O49  1  0.41892922  0.30011877  0.17937718  1
  O  O50  1  0.98001150  0.59837230  0.32035998  1
  O  O51  1  0.08126773  0.90162770  0.11836079  1
  O  O52  1  0.80085352  0.32083195  0.58097605  1
  O  O53  1  0.69926969  0.11801028  0.48008678  1
  O  O54  1  0.40190294  0.38198972  0.91874059  1
  O  O55  1  0.09819200  0.17916805  0.01997843  1
  O  O56  1  0.67944404  0.19979244  0.91861783  1
  O  O57  1  0.88158973  0.30020756  0.02034840  1
  O  O58  1  0.61790260  0.59822477  0.58155430  1
  O  O59  1  0.82022092  0.90177523  0.48032218  1
  O  O60  1  0.52010232  0.32027981  0.59860214  1
  O  O61  1  0.41847564  0.11850273  0.90165919  1
  O  O62  1  0.97983808  0.38149727  0.20002709  1
  O  O63  1  0.08111805  0.17972019  0.30017749  1
  O  O64  1  0.80102499  0.48024726  0.11809679  1
  O  O65  1  0.69964126  0.58117860  0.32063865  1
  O  O66  1  0.40165596  0.01975274  0.17922226  1
  O  O67  1  0.09818275  0.91882140  0.38153734  1
  O  O68  1  0.31964934  0.80198613  0.08349088  1
  O  O69  1  0.11452299  0.69801387  0.98233679  1
  O  O70  1  0.38261616  0.40034700  0.42026950  1
  O  O71  1  0.17938351  0.09965300  0.51773083  1
  O  O72  1  0.48023985  0.68024944  0.40470123  1
  O  O73  1  0.58459433  0.88481907  0.09549376  1
  O  O74  1  0.01968716  0.61518093  0.80022474  1
  O  O75  1  0.91504933  0.81975056  0.70000959  1
  O  O76  1  0.19754115  0.51793438  0.88291943  1
  O  O77  1  0.30013239  0.41835743  0.68001429  1
  O  O78  1  0.59914618  0.98206562  0.82039323  1
  O  O79  1  0.90162828  0.08164257  0.61822504  1
