# generated using pymatgen
data_Ti5CuS10
_symmetry_space_group_name_H-M   'P 1'
_cell_length_a   5.89328212
_cell_length_b   6.81035673
_cell_length_c   8.33334748
_cell_angle_alpha   72.07446795
_cell_angle_beta   110.63875189
_cell_angle_gamma   90.05994590
_symmetry_Int_Tables_number   1
_chemical_formula_structural   Ti5CuS10
_chemical_formula_sum   'Ti5 Cu1 S10'
_cell_volume   295.62692746
_cell_formula_units_Z   1
loop_
 _symmetry_equiv_pos_site_id
 _symmetry_equiv_pos_as_xyz
  1  'x, y, z'
loop_
 _atom_site_type_symbol
 _atom_site_label
 _atom_site_symmetry_multiplicity
 _atom_site_fract_x
 _atom_site_fract_y
 _atom_site_fract_z
 _atom_site_occupancy
  Ti  Ti0  1  0.79447927  0.40118045  0.59919995  1
  Ti  Ti1  1  0.40552073  0.19881955  0.80080005  1
  Ti  Ti2  1  0.60000000  0.80000000  0.20000000  1
  Ti  Ti3  1  0.00212369  0.99768016  0.99503563  1
  Ti  Ti4  1  0.19787631  0.60231984  0.40496437  1
  Cu  Cu5  1  0.10000000  0.30000000  0.20000000  1
  S  S6  1  0.71694989  0.14606846  0.09898849  1
  S  S7  1  0.91268004  0.74556859  0.49732140  1
  S  S8  1  0.11598636  0.34785964  0.89630459  1
  S  S9  1  0.31629148  0.94714669  0.29887105  1
  S  S10  1  0.51518472  0.54621537  0.69833072  1
  S  S11  1  0.88370852  0.65285331  0.10112895  1
  S  S12  1  0.08401364  0.25214036  0.50369541  1
  S  S13  1  0.28731996  0.85443141  0.90267860  1
  S  S14  1  0.48305011  0.45393154  0.30101151  1
  S  S15  1  0.68481528  0.05378463  0.70166928  1
