# generated using pymatgen
data_Te8Pd5Se2
_symmetry_space_group_name_H-M   'P 1'
_cell_length_a   4.06432240
_cell_length_b   17.73925824
_cell_length_c   5.12553100
_cell_angle_alpha   90.13673375
_cell_angle_beta   90.47865071
_cell_angle_gamma   83.35781560
_symmetry_Int_Tables_number   1
_chemical_formula_structural   Te8Pd5Se2
_chemical_formula_sum   'Te8 Pd5 Se2'
_cell_volume   367.04727649
_cell_formula_units_Z   1
loop_
 _symmetry_equiv_pos_site_id
 _symmetry_equiv_pos_as_xyz
  1  'x, y, z'
loop_
 _atom_site_type_symbol
 _atom_site_label
 _atom_site_symmetry_multiplicity
 _atom_site_fract_x
 _atom_site_fract_y
 _atom_site_fract_z
 _atom_site_occupancy
  Te  Te0  1  0.33942127  0.33030076  0.27279213  1
  Te  Te1  1  0.73803998  0.53314532  0.26797804  1
  Te  Te2  1  0.13627467  0.73697593  0.26973767  1
  Te  Te3  1  0.46413422  0.06366535  0.73102817  1
  Te  Te4  1  0.86513147  0.26233181  0.74159315  1
  Te  Te5  1  0.26133858  0.46621030  0.73375686  1
  Te  Te6  1  0.65897208  0.67012486  0.73539159  1
  Te  Te7  1  0.06039118  0.86996516  0.72744846  1
  Pd  Pd8  1  0.99953044  0.00067106  0.00709335  1
  Pd  Pd9  1  0.40343341  0.19481305  0.00837784  1
  Pd  Pd10  1  0.80047061  0.39801862  0.00173484  1
  Pd  Pd11  1  0.19852995  0.60140491  0.00119963  1
  Pd  Pd12  1  0.59712195  0.80524849  0.00099883  1
  Se  Se13  1  0.94024091  0.13094799  0.25151193  1
  Se  Se14  1  0.53696927  0.93617639  0.24935749  1
