# generated using pymatgen
data_USi3Ni2
_symmetry_space_group_name_H-M   'P 1'
_cell_length_a   3.88809581
_cell_length_b   3.88809581
_cell_length_c   12.11435787
_cell_angle_alpha   80.76554964
_cell_angle_beta   80.76554964
_cell_angle_gamma   90.00000000
_symmetry_Int_Tables_number   1
_chemical_formula_structural   USi3Ni2
_chemical_formula_sum   'U2 Si6 Ni4'
_cell_volume   178.35775966
_cell_formula_units_Z   2
loop_
 _symmetry_equiv_pos_site_id
 _symmetry_equiv_pos_as_xyz
  1  'x, y, z'
loop_
 _atom_site_type_symbol
 _atom_site_label
 _atom_site_symmetry_multiplicity
 _atom_site_fract_x
 _atom_site_fract_y
 _atom_site_fract_z
 _atom_site_occupancy
  U  U0  1  0.14966033  0.14966033  0.70067934  1
  U  U1  1  0.85033967  0.85033967  0.29932066  1
  Si  Si2  1  0.54963089  0.04963089  0.90073823  1
  Si  Si3  1  0.04963089  0.54963089  0.90073823  1
  Si  Si4  1  0.45036911  0.95036911  0.09926177  1
  Si  Si5  1  0.95036911  0.45036911  0.09926177  1
  Si  Si6  1  0.30347673  0.30347673  0.39304655  1
  Si  Si7  1  0.69652327  0.69652327  0.60695345  1
  Ni  Ni8  1  0.75000000  0.25000000  0.50000000  1
  Ni  Ni9  1  0.25000000  0.75000000  0.50000000  1
  Ni  Ni10  1  0.40040146  0.40040146  0.19919707  1
  Ni  Ni11  1  0.59959854  0.59959854  0.80080293  1
