# generated using pymatgen
data_Eu3Sb
_symmetry_space_group_name_H-M   'P 1'
_cell_length_a   7.23494491
_cell_length_b   7.23494440
_cell_length_c   5.77652868
_cell_angle_alpha   90.00000000
_cell_angle_beta   90.00000000
_cell_angle_gamma   119.99999420
_symmetry_Int_Tables_number   1
_chemical_formula_structural   Eu3Sb
_chemical_formula_sum   'Eu6 Sb2'
_cell_volume   261.85930893
_cell_formula_units_Z   2
loop_
 _symmetry_equiv_pos_site_id
 _symmetry_equiv_pos_as_xyz
  1  'x, y, z'
loop_
 _atom_site_type_symbol
 _atom_site_label
 _atom_site_symmetry_multiplicity
 _atom_site_fract_x
 _atom_site_fract_y
 _atom_site_fract_z
 _atom_site_occupancy
  Eu  Eu0  1  0.17505417  0.35010733  0.25000000  1
  Eu  Eu1  1  0.64989267  0.82494683  0.25000000  1
  Eu  Eu2  1  0.17505317  0.82494683  0.25000000  1
  Eu  Eu3  1  0.82494683  0.64989167  0.74999900  1
  Eu  Eu4  1  0.35010833  0.17505417  0.74999900  1
  Eu  Eu5  1  0.82494583  0.17505417  0.74999900  1
  Sb  Sb6  1  0.33333400  0.66666700  0.74999900  1
  Sb  Sb7  1  0.66666800  0.33333400  0.25000000  1
