# generated using pymatgen
data_TiCrAs2
_symmetry_space_group_name_H-M   'P 1'
_cell_length_a   3.64007645
_cell_length_b   3.63966365
_cell_length_c   5.93603938
_cell_angle_alpha   90.00000000
_cell_angle_beta   89.99802273
_cell_angle_gamma   60.00375122
_symmetry_Int_Tables_number   1
_chemical_formula_structural   TiCrAs2
_chemical_formula_sum   'Ti1 Cr1 As2'
_cell_volume   68.11073644
_cell_formula_units_Z   1
loop_
 _symmetry_equiv_pos_site_id
 _symmetry_equiv_pos_as_xyz
  1  'x, y, z'
loop_
 _atom_site_type_symbol
 _atom_site_label
 _atom_site_symmetry_multiplicity
 _atom_site_fract_x
 _atom_site_fract_y
 _atom_site_fract_z
 _atom_site_occupancy
  Ti  Ti0  1  0.00000000  -0.00000000  0.00000000  1
  Cr  Cr1  1  0.00000000  -0.00000000  0.50000000  1
  As  As2  1  0.33343196  0.33328402  0.73579990  1
  As  As3  1  0.66656804  0.66671598  0.26420010  1
