# generated using pymatgen
data_WSeS
_symmetry_space_group_name_H-M   'P 1'
_cell_length_a   3.25759726
_cell_length_b   3.25707761
_cell_length_c   14.91631810
_cell_angle_alpha   90.00000000
_cell_angle_beta   90.00660597
_cell_angle_gamma   60.00527664
_symmetry_Int_Tables_number   1
_chemical_formula_structural   WSeS
_chemical_formula_sum   'W2 Se2 S2'
_cell_volume   137.06950744
_cell_formula_units_Z   2
loop_
 _symmetry_equiv_pos_site_id
 _symmetry_equiv_pos_as_xyz
  1  'x, y, z'
loop_
 _atom_site_type_symbol
 _atom_site_label
 _atom_site_symmetry_multiplicity
 _atom_site_fract_x
 _atom_site_fract_y
 _atom_site_fract_z
 _atom_site_occupancy
  W  W0  1  0.66674930  0.66662535  0.74231380  1
  W  W1  1  0.33325070  0.33337465  0.25768620  1
  Se  Se2  1  0.66655439  0.66672280  0.14260161  1
  Se  Se3  1  0.33344561  0.33327720  0.85739839  1
  S  S4  1  0.33329609  0.33335196  0.63926843  1
  S  S5  1  0.66670391  0.66664804  0.36073157  1
