# generated using pymatgen
data_V2Cr2GaSe8
_symmetry_space_group_name_H-M   'P 1'
_cell_length_a   7.35180993
_cell_length_b   7.35180993
_cell_length_c   7.35180993
_cell_angle_alpha   89.90152354
_cell_angle_beta   59.66829086
_cell_angle_gamma   119.55612455
_symmetry_Int_Tables_number   1
_chemical_formula_structural   V2Cr2GaSe8
_chemical_formula_sum   'V2 Cr2 Ga1 Se8'
_cell_volume   281.19674894
_cell_formula_units_Z   1
loop_
 _symmetry_equiv_pos_site_id
 _symmetry_equiv_pos_as_xyz
  1  'x, y, z'
loop_
 _atom_site_type_symbol
 _atom_site_label
 _atom_site_symmetry_multiplicity
 _atom_site_fract_x
 _atom_site_fract_y
 _atom_site_fract_z
 _atom_site_occupancy
  V  V0  1  0.78273837  0.38953249  0.82772913  1
  V  V1  1  0.21726163  0.38953249  0.39320588  1
  Cr  Cr2  1  0.23106506  0.84705643  0.38400863  1
  Cr  Cr3  1  0.76893494  0.38492631  0.38400863  1
  Ga  Ga4  1  -0.00000000  0.99727772  0.00272228  1
  Se  Se5  1  0.24549380  0.62352118  0.13098502  1
  Se  Se6  1  0.75450620  0.62352118  0.62197263  1
  Se  Se7  1  0.74927948  0.12404782  0.62523165  1
  Se  Se8  1  0.25072052  0.62548887  0.62523165  1
  Se  Se9  1  0.27181267  0.13523828  0.59294905  1
  Se  Se10  1  0.72818733  0.13523828  0.13657439  1
  Se  Se11  1  0.72489284  0.58720231  0.13769053  1
  Se  Se12  1  0.27510716  0.13741664  0.13769053  1
