# generated using pymatgen
data_Tm2CoGe4
_symmetry_space_group_name_H-M   'P 1'
_cell_length_a   4.07164722
_cell_length_b   4.07885449
_cell_length_c   8.16277166
_cell_angle_alpha   75.53166288
_cell_angle_beta   90.00000000
_cell_angle_gamma   90.00000000
_symmetry_Int_Tables_number   1
_chemical_formula_structural   Tm2CoGe4
_chemical_formula_sum   'Tm2 Co1 Ge4'
_cell_volume   131.26519611
_cell_formula_units_Z   1
loop_
 _symmetry_equiv_pos_site_id
 _symmetry_equiv_pos_as_xyz
  1  'x, y, z'
loop_
 _atom_site_type_symbol
 _atom_site_label
 _atom_site_symmetry_multiplicity
 _atom_site_fract_x
 _atom_site_fract_y
 _atom_site_fract_z
 _atom_site_occupancy
  Tm  Tm0  1  0.25000000  0.89200211  0.21599578  1
  Tm  Tm1  1  0.75000000  0.10186646  0.79626709  1
  Co  Co2  1  0.25000000  0.68731466  0.62537068  1
  Ge  Ge3  1  0.25000000  0.25758184  0.48483632  1
  Ge  Ge4  1  0.75000000  0.75549480  0.48901040  1
  Ge  Ge5  1  0.25000000  0.54354709  0.91290581  1
  Ge  Ge6  1  0.75000000  0.44119304  0.11761392  1
