# generated using pymatgen
data_Ti3Cr3Si5
_symmetry_space_group_name_H-M   'P 1'
_cell_length_a   4.83458163
_cell_length_b   7.55393635
_cell_length_c   9.15700120
_cell_angle_alpha   65.21261470
_cell_angle_beta   74.69348067
_cell_angle_gamma   90.00000000
_symmetry_Int_Tables_number   1
_chemical_formula_structural   Ti3Cr3Si5
_chemical_formula_sum   'Ti6 Cr6 Si10'
_cell_volume   290.48707642
_cell_formula_units_Z   2
loop_
 _symmetry_equiv_pos_site_id
 _symmetry_equiv_pos_as_xyz
  1  'x, y, z'
loop_
 _atom_site_type_symbol
 _atom_site_label
 _atom_site_symmetry_multiplicity
 _atom_site_fract_x
 _atom_site_fract_y
 _atom_site_fract_z
 _atom_site_occupancy
  Ti  Ti0  1  0.35739442  0.74070550  0.28521116  1
  Ti  Ti1  1  0.64260558  0.25929450  0.71478884  1
  Ti  Ti2  1  0.14101888  0.03603941  0.71796223  1
  Ti  Ti3  1  0.85898112  0.96396059  0.28203777  1
  Ti  Ti4  1  0.06552344  0.32171646  0.86895312  1
  Ti  Ti5  1  0.93447656  0.67828354  0.13104688  1
  Cr  Cr6  1  0.94468207  0.69147625  0.61712917  1
  Cr  Cr7  1  0.56181124  0.30852375  0.38287083  1
  Cr  Cr8  1  0.05531793  0.30852375  0.38287083  1
  Cr  Cr9  1  0.43818876  0.69147625  0.61712917  1
  Cr  Cr10  1  0.43903609  0.19212594  0.12192782  1
  Cr  Cr11  1  0.56096391  0.80787406  0.87807218  1
  Si  Si12  1  0.25632326  -0.00000000  0.00000000  1
  Si  Si13  1  0.74367674  -0.00000000  0.00000000  1
  Si  Si14  1  0.21709309  0.42204884  0.56581382  1
  Si  Si15  1  0.78290691  0.57795116  0.43418618  1
  Si  Si16  1  0.28884329  0.99496169  0.42231342  1
  Si  Si17  1  0.71115671  0.00503831  0.57768658  1
  Si  Si18  1  0.43473851  0.51169093  0.13052299  1
  Si  Si19  1  0.56526149  0.48830907  0.86947701  1
  Si  Si20  1  0.06827981  0.65989980  0.86344039  1
  Si  Si21  1  0.93172019  0.34010020  0.13655961  1
