# generated using pymatgen
data_Ta3MoS8
_symmetry_space_group_name_H-M   'P 1'
_cell_length_a   3.31222808
_cell_length_b   12.86865290
_cell_length_c   5.74792034
_cell_angle_alpha   85.69431992
_cell_angle_beta   89.99999159
_cell_angle_gamma   97.39410981
_symmetry_Int_Tables_number   1
_chemical_formula_structural   Ta3MoS8
_chemical_formula_sum   'Ta3 Mo1 S8'
_cell_volume   242.26426998
_cell_formula_units_Z   1
loop_
 _symmetry_equiv_pos_site_id
 _symmetry_equiv_pos_as_xyz
  1  'x, y, z'
loop_
 _atom_site_type_symbol
 _atom_site_label
 _atom_site_symmetry_multiplicity
 _atom_site_fract_x
 _atom_site_fract_y
 _atom_site_fract_z
 _atom_site_occupancy
  Ta  Ta0  1  0.62487970  0.24975940  0.45944156  1
  Ta  Ta1  1  0.37500522  0.75001045  0.21142080  1
  Ta  Ta2  1  0.12499487  0.24998974  0.95835011  1
  Mo  Mo3  1  0.87507665  0.75015330  0.70644103  1
  S  S4  1  0.31495309  0.62990617  0.89113229  1
  S  S5  1  0.06295335  0.12590669  0.64543466  1
  S  S6  1  0.81389832  0.62779664  0.39898618  1
  S  S7  1  0.56307628  0.12615256  0.14533292  1
  S  S8  1  0.18692601  0.37385202  0.60374711  1
  S  S9  1  0.93623949  0.87247899  0.35779945  1
  S  S10  1  0.68692739  0.37385479  0.10424333  1
  S  S11  1  0.43516963  0.87033926  0.85097057  1
