# generated using pymatgen
data_TaTiNi6
_symmetry_space_group_name_H-M   'P 1'
_cell_length_a   4.22911348
_cell_length_b   5.12599735
_cell_length_c   5.12599735
_cell_angle_alpha   119.99798825
_cell_angle_beta   90.00000000
_cell_angle_gamma   90.00000000
_symmetry_Int_Tables_number   1
_chemical_formula_structural   TaTiNi6
_chemical_formula_sum   'Ta1 Ti1 Ni6'
_cell_volume   96.23776509
_cell_formula_units_Z   1
loop_
 _symmetry_equiv_pos_site_id
 _symmetry_equiv_pos_as_xyz
  1  'x, y, z'
loop_
 _atom_site_type_symbol
 _atom_site_label
 _atom_site_symmetry_multiplicity
 _atom_site_fract_x
 _atom_site_fract_y
 _atom_site_fract_z
 _atom_site_occupancy
  Ta  Ta0  1  0.75000000  0.66670212  0.33329788  1
  Ti  Ti1  1  0.25000000  0.33334126  0.66665874  1
  Ni  Ni2  1  0.75000000  0.16359947  0.32723281  1
  Ni  Ni3  1  0.75000000  0.16358086  0.83641914  1
  Ni  Ni4  1  0.75000000  0.67276719  0.83640053  1
  Ni  Ni5  1  0.25000000  0.83789995  0.67578982  1
  Ni  Ni6  1  0.25000000  0.83789897  0.16210103  1
  Ni  Ni7  1  0.25000000  0.32421018  0.16210005  1
