# generated using pymatgen
data_Tb2ZnCuSi2
_symmetry_space_group_name_H-M   'P 1'
_cell_length_a   4.04058758
_cell_length_b   4.08506610
_cell_length_c   7.07751732
_cell_angle_alpha   90.07824402
_cell_angle_beta   90.00000000
_cell_angle_gamma   90.00000000
_symmetry_Int_Tables_number   1
_chemical_formula_structural   Tb2ZnCuSi2
_chemical_formula_sum   'Tb2 Zn1 Cu1 Si2'
_cell_volume   116.82186860
_cell_formula_units_Z   1
loop_
 _symmetry_equiv_pos_site_id
 _symmetry_equiv_pos_as_xyz
  1  'x, y, z'
loop_
 _atom_site_type_symbol
 _atom_site_label
 _atom_site_symmetry_multiplicity
 _atom_site_fract_x
 _atom_site_fract_y
 _atom_site_fract_z
 _atom_site_occupancy
  Tb  Tb0  1  0.00000000  -0.00001068  0.00332967  1
  Tb  Tb1  1  0.00000000  0.49991611  0.49663031  1
  Zn  Zn2  1  0.50000000  0.50022200  0.83517266  1
  Cu  Cu3  1  0.50000000  0.00011987  0.33221626  1
  Si  Si4  1  0.50000000  0.49978231  0.17280175  1
  Si  Si5  1  0.50000000  0.99977039  0.65984935  1
