# generated using pymatgen
data_Sr3Ca(SnO3)4
_symmetry_space_group_name_H-M   'P 1'
_cell_length_a   5.74771004
_cell_length_b   5.80273686
_cell_length_c   8.14365396
_cell_angle_alpha   90.00000000
_cell_angle_beta   90.00000000
_cell_angle_gamma   89.95083461
_symmetry_Int_Tables_number   1
_chemical_formula_structural   Sr3Ca(SnO3)4
_chemical_formula_sum   'Sr3 Ca1 Sn4 O12'
_cell_volume   271.61070284
_cell_formula_units_Z   1
loop_
 _symmetry_equiv_pos_site_id
 _symmetry_equiv_pos_as_xyz
  1  'x, y, z'
loop_
 _atom_site_type_symbol
 _atom_site_label
 _atom_site_symmetry_multiplicity
 _atom_site_fract_x
 _atom_site_fract_y
 _atom_site_fract_z
 _atom_site_occupancy
  Sr  Sr0  1  0.99453418  0.03269267  0.25000000  1
  Sr  Sr1  1  0.49214887  0.46937978  0.75000000  1
  Sr  Sr2  1  0.00923274  0.96299398  0.75000000  1
  Ca  Ca3  1  0.51054978  0.54666610  0.25000000  1
  Sn  Sn4  1  0.49963726  0.00148036  0.00230010  1
  Sn  Sn5  1  0.00092477  0.49964297  0.49725529  1
  Sn  Sn6  1  0.49963726  0.00148036  0.49769990  1
  Sn  Sn7  1  0.00092477  0.49964297  0.00274471  1
  O  O8  1  0.78474172  0.78376282  0.04372543  1
  O  O9  1  0.70478412  0.29444771  0.44982912  1
  O  O10  1  0.20790187  0.20974749  0.53959440  1
  O  O11  1  0.28709121  0.71447031  0.95888223  1
  O  O12  1  0.20790187  0.20974749  0.96040560  1
  O  O13  1  0.28709121  0.71447031  0.54111777  1
  O  O14  1  0.78474172  0.78376282  0.45627457  1
  O  O15  1  0.70478412  0.29444771  0.05017088  1
  O  O16  1  0.42338000  0.96233938  0.25000000  1
  O  O17  1  0.09828397  0.48134582  0.25000000  1
  O  O18  1  0.57772957  0.02188542  0.75000000  1
  O  O19  1  0.92397898  0.51559354  0.75000000  1
