# generated using pymatgen
data_SrPbS2
_symmetry_space_group_name_H-M   'P 1'
_cell_length_a   4.27694466
_cell_length_b   4.27694466
_cell_length_c   7.41675543
_cell_angle_alpha   106.75799584
_cell_angle_beta   73.24200416
_cell_angle_gamma   120.00000000
_symmetry_Int_Tables_number   1
_chemical_formula_structural   SrPbS2
_chemical_formula_sum   'Sr1 Pb1 S2'
_cell_volume   110.78997510
_cell_formula_units_Z   1
loop_
 _symmetry_equiv_pos_site_id
 _symmetry_equiv_pos_as_xyz
  1  'x, y, z'
loop_
 _atom_site_type_symbol
 _atom_site_label
 _atom_site_symmetry_multiplicity
 _atom_site_fract_x
 _atom_site_fract_y
 _atom_site_fract_z
 _atom_site_occupancy
  Sr  Sr0  1  0.50000000  0.50000000  0.50000000  1
  Pb  Pb1  1  -0.00000000  -0.00000000  0.00000000  1
  S  S2  1  0.24908996  0.75091004  0.25273012  1
  S  S3  1  0.75091004  0.24908996  0.74726988  1
