# generated using pymatgen
data_SrLa3Mn3CrO12
_symmetry_space_group_name_H-M   'P 1'
_cell_length_a   5.60169406
_cell_length_b   9.54950219
_cell_length_c   5.60169291
_cell_angle_alpha   72.94451209
_cell_angle_beta   60.00000019
_cell_angle_gamma   72.94451404
_symmetry_Int_Tables_number   1
_chemical_formula_structural   SrLa3Mn3CrO12
_chemical_formula_sum   'Sr1 La3 Mn3 Cr1 O12'
_cell_volume   244.17194396
_cell_formula_units_Z   1
loop_
 _symmetry_equiv_pos_site_id
 _symmetry_equiv_pos_as_xyz
  1  'x, y, z'
loop_
 _atom_site_type_symbol
 _atom_site_label
 _atom_site_symmetry_multiplicity
 _atom_site_fract_x
 _atom_site_fract_y
 _atom_site_fract_z
 _atom_site_occupancy
  Sr  Sr0  1  0.37520334  0.87438999  0.37520334  1
  La  La1  1  0.87427252  0.37718243  0.87427252  1
  La  La2  1  0.62664079  0.12007762  0.62664079  1
  La  La3  1  0.12341089  0.62976732  0.12341089  1
  Mn  Mn4  1  0.74981138  0.75056586  0.74981138  1
  Mn  Mn5  1  0.24973336  0.25079993  0.24973336  1
  Mn  Mn6  1  0.00015812  0.99952563  0.00015812  1
  Cr  Cr7  1  0.49976032  0.50071905  0.49976032  1
  O  O8  1  0.38483611  0.87279984  0.91916230  1
  O  O9  1  0.87760034  0.37441863  0.44132221  1
  O  O10  1  0.82320175  0.87279984  0.38483611  1
  O  O11  1  0.30665881  0.37441863  0.87760034  1
  O  O12  1  0.91916230  0.87279984  0.82320175  1
  O  O13  1  0.44132221  0.37441863  0.30665881  1
  O  O14  1  0.70007785  0.61943983  0.11820095  1
  O  O15  1  0.18698746  0.13233243  0.61825041  1
  O  O16  1  0.56228137  0.61943983  0.70007785  1
  O  O17  1  0.06242971  0.13233243  0.18698746  1
  O  O18  1  0.11820095  0.61943983  0.56228137  1
  O  O19  1  0.61825041  0.13233243  0.06242971  1
