# generated using pymatgen
data_SrLaMnO4
_symmetry_space_group_name_H-M   'P 1'
_cell_length_a   3.88972699
_cell_length_b   3.88972699
_cell_length_c   6.99669510
_cell_angle_alpha   73.86098164
_cell_angle_beta   73.86098164
_cell_angle_gamma   90.00000000
_symmetry_Int_Tables_number   1
_chemical_formula_structural   SrLaMnO4
_chemical_formula_sum   'Sr1 La1 Mn1 O4'
_cell_volume   97.33732761
_cell_formula_units_Z   1
loop_
 _symmetry_equiv_pos_site_id
 _symmetry_equiv_pos_as_xyz
  1  'x, y, z'
loop_
 _atom_site_type_symbol
 _atom_site_label
 _atom_site_symmetry_multiplicity
 _atom_site_fract_x
 _atom_site_fract_y
 _atom_site_fract_z
 _atom_site_occupancy
  Sr  Sr0  1  0.35679727  0.35679727  0.28640546  1
  La  La1  1  0.64343684  0.64343684  0.71312631  1
  Mn  Mn2  1  0.99716975  0.99716975  0.00566049  1
  O  O3  1  0.50557326  0.00557326  0.98885347  1
  O  O4  1  0.00557326  0.50557326  0.98885347  1
  O  O5  1  0.16780749  0.16780749  0.66438503  1
  O  O6  1  0.82364212  0.82364212  0.35271577  1
