# generated using pymatgen
data_Sr2NdMn2O7
_symmetry_space_group_name_H-M   'P 1'
_cell_length_a   3.91207655
_cell_length_b   3.91207655
_cell_length_c   10.46691037
_cell_angle_alpha   79.22933654
_cell_angle_beta   79.22933654
_cell_angle_gamma   90.00000000
_symmetry_Int_Tables_number   1
_chemical_formula_structural   Sr2NdMn2O7
_chemical_formula_sum   'Sr2 Nd1 Mn2 O7'
_cell_volume   154.49356082
_cell_formula_units_Z   1
loop_
 _symmetry_equiv_pos_site_id
 _symmetry_equiv_pos_as_xyz
  1  'x, y, z'
loop_
 _atom_site_type_symbol
 _atom_site_label
 _atom_site_symmetry_multiplicity
 _atom_site_fract_x
 _atom_site_fract_y
 _atom_site_fract_z
 _atom_site_occupancy
  Sr  Sr0  1  0.49474895  0.49474895  0.01050210  1
  Sr  Sr1  1  0.31745656  0.31745656  0.36508687  1
  Nd  Nd2  1  0.68219864  0.68219864  0.63560272  1
  Mn  Mn3  1  0.09657122  0.09657122  0.80685756  1
  Mn  Mn4  1  0.90101373  0.90101373  0.19797253  1
  O  O5  1  0.19620691  0.19620691  0.60758617  1
  O  O6  1  0.79731280  0.79731280  0.40537440  1
  O  O7  1  0.60416991  0.10416991  0.79166019  1
  O  O8  1  0.10416991  0.60416991  0.79166019  1
  O  O9  1  0.40235707  0.90235707  0.19528586  1
  O  O10  1  0.90235707  0.40235707  0.19528586  1
  O  O11  1  0.00143722  0.00143722  0.99712556  1
