# generated using pymatgen
data_Sr2TaNO3
_symmetry_space_group_name_H-M   'P 1'
_cell_length_a   4.08943219
_cell_length_b   4.03499800
_cell_length_c   6.99404257
_cell_angle_alpha   73.23424065
_cell_angle_beta   73.00123407
_cell_angle_gamma   90.00000000
_symmetry_Int_Tables_number   1
_chemical_formula_structural   Sr2TaNO3
_chemical_formula_sum   'Sr2 Ta1 N1 O3'
_cell_volume   105.22506642
_cell_formula_units_Z   1
loop_
 _symmetry_equiv_pos_site_id
 _symmetry_equiv_pos_as_xyz
  1  'x, y, z'
loop_
 _atom_site_type_symbol
 _atom_site_label
 _atom_site_symmetry_multiplicity
 _atom_site_fract_x
 _atom_site_fract_y
 _atom_site_fract_z
 _atom_site_occupancy
  Sr  Sr0  1  0.35523409  0.35523409  0.28953181  1
  Sr  Sr1  1  0.64476591  0.64476591  0.71046819  1
  Ta  Ta2  1  0.00000000  0.00000000  0.00000000  1
  N  N3  1  0.50000000  0.00000000  0.00000000  1
  O  O4  1  0.16082323  0.16082323  0.67835354  1
  O  O5  1  0.83917677  0.83917677  0.32164646  1
  O  O6  1  0.00000000  0.50000000  0.00000000  1
