# generated using pymatgen
data_Tb2In3Cu
_symmetry_space_group_name_H-M   'P 1'
_cell_length_a   4.72026282
_cell_length_b   4.72258252
_cell_length_c   7.50472762
_cell_angle_alpha   90.00000000
_cell_angle_beta   89.99218340
_cell_angle_gamma   59.98374213
_symmetry_Int_Tables_number   1
_chemical_formula_structural   Tb2In3Cu
_chemical_formula_sum   'Tb2 In3 Cu1'
_cell_volume   144.85721282
_cell_formula_units_Z   1
loop_
 _symmetry_equiv_pos_site_id
 _symmetry_equiv_pos_as_xyz
  1  'x, y, z'
loop_
 _atom_site_type_symbol
 _atom_site_label
 _atom_site_symmetry_multiplicity
 _atom_site_fract_x
 _atom_site_fract_y
 _atom_site_fract_z
 _atom_site_occupancy
  Tb  Tb0  1  0.99986017  0.00006991  0.72525620  1
  Tb  Tb1  1  0.00035245  0.99982377  0.26339281  1
  In  In2  1  0.66666963  0.66666518  0.48512518  1
  In  In3  1  0.66666911  0.66666544  0.05273287  1
  In  In4  1  0.33338364  0.33330818  0.93283014  1
  Cu  Cu5  1  0.33306500  0.33346750  0.54066280  1
