# generated using pymatgen
data_ScTl2Mo15S19
_symmetry_space_group_name_H-M   'P 1'
_cell_length_a   9.48219553
_cell_length_b   9.61843183
_cell_length_c   18.92143507
_cell_angle_alpha   90.00000000
_cell_angle_beta   90.00000000
_cell_angle_gamma   120.04903684
_symmetry_Int_Tables_number   1
_chemical_formula_structural   ScTl2Mo15S19
_chemical_formula_sum   'Sc2 Tl4 Mo30 S38'
_cell_volume   1493.76772740
_cell_formula_units_Z   2
loop_
 _symmetry_equiv_pos_site_id
 _symmetry_equiv_pos_as_xyz
  1  'x, y, z'
loop_
 _atom_site_type_symbol
 _atom_site_label
 _atom_site_symmetry_multiplicity
 _atom_site_fract_x
 _atom_site_fract_y
 _atom_site_fract_z
 _atom_site_occupancy
  Sc  Sc0  1  0.97603237  0.81287510  0.75000000  1
  Sc  Sc1  1  0.02396763  0.18712490  0.25000000  1
  Tl  Tl2  1  0.66495400  0.33074510  0.62752383  1
  Tl  Tl3  1  0.33504600  0.66925490  0.12752383  1
  Tl  Tl4  1  0.33504600  0.66925490  0.37247617  1
  Tl  Tl5  1  0.66495400  0.33074510  0.87247617  1
  Mo  Mo6  1  0.82885832  0.98444814  0.55830948  1
  Mo  Mo7  1  0.01517578  0.84138832  0.56014771  1
  Mo  Mo8  1  0.15764398  0.17089704  0.55911921  1
  Mo  Mo9  1  0.17114168  0.01555186  0.05830948  1
  Mo  Mo10  1  0.98482422  0.15861168  0.06014771  1
  Mo  Mo11  1  0.84235602  0.82910296  0.05911921  1
  Mo  Mo12  1  0.17114168  0.01555186  0.44169052  1
  Mo  Mo13  1  0.98482422  0.15861168  0.43985229  1
  Mo  Mo14  1  0.84235602  0.82910296  0.44088079  1
  Mo  Mo15  1  0.82885832  0.98444814  0.94169052  1
  Mo  Mo16  1  0.01517578  0.84138832  0.93985229  1
  Mo  Mo17  1  0.15764398  0.17089704  0.94088079  1
  Mo  Mo18  1  0.50260104  0.68274180  0.63028735  1
  Mo  Mo19  1  0.31750828  0.81865909  0.63005383  1
  Mo  Mo20  1  0.18029986  0.49747424  0.63125432  1
  Mo  Mo21  1  0.49739896  0.31725820  0.13028735  1
  Mo  Mo22  1  0.68249172  0.18134091  0.13005383  1
  Mo  Mo23  1  0.81970014  0.50252576  0.13125432  1
  Mo  Mo24  1  0.49739896  0.31725820  0.36971265  1
  Mo  Mo25  1  0.68249172  0.18134091  0.36994617  1
  Mo  Mo26  1  0.81970014  0.50252576  0.36874568  1
  Mo  Mo27  1  0.50260104  0.68274180  0.86971265  1
  Mo  Mo28  1  0.31750828  0.81865909  0.86994617  1
  Mo  Mo29  1  0.18029986  0.49747424  0.86874568  1
  Mo  Mo30  1  0.49379714  0.83832643  0.75000000  1
  Mo  Mo31  1  0.16563913  0.65026735  0.75000000  1
  Mo  Mo32  1  0.34855582  0.50757570  0.75000000  1
  Mo  Mo33  1  0.50620286  0.16167357  0.25000000  1
  Mo  Mo34  1  0.83436087  0.34973265  0.25000000  1
  Mo  Mo35  1  0.65144418  0.49242430  0.25000000  1
  S  S36  1  0.71924033  0.68885971  0.55133650  1
  S  S37  1  0.31188057  0.02915719  0.55216149  1
  S  S38  1  0.97027494  0.28107223  0.55058942  1
  S  S39  1  0.28075967  0.31114029  0.05133650  1
  S  S40  1  0.68811943  0.97084281  0.05216149  1
  S  S41  1  0.02972506  0.71892777  0.05058942  1
  S  S42  1  0.28075967  0.31114029  0.44866350  1
  S  S43  1  0.68811943  0.97084281  0.44783851  1
  S  S44  1  0.02972506  0.71892777  0.44941058  1
  S  S45  1  0.71924033  0.68885971  0.94866350  1
  S  S46  1  0.31188057  0.02915719  0.94783851  1
  S  S47  1  0.97027494  0.28107223  0.94941058  1
  S  S48  1  0.36585692  0.38665064  0.63971648  1
  S  S49  1  0.61527336  0.97971400  0.64003851  1
  S  S50  1  0.01517753  0.63347851  0.64085703  1
  S  S51  1  0.63414308  0.61334936  0.13971648  1
  S  S52  1  0.38472664  0.02028600  0.14003851  1
  S  S53  1  0.98482247  0.36652149  0.14085703  1
  S  S54  1  0.63414308  0.61334936  0.36028352  1
  S  S55  1  0.38472664  0.02028600  0.35996149  1
  S  S56  1  0.98482247  0.36652149  0.35914297  1
  S  S57  1  0.36585692  0.38665064  0.86028352  1
  S  S58  1  0.61527336  0.97971400  0.85996149  1
  S  S59  1  0.01517753  0.63347851  0.85914297  1
  S  S60  1  0.00005954  0.00372451  0.65761726  1
  S  S61  1  0.99994046  0.99627549  0.15761726  1
  S  S62  1  0.99994046  0.99627549  0.34238274  1
  S  S63  1  0.00005954  0.00372451  0.84238274  1
  S  S64  1  0.66737916  0.33375080  0.46733673  1
  S  S65  1  0.33262084  0.66624920  0.96733673  1
  S  S66  1  0.33262084  0.66624920  0.53266327  1
  S  S67  1  0.66737916  0.33375080  0.03266327  1
  S  S68  1  0.65098293  0.69556965  0.75000000  1
  S  S69  1  0.30266742  0.94926380  0.75000000  1
  S  S70  1  0.05028103  0.35669059  0.75000000  1
  S  S71  1  0.34901707  0.30443035  0.25000000  1
  S  S72  1  0.69733258  0.05073620  0.25000000  1
  S  S73  1  0.94971897  0.64330941  0.25000000  1
