# generated using pymatgen
data_SmTiFe11
_symmetry_space_group_name_H-M   'P 1'
_cell_length_a   4.71178810
_cell_length_b   6.48591191
_cell_length_c   6.48591191
_cell_angle_alpha   97.20521634
_cell_angle_beta   111.29884865
_cell_angle_gamma   68.70115135
_symmetry_Int_Tables_number   1
_chemical_formula_structural   SmTiFe11
_chemical_formula_sum   'Sm1 Ti1 Fe11'
_cell_volume   172.05465648
_cell_formula_units_Z   1
loop_
 _symmetry_equiv_pos_site_id
 _symmetry_equiv_pos_as_xyz
  1  'x, y, z'
loop_
 _atom_site_type_symbol
 _atom_site_label
 _atom_site_symmetry_multiplicity
 _atom_site_fract_x
 _atom_site_fract_y
 _atom_site_fract_z
 _atom_site_occupancy
  Sm  Sm0  1  0.00484192  0.99515808  0.00484192  1
  Ti  Ti1  1  0.63202254  0.36797746  0.63202254  1
  Fe  Fe2  1  0.49987400  0.99792952  0.49961870  1
  Fe  Fe3  1  0.00181517  0.99792952  0.49961870  1
  Fe  Fe4  1  0.49987400  0.50038130  0.00207048  1
  Fe  Fe5  1  0.00181517  0.50038130  0.00207048  1
  Fe  Fe6  1  0.73080449  0.76919551  0.23080449  1
  Fe  Fe7  1  0.27444978  0.22555022  0.77444978  1
  Fe  Fe8  1  0.49922968  0.77552172  0.77398108  1
  Fe  Fe9  1  0.49922968  0.22601892  0.22447828  1
  Fe  Fe10  1  0.35440660  0.64559340  0.35440660  1
  Fe  Fe11  1  0.00081848  0.35589741  0.35753437  1
  Fe  Fe12  1  0.00081848  0.64246563  0.64410259  1
