# generated using pymatgen
data_SmErNi2
_symmetry_space_group_name_H-M   'P 1'
_cell_length_a   3.74581450
_cell_length_b   4.25437436
_cell_length_c   5.48535209
_cell_angle_alpha   90.00000000
_cell_angle_beta   70.03549538
_cell_angle_gamma   90.00000000
_symmetry_Int_Tables_number   1
_chemical_formula_structural   SmErNi2
_chemical_formula_sum   'Sm1 Er1 Ni2'
_cell_volume   82.16183433
_cell_formula_units_Z   1
loop_
 _symmetry_equiv_pos_site_id
 _symmetry_equiv_pos_as_xyz
  1  'x, y, z'
loop_
 _atom_site_type_symbol
 _atom_site_label
 _atom_site_symmetry_multiplicity
 _atom_site_fract_x
 _atom_site_fract_y
 _atom_site_fract_z
 _atom_site_occupancy
  Sm  Sm0  1  0.85889618  0.25000000  0.28220763  1
  Er  Er1  1  0.13748355  0.75000000  0.72503289  1
  Ni  Ni2  1  0.42863211  0.75000000  0.14273577  1
  Ni  Ni3  1  0.57498815  0.25000000  0.85002370  1
