# generated using pymatgen
data_SmErFe17C2
_symmetry_space_group_name_H-M   'P 1'
_cell_length_a   6.47495098
_cell_length_b   6.47495076
_cell_length_c   6.50948546
_cell_angle_alpha   83.55163781
_cell_angle_beta   83.55164182
_cell_angle_gamma   82.97028075
_symmetry_Int_Tables_number   1
_chemical_formula_structural   SmErFe17C2
_chemical_formula_sum   'Sm1 Er1 Fe17 C2'
_cell_volume   267.79746118
_cell_formula_units_Z   1
loop_
 _symmetry_equiv_pos_site_id
 _symmetry_equiv_pos_as_xyz
  1  'x, y, z'
loop_
 _atom_site_type_symbol
 _atom_site_label
 _atom_site_symmetry_multiplicity
 _atom_site_fract_x
 _atom_site_fract_y
 _atom_site_fract_z
 _atom_site_occupancy
  Sm  Sm0  1  0.34537513  0.34537513  0.33296460  1
  Er  Er1  1  0.65664621  0.65664621  0.66865070  1
  Fe  Fe2  1  0.90429217  0.90429217  0.90341374  1
  Fe  Fe3  1  0.09448463  0.09448463  0.09519864  1
  Fe  Fe4  1  0.71539408  0.99932328  0.28498984  1
  Fe  Fe5  1  0.99912116  0.28568532  0.71553139  1
  Fe  Fe6  1  0.29225205  0.70878835  0.99840170  1
  Fe  Fe7  1  0.99932328  0.71539408  0.28498984  1
  Fe  Fe8  1  0.70878835  0.29225205  0.99840170  1
  Fe  Fe9  1  0.28568532  0.99912116  0.71553139  1
  Fe  Fe10  1  0.34572065  0.85124508  0.34251731  1
  Fe  Fe11  1  0.85124508  0.34572065  0.34251731  1
  Fe  Fe12  1  0.34430212  0.34430212  0.84898396  1
  Fe  Fe13  1  0.65567757  0.14669986  0.65817701  1
  Fe  Fe14  1  0.14669986  0.65567757  0.65817701  1
  Fe  Fe15  1  0.65734258  0.65734258  0.14774644  1
  Fe  Fe16  1  0.99981507  0.50046715  0.99936744  1
  Fe  Fe17  1  0.50046715  0.99981507  0.99936744  1
  Fe  Fe18  1  0.00031453  0.00031453  0.50025449  1
  C  C19  1  0.50259691  0.99445609  0.50240903  1
  C  C20  1  0.99445609  0.50259691  0.50240903  1
