# generated using pymatgen
data_Sr2NdSmMn4O12
_symmetry_space_group_name_H-M   'P 1'
_cell_length_a   5.51174063
_cell_length_b   5.51174063
_cell_length_c   7.79752685
_cell_angle_alpha   89.55603387
_cell_angle_beta   89.55603387
_cell_angle_gamma   89.50266539
_symmetry_Int_Tables_number   1
_chemical_formula_structural   Sr2NdSmMn4O12
_chemical_formula_sum   'Sr2 Nd1 Sm1 Mn4 O12'
_cell_volume   236.86026487
_cell_formula_units_Z   1
loop_
 _symmetry_equiv_pos_site_id
 _symmetry_equiv_pos_as_xyz
  1  'x, y, z'
loop_
 _atom_site_type_symbol
 _atom_site_label
 _atom_site_symmetry_multiplicity
 _atom_site_fract_x
 _atom_site_fract_y
 _atom_site_fract_z
 _atom_site_occupancy
  Sr  Sr0  1  0.25064331  0.75064331  0.00021811  1
  Sr  Sr1  1  0.75026480  0.25026480  0.50033057  1
  Nd  Nd2  1  0.24380558  0.74380558  0.49284804  1
  Sm  Sm3  1  0.74035428  0.24035428  0.99219278  1
  Mn  Mn4  1  0.74944715  0.74913343  0.24857982  1
  Mn  Mn5  1  0.24944715  0.24960315  0.75040295  1
  Mn  Mn6  1  0.74960315  0.74944715  0.75040295  1
  Mn  Mn7  1  0.24913343  0.24944715  0.24857982  1
  O  O8  1  0.54024699  0.46090421  0.76176632  1
  O  O9  1  0.03906982  0.96122527  0.25897280  1
  O  O10  1  0.72042606  0.80324727  0.00030060  1
  O  O11  1  0.22104160  0.29774221  0.50025123  1
  O  O12  1  0.30324727  0.22042606  0.00030060  1
  O  O13  1  0.79774221  0.72104160  0.50025123  1
  O  O14  1  0.46122527  0.53906982  0.25897280  1
  O  O15  1  0.96090421  0.04024699  0.76176632  1
  O  O16  1  0.02868749  0.52868749  0.77979711  1
  O  O17  1  0.52908407  0.02908407  0.27832319  1
  O  O18  1  0.95674908  0.45674908  0.20582816  1
  O  O19  1  0.45887709  0.95887709  0.70991461  1
