# generated using pymatgen
data_ScNiBO4
_symmetry_space_group_name_H-M   'P 1'
_cell_length_a   3.23152567
_cell_length_b   9.42145941
_cell_length_c   9.57761071
_cell_angle_alpha   90.00000000
_cell_angle_beta   90.00000000
_cell_angle_gamma   90.00000000
_symmetry_Int_Tables_number   1
_chemical_formula_structural   ScNiBO4
_chemical_formula_sum   'Sc4 Ni4 B4 O16'
_cell_volume   291.59694681
_cell_formula_units_Z   4
loop_
 _symmetry_equiv_pos_site_id
 _symmetry_equiv_pos_as_xyz
  1  'x, y, z'
loop_
 _atom_site_type_symbol
 _atom_site_label
 _atom_site_symmetry_multiplicity
 _atom_site_fract_x
 _atom_site_fract_y
 _atom_site_fract_z
 _atom_site_occupancy
  Sc  Sc0  1  0.75000000  0.88884565  0.92295843  1
  Sc  Sc1  1  0.75000000  0.38884565  0.57704157  1
  Sc  Sc2  1  0.75000000  0.89879597  0.30649646  1
  Sc  Sc3  1  0.75000000  0.39879597  0.19350354  1
  Ni  Ni4  1  0.25000000  0.12090446  0.06478554  1
  Ni  Ni5  1  0.25000000  0.62090446  0.43521446  1
  Ni  Ni6  1  0.25000000  0.10183887  0.69575014  1
  Ni  Ni7  1  0.25000000  0.60183887  0.80424986  1
  B  B8  1  0.25000000  0.16929257  0.37828449  1
  B  B9  1  0.25000000  0.66929257  0.12171551  1
  B  B10  1  0.75000000  0.83065269  0.62371708  1
  B  B11  1  0.75000000  0.33065269  0.87628292  1
  O  O12  1  0.25000000  0.24868368  0.25415319  1
  O  O13  1  0.25000000  0.74868368  0.24584681  1
  O  O14  1  0.75000000  0.74758678  0.74566464  1
  O  O15  1  0.75000000  0.24758678  0.75433536  1
  O  O16  1  0.25000000  0.23277934  0.50722908  1
  O  O17  1  0.25000000  0.73277934  0.99277092  1
  O  O18  1  0.75000000  0.76463224  0.49222379  1
  O  O19  1  0.75000000  0.26463224  0.00777621  1
  O  O20  1  0.25000000  0.00885488  0.88283588  1
  O  O21  1  0.25000000  0.50885488  0.61716412  1
  O  O22  1  0.75000000  0.98803758  0.11874782  1
  O  O23  1  0.75000000  0.48803758  0.38125218  1
  O  O24  1  0.25000000  0.02350572  0.36711060  1
  O  O25  1  0.25000000  0.52350572  0.13288940  1
  O  O26  1  0.75000000  0.97558957  0.63474126  1
  O  O27  1  0.75000000  0.47558957  0.86525874  1
