# generated using pymatgen
data_Sm2VCo16
_symmetry_space_group_name_H-M   'P 1'
_cell_length_a   6.32439188
_cell_length_b   6.32439188
_cell_length_c   6.32439188
_cell_angle_alpha   82.93961228
_cell_angle_beta   82.93962267
_cell_angle_gamma   82.93961228
_symmetry_Int_Tables_number   1
_chemical_formula_structural   Sm2VCo16
_chemical_formula_sum   'Sm2 V1 Co16'
_cell_volume   247.64373508
_cell_formula_units_Z   1
loop_
 _symmetry_equiv_pos_site_id
 _symmetry_equiv_pos_as_xyz
  1  'x, y, z'
loop_
 _atom_site_type_symbol
 _atom_site_label
 _atom_site_symmetry_multiplicity
 _atom_site_fract_x
 _atom_site_fract_y
 _atom_site_fract_z
 _atom_site_occupancy
  Sm  Sm0  1  0.65661594  0.65661594  0.65661594  1
  Sm  Sm1  1  0.35063503  0.35063503  0.35063503  1
  V  V2  1  0.09129970  0.09129970  0.09129970  1
  Co  Co3  1  0.34324638  0.85112799  0.34324638  1
  Co  Co4  1  0.85112799  0.34324638  0.34324638  1
  Co  Co5  1  0.34324638  0.34324638  0.85112799  1
  Co  Co6  1  0.65739149  0.14818539  0.65739149  1
  Co  Co7  1  0.14818539  0.65739149  0.65739149  1
  Co  Co8  1  0.65739149  0.65739149  0.14818539  1
  Co  Co9  1  0.71021418  0.99829617  0.28858419  1
  Co  Co10  1  0.99829617  0.28858419  0.71021418  1
  Co  Co11  1  0.28858419  0.71021418  0.99829617  1
  Co  Co12  1  0.99829617  0.71021418  0.28858419  1
  Co  Co13  1  0.71021418  0.28858419  0.99829617  1
  Co  Co14  1  0.28858419  0.99829617  0.71021418  1
  Co  Co15  1  0.00099042  0.49998068  0.00099042  1
  Co  Co16  1  0.49998068  0.00099042  0.00099042  1
  Co  Co17  1  0.00099042  0.00099042  0.49998068  1
  Co  Co18  1  0.90470962  0.90470962  0.90470962  1
