# generated using pymatgen
data_Eu3Lu
_symmetry_space_group_name_H-M   'P 1'
_cell_length_a   7.59442082
_cell_length_b   7.59442065
_cell_length_c   6.07515517
_cell_angle_alpha   90.00000000
_cell_angle_beta   90.00000000
_cell_angle_gamma   120.00000074
_symmetry_Int_Tables_number   1
_chemical_formula_structural   Eu3Lu
_chemical_formula_sum   'Eu6 Lu2'
_cell_volume   303.44313087
_cell_formula_units_Z   2
loop_
 _symmetry_equiv_pos_site_id
 _symmetry_equiv_pos_as_xyz
  1  'x, y, z'
loop_
 _atom_site_type_symbol
 _atom_site_label
 _atom_site_symmetry_multiplicity
 _atom_site_fract_x
 _atom_site_fract_y
 _atom_site_fract_z
 _atom_site_occupancy
  Eu  Eu0  1  0.83001781  0.66003463  0.75000000  1
  Eu  Eu1  1  0.16998319  0.83001781  0.25000100  1
  Eu  Eu2  1  0.66003463  0.83001781  0.25000100  1
  Eu  Eu3  1  0.16998319  0.33996637  0.25000100  1
  Eu  Eu4  1  0.33996537  0.16998319  0.75000000  1
  Eu  Eu5  1  0.83001781  0.16998319  0.75000000  1
  Lu  Lu6  1  0.33333300  0.66666700  0.75000000  1
  Lu  Lu7  1  0.66666800  0.33333400  0.25000100  1
