# generated using pymatgen
data_Nb5Cr3Se20
_symmetry_space_group_name_H-M   'P 1'
_cell_length_a   3.53564688
_cell_length_b   9.56559302
_cell_length_c   19.05481947
_cell_angle_alpha   88.42375000
_cell_angle_beta   90.00000000
_cell_angle_gamma   90.00000000
_symmetry_Int_Tables_number   1
_chemical_formula_structural   Nb5Cr3Se20
_chemical_formula_sum   'Nb5 Cr3 Se20'
_cell_volume   644.20079244
_cell_formula_units_Z   1
loop_
 _symmetry_equiv_pos_site_id
 _symmetry_equiv_pos_as_xyz
  1  'x, y, z'
loop_
 _atom_site_type_symbol
 _atom_site_label
 _atom_site_symmetry_multiplicity
 _atom_site_fract_x
 _atom_site_fract_y
 _atom_site_fract_z
 _atom_site_occupancy
  Nb  Nb0  1  0.75000000  0.40591581  0.31683166  1
  Nb  Nb1  1  0.75000000  0.90510082  0.81878425  1
  Nb  Nb2  1  0.25000000  0.09621361  0.18025208  1
  Nb  Nb3  1  0.25000000  0.59752316  0.68069328  1
  Nb  Nb4  1  0.25000000  0.09736359  0.45726579  1
  Cr  Cr5  1  0.25000000  0.61799322  0.94533003  1
  Cr  Cr6  1  0.75000000  0.38244999  0.05383598  1
  Cr  Cr7  1  0.75000000  0.89184284  0.55222494  1
  Se  Se8  1  0.25000000  0.57760138  0.37708542  1
  Se  Se9  1  0.25000000  0.07329875  0.88040789  1
  Se  Se10  1  0.75000000  0.92632527  0.11948921  1
  Se  Se11  1  0.75000000  0.42753995  0.62013237  1
  Se  Se12  1  0.25000000  0.19742599  0.31669011  1
  Se  Se13  1  0.25000000  0.69798392  0.81579910  1
  Se  Se14  1  0.75000000  0.30361726  0.18244365  1
  Se  Se15  1  0.75000000  0.80463140  0.68106519  1
  Se  Se16  1  0.25000000  0.57856572  0.25292854  1
  Se  Se17  1  0.25000000  0.07812642  0.75577186  1
  Se  Se18  1  0.75000000  0.92511482  0.24420365  1
  Se  Se19  1  0.75000000  0.42500278  0.74468026  1
  Se  Se20  1  0.75000000  0.30427689  0.45394862  1
  Se  Se21  1  0.75000000  0.80595045  0.95496668  1
  Se  Se22  1  0.25000000  0.19448238  0.04419721  1
  Se  Se23  1  0.25000000  0.70492117  0.54477808  1
  Se  Se24  1  0.75000000  0.91545111  0.42029180  1
  Se  Se25  1  0.75000000  0.43620738  0.92595074  1
  Se  Se26  1  0.25000000  0.56370026  0.07320135  1
  Se  Se27  1  0.25000000  0.06537365  0.58675024  1
