# generated using pymatgen
data_Pr7Y(Fe14B)4
_symmetry_space_group_name_H-M   'P 1'
_cell_length_a   8.79103985
_cell_length_b   8.79103985
_cell_length_c   12.13396972
_cell_angle_alpha   90.00000000
_cell_angle_beta   90.00000000
_cell_angle_gamma   90.04687844
_symmetry_Int_Tables_number   1
_chemical_formula_structural   Pr7Y(Fe14B)4
_chemical_formula_sum   'Pr7 Y1 Fe56 B4'
_cell_volume   937.74176395
_cell_formula_units_Z   1
loop_
 _symmetry_equiv_pos_site_id
 _symmetry_equiv_pos_as_xyz
  1  'x, y, z'
loop_
 _atom_site_type_symbol
 _atom_site_label
 _atom_site_symmetry_multiplicity
 _atom_site_fract_x
 _atom_site_fract_y
 _atom_site_fract_z
 _atom_site_occupancy
  Pr  Pr0  1  0.64037484  0.64323495  0.50000000  1
  Pr  Pr1  1  0.35676505  0.35962516  0.50000000  1
  Pr  Pr2  1  0.85791381  0.14208619  -0.00000000  1
  Pr  Pr3  1  0.14247075  0.85752925  -0.00000000  1
  Pr  Pr4  1  0.76845609  0.23154391  0.50000000  1
  Pr  Pr5  1  0.26834263  0.26854423  -0.00000000  1
  Pr  Pr6  1  0.73145577  0.73165737  -0.00000000  1
  Y  Y7  1  0.22929934  0.77070066  0.50000000  1
  Fe  Fe8  1  0.18260293  0.81739707  0.25614616  1
  Fe  Fe9  1  0.81799233  0.18200767  0.25431295  1
  Fe  Fe10  1  0.31774421  0.31786585  0.75412727  1
  Fe  Fe11  1  0.68213415  0.68225579  0.75412727  1
  Fe  Fe12  1  0.81799233  0.18200767  0.74568705  1
  Fe  Fe13  1  0.18260293  0.81739707  0.74385384  1
  Fe  Fe14  1  0.68213415  0.68225579  0.24587273  1
  Fe  Fe15  1  0.31774421  0.31786585  0.24587273  1
  Fe  Fe16  1  0.13985837  0.53800456  0.32486795  1
  Fe  Fe17  1  0.86146406  0.46380554  0.32395929  1
  Fe  Fe18  1  0.36086894  0.03605699  0.82320237  1
  Fe  Fe19  1  0.63882254  0.96339514  0.82319270  1
  Fe  Fe20  1  0.86146406  0.46380554  0.67604071  1
  Fe  Fe21  1  0.13985837  0.53800456  0.67513205  1
  Fe  Fe22  1  0.63882254  0.96339514  0.17680730  1
  Fe  Fe23  1  0.36086894  0.03605699  0.17679763  1
  Fe  Fe24  1  0.53619446  0.13853594  0.32395929  1
  Fe  Fe25  1  0.46199544  0.86014163  0.32486795  1
  Fe  Fe26  1  0.03660486  0.36117746  0.82319270  1
  Fe  Fe27  1  0.96394301  0.63913106  0.82320237  1
  Fe  Fe28  1  0.46199544  0.86014163  0.67513205  1
  Fe  Fe29  1  0.53619446  0.13853594  0.67604071  1
  Fe  Fe30  1  0.96394301  0.63913106  0.17679763  1
  Fe  Fe31  1  0.03660486  0.36117746  0.17680730  1
  Fe  Fe32  1  0.40117881  0.59882119  0.29631384  1
  Fe  Fe33  1  0.59790431  0.40209569  0.29507691  1
  Fe  Fe34  1  0.09817310  0.09763377  0.79518217  1
  Fe  Fe35  1  0.90236623  0.90182690  0.79518217  1
  Fe  Fe36  1  0.59790431  0.40209569  0.70492309  1
  Fe  Fe37  1  0.40117881  0.59882119  0.70368616  1
  Fe  Fe38  1  0.90236623  0.90182690  0.20481783  1
  Fe  Fe39  1  0.09817310  0.09763377  0.20481783  1
  Fe  Fe40  1  0.93432251  0.72545553  0.37307087  1
  Fe  Fe41  1  0.06788370  0.27464131  0.37198581  1
  Fe  Fe42  1  0.56762804  0.22525515  0.87211729  1
  Fe  Fe43  1  0.43231077  0.77456906  0.87169724  1
  Fe  Fe44  1  0.06788370  0.27464131  0.62801419  1
  Fe  Fe45  1  0.93432251  0.72545553  0.62692913  1
  Fe  Fe46  1  0.43231077  0.77456906  0.12830276  1
  Fe  Fe47  1  0.56762804  0.22525515  0.12788271  1
  Fe  Fe48  1  0.72535869  0.93211630  0.37198581  1
  Fe  Fe49  1  0.27454447  0.06567749  0.37307087  1
  Fe  Fe50  1  0.22543094  0.56768923  0.87169724  1
  Fe  Fe51  1  0.77474485  0.43237196  0.87211729  1
  Fe  Fe52  1  0.27454447  0.06567749  0.62692913  1
  Fe  Fe53  1  0.72535869  0.93211630  0.62801419  1
  Fe  Fe54  1  0.77474485  0.43237196  0.12788271  1
  Fe  Fe55  1  0.22543094  0.56768923  0.12830276  1
  Fe  Fe56  1  0.00101486  0.99898514  0.38555153  1
  Fe  Fe57  1  0.49984344  0.50015656  0.88525597  1
  Fe  Fe58  1  0.00101486  0.99898514  0.61444847  1
  Fe  Fe59  1  0.49984344  0.50015656  0.11474403  1
  Fe  Fe60  1  0.00158292  0.50149302  0.50000000  1
  Fe  Fe61  1  0.49995886  0.00021793  -0.00000000  1
  Fe  Fe62  1  0.49850698  0.99841708  0.50000000  1
  Fe  Fe63  1  0.99978207  0.50004114  -0.00000000  1
  B  B64  1  0.87606321  0.87640460  0.50000000  1
  B  B65  1  0.12359540  0.12393679  0.50000000  1
  B  B66  1  0.62312170  0.37687830  -0.00000000  1
  B  B67  1  0.37645057  0.62354943  -0.00000000  1
