# generated using pymatgen
data_NiBi6Rh
_symmetry_space_group_name_H-M   'P 1'
_cell_length_a   4.21911710
_cell_length_b   8.99301462
_cell_length_c   11.57662066
_cell_angle_alpha   90.00000000
_cell_angle_beta   90.00000000
_cell_angle_gamma   90.00000000
_symmetry_Int_Tables_number   1
_chemical_formula_structural   NiBi6Rh
_chemical_formula_sum   'Ni2 Bi12 Rh2'
_cell_volume   439.24687594
_cell_formula_units_Z   2
loop_
 _symmetry_equiv_pos_site_id
 _symmetry_equiv_pos_as_xyz
  1  'x, y, z'
loop_
 _atom_site_type_symbol
 _atom_site_label
 _atom_site_symmetry_multiplicity
 _atom_site_fract_x
 _atom_site_fract_y
 _atom_site_fract_z
 _atom_site_occupancy
  Ni  Ni0  1  0.75000000  0.40073054  0.02065504  1
  Ni  Ni1  1  0.75000000  0.90073054  0.47934496  1
  Bi  Bi2  1  0.75000000  0.09353195  0.67984508  1
  Bi  Bi3  1  0.75000000  0.59353195  0.82015492  1
  Bi  Bi4  1  0.25000000  0.90787662  0.32320773  1
  Bi  Bi5  1  0.25000000  0.40787662  0.17679227  1
  Bi  Bi6  1  0.75000000  0.20507956  0.38781649  1
  Bi  Bi7  1  0.75000000  0.70507956  0.11218351  1
  Bi  Bi8  1  0.25000000  0.79920838  0.60881962  1
  Bi  Bi9  1  0.25000000  0.29920838  0.89118038  1
  Bi  Bi10  1  0.75000000  0.11576465  0.09797268  1
  Bi  Bi11  1  0.75000000  0.61576465  0.40202732  1
  Bi  Bi12  1  0.25000000  0.88544592  0.90108706  1
  Bi  Bi13  1  0.25000000  0.38544592  0.59891294  1
  Rh  Rh14  1  0.25000000  0.59236238  0.97996447  1
  Rh  Rh15  1  0.25000000  0.09236238  0.52003553  1
