# generated using pymatgen
data_Eu3Tm
_symmetry_space_group_name_H-M   'P 1'
_cell_length_a   7.65064800
_cell_length_b   7.65028999
_cell_length_c   6.11462539
_cell_angle_alpha   90.01160813
_cell_angle_beta   89.98392479
_cell_angle_gamma   120.00606811
_symmetry_Int_Tables_number   1
_chemical_formula_structural   Eu3Tm
_chemical_formula_sum   'Eu6 Tm2'
_cell_volume   309.92030392
_cell_formula_units_Z   2
loop_
 _symmetry_equiv_pos_site_id
 _symmetry_equiv_pos_as_xyz
  1  'x, y, z'
loop_
 _atom_site_type_symbol
 _atom_site_label
 _atom_site_symmetry_multiplicity
 _atom_site_fract_x
 _atom_site_fract_y
 _atom_site_fract_z
 _atom_site_occupancy
  Eu  Eu0  1  0.16997365  0.34020414  0.24997576  1
  Eu  Eu1  1  0.65976127  0.83003908  0.24997072  1
  Eu  Eu2  1  0.17017310  0.82990245  0.24997493  1
  Eu  Eu3  1  0.83008557  0.65998605  0.75003087  1
  Eu  Eu4  1  0.34005743  0.16988836  0.75003790  1
  Eu  Eu5  1  0.82992471  0.16998834  0.75003729  1
  Tm  Tm6  1  0.33330973  0.66676213  0.75025129  1
  Tm  Tm7  1  0.66671453  0.33322745  0.24972523  1
