# generated using pymatgen
data_Nd2SbO2
_symmetry_space_group_name_H-M   'P 1'
_cell_length_a   4.00014996
_cell_length_b   4.00242093
_cell_length_c   7.47861888
_cell_angle_alpha   74.47903757
_cell_angle_beta   74.48806593
_cell_angle_gamma   90.00000000
_symmetry_Int_Tables_number   1
_chemical_formula_structural   Nd2SbO2
_chemical_formula_sum   'Nd2 Sb1 O2'
_cell_volume   110.83534272
_cell_formula_units_Z   1
loop_
 _symmetry_equiv_pos_site_id
 _symmetry_equiv_pos_as_xyz
  1  'x, y, z'
loop_
 _atom_site_type_symbol
 _atom_site_label
 _atom_site_symmetry_multiplicity
 _atom_site_fract_x
 _atom_site_fract_y
 _atom_site_fract_z
 _atom_site_occupancy
  Nd  Nd0  1  0.33647723  0.35456150  0.32704554  1
  Nd  Nd1  1  0.66352277  0.68160704  0.67295446  1
  Sb  Sb2  1  0.00000000  0.01671441  0.00000000  1
  O  O3  1  0.75003100  0.26808952  0.49993800  1
  O  O4  1  0.24996900  0.76802752  0.50006200  1
