# generated using pymatgen
data_Nb6TlSe8
_symmetry_space_group_name_H-M   'P 1'
_cell_length_a   3.50300729
_cell_length_b   10.21383778
_cell_length_c   10.21343911
_cell_angle_alpha   119.99123722
_cell_angle_beta   89.99870516
_cell_angle_gamma   90.00039805
_symmetry_Int_Tables_number   1
_chemical_formula_structural   Nb6TlSe8
_chemical_formula_sum   'Nb6 Tl1 Se8'
_cell_volume   316.49800303
_cell_formula_units_Z   1
loop_
 _symmetry_equiv_pos_site_id
 _symmetry_equiv_pos_as_xyz
  1  'x, y, z'
loop_
 _atom_site_type_symbol
 _atom_site_label
 _atom_site_symmetry_multiplicity
 _atom_site_fract_x
 _atom_site_fract_y
 _atom_site_fract_z
 _atom_site_occupancy
  Nb  Nb0  1  0.74893196  0.38140957  0.89371393  1
  Nb  Nb1  1  0.74893298  0.10625087  0.48766279  1
  Nb  Nb2  1  0.74893127  0.51231416  0.61857651  1
  Nb  Nb3  1  0.25106804  0.61859043  0.10628607  1
  Nb  Nb4  1  0.25106702  0.89374913  0.51233721  1
  Nb  Nb5  1  0.25106873  0.48768584  0.38142349  1
  Tl  Tl6  1  0.50000000  0.00000000  0.00000000  1
  Se  Se7  1  0.75278698  0.05997924  0.71862577  1
  Se  Se8  1  0.75280541  0.28137300  0.34136098  1
  Se  Se9  1  0.75279203  0.65864274  0.94002673  1
  Se  Se10  1  0.24721302  0.94002076  0.28137423  1
  Se  Se11  1  0.24719459  0.71862700  0.65863902  1
  Se  Se12  1  0.24720797  0.34135726  0.05997327  1
  Se  Se13  1  0.75017958  0.66667132  0.33333638  1
  Se  Se14  1  0.24982042  0.33332868  0.66666362  1
