# generated using pymatgen
data_NbSeS
_symmetry_space_group_name_H-M   'P 1'
_cell_length_a   3.43057277
_cell_length_b   3.43065027
_cell_length_c   13.45482349
_cell_angle_alpha   89.99968044
_cell_angle_beta   89.99732898
_cell_angle_gamma   59.99905731
_symmetry_Int_Tables_number   1
_chemical_formula_structural   NbSeS
_chemical_formula_sum   'Nb2 Se2 S2'
_cell_volume   137.13477355
_cell_formula_units_Z   2
loop_
 _symmetry_equiv_pos_site_id
 _symmetry_equiv_pos_as_xyz
  1  'x, y, z'
loop_
 _atom_site_type_symbol
 _atom_site_label
 _atom_site_symmetry_multiplicity
 _atom_site_fract_x
 _atom_site_fract_y
 _atom_site_fract_z
 _atom_site_occupancy
  Nb  Nb0  1  0.00002132  0.99998908  0.73953253  1
  Nb  Nb1  1  0.99997868  0.00001092  0.26046747  1
  Se  Se2  1  0.66668774  0.66665520  0.13152852  1
  Se  Se3  1  0.33331226  0.33334480  0.86847148  1
  S  S4  1  0.33337066  0.33331434  0.62800019  1
  S  S5  1  0.66662934  0.66668566  0.37199981  1
