# generated using pymatgen
data_Nb5S8
_symmetry_space_group_name_H-M   'P 1'
_cell_length_a   5.81602062
_cell_length_b   5.81601899
_cell_length_c   25.43424623
_cell_angle_alpha   90.00187457
_cell_angle_beta   90.00179048
_cell_angle_gamma   59.99925014
_symmetry_Int_Tables_number   1
_chemical_formula_structural   Nb5S8
_chemical_formula_sum   'Nb15 S24'
_cell_volume   745.07153991
_cell_formula_units_Z   3
loop_
 _symmetry_equiv_pos_site_id
 _symmetry_equiv_pos_as_xyz
  1  'x, y, z'
loop_
 _atom_site_type_symbol
 _atom_site_label
 _atom_site_symmetry_multiplicity
 _atom_site_fract_x
 _atom_site_fract_y
 _atom_site_fract_z
 _atom_site_occupancy
  Nb  Nb0  1  0.33331785  0.33333329  0.24955952  1
  Nb  Nb1  1  0.33328555  0.33332871  0.74850413  1
  Nb  Nb2  1  0.66668695  0.66666583  0.25079107  1
  Nb  Nb3  1  0.66678415  0.66657394  0.74919736  1
  Nb  Nb4  1  0.66667707  0.66664442  0.50086132  1
  Nb  Nb5  1  0.66665743  0.66665673  0.99921483  1
  Nb  Nb6  1  0.33334712  0.33331553  0.00042698  1
  Nb  Nb7  1  0.33332702  0.33335246  0.50157261  1
  Nb  Nb8  1  0.00001283  0.00002281  0.25009110  1
  Nb  Nb9  1  0.99998363  0.00010196  0.74922010  1
  Nb  Nb10  1  0.99999118  0.00003092  0.99991129  1
  Nb  Nb11  1  0.99998335  0.99998425  0.50084624  1
  Nb  Nb12  1  0.33331284  0.33331685  0.37696103  1
  Nb  Nb13  1  0.33335075  0.33328847  0.87304276  1
  Nb  Nb14  1  0.66666358  0.66664915  0.12505211  1
  S  S15  1  0.66600189  0.00050615  0.43815215  1
  S  S16  1  0.66811271  0.99987285  0.93754004  1
  S  S17  1  0.00051848  0.33344056  0.43816049  1
  S  S18  1  0.99987515  0.33205265  0.93753752  1
  S  S19  1  0.33349875  0.66599947  0.43815260  1
  S  S20  1  0.33201888  0.66806603  0.93753812  1
  S  S21  1  0.66739583  0.00047568  0.06206344  1
  S  S22  1  0.66756342  0.99906336  0.56224945  1
  S  S23  1  0.33211688  0.66739921  0.06205869  1
  S  S24  1  0.33335455  0.66761879  0.56225335  1
  S  S25  1  0.00049556  0.33214802  0.06206110  1
  S  S26  1  0.99907792  0.33329369  0.56225153  1
  S  S27  1  0.33225185  0.00042814  0.18796484  1
  S  S28  1  0.33340284  0.99886938  0.68770552  1
  S  S29  1  0.00042582  0.66736905  0.18796904  1
  S  S30  1  0.99891591  0.66779604  0.68770551  1
  S  S31  1  0.66734145  0.33224055  0.18797432  1
  S  S32  1  0.66772068  0.33333800  0.68770982  1
  S  S33  1  0.33200610  0.99969236  0.31249012  1
  S  S34  1  0.33349971  0.00062911  0.81172863  1
  S  S35  1  0.66827932  0.33201223  0.31249173  1
  S  S36  1  0.66585482  0.33348887  0.81175273  1
  S  S37  1  0.99970034  0.66834137  0.31249337  1
  S  S38  1  0.00068984  0.66589313  0.81174347  1
