# generated using pymatgen
data_Na3NdTi2Nb2O12
_symmetry_space_group_name_H-M   'P 1'
_cell_length_a   5.51282585
_cell_length_b   5.60183178
_cell_length_c   7.84597394
_cell_angle_alpha   90.10311733
_cell_angle_beta   89.95285927
_cell_angle_gamma   90.16605234
_symmetry_Int_Tables_number   1
_chemical_formula_structural   Na3NdTi2Nb2O12
_chemical_formula_sum   'Na3 Nd1 Ti2 Nb2 O12'
_cell_volume   242.29727245
_cell_formula_units_Z   1
loop_
 _symmetry_equiv_pos_site_id
 _symmetry_equiv_pos_as_xyz
  1  'x, y, z'
loop_
 _atom_site_type_symbol
 _atom_site_label
 _atom_site_symmetry_multiplicity
 _atom_site_fract_x
 _atom_site_fract_y
 _atom_site_fract_z
 _atom_site_occupancy
  Na  Na0  1  0.50501762  0.51526942  0.25116619  1
  Na  Na1  1  0.99663375  0.01244968  0.25019906  1
  Na  Na2  1  0.49391833  0.47263781  0.74961881  1
  Nd  Nd3  1  0.00533200  0.95235743  0.74988273  1
  Ti  Ti4  1  0.50438090  0.98215467  0.99226538  1
  Ti  Ti5  1  0.99311104  0.47885858  0.50650632  1
  Nb  Nb6  1  0.50154641  0.99033492  0.48599043  1
  Nb  Nb7  1  0.99555068  0.48105980  0.01473957  1
  O  O8  1  0.43445814  0.98640160  0.24645523  1
  O  O9  1  0.07543731  0.49571366  0.25329139  1
  O  O10  1  0.57680614  0.02226689  0.75373433  1
  O  O11  1  0.93099982  0.51993281  0.74641699  1
  O  O12  1  0.78979583  0.79938598  0.02269516  1
  O  O13  1  0.71807087  0.29362676  0.46670779  1
  O  O14  1  0.20872053  0.22095702  0.54358615  1
  O  O15  1  0.27808831  0.73615970  0.95259033  1
  O  O16  1  0.21188690  0.21844902  0.95595811  1
  O  O17  1  0.27509609  0.73473206  0.54667026  1
  O  O18  1  0.79197503  0.79651705  0.47570369  1
  O  O19  1  0.71317430  0.29073515  0.03582210  1
