# generated using pymatgen
data_Nb10(SiB)3
_symmetry_space_group_name_H-M   'P 1'
_cell_length_a   6.36416298
_cell_length_b   6.36416298
_cell_length_c   7.39172262
_cell_angle_alpha   64.69724909
_cell_angle_beta   64.69724909
_cell_angle_gamma   90.41142446
_symmetry_Int_Tables_number   1
_chemical_formula_structural   Nb10(SiB)3
_chemical_formula_sum   'Nb10 Si3 B3'
_cell_volume   238.00187344
_cell_formula_units_Z   1
loop_
 _symmetry_equiv_pos_site_id
 _symmetry_equiv_pos_as_xyz
  1  'x, y, z'
loop_
 _atom_site_type_symbol
 _atom_site_label
 _atom_site_symmetry_multiplicity
 _atom_site_fract_x
 _atom_site_fract_y
 _atom_site_fract_z
 _atom_site_occupancy
  Nb  Nb0  1  0.31929209  0.80993854  0.71677117  1
  Nb  Nb1  1  0.97329029  0.46393674  0.71677117  1
  Nb  Nb2  1  0.46951913  0.30674956  0.72373131  1
  Nb  Nb3  1  0.80047447  0.98322364  0.71630189  1
  Nb  Nb4  1  0.69006146  0.18070791  0.28322883  1
  Nb  Nb5  1  0.03606326  0.52670971  0.28322883  1
  Nb  Nb6  1  0.51677636  0.69952553  0.28369811  1
  Nb  Nb7  1  0.19325044  0.03048087  0.27626869  1
  Nb  Nb8  1  0.49391617  0.49861906  1.00000000  1
  Nb  Nb9  1  0.00138094  0.00608383  0.00000000  1
  Si  Si10  1  0.88032510  0.61967490  0.00000000  1
  Si  Si11  1  0.75343249  0.74656751  0.50000000  1
  Si  Si12  1  0.25343249  0.24656751  0.50000000  1
  B  B13  1  0.38324099  0.88673999  0.00000000  1
  B  B14  1  0.61326001  0.11675901  1.00000000  1
  B  B15  1  0.12228432  0.37771568  -0.00000000  1
