# generated using pymatgen
data_Na4Li(NiO2)5
_symmetry_space_group_name_H-M   'P 1'
_cell_length_a   2.86289793
_cell_length_b   6.16837979
_cell_length_c   11.41142194
_cell_angle_alpha   95.20464259
_cell_angle_beta   97.20617162
_cell_angle_gamma   89.99999775
_symmetry_Int_Tables_number   1
_chemical_formula_structural   Na4Li(NiO2)5
_chemical_formula_sum   'Na4 Li1 Ni5 O10'
_cell_volume   199.09008272
_cell_formula_units_Z   1
loop_
 _symmetry_equiv_pos_site_id
 _symmetry_equiv_pos_as_xyz
  1  'x, y, z'
loop_
 _atom_site_type_symbol
 _atom_site_label
 _atom_site_symmetry_multiplicity
 _atom_site_fract_x
 _atom_site_fract_y
 _atom_site_fract_z
 _atom_site_occupancy
  Na  Na0  1  0.59766623  0.79852546  0.19533247  1
  Na  Na1  1  0.19932290  0.59896666  0.39864581  1
  Na  Na2  1  0.80067710  0.40103334  0.60135419  1
  Na  Na3  1  0.40233377  0.20147454  0.80466753  1
  Li  Li4  1  0.00000000  -0.00000000  0.00000000  1
  Ni  Ni5  1  0.19884124  0.09688659  0.39768247  1
  Ni  Ni6  1  0.00000000  0.50000000  0.00000000  1
  Ni  Ni7  1  0.59742754  0.29424186  0.19485508  1
  Ni  Ni8  1  0.40257246  0.70575814  0.80514492  1
  Ni  Ni9  1  0.80115876  0.90311341  0.60231753  1
  O  O10  1  0.70294517  0.89302893  0.40589034  1
  O  O11  1  0.50337899  0.28496450  0.00675797  1
  O  O12  1  0.09886120  0.08849001  0.19772239  1
  O  O13  1  0.90465515  0.49863270  0.80931029  1
  O  O14  1  0.30540101  0.69807720  0.61080203  1
  O  O15  1  0.69459899  0.30192280  0.38919797  1
  O  O16  1  0.49662101  0.71503550  0.99324203  1
  O  O17  1  0.09534485  0.50136730  0.19068971  1
  O  O18  1  0.90113880  0.91150999  0.80227761  1
  O  O19  1  0.29705483  0.10697107  0.59410966  1
