# generated using pymatgen
data_Na3CaSc3Zn(SiO3)8
_symmetry_space_group_name_H-M   'P 1'
_cell_length_a   5.37676797
_cell_length_b   9.86001280
_cell_length_c   9.12738122
_cell_angle_alpha   90.00000000
_cell_angle_beta   90.00000000
_cell_angle_gamma   104.66829773
_symmetry_Int_Tables_number   1
_chemical_formula_structural   Na3CaSc3Zn(SiO3)8
_chemical_formula_sum   'Na3 Ca1 Sc3 Zn1 Si8 O24'
_cell_volume   468.11724785
_cell_formula_units_Z   1
loop_
 _symmetry_equiv_pos_site_id
 _symmetry_equiv_pos_as_xyz
  1  'x, y, z'
loop_
 _atom_site_type_symbol
 _atom_site_label
 _atom_site_symmetry_multiplicity
 _atom_site_fract_x
 _atom_site_fract_y
 _atom_site_fract_z
 _atom_site_occupancy
  Na  Na0  1  0.25000000  0.50000000  0.80541456  1
  Na  Na1  1  0.75000000  0.00000000  0.30025380  1
  Na  Na2  1  0.75000000  0.50000000  0.19461123  1
  Ca  Ca3  1  0.25000000  0.00000000  0.70339327  1
  Sc  Sc4  1  0.25000000  0.50000000  0.39279978  1
  Sc  Sc5  1  0.75000000  0.50000000  0.60616663  1
  Sc  Sc6  1  0.25000000  0.00000000  0.10144244  1
  Zn  Zn7  1  0.75000000  0.00000000  0.90172553  1
  Si  Si8  1  0.45062478  0.71114459  0.08708742  1
  Si  Si9  1  0.94848156  0.21020568  0.58918293  1
  Si  Si10  1  0.04937522  0.28885541  0.08708742  1
  Si  Si11  1  0.55151844  0.78979432  0.58918293  1
  Si  Si12  1  0.55019860  0.29001641  0.91289164  1
  Si  Si13  1  0.04925065  0.78917215  0.41020623  1
  Si  Si14  1  0.94980140  0.70998359  0.91289164  1
  Si  Si15  1  0.45074935  0.21082785  0.41020623  1
  O  O16  1  0.44839627  0.63981981  0.24720160  1
  O  O17  1  0.95764084  0.13814467  0.74617871  1
  O  O18  1  0.05160373  0.36018019  0.24720160  1
  O  O19  1  0.54235916  0.86185533  0.74617871  1
  O  O20  1  0.55174401  0.35950546  0.75206454  1
  O  O21  1  0.05047360  0.86014155  0.25171108  1
  O  O22  1  0.94825599  0.64049454  0.75206454  1
  O  O23  1  0.44952640  0.13985845  0.25171108  1
  O  O24  1  0.16228896  0.65008952  0.01054737  1
  O  O25  1  0.65876840  0.15001865  0.51275896  1
  O  O26  1  0.33771104  0.34991048  0.01054737  1
  O  O27  1  0.84123160  0.84998135  0.51275896  1
  O  O28  1  0.83671183  0.34909387  0.98950975  1
  O  O29  1  0.33502610  0.85009286  0.49110498  1
  O  O30  1  0.66328817  0.65090613  0.98950975  1
  O  O31  1  0.16497390  0.14990714  0.49110498  1
  O  O32  1  0.52487760  0.88209638  0.08271481  1
  O  O33  1  0.02604264  0.38183851  0.57892996  1
  O  O34  1  0.97512240  0.11790362  0.08271481  1
  O  O35  1  0.47395736  0.61816149  0.57892996  1
  O  O36  1  0.46715806  0.11784200  0.91488294  1
  O  O37  1  0.97300573  0.61779190  0.42012346  1
  O  O38  1  0.03284194  0.88215800  0.91488294  1
  O  O39  1  0.52699427  0.38220810  0.42012346  1
