# generated using pymatgen
data_Na4Al3FeO8
_symmetry_space_group_name_H-M   'P 1'
_cell_length_a   5.33128671
_cell_length_b   5.54082583
_cell_length_c   7.11489471
_cell_angle_alpha   89.97503500
_cell_angle_beta   89.99625608
_cell_angle_gamma   90.01533303
_symmetry_Int_Tables_number   1
_chemical_formula_structural   Na4Al3FeO8
_chemical_formula_sum   'Na4 Al3 Fe1 O8'
_cell_volume   210.17204865
_cell_formula_units_Z   1
loop_
 _symmetry_equiv_pos_site_id
 _symmetry_equiv_pos_as_xyz
  1  'x, y, z'
loop_
 _atom_site_type_symbol
 _atom_site_label
 _atom_site_symmetry_multiplicity
 _atom_site_fract_x
 _atom_site_fract_y
 _atom_site_fract_z
 _atom_site_occupancy
  Na  Na0  1  0.48493745  0.93150984  0.37687691  1
  Na  Na1  1  0.98571358  0.07149695  0.62498296  1
  Na  Na2  1  0.98691999  0.57345257  0.87710406  1
  Na  Na3  1  0.48558821  0.42657806  0.12132798  1
  Al  Al4  1  0.50075324  0.43667145  0.63198715  1
  Al  Al5  1  0.49865730  0.93742046  0.87426760  1
  Al  Al6  1  0.99856041  0.06098094  0.11956824  1
  Fe  Fe7  1  0.99895279  0.56147095  0.37378271  1
  O  O8  1  0.34808055  0.53106909  0.42215868  1
  O  O9  1  0.82938584  0.45963870  0.59248414  1
  O  O10  1  0.82612749  0.96059871  0.92066252  1
  O  O11  1  0.32617078  0.03026492  0.07592214  1
  O  O12  1  0.92480804  0.89280588  0.32638051  1
  O  O13  1  0.42705570  0.12700235  0.67789230  1
  O  O14  1  0.42564074  0.62819752  0.82620656  1
  O  O15  1  0.92464790  0.37084161  0.15839553  1
