# generated using pymatgen
data_Mn3V2Ga2Co
_symmetry_space_group_name_H-M   'P 1'
_cell_length_a   4.08665771
_cell_length_b   4.08665771
_cell_length_c   7.08430244
_cell_angle_alpha   73.23598461
_cell_angle_beta   90.00000000
_cell_angle_gamma   120.00000000
_symmetry_Int_Tables_number   1
_chemical_formula_structural   Mn3V2Ga2Co
_chemical_formula_sum   'Mn3 V2 Ga2 Co1'
_cell_volume   96.61264515
_cell_formula_units_Z   1
loop_
 _symmetry_equiv_pos_site_id
 _symmetry_equiv_pos_as_xyz
  1  'x, y, z'
loop_
 _atom_site_type_symbol
 _atom_site_label
 _atom_site_symmetry_multiplicity
 _atom_site_fract_x
 _atom_site_fract_y
 _atom_site_fract_z
 _atom_site_occupancy
  Mn  Mn0  1  0.50013718  0.00027437  0.49958845  1
  Mn  Mn1  1  0.24938947  0.49877895  0.25183158  1
  Mn  Mn2  1  0.75040093  0.50080187  0.74879720  1
  V  V3  1  0.87405172  0.74810343  0.37784485  1
  V  V4  1  0.37605966  0.75211932  0.87182101  1
  Ga  Ga5  1  0.62566508  0.25133016  0.12300476  1
  Ga  Ga6  1  0.12430484  0.24860967  0.62708549  1
  Co  Co7  1  0.99999112  0.99998223  0.00002665  1
