# generated using pymatgen
data_MnV2P2(H4O7)2
_symmetry_space_group_name_H-M   'P 1'
_cell_length_a   6.33109643
_cell_length_b   6.33109643
_cell_length_c   8.20588490
_cell_angle_alpha   67.30872462
_cell_angle_beta   67.30872462
_cell_angle_gamma   90.00000000
_symmetry_Int_Tables_number   1
_chemical_formula_structural   MnV2P2(H4O7)2
_chemical_formula_sum   'Mn1 V2 P2 H8 O14'
_cell_volume   275.65521489
_cell_formula_units_Z   1
loop_
 _symmetry_equiv_pos_site_id
 _symmetry_equiv_pos_as_xyz
  1  'x, y, z'
loop_
 _atom_site_type_symbol
 _atom_site_label
 _atom_site_symmetry_multiplicity
 _atom_site_fract_x
 _atom_site_fract_y
 _atom_site_fract_z
 _atom_site_occupancy
  Mn  Mn0  1  -0.00000000  -0.00000000  0.00000000  1
  V  V1  1  0.27432320  0.27432320  0.45135361  1
  V  V2  1  0.72567680  0.72567680  0.54864639  1
  P  P3  1  0.25000000  0.75000000  0.50000000  1
  P  P4  1  0.75000000  0.25000000  0.50000000  1
  H  H5  1  0.27293422  0.40196427  0.88359341  1
  H  H6  1  0.84347237  0.71444231  0.88359341  1
  H  H7  1  0.71444231  0.27293422  0.88359341  1
  H  H8  1  0.40196427  0.84347237  0.88359341  1
  H  H9  1  0.72706578  0.59803573  0.11640659  1
  H  H10  1  0.15652763  0.28555769  0.11640659  1
  H  H11  1  0.28555769  0.72706578  0.11640659  1
  H  H12  1  0.59803573  0.15652763  0.11640659  1
  O  O13  1  0.28252913  0.61970092  0.36785088  1
  O  O14  1  0.34961999  0.01244821  0.36785088  1
  O  O15  1  0.01244821  0.28252913  0.36785088  1
  O  O16  1  0.61970092  0.34961999  0.36785088  1
  O  O17  1  0.71747087  0.38029908  0.63214912  1
  O  O18  1  0.65038001  0.98755179  0.63214912  1
  O  O19  1  0.98755179  0.71747087  0.63214912  1
  O  O20  1  0.38029908  0.65038001  0.63214912  1
  O  O21  1  0.15470300  0.15470300  0.69059400  1
  O  O22  1  0.84529700  0.84529700  0.30940600  1
  O  O23  1  0.23169847  0.25437235  1.00000000  1
  O  O24  1  0.76830153  0.74562765  0.00000000  1
  O  O25  1  0.74562765  0.23169847  1.00000000  1
  O  O26  1  0.25437235  0.76830153  0.00000000  1
