# generated using pymatgen
data_LuMn6GaGe5
_symmetry_space_group_name_H-M   'P 1'
_cell_length_a   5.15713286
_cell_length_b   5.15667749
_cell_length_c   8.12148510
_cell_angle_alpha   90.00292387
_cell_angle_beta   90.00584733
_cell_angle_gamma   59.99708154
_symmetry_Int_Tables_number   1
_chemical_formula_structural   LuMn6GaGe5
_chemical_formula_sum   'Lu1 Mn6 Ga1 Ge5'
_cell_volume   187.03875349
_cell_formula_units_Z   1
loop_
 _symmetry_equiv_pos_site_id
 _symmetry_equiv_pos_as_xyz
  1  'x, y, z'
loop_
 _atom_site_type_symbol
 _atom_site_label
 _atom_site_symmetry_multiplicity
 _atom_site_fract_x
 _atom_site_fract_y
 _atom_site_fract_z
 _atom_site_occupancy
  Lu  Lu0  1  0.99998144  1.00000000  0.99859424  1
  Mn  Mn1  1  0.49999682  0.49997612  0.24921642  1
  Mn  Mn2  1  0.50000744  0.00000000  0.24920409  1
  Mn  Mn3  1  0.99997294  0.50002388  0.24921642  1
  Mn  Mn4  1  0.49999454  0.49998442  0.75133620  1
  Mn  Mn5  1  0.50001283  1.00000000  0.75132062  1
  Mn  Mn6  1  0.99997895  0.50001558  0.75133620  1
  Ga  Ga7  1  0.99994328  -0.00000000  0.65589333  1
  Ge  Ge8  1  0.66662196  0.66669230  0.99933637  1
  Ge  Ge9  1  0.33331426  0.33330770  0.99933637  1
  Ge  Ge10  1  0.66665421  0.66664332  0.50204432  1
  Ge  Ge11  1  0.33329754  0.33335668  0.50204432  1
  Ge  Ge12  1  0.00002380  0.00000000  0.34112110  1
