# generated using pymatgen
data_MgScBO4
_symmetry_space_group_name_H-M   'P 1'
_cell_length_a   3.26244075
_cell_length_b   9.52631122
_cell_length_c   9.54241444
_cell_angle_alpha   90.00000000
_cell_angle_beta   90.00000000
_cell_angle_gamma   90.00000000
_symmetry_Int_Tables_number   1
_chemical_formula_structural   MgScBO4
_chemical_formula_sum   'Mg4 Sc4 B4 O16'
_cell_volume   296.56894573
_cell_formula_units_Z   4
loop_
 _symmetry_equiv_pos_site_id
 _symmetry_equiv_pos_as_xyz
  1  'x, y, z'
loop_
 _atom_site_type_symbol
 _atom_site_label
 _atom_site_symmetry_multiplicity
 _atom_site_fract_x
 _atom_site_fract_y
 _atom_site_fract_z
 _atom_site_occupancy
  Mg  Mg0  1  0.75000000  0.69178463  0.09797281  1
  Mg  Mg1  1  0.75000000  0.80821537  0.59797281  1
  Mg  Mg2  1  0.75000000  0.06869825  0.11889801  1
  Mg  Mg3  1  0.75000000  0.43130175  0.61889801  1
  Sc  Sc4  1  0.25000000  0.30667625  0.90285232  1
  Sc  Sc5  1  0.25000000  0.19332375  0.40285232  1
  Sc  Sc6  1  0.25000000  0.91747480  0.89160788  1
  Sc  Sc7  1  0.25000000  0.58252520  0.39160788  1
  B  B8  1  0.75000000  0.37812508  0.17473889  1
  B  B9  1  0.75000000  0.12187492  0.67473889  1
  B  B10  1  0.25000000  0.62392763  0.82614122  1
  B  B11  1  0.25000000  0.87607237  0.32614122  1
  O  O12  1  0.75000000  0.61565730  0.51014090  1
  O  O13  1  0.75000000  0.88434270  0.01014090  1
  O  O14  1  0.25000000  0.38203992  0.48621024  1
  O  O15  1  0.25000000  0.11796008  0.98621024  1
  O  O16  1  0.75000000  0.50913209  0.23416334  1
  O  O17  1  0.75000000  0.99086791  0.73416334  1
  O  O18  1  0.25000000  0.49096015  0.76310527  1
  O  O19  1  0.25000000  0.00903985  0.26310527  1
  O  O20  1  0.75000000  0.36500466  0.02927392  1
  O  O21  1  0.75000000  0.13499534  0.52927392  1
  O  O22  1  0.25000000  0.63976451  0.96949623  1
  O  O23  1  0.25000000  0.86023549  0.46949623  1
  O  O24  1  0.75000000  0.25271358  0.25265994  1
  O  O25  1  0.75000000  0.24728642  0.75265994  1
  O  O26  1  0.25000000  0.74560587  0.74273906  1
  O  O27  1  0.25000000  0.75439413  0.24273906  1
