# generated using pymatgen
data_MoSeS
_symmetry_space_group_name_H-M   'P 1'
_cell_length_a   3.25791568
_cell_length_b   3.25802374
_cell_length_c   14.26265377
_cell_angle_alpha   90.00000000
_cell_angle_beta   90.00576581
_cell_angle_gamma   59.99890277
_symmetry_Int_Tables_number   1
_chemical_formula_structural   MoSeS
_chemical_formula_sum   'Mo2 Se2 S2'
_cell_volume   131.10530068
_cell_formula_units_Z   2
loop_
 _symmetry_equiv_pos_site_id
 _symmetry_equiv_pos_as_xyz
  1  'x, y, z'
loop_
 _atom_site_type_symbol
 _atom_site_label
 _atom_site_symmetry_multiplicity
 _atom_site_fract_x
 _atom_site_fract_y
 _atom_site_fract_z
 _atom_site_occupancy
  Mo  Mo0  1  0.00009983  0.99995008  0.74221371  1
  Mo  Mo1  1  0.99990017  0.00004992  0.25778629  1
  Se  Se2  1  0.66651327  0.66674337  0.13788471  1
  Se  Se3  1  0.33348673  0.33325663  0.86211529  1
  S  S4  1  0.33335874  0.33332063  0.63483483  1
  S  S5  1  0.66664126  0.66667937  0.36516517  1
