# generated using pymatgen
data_Mn3FeP4
_symmetry_space_group_name_H-M   'P 1'
_cell_length_a   3.13255006
_cell_length_b   5.16150731
_cell_length_c   5.81082199
_cell_angle_alpha   89.99577375
_cell_angle_beta   90.00000000
_cell_angle_gamma   90.00000000
_symmetry_Int_Tables_number   1
_chemical_formula_structural   Mn3FeP4
_chemical_formula_sum   'Mn3 Fe1 P4'
_cell_volume   93.95332136
_cell_formula_units_Z   1
loop_
 _symmetry_equiv_pos_site_id
 _symmetry_equiv_pos_as_xyz
  1  'x, y, z'
loop_
 _atom_site_type_symbol
 _atom_site_label
 _atom_site_symmetry_multiplicity
 _atom_site_fract_x
 _atom_site_fract_y
 _atom_site_fract_z
 _atom_site_occupancy
  Mn  Mn0  1  0.75000000  0.99368667  0.80668636  1
  Mn  Mn1  1  0.25000000  0.50314904  0.29842866  1
  Mn  Mn2  1  0.25000000  0.00358980  0.19957127  1
  Fe  Fe3  1  0.75000000  0.49490001  0.69468480  1
  P  P4  1  0.75000000  0.31314233  0.06551587  1
  P  P5  1  0.75000000  0.81415174  0.43441711  1
  P  P6  1  0.25000000  0.68799343  0.92618178  1
  P  P7  1  0.25000000  0.18938699  0.57451416  1
