# generated using pymatgen
data_MnCd4O5
_symmetry_space_group_name_H-M   'P 1'
_cell_length_a   3.34100867
_cell_length_b   3.34100867
_cell_length_c   13.83149453
_cell_angle_alpha   83.06314459
_cell_angle_beta   90.00000000
_cell_angle_gamma   120.00000000
_symmetry_Int_Tables_number   1
_chemical_formula_structural   MnCd4O5
_chemical_formula_sum   'Mn1 Cd4 O5'
_cell_volume   132.40063142
_cell_formula_units_Z   1
loop_
 _symmetry_equiv_pos_site_id
 _symmetry_equiv_pos_as_xyz
  1  'x, y, z'
loop_
 _atom_site_type_symbol
 _atom_site_label
 _atom_site_symmetry_multiplicity
 _atom_site_fract_x
 _atom_site_fract_y
 _atom_site_fract_z
 _atom_site_occupancy
  Mn  Mn0  1  0.00000000  0.00000000  -0.00000000  1
  Cd  Cd1  1  0.60266423  0.20532847  0.19200730  1
  Cd  Cd2  1  0.20106347  0.40212694  0.39680959  1
  Cd  Cd3  1  0.79893653  0.59787306  0.60319041  1
  Cd  Cd4  1  0.39733577  0.79467153  0.80799270  1
  O  O5  1  0.69570676  0.39141352  0.91287972  1
  O  O6  1  0.50000000  0.00000000  0.50000000  1
  O  O7  1  0.09768082  0.19536165  0.70695753  1
  O  O8  1  0.30429324  0.60858648  0.08712028  1
  O  O9  1  0.90231918  0.80463835  0.29304247  1
