# generated using pymatgen
data_MgTi3ZnNiO9
_symmetry_space_group_name_H-M   'P 1'
_cell_length_a   5.10036570
_cell_length_b   5.10036571
_cell_length_c   14.06410362
_cell_angle_alpha   90.00000000
_cell_angle_beta   90.00000000
_cell_angle_gamma   120.00000683
_symmetry_Int_Tables_number   1
_chemical_formula_structural   MgTi3ZnNiO9
_chemical_formula_sum   'Mg2 Ti6 Zn2 Ni2 O18'
_cell_volume   316.84385851
_cell_formula_units_Z   2
loop_
 _symmetry_equiv_pos_site_id
 _symmetry_equiv_pos_as_xyz
  1  'x, y, z'
loop_
 _atom_site_type_symbol
 _atom_site_label
 _atom_site_symmetry_multiplicity
 _atom_site_fract_x
 _atom_site_fract_y
 _atom_site_fract_z
 _atom_site_occupancy
  Mg  Mg0  1  0.33333300  0.66666700  0.31359492  1
  Mg  Mg1  1  -0.00000000  0.00000000  0.64633144  1
  Ti  Ti2  1  0.00000000  0.00000000  0.85511236  1
  Ti  Ti3  1  0.66666700  0.33333300  0.18946234  1
  Ti  Ti4  1  0.33333300  0.66666700  0.52338255  1
  Ti  Ti5  1  0.33333300  0.66666700  0.80947646  1
  Ti  Ti6  1  -0.00000000  0.00000000  0.14537313  1
  Ti  Ti7  1  0.66666700  0.33333300  0.47660707  1
  Zn  Zn8  1  0.66666700  0.33333300  0.97332788  1
  Zn  Zn9  1  0.33333300  0.66666700  0.02495739  1
  Ni  Ni10  1  -0.00000000  0.00000000  0.35120722  1
  Ni  Ni11  1  0.66666700  0.33333300  0.68418482  1
  O  O12  1  0.34971189  0.31231047  0.08841142  1
  O  O13  1  0.01743971  0.64789440  0.42040458  1
  O  O14  1  0.68401316  0.98143221  0.75322583  1
  O  O15  1  0.96259959  0.65028811  0.08841142  1
  O  O16  1  0.63045369  0.98256029  0.42040458  1
  O  O17  1  0.29741904  0.31598684  0.75322583  1
  O  O18  1  0.68768953  0.03740041  0.08841142  1
  O  O19  1  0.35210560  0.36954631  0.42040458  1
  O  O20  1  0.01856779  0.70258096  0.75322583  1
  O  O21  1  0.31706391  0.02116132  0.24750975  1
  O  O22  1  0.98314406  0.35479799  0.58044678  1
  O  O23  1  0.64999987  0.68786354  0.91232913  1
  O  O24  1  0.70409741  0.68293609  0.24750975  1
  O  O25  1  0.37165493  0.01685594  0.58044678  1
  O  O26  1  0.03786266  0.35000013  0.91232913  1
  O  O27  1  0.97883868  0.29590259  0.24750975  1
  O  O28  1  0.64520201  0.62834507  0.58044678  1
  O  O29  1  0.31213646  0.96213734  0.91232913  1
