# generated using pymatgen
data_MoWO6
_symmetry_space_group_name_H-M   'P 1'
_cell_length_a   3.93112332
_cell_length_b   3.93112332
_cell_length_c   7.55806198
_cell_angle_alpha   89.97706534
_cell_angle_beta   90.02293466
_cell_angle_gamma   89.97745377
_symmetry_Int_Tables_number   1
_chemical_formula_structural   MoWO6
_chemical_formula_sum   'Mo1 W1 O6'
_cell_volume   116.80022549
_cell_formula_units_Z   1
loop_
 _symmetry_equiv_pos_site_id
 _symmetry_equiv_pos_as_xyz
  1  'x, y, z'
loop_
 _atom_site_type_symbol
 _atom_site_label
 _atom_site_symmetry_multiplicity
 _atom_site_fract_x
 _atom_site_fract_y
 _atom_site_fract_z
 _atom_site_occupancy
  Mo  Mo0  1  0.92890958  0.07109042  0.74298251  1
  W  W1  1  0.05438456  0.94561544  0.24329513  1
  O  O2  1  0.02917071  0.47745510  0.24147254  1
  O  O3  1  0.52254490  0.97082929  0.24147254  1
  O  O4  1  0.97161616  0.51752756  0.74107699  1
  O  O5  1  0.48247244  0.02838384  0.74107699  1
  O  O6  1  0.00613812  0.99386188  0.49342199  1
  O  O7  1  0.00476354  0.99523646  0.98920132  1
