# generated using pymatgen
data_Li2Mg3Si2
_symmetry_space_group_name_H-M   'P 1'
_cell_length_a   4.50247679
_cell_length_b   4.50247679
_cell_length_c   7.80440960
_cell_angle_alpha   73.23438469
_cell_angle_beta   90.00000000
_cell_angle_gamma   120.00000000
_symmetry_Int_Tables_number   1
_chemical_formula_structural   Li2Mg3Si2
_chemical_formula_sum   'Li2 Mg3 Si2'
_cell_volume   129.19281121
_cell_formula_units_Z   1
loop_
 _symmetry_equiv_pos_site_id
 _symmetry_equiv_pos_as_xyz
  1  'x, y, z'
loop_
 _atom_site_type_symbol
 _atom_site_label
 _atom_site_symmetry_multiplicity
 _atom_site_fract_x
 _atom_site_fract_y
 _atom_site_fract_z
 _atom_site_occupancy
  Li  Li0  1  0.25474929  0.50949859  0.23575212  1
  Li  Li1  1  0.63067217  0.26134433  0.10798350  1
  Mg  Mg2  1  0.87299904  0.74599807  0.38100289  1
  Mg  Mg3  1  0.37552485  0.75104971  0.87342544  1
  Mg  Mg4  1  0.11856130  0.23712260  0.64431610  1
  Si  Si5  1  0.99567206  0.99134411  0.01298383  1
  Si  Si6  1  0.50182130  0.00364259  0.49453611  1
