# generated using pymatgen
data_LaTiNbO6
_symmetry_space_group_name_H-M   'P 1'
_cell_length_a   5.48200601
_cell_length_b   7.64754017
_cell_length_c   11.16186062
_cell_angle_alpha   90.00000000
_cell_angle_beta   90.00000000
_cell_angle_gamma   90.00000000
_symmetry_Int_Tables_number   1
_chemical_formula_structural   LaTiNbO6
_chemical_formula_sum   'La4 Ti4 Nb4 O24'
_cell_volume   467.94829507
_cell_formula_units_Z   4
loop_
 _symmetry_equiv_pos_site_id
 _symmetry_equiv_pos_as_xyz
  1  'x, y, z'
loop_
 _atom_site_type_symbol
 _atom_site_label
 _atom_site_symmetry_multiplicity
 _atom_site_fract_x
 _atom_site_fract_y
 _atom_site_fract_z
 _atom_site_occupancy
  La  La0  1  0.04426067  0.75035473  0.45916148  1
  La  La1  1  0.45573933  0.75035473  0.95916148  1
  La  La2  1  0.95573933  0.25035473  0.54083852  1
  La  La3  1  0.54426067  0.25035473  0.04083852  1
  Ti  Ti4  1  0.53042787  0.00743851  0.35778220  1
  Ti  Ti5  1  0.46957213  0.50743851  0.64221780  1
  Ti  Ti6  1  0.03042787  0.50743851  0.14221780  1
  Ti  Ti7  1  0.96957213  0.00743851  0.85778220  1
  Nb  Nb8  1  0.96435063  0.49450005  0.85373602  1
  Nb  Nb9  1  0.03564937  0.99450005  0.14626398  1
  Nb  Nb10  1  0.46435063  0.99450005  0.64626398  1
  Nb  Nb11  1  0.53564937  0.49450005  0.35373602  1
  O  O12  1  0.86973083  0.94657420  0.29154312  1
  O  O13  1  0.62250507  0.55208556  0.78926358  1
  O  O14  1  0.13026917  0.44657420  0.70845688  1
  O  O15  1  0.37749493  0.05208556  0.21073642  1
  O  O16  1  0.12250507  0.05208556  0.71073642  1
  O  O17  1  0.36973083  0.44657420  0.20845688  1
  O  O18  1  0.87749493  0.55208556  0.28926358  1
  O  O19  1  0.63026917  0.94657420  0.79154312  1
  O  O20  1  0.73161199  0.96622635  0.52721446  1
  O  O21  1  0.76869608  0.53377171  0.02937436  1
  O  O22  1  0.26838801  0.46622635  0.47278554  1
  O  O23  1  0.23130392  0.03377171  0.97062564  1
  O  O24  1  0.26869608  0.03377171  0.47062564  1
  O  O25  1  0.23161199  0.46622635  0.97278554  1
  O  O26  1  0.73130392  0.53377171  0.52937436  1
  O  O27  1  0.76838801  0.96622635  0.02721446  1
  O  O28  1  0.46323659  0.75174883  0.35746400  1
  O  O29  1  0.03676341  0.75174883  0.85746400  1
  O  O30  1  0.53676341  0.25174883  0.64253600  1
  O  O31  1  0.96323659  0.25174883  0.14253600  1
  O  O32  1  0.64887752  0.24730005  0.37705407  1
  O  O33  1  0.85112248  0.24730005  0.87705407  1
  O  O34  1  0.35112248  0.74730005  0.62294593  1
  O  O35  1  0.14887752  0.74730005  0.12294593  1
