# generated using pymatgen
data_Li2HN
_symmetry_space_group_name_H-M   'P 1'
_cell_length_a   7.15156067
_cell_length_b   7.14191905
_cell_length_c   7.09737457
_cell_angle_alpha   90.00000000
_cell_angle_beta   60.25032431
_cell_angle_gamma   119.95541244
_symmetry_Int_Tables_number   1
_chemical_formula_structural   Li2HN
_chemical_formula_sum   'Li16 H8 N8'
_cell_volume   257.46698566
_cell_formula_units_Z   8
loop_
 _symmetry_equiv_pos_site_id
 _symmetry_equiv_pos_as_xyz
  1  'x, y, z'
loop_
 _atom_site_type_symbol
 _atom_site_label
 _atom_site_symmetry_multiplicity
 _atom_site_fract_x
 _atom_site_fract_y
 _atom_site_fract_z
 _atom_site_occupancy
  Li  Li0  1  0.21482641  0.09517683  0.14258679  1
  Li  Li1  1  0.78517359  0.88035041  0.85741321  1
  Li  Li2  1  0.76062371  0.87476480  0.36968815  1
  Li  Li3  1  0.76037739  0.37549530  0.86981131  1
  Li  Li4  1  0.23208886  0.87947518  0.87780829  1
  Li  Li5  1  0.22935261  0.34535533  0.39781818  1
  Li  Li6  1  0.22935261  0.34535533  0.87282922  1
  Li  Li7  1  0.23208886  0.87947518  0.39010286  1
  Li  Li8  1  0.23937629  0.11414109  0.63031185  1
  Li  Li9  1  0.23962261  0.61511791  0.13018869  1
  Li  Li10  1  0.77064739  0.11600272  0.12717078  1
  Li  Li11  1  0.76791114  0.64738633  0.60989714  1
  Li  Li12  1  0.76791114  0.64738633  0.12219171  1
  Li  Li13  1  0.77064739  0.11600272  0.60218182  1
  Li  Li14  1  0.48153326  0.47219196  0.00923337  1
  Li  Li15  1  0.51846674  0.99065870  0.99076663  1
  H  H16  1  0.89974322  0.58530351  0.30012839  1
  H  H17  1  0.91579078  0.31250072  0.29210461  1
  H  H18  1  0.60443195  0.30517536  0.61190996  1
  H  H19  1  0.60443195  0.30517536  0.28365809  1
  H  H20  1  0.08420922  0.39670994  0.70789539  1
  H  H21  1  0.10025678  0.68556030  0.69987161  1
  H  H22  1  0.39556805  0.70074341  0.38809004  1
  H  H23  1  0.39556805  0.70074341  0.71634191  1
  N  N24  1  0.01649281  0.76304071  0.24175359  1
  N  N25  1  0.02880109  0.24829530  0.23559945  1
  N  N26  1  0.47876209  0.23957449  0.78942493  1
  N  N27  1  0.47876209  0.23957449  0.23181298  1
  N  N28  1  0.97119891  0.21949421  0.76440055  1
  N  N29  1  0.98350719  0.74654789  0.75824641  1
  N  N30  1  0.52123791  0.76081240  0.21057507  1
  N  N31  1  0.52123791  0.76081240  0.76818702  1
