# generated using pymatgen
data_LaCe(B2Rh3)2
_symmetry_space_group_name_H-M   'P 1'
_cell_length_a   3.12183549
_cell_length_b   5.53103749
_cell_length_c   9.58132833
_cell_angle_alpha   89.99999998
_cell_angle_beta   90.00000000
_cell_angle_gamma   90.00000000
_symmetry_Int_Tables_number   1
_chemical_formula_structural   LaCe(B2Rh3)2
_chemical_formula_sum   'La1 Ce1 B4 Rh6'
_cell_volume   165.44069212
_cell_formula_units_Z   1
loop_
 _symmetry_equiv_pos_site_id
 _symmetry_equiv_pos_as_xyz
  1  'x, y, z'
loop_
 _atom_site_type_symbol
 _atom_site_label
 _atom_site_symmetry_multiplicity
 _atom_site_fract_x
 _atom_site_fract_y
 _atom_site_fract_z
 _atom_site_occupancy
  La  La0  1  -0.00000000  0.49999330  0.50000000  1
  Ce  Ce1  1  0.00000000  -0.00000531  0.00000000  1
  B  B2  1  -0.00000000  0.99995184  0.33258599  1
  B  B3  1  0.00000000  0.49997667  0.83434048  1
  B  B4  1  -0.00000000  0.49997667  0.16565952  1
  B  B5  1  0.00000000  0.99995184  0.66741401  1
  Rh  Rh6  1  0.50000000  0.49999050  0.00000000  1
  Rh  Rh7  1  0.50000000  0.00000303  0.50000000  1
  Rh  Rh8  1  0.50000000  0.24807120  0.24740871  1
  Rh  Rh9  1  0.50000000  0.75190952  0.75259602  1
  Rh  Rh10  1  0.50000000  0.75190952  0.24740398  1
  Rh  Rh11  1  0.50000000  0.24807120  0.75259129  1
