# generated using pymatgen
data_LaCePt2
_symmetry_space_group_name_H-M   'P 1'
_cell_length_a   3.89720925
_cell_length_b   4.49493777
_cell_length_c   5.94493798
_cell_angle_alpha   90.00000000
_cell_angle_beta   70.86618609
_cell_angle_gamma   90.00000000
_symmetry_Int_Tables_number   1
_chemical_formula_structural   LaCePt2
_chemical_formula_sum   'La1 Ce1 Pt2'
_cell_volume   98.38847467
_cell_formula_units_Z   1
loop_
 _symmetry_equiv_pos_site_id
 _symmetry_equiv_pos_as_xyz
  1  'x, y, z'
loop_
 _atom_site_type_symbol
 _atom_site_label
 _atom_site_symmetry_multiplicity
 _atom_site_fract_x
 _atom_site_fract_y
 _atom_site_fract_z
 _atom_site_occupancy
  La  La0  1  0.86257573  0.25000000  0.27484854  1
  Ce  Ce1  1  0.13308687  0.75000000  0.73382627  1
  Pt  Pt2  1  0.40893860  0.75000000  0.18212279  1
  Pt  Pt3  1  0.59539880  0.25000000  0.80920240  1
