# generated using pymatgen
data_LiFeSO4F
_symmetry_space_group_name_H-M   'P 1'
_cell_length_a   5.25014399
_cell_length_b   5.56653988
_cell_length_c   7.40902184
_cell_angle_alpha   106.85046819
_cell_angle_beta   106.97531099
_cell_angle_gamma   97.48630703
_symmetry_Int_Tables_number   1
_chemical_formula_structural   LiFeSO4F
_chemical_formula_sum   'Li2 Fe2 S2 O8 F2'
_cell_volume   192.66318146
_cell_formula_units_Z   2
loop_
 _symmetry_equiv_pos_site_id
 _symmetry_equiv_pos_as_xyz
  1  'x, y, z'
loop_
 _atom_site_type_symbol
 _atom_site_label
 _atom_site_symmetry_multiplicity
 _atom_site_fract_x
 _atom_site_fract_y
 _atom_site_fract_z
 _atom_site_occupancy
  Li  Li0  1  0.72544079  0.36804497  0.21027954  1
  Li  Li1  1  0.25414397  0.60796872  0.71231525  1
  Fe  Fe2  1  0.99606539  0.00038327  0.49738183  1
  Fe  Fe3  1  0.00427967  0.99578591  0.99859354  1
  S  S4  1  0.67145415  0.36934675  0.75134806  1
  S  S5  1  0.32874736  0.63230988  0.25055048  1
  O  O6  1  0.88001944  0.34876743  0.65022712  1
  O  O7  1  0.12130030  0.64631452  0.35457382  1
  O  O8  1  0.72480521  0.23716912  0.90205541  1
  O  O9  1  0.27331920  0.76914879  0.10454815  1
  O  O10  1  0.67791590  0.64759889  0.84977792  1
  O  O11  1  0.32015590  0.35478981  0.14705872  1
  O  O12  1  0.38916931  0.25879476  0.60007540  1
  O  O13  1  0.61071547  0.74252052  0.40081689  1
  F  F14  1  0.88118288  0.09092799  0.24209643  1
  F  F15  1  0.11928507  0.90912867  0.75230145  1
