# generated using pymatgen
data_LaY(B2Rh3)2
_symmetry_space_group_name_H-M   'P 1'
_cell_length_a   3.12983060
_cell_length_b   5.50221155
_cell_length_c   9.53520566
_cell_angle_alpha   90.00000038
_cell_angle_beta   90.00000000
_cell_angle_gamma   90.00000000
_symmetry_Int_Tables_number   1
_chemical_formula_structural   LaY(B2Rh3)2
_chemical_formula_sum   'La1 Y1 B4 Rh6'
_cell_volume   164.20568219
_cell_formula_units_Z   1
loop_
 _symmetry_equiv_pos_site_id
 _symmetry_equiv_pos_as_xyz
  1  'x, y, z'
loop_
 _atom_site_type_symbol
 _atom_site_label
 _atom_site_symmetry_multiplicity
 _atom_site_fract_x
 _atom_site_fract_y
 _atom_site_fract_z
 _atom_site_occupancy
  La  La0  1  0.00000000  0.99998176  0.00000000  1
  Y  Y1  1  -0.00000000  0.50001183  0.50000000  1
  B  B2  1  0.00000000  0.99994781  0.33384650  1
  B  B3  1  0.00000000  0.49996522  0.83310675  1
  B  B4  1  -0.00000000  0.49996522  0.16689325  1
  B  B5  1  -0.00000000  0.99994781  0.66615350  1
  Rh  Rh6  1  0.50000000  0.00000637  0.50000000  1
  Rh  Rh7  1  0.50000000  0.49999628  -0.00000000  1
  Rh  Rh8  1  0.50000000  0.25265407  0.25473778  1
  Rh  Rh9  1  0.50000000  0.74733478  0.74526549  1
  Rh  Rh10  1  0.50000000  0.74733478  0.25473451  1
  Rh  Rh11  1  0.50000000  0.25265407  0.74526222  1
