# generated using pymatgen
data_LaY3(MnSi)4
_symmetry_space_group_name_H-M   'P 1'
_cell_length_a   3.95850783
_cell_length_b   3.95850783
_cell_length_c   14.60459910
_cell_angle_alpha   90.00000000
_cell_angle_beta   90.00000000
_cell_angle_gamma   90.00000000
_symmetry_Int_Tables_number   1
_chemical_formula_structural   LaY3(MnSi)4
_chemical_formula_sum   'La1 Y3 Mn4 Si4'
_cell_volume   228.85091681
_cell_formula_units_Z   1
loop_
 _symmetry_equiv_pos_site_id
 _symmetry_equiv_pos_as_xyz
  1  'x, y, z'
loop_
 _atom_site_type_symbol
 _atom_site_label
 _atom_site_symmetry_multiplicity
 _atom_site_fract_x
 _atom_site_fract_y
 _atom_site_fract_z
 _atom_site_occupancy
  La  La0  1  0.75000000  0.75000000  0.16759314  1
  Y  Y1  1  0.75000000  0.75000000  0.66524647  1
  Y  Y2  1  0.25000000  0.25000000  0.34763066  1
  Y  Y3  1  0.25000000  0.25000000  0.83320669  1
  Mn  Mn4  1  0.75000000  0.25000000  0.99225150  1
  Mn  Mn5  1  0.75000000  0.25000000  0.50478148  1
  Mn  Mn6  1  0.25000000  0.75000000  0.99225150  1
  Mn  Mn7  1  0.25000000  0.75000000  0.50478148  1
  Si  Si8  1  0.75000000  0.75000000  0.40817331  1
  Si  Si9  1  0.75000000  0.75000000  0.89491596  1
  Si  Si10  1  0.25000000  0.25000000  0.08628492  1
  Si  Si11  1  0.25000000  0.25000000  0.60288290  1
