# generated using pymatgen
data_LaNdN2
_symmetry_space_group_name_H-M   'P 1'
_cell_length_a   3.70701160
_cell_length_b   3.70701160
_cell_length_c   6.42657509
_cell_angle_alpha   73.23705017
_cell_angle_beta   90.00000000
_cell_angle_gamma   120.00000000
_symmetry_Int_Tables_number   1
_chemical_formula_structural   LaNdN2
_chemical_formula_sum   'La1 Nd1 N2'
_cell_volume   72.11592415
_cell_formula_units_Z   1
loop_
 _symmetry_equiv_pos_site_id
 _symmetry_equiv_pos_as_xyz
  1  'x, y, z'
loop_
 _atom_site_type_symbol
 _atom_site_label
 _atom_site_symmetry_multiplicity
 _atom_site_fract_x
 _atom_site_fract_y
 _atom_site_fract_z
 _atom_site_occupancy
  La  La0  1  0.50000000  0.00000000  0.50000000  1
  Nd  Nd1  1  0.00000000  0.00000000  0.00000000  1
  N  N2  1  0.25108153  0.50216306  0.24675541  1
  N  N3  1  0.74891847  0.49783694  0.75324459  1
