# generated using pymatgen
data_LaY9Si8
_symmetry_space_group_name_H-M   'P 1'
_cell_length_a   7.48376986
_cell_length_b   7.74185300
_cell_length_c   14.71236091
_cell_angle_alpha   89.64415445
_cell_angle_beta   90.00000000
_cell_angle_gamma   90.00000000
_symmetry_Int_Tables_number   1
_chemical_formula_structural   LaY9Si8
_chemical_formula_sum   'La2 Y18 Si16'
_cell_volume   852.39194797
_cell_formula_units_Z   2
loop_
 _symmetry_equiv_pos_site_id
 _symmetry_equiv_pos_as_xyz
  1  'x, y, z'
loop_
 _atom_site_type_symbol
 _atom_site_label
 _atom_site_symmetry_multiplicity
 _atom_site_fract_x
 _atom_site_fract_y
 _atom_site_fract_z
 _atom_site_occupancy
  La  La0  1  0.47597528  0.67809131  0.40682738  1
  La  La1  1  0.97597528  0.82190869  0.09317262  1
  Y  Y2  1  0.18157585  0.67744384  0.87542554  1
  Y  Y3  1  0.68157585  0.82255616  0.62457446  1
  Y  Y4  1  0.81975785  0.31968136  0.37761571  1
  Y  Y5  1  0.31975785  0.18031864  0.12238429  1
  Y  Y6  1  0.81864416  0.32041671  0.12063336  1
  Y  Y7  1  0.31864416  0.17958329  0.37936664  1
  Y  Y8  1  0.17827099  0.68152899  0.62379837  1
  Y  Y9  1  0.67827099  0.81847101  0.87620163  1
  Y  Y10  1  0.35033523  0.01229735  0.75012093  1
  Y  Y11  1  0.85033523  0.48770265  0.74987907  1
  Y  Y12  1  0.65116446  0.98765279  0.25002989  1
  Y  Y13  1  0.15116446  0.51234721  0.24997011  1
  Y  Y14  1  0.52739686  0.31567187  0.89916546  1
  Y  Y15  1  0.02739686  0.18432813  0.60083454  1
  Y  Y16  1  0.53029172  0.31540842  0.60180894  1
  Y  Y17  1  0.03029172  0.18459158  0.89819106  1
  Y  Y18  1  0.47194224  0.68387658  0.09900379  1
  Y  Y19  1  0.97194224  0.81612342  0.40099621  1
  Si  Si20  1  0.47684065  0.60269633  0.74988665  1
  Si  Si21  1  0.97684065  0.89730367  0.75011335  1
  Si  Si22  1  0.52544156  0.39036283  0.24891750  1
  Si  Si23  1  0.02544156  0.10963717  0.25108250  1
  Si  Si24  1  0.35087927  0.97186944  0.95838802  1
  Si  Si25  1  0.85087927  0.52813056  0.54161198  1
  Si  Si26  1  0.64763279  0.03407364  0.46340162  1
  Si  Si27  1  0.14763279  0.46592636  0.03659838  1
  Si  Si28  1  0.63896521  0.03048926  0.03800395  1
  Si  Si29  1  0.13896521  0.46951074  0.46199605  1
  Si  Si30  1  0.35483006  0.97794223  0.54401890  1
  Si  Si31  1  0.85483006  0.52205777  0.95598110  1
  Si  Si32  1  0.23260195  0.37405040  0.74989752  1
  Si  Si33  1  0.73260195  0.12594960  0.75010248  1
  Si  Si34  1  0.76745389  0.62238861  0.24845191  1
  Si  Si35  1  0.26745389  0.87761139  0.25154809  1
