# generated using pymatgen
data_La2NiSn4
_symmetry_space_group_name_H-M   'P 1'
_cell_length_a   4.52907872
_cell_length_b   4.55051873
_cell_length_c   9.20753242
_cell_angle_alpha   75.73519357
_cell_angle_beta   90.01970738
_cell_angle_gamma   90.02769806
_symmetry_Int_Tables_number   1
_chemical_formula_structural   La2NiSn4
_chemical_formula_sum   'La2 Ni1 Sn4'
_cell_volume   183.91311780
_cell_formula_units_Z   1
loop_
 _symmetry_equiv_pos_site_id
 _symmetry_equiv_pos_as_xyz
  1  'x, y, z'
loop_
 _atom_site_type_symbol
 _atom_site_label
 _atom_site_symmetry_multiplicity
 _atom_site_fract_x
 _atom_site_fract_y
 _atom_site_fract_z
 _atom_site_occupancy
  La  La0  1  0.24994553  0.89204719  0.21558465  1
  La  La1  1  0.74993979  0.10232096  0.79229607  1
  Ni  Ni2  1  0.25006228  0.68855940  0.62638930  1
  Sn  Sn3  1  0.25001752  0.54500826  0.90690428  1
  Sn  Sn4  1  0.74998782  0.44614199  0.11321738  1
  Sn  Sn5  1  0.25003352  0.25796510  0.48563421  1
  Sn  Sn6  1  0.75001354  0.75295708  0.48997411  1
