# generated using pymatgen
data_La2CoSn4
_symmetry_space_group_name_H-M   'P 1'
_cell_length_a   4.61045533
_cell_length_b   4.65081785
_cell_length_c   8.87446829
_cell_angle_alpha   74.82877060
_cell_angle_beta   90.00800431
_cell_angle_gamma   90.06782464
_symmetry_Int_Tables_number   1
_chemical_formula_structural   La2CoSn4
_chemical_formula_sum   'La2 Co1 Sn4'
_cell_volume   183.65768591
_cell_formula_units_Z   1
loop_
 _symmetry_equiv_pos_site_id
 _symmetry_equiv_pos_as_xyz
  1  'x, y, z'
loop_
 _atom_site_type_symbol
 _atom_site_label
 _atom_site_symmetry_multiplicity
 _atom_site_fract_x
 _atom_site_fract_y
 _atom_site_fract_z
 _atom_site_occupancy
  La  La0  1  0.24992108  0.89818759  0.20366057  1
  La  La1  1  0.74992209  0.10265698  0.79456037  1
  Co  Co2  1  0.25014086  0.69663874  0.60699109  1
  Sn  Sn3  1  0.24998480  0.55121358  0.89770042  1
  Sn  Sn4  1  0.74991473  0.43651315  0.12679946  1
  Sn  Sn5  1  0.24997285  0.25793788  0.48426024  1
  Sn  Sn6  1  0.75014359  0.75685209  0.48602786  1
