# generated using pymatgen
data_La3Se4Cl
_symmetry_space_group_name_H-M   'P 1'
_cell_length_a   8.00846975
_cell_length_b   8.60045128
_cell_length_c   12.82934512
_cell_angle_alpha   90.00000000
_cell_angle_beta   90.00000000
_cell_angle_gamma   90.00000000
_symmetry_Int_Tables_number   1
_chemical_formula_structural   La3Se4Cl
_chemical_formula_sum   'La12 Se16 Cl4'
_cell_volume   883.63979788
_cell_formula_units_Z   4
loop_
 _symmetry_equiv_pos_site_id
 _symmetry_equiv_pos_as_xyz
  1  'x, y, z'
loop_
 _atom_site_type_symbol
 _atom_site_label
 _atom_site_symmetry_multiplicity
 _atom_site_fract_x
 _atom_site_fract_y
 _atom_site_fract_z
 _atom_site_occupancy
  La  La0  1  0.57996314  0.75155318  0.48998579  1
  La  La1  1  0.92003686  0.75155318  0.98998579  1
  La  La2  1  0.42003686  0.25155318  0.51001421  1
  La  La3  1  0.07996314  0.25155318  0.01001421  1
  La  La4  1  0.52681643  0.49915532  0.18127974  1
  La  La5  1  0.98503049  0.99849057  0.67502606  1
  La  La6  1  0.47318357  0.99915532  0.81872026  1
  La  La7  1  0.01496951  0.49849057  0.32497394  1
  La  La8  1  0.48503049  0.49849057  0.82497394  1
  La  La9  1  0.02681643  0.99915532  0.31872026  1
  La  La10  1  0.51496951  0.99849057  0.17502606  1
  La  La11  1  0.97318357  0.49915532  0.68127974  1
  Se  Se12  1  0.80030768  0.75217164  0.21888750  1
  Se  Se13  1  0.69969232  0.75217164  0.71888750  1
  Se  Se14  1  0.19969232  0.25217164  0.78111250  1
  Se  Se15  1  0.30030768  0.25217164  0.28111250  1
  Se  Se16  1  0.96460215  0.75328808  0.49917664  1
  Se  Se17  1  0.53539785  0.75328808  0.99917664  1
  Se  Se18  1  0.03539785  0.25328808  0.50082336  1
  Se  Se19  1  0.46460215  0.25328808  0.00082336  1
  Se  Se20  1  0.32647383  0.74946253  0.31163488  1
  Se  Se21  1  0.17352617  0.74946253  0.81163488  1
  Se  Se22  1  0.67352617  0.24946253  0.68836512  1
  Se  Se23  1  0.82647383  0.24946253  0.18836512  1
  Se  Se24  1  0.16270460  0.95399247  0.09956873  1
  Se  Se25  1  0.83729540  0.45399247  0.90043127  1
  Se  Se26  1  0.66270460  0.45399247  0.40043127  1
  Se  Se27  1  0.33729540  0.95399247  0.59956873  1
  Cl  Cl28  1  0.33944711  0.54188622  0.60225039  1
  Cl  Cl29  1  0.66055289  0.04188622  0.39774961  1
  Cl  Cl30  1  0.83944711  0.04188622  0.89774961  1
  Cl  Cl31  1  0.16055289  0.54188622  0.10225039  1
