# generated using pymatgen
data_KCNO
_symmetry_space_group_name_H-M   'P 1'
_cell_length_a   5.63786184
_cell_length_b   5.63786184
_cell_length_c   5.63786184
_cell_angle_alpha   66.05682544
_cell_angle_beta   66.42146601
_cell_angle_gamma   101.19588605
_symmetry_Int_Tables_number   1
_chemical_formula_structural   KCNO
_chemical_formula_sum   'K2 C2 N2 O2'
_cell_volume   135.83460409
_cell_formula_units_Z   2
loop_
 _symmetry_equiv_pos_site_id
 _symmetry_equiv_pos_as_xyz
  1  'x, y, z'
loop_
 _atom_site_type_symbol
 _atom_site_label
 _atom_site_symmetry_multiplicity
 _atom_site_fract_x
 _atom_site_fract_y
 _atom_site_fract_z
 _atom_site_occupancy
  K  K0  1  0.74737842  0.75000000  0.00262158  1
  K  K1  1  0.24737842  0.25000000  0.00262158  1
  C  C2  1  0.50146671  0.00290628  0.49562701  1
  C  C3  1  0.00146671  0.49709372  0.50143956  1
  N  N4  1  0.64008740  0.13907536  0.22083724  1
  N  N5  1  0.14008740  0.36092464  0.49898796  1
  O  O6  1  0.36106747  0.86049201  0.77844053  1
  O  O7  1  0.86106747  0.63950799  0.49942454  1
