# generated using pymatgen
data_La5Si2BO13
_symmetry_space_group_name_H-M   'P 1'
_cell_length_a   7.25409889
_cell_length_b   9.61235123
_cell_length_c   9.60633017
_cell_angle_alpha   119.87808880
_cell_angle_beta   90.00000000
_cell_angle_gamma   90.00000000
_symmetry_Int_Tables_number   1
_chemical_formula_structural   La5Si2BO13
_chemical_formula_sum   'La10 Si4 B2 O26'
_cell_volume   580.80914661
_cell_formula_units_Z   2
loop_
 _symmetry_equiv_pos_site_id
 _symmetry_equiv_pos_as_xyz
  1  'x, y, z'
loop_
 _atom_site_type_symbol
 _atom_site_label
 _atom_site_symmetry_multiplicity
 _atom_site_fract_x
 _atom_site_fract_y
 _atom_site_fract_z
 _atom_site_occupancy
  La  La0  1  0.75000000  0.23226658  0.99374975  1
  La  La1  1  0.75000000  0.98697927  0.24001820  1
  La  La2  1  0.75000000  0.77559126  0.74874405  1
  La  La3  1  0.25000000  0.75073343  0.97182493  1
  La  La4  1  0.25000000  0.99876651  0.76080509  1
  La  La5  1  0.25000000  0.24136058  0.25010666  1
  La  La6  1  0.49837307  0.67261460  0.35006513  1
  La  La7  1  0.99791855  0.32939466  0.66466725  1
  La  La8  1  0.50208145  0.32939466  0.66466725  1
  La  La9  1  0.00162693  0.67261460  0.35006513  1
  Si  Si10  1  0.75000000  0.37060041  0.40174095  1
  Si  Si11  1  0.75000000  0.60082822  0.97096886  1
  Si  Si12  1  0.25000000  0.96758699  0.36634694  1
  Si  Si13  1  0.25000000  0.40386811  0.03270256  1
  B  B14  1  0.75000000  0.03425766  0.63090564  1
  B  B15  1  0.25000000  0.62798835  0.59751675  1
  O  O16  1  0.57970424  0.08511236  0.73678953  1
  O  O17  1  0.56795727  0.25291219  0.34585180  1
  O  O18  1  0.56728591  0.65557453  0.90898042  1
  O  O19  1  0.06667593  0.90902263  0.25235161  1
  O  O20  1  0.08002834  0.73713667  0.65073712  1
  O  O21  1  0.06726278  0.34492407  0.09171162  1
  O  O22  1  0.43332407  0.90902263  0.25235161  1
  O  O23  1  0.41997166  0.73713667  0.65073712  1
  O  O24  1  0.43273722  0.34492407  0.09171162  1
  O  O25  1  0.92029576  0.08511236  0.73678953  1
  O  O26  1  0.93204273  0.25291219  0.34585180  1
  O  O27  1  0.93271409  0.65557453  0.90898042  1
  O  O28  1  0.75000000  0.85352998  0.52053808  1
  O  O29  1  0.75000000  0.48998521  0.32762540  1
  O  O30  1  0.75000000  0.67484657  0.16529156  1
  O  O31  1  0.25000000  0.16240177  0.48712992  1
  O  O32  1  0.25000000  0.51818469  0.66538875  1
  O  O33  1  0.25000000  0.32713778  0.83744717  1
  O  O34  1  0.75000000  0.12328662  0.53786303  1
  O  O35  1  0.75000000  0.47078727  0.59918922  1
  O  O36  1  0.75000000  0.40331730  0.87176437  1
  O  O37  1  0.25000000  0.87331336  0.46924266  1
  O  O38  1  0.25000000  0.53785545  0.41549989  1
  O  O39  1  0.25000000  0.60108481  0.13004940  1
  O  O40  1  0.75000000  0.99640000  0.00126683  1
  O  O41  1  0.25000000  0.00365841  0.00396439  1
