# generated using pymatgen
data_LaGa3Co10
_symmetry_space_group_name_H-M   'P 1'
_cell_length_a   8.00218764
_cell_length_b   8.00218764
_cell_length_c   8.10459599
_cell_angle_alpha   60.71196694
_cell_angle_beta   60.71196694
_cell_angle_gamma   90.52016123
_symmetry_Int_Tables_number   1
_chemical_formula_structural   LaGa3Co10
_chemical_formula_sum   'La2 Ga6 Co20'
_cell_volume   373.13695774
_cell_formula_units_Z   2
loop_
 _symmetry_equiv_pos_site_id
 _symmetry_equiv_pos_as_xyz
  1  'x, y, z'
loop_
 _atom_site_type_symbol
 _atom_site_label
 _atom_site_symmetry_multiplicity
 _atom_site_fract_x
 _atom_site_fract_y
 _atom_site_fract_z
 _atom_site_occupancy
  La  La0  1  0.25174169  0.25174169  0.49651663  1
  La  La1  1  0.75174169  0.75174169  0.49651663  1
  Ga  Ga2  1  0.55183389  0.05183389  0.25100698  1
  Ga  Ga3  1  0.19715912  0.69715912  0.25100698  1
  Ga  Ga4  1  0.29797955  0.44387919  0.75814126  1
  Ga  Ga5  1  0.94387919  0.79797955  0.75814126  1
  Ga  Ga6  1  0.44617546  0.94617546  0.75247866  1
  Ga  Ga7  1  0.80134587  0.30134587  0.75247866  1
  Co  Co8  1  0.29775562  0.55968288  0.00562949  1
  Co  Co9  1  0.69661489  0.43468764  0.00562949  1
  Co  Co10  1  0.19910744  0.06295832  0.00141453  1
  Co  Co11  1  0.79947803  0.93562714  0.00141453  1
  Co  Co12  1  0.43562714  0.29947803  0.00141453  1
  Co  Co13  1  0.56295832  0.69910744  0.00141453  1
  Co  Co14  1  0.93468764  0.19661489  0.00562949  1
  Co  Co15  1  0.05968288  0.79775562  0.00562949  1
  Co  Co16  1  0.99775773  0.49775773  0.00448453  1
  Co  Co17  1  0.49888541  0.99888541  0.00222917  1
  Co  Co18  1  0.20331357  0.94790038  0.34878605  1
  Co  Co19  1  0.44790038  0.70331357  0.34878605  1
  Co  Co20  1  0.93602492  0.43602492  0.34865732  1
  Co  Co21  1  0.71531776  0.21531776  0.34865732  1
  Co  Co22  1  0.79895742  0.06084790  0.64019469  1
  Co  Co23  1  0.56084790  0.29895742  0.64019469  1
  Co  Co24  1  0.06113377  0.56113377  0.64939575  1
  Co  Co25  1  0.28947048  0.78947048  0.64939575  1
  Co  Co26  1  0.70557225  0.55704998  0.23737776  1
  Co  Co27  1  0.05704998  0.20557225  0.23737776  1
