# generated using pymatgen
data_La2Ga5Au3
_symmetry_space_group_name_H-M   'P 1'
_cell_length_a   4.47964624
_cell_length_b   4.47964624
_cell_length_c   10.96500719
_cell_angle_alpha   90.00000000
_cell_angle_beta   90.00000000
_cell_angle_gamma   90.00000000
_symmetry_Int_Tables_number   1
_chemical_formula_structural   La2Ga5Au3
_chemical_formula_sum   'La2 Ga5 Au3'
_cell_volume   220.03732601
_cell_formula_units_Z   1
loop_
 _symmetry_equiv_pos_site_id
 _symmetry_equiv_pos_as_xyz
  1  'x, y, z'
loop_
 _atom_site_type_symbol
 _atom_site_label
 _atom_site_symmetry_multiplicity
 _atom_site_fract_x
 _atom_site_fract_y
 _atom_site_fract_z
 _atom_site_occupancy
  La  La0  1  0.75000000  0.75000000  0.25704382  1
  La  La1  1  0.25000000  0.25000000  0.74295618  1
  Ga  Ga2  1  0.75000000  0.25000000  0.00000000  1
  Ga  Ga3  1  0.25000000  0.75000000  0.00000000  1
  Ga  Ga4  1  0.75000000  0.75000000  0.87229676  1
  Ga  Ga5  1  0.25000000  0.25000000  0.12770324  1
  Ga  Ga6  1  0.25000000  0.75000000  0.50000000  1
  Au  Au7  1  0.75000000  0.75000000  0.64412119  1
  Au  Au8  1  0.25000000  0.25000000  0.35587881  1
  Au  Au9  1  0.75000000  0.25000000  0.50000000  1
