# generated using pymatgen
data_Mn2Fe(PO4)3
_symmetry_space_group_name_H-M   'P 1'
_cell_length_a   5.97154633
_cell_length_b   13.89974584
_cell_length_c   10.94240844
_cell_angle_alpha   71.55406779
_cell_angle_beta   90.00000000
_cell_angle_gamma   90.00000000
_symmetry_Int_Tables_number   1
_chemical_formula_structural   Mn2Fe(PO4)3
_chemical_formula_sum   'Mn8 Fe4 P12 O48'
_cell_volume   861.58887260
_cell_formula_units_Z   4
loop_
 _symmetry_equiv_pos_site_id
 _symmetry_equiv_pos_as_xyz
  1  'x, y, z'
loop_
 _atom_site_type_symbol
 _atom_site_label
 _atom_site_symmetry_multiplicity
 _atom_site_fract_x
 _atom_site_fract_y
 _atom_site_fract_z
 _atom_site_occupancy
  Mn  Mn0  1  0.75000000  0.54357084  0.17124985  1
  Mn  Mn1  1  0.75000000  0.87775743  0.83795477  1
  Mn  Mn2  1  0.25000000  0.06620994  0.72097285  1
  Mn  Mn3  1  0.25000000  0.39863831  0.38308326  1
  Mn  Mn4  1  0.25000000  0.73340700  0.05140787  1
  Mn  Mn5  1  0.25000000  0.78928241  0.49338871  1
  Mn  Mn6  1  0.25000000  0.12212753  0.16050900  1
  Mn  Mn7  1  0.25000000  0.45482304  0.82785992  1
  Fe  Fe8  1  0.75000000  0.92941682  0.29299843  1
  Fe  Fe9  1  0.75000000  0.26100059  0.96110958  1
  Fe  Fe10  1  0.75000000  0.59536864  0.62752217  1
  Fe  Fe11  1  0.75000000  0.21886400  0.50340783  1
  P  P12  1  0.75000000  0.50530635  0.90153105  1
  P  P13  1  0.75000000  0.83874615  0.56799284  1
  P  P14  1  0.75000000  0.17311703  0.23349906  1
  P  P15  1  0.75000000  0.76462930  0.13852919  1
  P  P16  1  0.75000000  0.09826422  0.80784321  1
  P  P17  1  0.75000000  0.43161433  0.47293371  1
  P  P18  1  0.25000000  0.83114489  0.76455933  1
  P  P19  1  0.25000000  0.16389135  0.43178026  1
  P  P20  1  0.25000000  0.49750452  0.09844083  1
  P  P21  1  0.25000000  0.56591234  0.52920906  1
  P  P22  1  0.25000000  0.90051856  0.19504220  1
  P  P23  1  0.25000000  0.23385219  0.86277613  1
  O  O24  1  0.75000000  0.46685128  0.59171203  1
  O  O25  1  0.75000000  0.80122887  0.25663684  1
  O  O26  1  0.75000000  0.13220429  0.92856263  1
  O  O27  1  0.75000000  0.57409231  0.98748437  1
  O  O28  1  0.75000000  0.90696908  0.65415088  1
  O  O29  1  0.75000000  0.24234879  0.31708565  1
  O  O30  1  0.25000000  0.86381118  0.07595722  1
  O  O31  1  0.25000000  0.19747047  0.74363132  1
  O  O32  1  0.25000000  0.52808399  0.41100089  1
  O  O33  1  0.25000000  0.76460396  0.67485049  1
  O  O34  1  0.25000000  0.09708327  0.34232933  1
  O  O35  1  0.25000000  0.43090883  0.00914589  1
  O  O36  1  0.95032835  0.53297158  0.80237478  1
  O  O37  1  0.95032304  0.86592942  0.46900825  1
  O  O38  1  0.95064945  0.19891873  0.13411203  1
  O  O39  1  0.54731891  0.69254956  0.14078599  1
  O  O40  1  0.54705669  0.02608489  0.80971385  1
  O  O41  1  0.54952072  0.35761847  0.47553201  1
  O  O42  1  0.45275239  0.80394045  0.85943644  1
  O  O43  1  0.45586138  0.13960772  0.52408105  1
  O  O44  1  0.45230573  0.47039323  0.19383125  1
  O  O45  1  0.04492758  0.63634624  0.52730091  1
  O  O46  1  0.04514374  0.97085423  0.19380456  1
  O  O47  1  0.04533764  0.30452033  0.86168329  1
  O  O48  1  0.04724761  0.80394045  0.85943644  1
  O  O49  1  0.04413862  0.13960772  0.52408105  1
  O  O50  1  0.04769427  0.47039323  0.19383125  1
  O  O51  1  0.45507242  0.63634624  0.52730091  1
  O  O52  1  0.45485626  0.97085423  0.19380456  1
  O  O53  1  0.45466236  0.30452033  0.86168329  1
  O  O54  1  0.54967165  0.53297158  0.80237478  1
  O  O55  1  0.54967696  0.86592942  0.46900825  1
  O  O56  1  0.54935055  0.19891873  0.13411203  1
  O  O57  1  0.95268109  0.69254956  0.14078599  1
  O  O58  1  0.95294331  0.02608489  0.80971385  1
  O  O59  1  0.95047928  0.35761847  0.47553201  1
  O  O60  1  0.75000000  0.72751355  0.65033115  1
  O  O61  1  0.75000000  0.06181428  0.31602287  1
  O  O62  1  0.75000000  0.39453989  0.98425844  1
  O  O63  1  0.75000000  0.85918135  0.01752979  1
  O  O64  1  0.75000000  0.19160570  0.68723253  1
  O  O65  1  0.75000000  0.52545673  0.35181947  1
  O  O66  1  0.25000000  0.60902721  0.01214051  1
  O  O67  1  0.25000000  0.94288788  0.67872517  1
  O  O68  1  0.25000000  0.27573584  0.34303089  1
  O  O69  1  0.25000000  0.47012475  0.64979827  1
  O  O70  1  0.25000000  0.80446179  0.31527120  1
  O  O71  1  0.25000000  0.13755725  0.98236231  1
