# generated using pymatgen
data_Hf3TaCo8
_symmetry_space_group_name_H-M   'P 1'
_cell_length_a   4.83770231
_cell_length_b   4.83770232
_cell_length_c   8.38580332
_cell_angle_alpha   73.23505393
_cell_angle_beta   90.00000000
_cell_angle_gamma   120.00000005
_symmetry_Int_Tables_number   1
_chemical_formula_structural   Hf3TaCo8
_chemical_formula_sum   'Hf3 Ta1 Co8'
_cell_volume   160.25824535
_cell_formula_units_Z   1
loop_
 _symmetry_equiv_pos_site_id
 _symmetry_equiv_pos_as_xyz
  1  'x, y, z'
loop_
 _atom_site_type_symbol
 _atom_site_label
 _atom_site_symmetry_multiplicity
 _atom_site_fract_x
 _atom_site_fract_y
 _atom_site_fract_z
 _atom_site_occupancy
  Hf  Hf0  1  0.37490008  0.74980017  0.87529975  1
  Hf  Hf1  1  0.99869470  0.99738939  0.00391591  1
  Hf  Hf2  1  0.50119531  0.00239063  0.49641406  1
  Ta  Ta3  1  0.87530710  0.75061420  0.37407871  1
  Co  Co4  1  0.43750994  0.37205514  0.19043491  1
  Co  Co5  1  0.93789001  0.37758830  0.68452169  1
  Co  Co6  1  0.43750994  0.87501989  0.19043491  1
  Co  Co7  1  0.93789001  0.87578002  0.68452169  1
  Co  Co8  1  0.18737549  0.37475098  0.43787353  1
  Co  Co9  1  0.68748393  0.37496785  0.93754822  1
  Co  Co10  1  0.93454520  0.37205514  0.19043491  1
  Co  Co11  1  0.43969829  0.37758830  0.68452169  1
