# generated using pymatgen
data_Hf2ScGa3
_symmetry_space_group_name_H-M   'P 1'
_cell_length_a   3.91981613
_cell_length_b   3.86959717
_cell_length_c   30.56012590
_cell_angle_alpha   86.37010710
_cell_angle_beta   86.32293461
_cell_angle_gamma   90.00000000
_symmetry_Int_Tables_number   1
_chemical_formula_structural   Hf2ScGa3
_chemical_formula_sum   'Hf8 Sc4 Ga12'
_cell_volume   461.65321731
_cell_formula_units_Z   4
loop_
 _symmetry_equiv_pos_site_id
 _symmetry_equiv_pos_as_xyz
  1  'x, y, z'
loop_
 _atom_site_type_symbol
 _atom_site_label
 _atom_site_symmetry_multiplicity
 _atom_site_fract_x
 _atom_site_fract_y
 _atom_site_fract_z
 _atom_site_occupancy
  Hf  Hf0  1  0.73251617  0.73251617  0.53496866  1
  Hf  Hf1  1  0.06588676  0.06588676  0.86822647  1
  Hf  Hf2  1  0.98132874  0.48132874  0.03734353  1
  Hf  Hf3  1  0.31457128  0.81457128  0.37085744  1
  Hf  Hf4  1  0.64788343  0.14788343  0.70423215  1
  Hf  Hf5  1  0.93532702  0.93532702  0.12934596  1
  Hf  Hf6  1  0.26787547  0.26787547  0.46424807  1
  Hf  Hf7  1  0.60123856  0.60123856  0.79752387  1
  Sc  Sc8  1  0.85091160  0.35091160  0.29817780  1
  Sc  Sc9  1  0.18471011  0.68471011  0.63057978  1
  Sc  Sc10  1  0.51798219  0.01798219  0.96403463  1
  Sc  Sc11  1  0.39913481  0.39913481  0.20172939  1
  Ga  Ga12  1  0.47237573  0.97237573  0.05524754  1
  Ga  Ga13  1  0.80537630  0.30537630  0.38924840  1
  Ga  Ga14  1  0.13884753  0.63884753  0.72230494  1
  Ga  Ga15  1  0.44444473  0.44444473  0.11110955  1
  Ga  Ga16  1  0.77781278  0.77781278  0.44437543  1
  Ga  Ga17  1  0.11122264  0.11122264  0.77755472  1
  Ga  Ga18  1  0.36120858  0.86120858  0.27758284  1
  Ga  Ga19  1  0.69489015  0.19489015  0.61021871  1
  Ga  Ga20  1  0.02834601  0.52834601  0.94330898  1
  Ga  Ga21  1  0.88864307  0.88864307  0.22271385  1
  Ga  Ga22  1  0.22205793  0.22205793  0.55588313  1
  Ga  Ga23  1  0.55540842  0.55540842  0.88918417  1
