# generated using pymatgen
data_KMo4(P2O7)4
_symmetry_space_group_name_H-M   'P 1'
_cell_length_a   5.03849504
_cell_length_b   15.53798272
_cell_length_c   15.53798272
_cell_angle_alpha   91.50634717
_cell_angle_beta   99.33082867
_cell_angle_gamma   80.66917133
_symmetry_Int_Tables_number   1
_chemical_formula_structural   KMo4(P2O7)4
_chemical_formula_sum   'K2 Mo8 P16 O56'
_cell_volume   1184.46099683
_cell_formula_units_Z   2
loop_
 _symmetry_equiv_pos_site_id
 _symmetry_equiv_pos_as_xyz
  1  'x, y, z'
loop_
 _atom_site_type_symbol
 _atom_site_label
 _atom_site_symmetry_multiplicity
 _atom_site_fract_x
 _atom_site_fract_y
 _atom_site_fract_z
 _atom_site_occupancy
  K  K0  1  0.29549120  0.25000000  0.75000000  1
  K  K1  1  0.54549120  0.75000000  0.25000000  1
  Mo  Mo2  1  0.41002183  0.27909274  0.49024722  1
  Mo  Mo3  1  0.69886735  0.22090726  0.00975278  1
  Mo  Mo4  1  0.91977461  0.49024722  0.22090726  1
  Mo  Mo5  1  0.68911457  0.00975278  0.27909274  1
  Mo  Mo6  1  0.58934125  0.71999438  0.50860586  1
  Mo  Mo7  1  0.30072976  0.78000562  0.99139414  1
  Mo  Mo8  1  0.08073539  0.50860586  0.78000562  1
  Mo  Mo9  1  0.30933562  0.99139414  0.71999438  1
  P  P10  1  0.81235846  0.39016495  0.39376727  1
  P  P11  1  0.30875614  0.10983505  0.10623273  1
  P  P12  1  0.41859119  0.39376727  0.10983505  1
  P  P13  1  0.20252341  0.10623273  0.39016495  1
  P  P14  1  0.18865821  0.60972368  0.60627956  1
  P  P15  1  0.69210232  0.89027632  0.89372044  1
  P  P16  1  0.58237865  0.60627956  0.89027632  1
  P  P17  1  0.79838188  0.89372044  0.60972368  1
  P  P18  1  0.52353386  0.44012112  0.64747926  1
  P  P19  1  0.81617572  0.05987888  0.85252074  1
  P  P20  1  0.87605460  0.64747926  0.05987888  1
  P  P21  1  0.96365498  0.85252074  0.44012112  1
  P  P22  1  0.47815105  0.55954314  0.35341170  1
  P  P23  1  0.18428248  0.94045686  0.14658830  1
  P  P24  1  0.12473935  0.35341170  0.94045686  1
  P  P25  1  0.03769419  0.14658830  0.55954314  1
  O  O26  1  0.67034546  0.48841895  0.41870577  1
  O  O27  1  0.24005864  0.01158105  0.08129423  1
  O  O28  1  0.25163969  0.41870577  0.01158105  1
  O  O29  1  0.15876442  0.08129423  0.48841895  1
  O  O30  1  0.33255607  0.51305168  0.58264364  1
  O  O31  1  0.76296411  0.98694832  0.91735636  1
  O  O32  1  0.74991243  0.58264364  0.98694832  1
  O  O33  1  0.84560775  0.91735636  0.51305168  1
  O  O34  1  0.57731617  0.35742749  0.59632072  1
  O  O35  1  0.83842294  0.14257251  0.90367928  1
  O  O36  1  0.98099545  0.59632072  0.14257251  1
  O  O37  1  0.93474366  0.90367928  0.35742749  1
  O  O38  1  0.42799920  0.64379819  0.40627567  1
  O  O39  1  0.16552171  0.85620181  0.09372433  1
  O  O40  1  0.02172353  0.40627567  0.85620181  1
  O  O41  1  0.07179739  0.09372433  0.64379819  1
  O  O42  1  0.24541988  0.20079553  0.39132244  1
  O  O43  1  0.55489297  0.29920447  0.10867756  1
  O  O44  1  0.85409745  0.39132244  0.29920447  1
  O  O45  1  0.44621541  0.10867756  0.20079553  1
  O  O46  1  0.75201865  0.79949829  0.60881966  1
  O  O47  1  0.44269727  0.70050171  0.89118034  1
  O  O48  1  0.14319898  0.60881966  0.70050171  1
  O  O49  1  0.55151693  0.89118034  0.79949829  1
  O  O50  1  0.07196874  0.37509843  0.46126042  1
  O  O51  1  0.48580674  0.12490157  0.03873958  1
  O  O52  1  0.61070831  0.46126042  0.12490157  1
  O  O53  1  0.44706717  0.03873958  0.37509843  1
  O  O54  1  0.92333222  0.62712336  0.53998228  1
  O  O55  1  0.51047331  0.87287664  0.96001772  1
  O  O56  1  0.38334995  0.53998228  0.87287664  1
  O  O57  1  0.55045559  0.96001772  0.62712336  1
  O  O58  1  0.73982347  0.17947749  0.52666312  1
  O  O59  1  0.89263783  0.32052251  0.97333688  1
  O  O60  1  0.21316034  0.52666312  0.32052251  1
  O  O61  1  0.91930095  0.97333688  0.17947749  1
  O  O62  1  0.26190978  0.81700351  0.47591720  1
  O  O63  1  0.10299608  0.68299649  0.02408280  1
  O  O64  1  0.78599257  0.47591720  0.68299649  1
  O  O65  1  0.07891329  0.02408280  0.81700351  1
  O  O66  1  0.20751506  0.22127445  0.57673504  1
  O  O67  1  0.35205447  0.27872555  0.92326496  1
  O  O68  1  0.63078002  0.57673504  0.27872555  1
  O  O69  1  0.42878951  0.92326496  0.22127445  1
  O  O70  1  0.78872308  0.77751489  0.42619353  1
  O  O71  1  0.64004444  0.72248511  0.07380647  1
  O  O72  1  0.36252955  0.42619353  0.72248511  1
  O  O73  1  0.56623797  0.07380647  0.77751489  1
  O  O74  1  0.61671229  0.32793262  0.40472848  1
  O  O75  1  0.03991643  0.17206738  0.09527152  1
  O  O76  1  0.21198381  0.40472848  0.17206738  1
  O  O77  1  0.94464491  0.09527152  0.32793262  1
  O  O78  1  0.38597520  0.67233889  0.59418594  1
  O  O79  1  0.96412815  0.82766111  0.90581406  1
  O  O80  1  0.79178926  0.59418594  0.82766111  1
  O  O81  1  0.05831409  0.90581406  0.67233889  1
