# generated using pymatgen
data_InGa(CuTe2)2
_symmetry_space_group_name_H-M   'P 1'
_cell_length_a   6.16975573
_cell_length_b   6.16975573
_cell_length_c   7.53564218
_cell_angle_alpha   65.83463745
_cell_angle_beta   65.83463737
_cell_angle_gamma   90.00000000
_symmetry_Int_Tables_number   1
_chemical_formula_structural   InGa(CuTe2)2
_chemical_formula_sum   'In1 Ga1 Cu2 Te4'
_cell_volume   233.88990101
_cell_formula_units_Z   1
loop_
 _symmetry_equiv_pos_site_id
 _symmetry_equiv_pos_as_xyz
  1  'x, y, z'
loop_
 _atom_site_type_symbol
 _atom_site_label
 _atom_site_symmetry_multiplicity
 _atom_site_fract_x
 _atom_site_fract_y
 _atom_site_fract_z
 _atom_site_occupancy
  In  In0  1  0.50000000  0.50000000  -0.00000000  1
  Ga  Ga1  1  0.25000000  0.75000000  0.50000000  1
  Cu  Cu2  1  0.75000000  0.25000000  0.50000000  1
  Cu  Cu3  1  -0.00000000  -0.00000000  0.00000000  1
  Te  Te4  1  0.36755724  0.90252915  0.73996681  1
  Te  Te5  1  0.89247594  0.35750403  0.73996681  1
  Te  Te6  1  0.09747085  0.10752406  0.26003319  1
  Te  Te7  1  0.64249597  0.63244276  0.26003319  1
