# generated using pymatgen
data_HfScSi2
_symmetry_space_group_name_H-M   'P 1'
_cell_length_a   3.71022235
_cell_length_b   3.84656529
_cell_length_c   5.28435676
_cell_angle_alpha   68.65655062
_cell_angle_beta   90.00000000
_cell_angle_gamma   90.00000000
_symmetry_Int_Tables_number   1
_chemical_formula_structural   HfScSi2
_chemical_formula_sum   'Hf1 Sc1 Si2'
_cell_volume   70.24390288
_cell_formula_units_Z   1
loop_
 _symmetry_equiv_pos_site_id
 _symmetry_equiv_pos_as_xyz
  1  'x, y, z'
loop_
 _atom_site_type_symbol
 _atom_site_label
 _atom_site_symmetry_multiplicity
 _atom_site_fract_x
 _atom_site_fract_y
 _atom_site_fract_z
 _atom_site_occupancy
  Hf  Hf0  1  0.25000000  0.85963821  0.28072357  1
  Sc  Sc1  1  0.75000000  0.14201893  0.71596214  1
  Si  Si2  1  0.25000000  0.58135224  0.83729552  1
  Si  Si3  1  0.75000000  0.41699062  0.16601876  1
