# generated using pymatgen
data_La3Zn
_symmetry_space_group_name_H-M   'P 1'
_cell_length_a   6.14646624
_cell_length_b   6.14646624
_cell_length_c   6.14646624
_cell_angle_alpha   133.26988887
_cell_angle_beta   133.26988887
_cell_angle_gamma   68.23062061
_symmetry_Int_Tables_number   1
_chemical_formula_structural   La3Zn
_chemical_formula_sum   'La3 Zn1'
_cell_volume   120.94814147
_cell_formula_units_Z   1
loop_
 _symmetry_equiv_pos_site_id
 _symmetry_equiv_pos_as_xyz
  1  'x, y, z'
loop_
 _atom_site_type_symbol
 _atom_site_label
 _atom_site_symmetry_multiplicity
 _atom_site_fract_x
 _atom_site_fract_y
 _atom_site_fract_z
 _atom_site_occupancy
  La  La0  1  0.75000200  0.25000100  0.50000100  1
  La  La1  1  0.25000100  0.75000200  0.50000100  1
  La  La2  1  0.49999900  0.49999900  0.00000000  1
  Zn  Zn3  1  -0.00000000  -0.00000000  0.00000000  1
