# generated using pymatgen
data_Hf3(Ga2Cu)2
_symmetry_space_group_name_H-M   'P 1'
_cell_length_a   4.11470050
_cell_length_b   5.33741044
_cell_length_c   14.98998427
_cell_angle_alpha   85.02016724
_cell_angle_beta   82.11135014
_cell_angle_gamma   112.67220776
_symmetry_Int_Tables_number   1
_chemical_formula_structural   Hf3(Ga2Cu)2
_chemical_formula_sum   'Hf6 Ga8 Cu4'
_cell_volume   297.35766507
_cell_formula_units_Z   2
loop_
 _symmetry_equiv_pos_site_id
 _symmetry_equiv_pos_as_xyz
  1  'x, y, z'
loop_
 _atom_site_type_symbol
 _atom_site_label
 _atom_site_symmetry_multiplicity
 _atom_site_fract_x
 _atom_site_fract_y
 _atom_site_fract_z
 _atom_site_occupancy
  Hf  Hf0  1  0.31777808  0.70605819  0.07050102  1
  Hf  Hf1  1  0.65502975  0.71058949  0.40053100  1
  Hf  Hf2  1  0.98918828  0.71222502  0.73384846  1
  Hf  Hf3  1  0.01759456  0.29739097  0.26220186  1
  Hf  Hf4  1  0.34944847  0.29623475  0.59733682  1
  Hf  Hf5  1  0.68312252  0.29656182  0.93031777  1
  Ga  Ga6  1  0.07440833  0.68660338  0.53778771  1
  Ga  Ga7  1  0.40659298  0.68582472  0.87263875  1
  Ga  Ga8  1  0.02583842  0.12443835  0.07276151  1
  Ga  Ga9  1  0.36566565  0.13222699  0.40089469  1
  Ga  Ga10  1  0.69902596  0.13430659  0.73625566  1
  Ga  Ga11  1  0.30587031  0.87453901  0.26279738  1
  Ga  Ga12  1  0.64306779  0.88515090  0.59901632  1
  Ga  Ga13  1  0.97678501  0.88637046  0.93280045  1
  Cu  Cu14  1  0.58207858  0.29340805  0.12925088  1
  Cu  Cu15  1  0.91249414  0.28602290  0.46103363  1
  Cu  Cu16  1  0.24510612  0.28560086  0.79538961  1
  Cu  Cu17  1  0.75090504  0.70644756  0.20463648  1
