# generated using pymatgen
data_Ho3SOF5
_symmetry_space_group_name_H-M   'P 1'
_cell_length_a   3.67443308
_cell_length_b   9.42408075
_cell_length_c   9.37211393
_cell_angle_alpha   60.43770678
_cell_angle_beta   90.00000000
_cell_angle_gamma   90.00000000
_symmetry_Int_Tables_number   1
_chemical_formula_structural   Ho3SOF5
_chemical_formula_sum   'Ho6 S2 O2 F10'
_cell_volume   282.29045525
_cell_formula_units_Z   2
loop_
 _symmetry_equiv_pos_site_id
 _symmetry_equiv_pos_as_xyz
  1  'x, y, z'
loop_
 _atom_site_type_symbol
 _atom_site_label
 _atom_site_symmetry_multiplicity
 _atom_site_fract_x
 _atom_site_fract_y
 _atom_site_fract_z
 _atom_site_occupancy
  Ho  Ho0  1  0.75000000  0.13300845  0.58392517  1
  Ho  Ho1  1  0.75000000  0.26957576  0.13322356  1
  Ho  Ho2  1  0.75000000  0.58593589  0.29841526  1
  Ho  Ho3  1  0.25000000  0.89639762  0.40387856  1
  Ho  Ho4  1  0.25000000  0.71603880  0.87751702  1
  Ho  Ho5  1  0.25000000  0.40105619  0.70415706  1
  S  S6  1  0.75000000  0.66686401  0.67082884  1
  S  S7  1  0.25000000  0.33853076  0.32672547  1
  O  O8  1  0.75000000  0.38630975  0.56413472  1
  O  O9  1  0.75000000  0.05098206  0.38397587  1
  F  F10  1  0.75000000  0.88176869  0.84278039  1
  F  F11  1  0.75000000  0.27055919  0.88985358  1
  F  F12  1  0.75000000  0.83861191  0.27191922  1
  F  F13  1  0.25000000  0.11812196  0.14641138  1
  F  F14  1  0.25000000  0.72126624  0.11775029  1
  F  F15  1  0.25000000  0.14781930  0.73004166  1
  F  F16  1  0.75000000  0.56812085  0.04731139  1
  F  F17  1  0.25000000  0.62465549  0.42901233  1
  F  F18  1  0.25000000  0.95143740  0.62303929  1
  F  F19  1  0.25000000  0.43293968  0.95509894  1
