# generated using pymatgen
data_K6V6P6O31
_symmetry_space_group_name_H-M   'P 1'
_cell_length_a   7.07723868
_cell_length_b   13.57275869
_cell_length_c   14.47196788
_cell_angle_alpha   90.00000000
_cell_angle_beta   90.00000000
_cell_angle_gamma   90.00000000
_symmetry_Int_Tables_number   1
_chemical_formula_structural   K6V6P6O31
_chemical_formula_sum   'K12 V12 P12 O62'
_cell_volume   1390.14326588
_cell_formula_units_Z   2
loop_
 _symmetry_equiv_pos_site_id
 _symmetry_equiv_pos_as_xyz
  1  'x, y, z'
loop_
 _atom_site_type_symbol
 _atom_site_label
 _atom_site_symmetry_multiplicity
 _atom_site_fract_x
 _atom_site_fract_y
 _atom_site_fract_z
 _atom_site_occupancy
  K  K0  1  0.62215571  0.25000000  0.50977589  1
  K  K1  1  0.12072821  0.25000000  0.98877869  1
  K  K2  1  0.37927179  0.75000000  0.48877869  1
  K  K3  1  0.87784429  0.75000000  0.00977589  1
  K  K4  1  0.60103362  0.00925008  0.33621507  1
  K  K5  1  0.10004889  0.49317978  0.16236224  1
  K  K6  1  0.39995111  0.50682022  0.66236224  1
  K  K7  1  0.89896638  0.99074992  0.83621507  1
  K  K8  1  0.39995111  0.99317978  0.66236224  1
  K  K9  1  0.89896638  0.50925008  0.83621507  1
  K  K10  1  0.60103362  0.49074992  0.33621507  1
  K  K11  1  0.10004889  0.00682022  0.16236224  1
  V  V12  1  0.65909392  0.12528806  0.07853819  1
  V  V13  1  0.16072316  0.37503214  0.42239330  1
  V  V14  1  0.33927684  0.62496786  0.92239330  1
  V  V15  1  0.84090608  0.87471194  0.57853819  1
  V  V16  1  0.33927684  0.87503214  0.92239330  1
  V  V17  1  0.84090608  0.62528806  0.57853819  1
  V  V18  1  0.65909392  0.37471194  0.07853819  1
  V  V19  1  0.16072316  0.12496786  0.42239330  1
  V  V20  1  0.76328370  0.75000000  0.25765683  1
  V  V21  1  0.26307514  0.75000000  0.24243098  1
  V  V22  1  0.23692486  0.25000000  0.74243098  1
  V  V23  1  0.73671630  0.25000000  0.75765683  1
  P  P24  1  0.53793490  0.90128261  0.11892870  1
  P  P25  1  0.03790509  0.59855745  0.38110986  1
  P  P26  1  0.46209491  0.40144255  0.88110986  1
  P  P27  1  0.96206510  0.09871739  0.61892870  1
  P  P28  1  0.46209491  0.09855745  0.88110986  1
  P  P29  1  0.96206510  0.40128261  0.61892870  1
  P  P30  1  0.53793490  0.59871739  0.11892870  1
  P  P31  1  0.03790509  0.90144255  0.38110986  1
  P  P32  1  0.86395854  0.25000000  0.23963081  1
  P  P33  1  0.63604146  0.75000000  0.73963081  1
  P  P34  1  0.27543443  0.25000000  0.23714046  1
  P  P35  1  0.22456557  0.75000000  0.73714046  1
  O  O36  1  0.71948786  0.64402019  0.16072517  1
  O  O37  1  0.21908882  0.85615613  0.33889911  1
  O  O38  1  0.28091118  0.14384387  0.83889911  1
  O  O39  1  0.78051214  0.35597981  0.66072517  1
  O  O40  1  0.28091118  0.35615613  0.83889911  1
  O  O41  1  0.78051214  0.14402019  0.66072517  1
  O  O42  1  0.71948786  0.85597981  0.16072517  1
  O  O43  1  0.21908882  0.64384387  0.33889911  1
  O  O44  1  0.53501066  0.75000000  0.29722834  1
  O  O45  1  0.03497199  0.75000000  0.20246264  1
  O  O46  1  0.46502801  0.25000000  0.70246264  1
  O  O47  1  0.96498934  0.25000000  0.79722834  1
  O  O48  1  0.90158879  0.25000000  0.34259191  1
  O  O49  1  0.41277023  0.25000000  0.15753530  1
  O  O50  1  0.08722977  0.75000000  0.65753530  1
  O  O51  1  0.59841121  0.75000000  0.84259191  1
  O  O52  1  0.52918184  0.01321959  0.14331783  1
  O  O53  1  0.02995145  0.48644089  0.35686408  1
  O  O54  1  0.47004855  0.51355911  0.85686408  1
  O  O55  1  0.97081816  0.98678041  0.64331783  1
  O  O56  1  0.47004855  0.98644089  0.85686408  1
  O  O57  1  0.97081816  0.51321959  0.64331783  1
  O  O58  1  0.52918184  0.48678041  0.14331783  1
  O  O59  1  0.02995145  0.01355911  0.35686408  1
  O  O60  1  0.45262646  0.11554136  0.98710356  1
  O  O61  1  0.95307252  0.38437210  0.51286158  1
  O  O62  1  0.54692748  0.61562790  0.01286158  1
  O  O63  1  0.04737354  0.88445864  0.48710356  1
  O  O64  1  0.54692748  0.88437210  0.01286158  1
  O  O65  1  0.04737354  0.61554136  0.48710356  1
  O  O66  1  0.45262646  0.38445864  0.98710356  1
  O  O67  1  0.95307252  0.11562790  0.51286158  1
  O  O68  1  0.76798962  0.15388099  0.20628037  1
  O  O69  1  0.27735573  0.34552098  0.29551441  1
  O  O70  1  0.22264427  0.65447902  0.79551441  1
  O  O71  1  0.73201038  0.84611901  0.70628037  1
  O  O72  1  0.22264427  0.84552098  0.79551441  1
  O  O73  1  0.73201038  0.65388099  0.70628037  1
  O  O74  1  0.76798962  0.34611901  0.20628037  1
  O  O75  1  0.27735573  0.15447902  0.29551441  1
  O  O76  1  0.85665521  0.64330693  0.33973340  1
  O  O77  1  0.35670539  0.85638291  0.16013506  1
  O  O78  1  0.14329461  0.14361709  0.66013506  1
  O  O79  1  0.64334479  0.35669307  0.83973340  1
  O  O80  1  0.14329461  0.35638291  0.66013506  1
  O  O81  1  0.64334479  0.14330693  0.83973340  1
  O  O82  1  0.85665521  0.85669307  0.33973340  1
  O  O83  1  0.35670539  0.64361709  0.16013506  1
  O  O84  1  0.83577591  0.06511769  0.03100045  1
  O  O85  1  0.33796314  0.43503838  0.46962731  1
  O  O86  1  0.16203686  0.56496162  0.96962731  1
  O  O87  1  0.66422409  0.93488231  0.53100045  1
  O  O88  1  0.16203686  0.93503838  0.96962731  1
  O  O89  1  0.66422409  0.56511769  0.53100045  1
  O  O90  1  0.83577591  0.43488231  0.03100045  1
  O  O91  1  0.33796314  0.06496162  0.46962731  1
  O  O92  1  0.72024981  0.25000000  0.04477003  1
  O  O93  1  0.21968777  0.25000000  0.45575458  1
  O  O94  1  0.28031223  0.75000000  0.95575458  1
  O  O95  1  0.77975019  0.75000000  0.54477003  1
  O  O96  1  0.06819432  0.25000000  0.18455416  1
  O  O97  1  0.43180568  0.75000000  0.68455416  1
