# generated using pymatgen
data_Fe4NiSe10
_symmetry_space_group_name_H-M   'P 1'
_cell_length_a   3.61796590
_cell_length_b   4.85055956
_cell_length_c   29.02784425
_cell_angle_alpha   90.22147423
_cell_angle_beta   90.00000000
_cell_angle_gamma   90.00000000
_symmetry_Int_Tables_number   1
_chemical_formula_structural   Fe4NiSe10
_chemical_formula_sum   'Fe8 Ni2 Se20'
_cell_volume   509.41045075
_cell_formula_units_Z   2
loop_
 _symmetry_equiv_pos_site_id
 _symmetry_equiv_pos_as_xyz
  1  'x, y, z'
loop_
 _atom_site_type_symbol
 _atom_site_label
 _atom_site_symmetry_multiplicity
 _atom_site_fract_x
 _atom_site_fract_y
 _atom_site_fract_z
 _atom_site_occupancy
  Fe  Fe0  1  0.50000000  0.49996554  0.09997470  1
  Fe  Fe1  1  0.50000000  0.50003446  0.30002530  1
  Fe  Fe2  1  0.50000000  0.50176564  0.49971438  1
  Fe  Fe3  1  0.50000000  0.50000000  0.70000000  1
  Fe  Fe4  1  0.50000000  0.49823436  0.90028562  1
  Fe  Fe5  1  -0.00000000  0.99980269  0.00005691  1
  Fe  Fe6  1  0.00000000  0.00000000  0.20000000  1
  Fe  Fe7  1  0.00000000  0.00019731  0.39994309  1
  Ni  Ni8  1  0.00000000  0.00019213  0.59987927  1
  Ni  Ni9  1  -0.00000000  0.99980787  0.80012073  1
  Se  Se10  1  0.50000000  0.71878943  0.02664914  1
  Se  Se11  1  0.50000000  0.71880105  0.22645514  1
  Se  Se12  1  0.50000000  0.71938009  0.42596302  1
  Se  Se13  1  0.50000000  0.70685338  0.62677208  1
  Se  Se14  1  0.50000000  0.70620630  0.82716229  1
  Se  Se15  1  0.50000000  0.28119895  0.17354486  1
  Se  Se16  1  0.50000000  0.28121057  0.37335086  1
  Se  Se17  1  0.50000000  0.29379370  0.57283771  1
  Se  Se18  1  0.50000000  0.29314662  0.77322792  1
  Se  Se19  1  0.50000000  0.28061991  0.97403698  1
  Se  Se20  1  -0.00000000  0.21864647  0.07365778  1
  Se  Se21  1  0.00000000  0.21884700  0.27349982  1
  Se  Se22  1  -0.00000000  0.21744886  0.47324366  1
  Se  Se23  1  -0.00000000  0.21924534  0.67494357  1
  Se  Se24  1  -0.00000000  0.22073788  0.87521057  1
  Se  Se25  1  -0.00000000  0.78115300  0.12650018  1
  Se  Se26  1  -0.00000000  0.78135353  0.32634222  1
  Se  Se27  1  -0.00000000  0.77926212  0.52478943  1
  Se  Se28  1  -0.00000000  0.78075466  0.72505643  1
  Se  Se29  1  0.00000000  0.78255114  0.92675634  1
