# generated using pymatgen
data_Na12DyY3H48(CO5)12
_symmetry_space_group_name_H-M   'P 1'
_cell_length_a   11.74784454
_cell_length_b   11.73399462
_cell_length_c   13.13263122
_cell_angle_alpha   63.46250124
_cell_angle_beta   63.42678949
_cell_angle_gamma   90.00079277
_symmetry_Int_Tables_number   1
_chemical_formula_structural   Na12DyY3H48(CO5)12
_chemical_formula_sum   'Na12 Dy1 Y3 H48 C12 O60'
_cell_volume   1402.57912287
_cell_formula_units_Z   1
loop_
 _symmetry_equiv_pos_site_id
 _symmetry_equiv_pos_as_xyz
  1  'x, y, z'
loop_
 _atom_site_type_symbol
 _atom_site_label
 _atom_site_symmetry_multiplicity
 _atom_site_fract_x
 _atom_site_fract_y
 _atom_site_fract_z
 _atom_site_occupancy
  Na  Na0  1  0.00256405  0.89962633  0.36657985  1
  Na  Na1  1  0.00243645  0.39977681  0.36672628  1
  Na  Na2  1  0.63074268  0.58163002  0.00265235  1
  Na  Na3  1  0.63073050  0.08189957  0.00253850  1
  Na  Na4  1  0.36654013  0.76764042  0.63070845  1
  Na  Na5  1  0.36670112  0.26780402  0.63073836  1
  Na  Na6  1  0.99716154  0.51635884  0.63350708  1
  Na  Na7  1  0.99726792  0.01624429  0.63353760  1
  Na  Na8  1  0.36930915  0.83439340  0.99722071  1
  Na  Na9  1  0.36933449  0.33447809  0.99723133  1
  Na  Na10  1  0.63342479  0.64846063  0.36936601  1
  Na  Na11  1  0.63350844  0.14838827  0.36927554  1
  Dy  Dy12  1  0.66663044  0.61829617  0.66668161  1
  Y  Y13  1  0.33334296  0.53521873  0.33332430  1
  Y  Y14  1  0.33336013  0.03519928  0.33333319  1
  Y  Y15  1  0.66667059  0.11827491  0.66666637  1
  H  H16  1  0.13874598  0.96667366  0.09911987  1
  H  H17  1  0.13883241  0.46682585  0.09917720  1
  H  H18  1  0.76209883  0.94694395  0.13868472  1
  H  H19  1  0.76217265  0.44676591  0.13867149  1
  H  H20  1  0.09898857  0.63521836  0.76211484  1
  H  H21  1  0.09912490  0.13536678  0.76205797  1
  H  H22  1  0.86088526  0.31600368  0.90088047  1
  H  H23  1  0.86117957  0.81575473  0.90100950  1
  H  H24  1  0.23821950  0.33595628  0.86088862  1
  H  H25  1  0.23783218  0.83557270  0.86121543  1
  H  H26  1  0.90088186  0.64733804  0.23821444  1
  H  H27  1  0.90103296  0.14732456  0.23784706  1
  H  H28  1  0.00085470  0.40123865  0.13358762  1
  H  H29  1  0.00083126  0.90083513  0.13359420  1
  H  H30  1  0.86559204  0.46706865  0.00078221  1
  H  H31  1  0.86555134  0.96738187  0.00075525  1
  H  H32  1  0.13351850  0.03514625  0.86557729  1
  H  H33  1  0.13349526  0.53496038  0.86553466  1
  H  H34  1  0.99870256  0.28444004  0.86659761  1
  H  H35  1  0.99916385  0.78454828  0.86651350  1
  H  H36  1  0.13463341  0.21846170  0.99874432  1
  H  H37  1  0.13445129  0.71805340  0.99916351  1
  H  H38  1  0.86668105  0.65062020  0.13458198  1
  H  H39  1  0.86655977  0.15054497  0.13439999  1
  H  H40  1  0.71891973  0.42157529  0.50048174  1
  H  H41  1  0.71911505  0.92127491  0.50055010  1
  H  H42  1  0.78064544  0.31230089  0.71895007  1
  H  H43  1  0.78037339  0.81194528  0.71913804  1
  H  H44  1  0.50042805  0.28150324  0.78061867  1
  H  H45  1  0.50045697  0.78132045  0.78040093  1
  H  H46  1  0.28093141  0.17207121  0.49975369  1
  H  H47  1  0.28089872  0.67202574  0.49980519  1
  H  H48  1  0.21927233  0.28144483  0.28090701  1
  H  H49  1  0.21927947  0.78147466  0.28094171  1
  H  H50  1  0.49984111  0.31228181  0.21927374  1
  H  H51  1  0.49982749  0.81230018  0.21925751  1
  H  H52  1  0.68027179  0.35424479  0.43205154  1
  H  H53  1  0.68003865  0.85385190  0.43251154  1
  H  H54  1  0.88773872  0.23010041  0.68028534  1
  H  H55  1  0.88746087  0.73003450  0.68003761  1
  H  H56  1  0.43205723  0.12641170  0.88772464  1
  H  H57  1  0.43249433  0.62631584  0.88751058  1
  H  H58  1  0.31975396  0.03634082  0.56796634  1
  H  H59  1  0.32008634  0.53650317  0.56788919  1
  H  H60  1  0.11226970  0.16037582  0.31975425  1
  H  H61  1  0.11202610  0.66039380  0.32011734  1
  H  H62  1  0.56791368  0.26444785  0.11200622  1
  H  H63  1  0.56799521  0.76421520  0.11220791  1
  C  C64  1  0.31876196  0.02250174  0.12547710  1
  C  C65  1  0.31875617  0.52250349  0.12546063  1
  C  C66  1  0.55587820  0.92585326  0.31877138  1
  C  C67  1  0.55585389  0.42585253  0.31876958  1
  C  C68  1  0.12538142  0.80734112  0.55577857  1
  C  C69  1  0.12547665  0.30735431  0.55579488  1
  C  C70  1  0.68122579  0.39841902  0.87401307  1
  C  C71  1  0.68130958  0.89779729  0.87452976  1
  C  C72  1  0.44468930  0.49474452  0.68123143  1
  C  C73  1  0.44410462  0.99440147  0.68122212  1
  C  C74  1  0.87398011  0.61293394  0.44481614  1
  C  C75  1  0.87457798  0.11286540  0.44422286  1
  O  O76  1  0.40040909  0.12008097  0.09797095  1
  O  O77  1  0.40043017  0.62008028  0.09799533  1
  O  O78  1  0.50166217  0.96883386  0.40044856  1
  O  O79  1  0.50172658  0.46887683  0.40038354  1
  O  O80  1  0.09790615  0.91826899  0.50168565  1
  O  O81  1  0.09793296  0.41827209  0.50173045  1
  O  O82  1  0.59977961  0.46877010  0.90124774  1
  O  O83  1  0.59965011  0.96795506  0.90195933  1
  O  O84  1  0.49885642  0.61945008  0.59981426  1
  O  O85  1  0.49833031  0.11908519  0.59959514  1
  O  O86  1  0.90123339  0.66986536  0.49892314  1
  O  O87  1  0.90202346  0.16969926  0.49833985  1
  O  O88  1  0.70280389  0.33673386  0.50242816  1
  O  O89  1  0.70238582  0.83625244  0.50299748  1
  O  O90  1  0.79482468  0.23658169  0.70275414  1
  O  O91  1  0.79462759  0.73653682  0.70238676  1
  O  O92  1  0.50242317  0.19056011  0.79479566  1
  O  O93  1  0.50293847  0.69040870  0.79466500  1
  O  O94  1  0.29738868  0.08937874  0.49749829  1
  O  O95  1  0.29754657  0.58938910  0.49750880  1
  O  O96  1  0.20514221  0.18943805  0.29729888  1
  O  O97  1  0.20495083  0.68937822  0.29751440  1
  O  O98  1  0.49763157  0.23562203  0.20492498  1
  O  O99  1  0.49752623  0.73560028  0.20505150  1
  O  O100  1  0.04300210  0.95926359  0.14797236  1
  O  O101  1  0.04312270  0.45955518  0.14800910  1
  O  O102  1  0.80891651  0.01185023  0.04294172  1
  O  O103  1  0.80901378  0.51161049  0.04291033  1
  O  O104  1  0.14787245  0.62885753  0.80894743  1
  O  O105  1  0.14794932  0.12903238  0.80894416  1
  O  O106  1  0.95665888  0.35733443  0.85216301  1
  O  O107  1  0.95690805  0.85730687  0.85219571  1
  O  O108  1  0.19127712  0.30508439  0.95663036  1
  O  O109  1  0.19103653  0.80474957  0.95694553  1
  O  O110  1  0.85214767  0.68787179  0.19121576  1
  O  O111  1  0.85218394  0.18784751  0.19097028  1
  O  O112  1  0.24158682  0.93650081  0.25075914  1
  O  O113  1  0.24154777  0.43658452  0.25074199  1
  O  O114  1  0.50777561  0.94112733  0.24159220  1
  O  O115  1  0.50768749  0.44104787  0.24164736  1
  O  O116  1  0.25067736  0.80803777  0.50760225  1
  O  O117  1  0.25074583  0.30808516  0.50761240  1
  O  O118  1  0.75832774  0.43744475  0.74883255  1
  O  O119  1  0.75837602  0.93698377  0.74930983  1
  O  O120  1  0.49283336  0.43266752  0.75829622  1
  O  O121  1  0.49233260  0.93244371  0.75830493  1
  O  O122  1  0.74876260  0.56526841  0.49295915  1
  O  O123  1  0.74928658  0.06530277  0.49246427  1
  O  O124  1  0.31225826  0.00922838  0.03588926  1
  O  O125  1  0.31229544  0.50925580  0.03586239  1
  O  O126  1  0.65201159  0.87109900  0.31223882  1
  O  O127  1  0.65199586  0.37108245  0.31221455  1
  O  O128  1  0.03578591  0.70124373  0.65185975  1
  O  O129  1  0.03587634  0.20124764  0.65189252  1
  O  O130  1  0.68753357  0.29556135  0.96378985  1
  O  O131  1  0.68777328  0.79502320  0.96418998  1
  O  O132  1  0.34858066  0.43360769  0.68757377  1
  O  O133  1  0.34793331  0.93320306  0.68779983  1
  O  O134  1  0.96376143  0.60302611  0.34870358  1
  O  O135  1  0.96418890  0.10298900  0.34806995  1
