# generated using pymatgen
data_Ga2Fe(PO4)3
_symmetry_space_group_name_H-M   'P 1'
_cell_length_a   4.98278582
_cell_length_b   5.02203179
_cell_length_c   11.28268541
_cell_angle_alpha   90.09761224
_cell_angle_beta   90.00126746
_cell_angle_gamma   119.74704866
_symmetry_Int_Tables_number   1
_chemical_formula_structural   Ga2Fe(PO4)3
_chemical_formula_sum   'Ga2 Fe1 P3 O12'
_cell_volume   245.12933301
_cell_formula_units_Z   1
loop_
 _symmetry_equiv_pos_site_id
 _symmetry_equiv_pos_as_xyz
  1  'x, y, z'
loop_
 _atom_site_type_symbol
 _atom_site_label
 _atom_site_symmetry_multiplicity
 _atom_site_fract_x
 _atom_site_fract_y
 _atom_site_fract_z
 _atom_site_occupancy
  Ga  Ga0  1  0.54152448  0.54180254  0.33493988  1
  Ga  Ga1  1  0.99965676  0.45817723  0.66527310  1
  Fe  Fe2  1  0.45384532  -0.00001060  0.00004634  1
  P  P3  1  0.45833105  0.00001931  0.50015126  1
  P  P4  1  0.54299802  0.54513769  0.83072380  1
  P  P5  1  0.99782174  0.45486145  0.16954831  1
  O  O6  1  0.58825245  0.90300630  0.39428182  1
  O  O7  1  0.31613096  0.41081916  0.72498740  1
  O  O8  1  0.08872759  0.67629608  0.06310326  1
  O  O9  1  0.68521642  0.09693934  0.60593994  1
  O  O10  1  0.90533676  0.58915575  0.27520456  1
  O  O11  1  0.41239179  0.32378481  0.93709367  1
  O  O12  1  0.40981750  0.26718461  0.45969537  1
  O  O13  1  0.85962201  0.58708392  0.79218352  1
  O  O14  1  0.73204233  0.13897190  0.13004052  1
  O  O15  1  0.14277437  0.73281477  0.54057028  1
  O  O16  1  0.27250876  0.41306398  0.20807205  1
  O  O17  1  0.59300167  0.86089175  0.87014490  1
