# generated using pymatgen
data_FeSbO4
_symmetry_space_group_name_H-M   'P 1'
_cell_length_a   4.71068540
_cell_length_b   4.71068540
_cell_length_c   9.35525877
_cell_angle_alpha   90.00000000
_cell_angle_beta   90.00000000
_cell_angle_gamma   90.77143026
_symmetry_Int_Tables_number   1
_chemical_formula_structural   FeSbO4
_chemical_formula_sum   'Fe3 Sb3 O12'
_cell_volume   207.57958634
_cell_formula_units_Z   3
loop_
 _symmetry_equiv_pos_site_id
 _symmetry_equiv_pos_as_xyz
  1  'x, y, z'
loop_
 _atom_site_type_symbol
 _atom_site_label
 _atom_site_symmetry_multiplicity
 _atom_site_fract_x
 _atom_site_fract_y
 _atom_site_fract_z
 _atom_site_occupancy
  Fe  Fe0  1  0.50000000  0.50000000  0.15869557  1
  Fe  Fe1  1  0.00000000  -0.00000000  0.67351404  1
  Fe  Fe2  1  0.50000000  0.50000000  0.83540607  1
  Sb  Sb3  1  0.50000000  0.50000000  0.50468703  1
  Sb  Sb4  1  0.00000000  -0.00000000  0.99485637  1
  Sb  Sb5  1  0.00000000  -0.00000000  0.33324279  1
  O  O6  1  0.19145917  0.80854083  0.16828026  1
  O  O7  1  0.80854083  0.19145917  0.16828026  1
  O  O8  1  0.30481226  0.30481226  0.66259403  1
  O  O9  1  0.69518774  0.69518774  0.66259403  1
  O  O10  1  0.80460680  0.19539320  0.83631042  1
  O  O11  1  0.19539320  0.80460680  0.83631042  1
  O  O12  1  0.69341622  0.69341622  0.33517183  1
  O  O13  1  0.30658378  0.30658378  0.33517183  1
  O  O14  1  0.19454265  0.80545735  0.49469040  1
  O  O15  1  0.80545735  0.19454265  0.49469040  1
  O  O16  1  0.30236456  0.30236456  0.00275213  1
  O  O17  1  0.69763544  0.69763544  0.00275213  1
