# generated using pymatgen
data_DyAl7Fe5
_symmetry_space_group_name_H-M   'P 1'
_cell_length_a   5.01699741
_cell_length_b   6.60887302
_cell_length_c   6.60887302
_cell_angle_alpha   98.16089324
_cell_angle_beta   112.30675266
_cell_angle_gamma   67.69324734
_symmetry_Int_Tables_number   1
_chemical_formula_structural   DyAl7Fe5
_chemical_formula_sum   'Dy1 Al7 Fe5'
_cell_volume   187.55806549
_cell_formula_units_Z   1
loop_
 _symmetry_equiv_pos_site_id
 _symmetry_equiv_pos_as_xyz
  1  'x, y, z'
loop_
 _atom_site_type_symbol
 _atom_site_label
 _atom_site_symmetry_multiplicity
 _atom_site_fract_x
 _atom_site_fract_y
 _atom_site_fract_z
 _atom_site_occupancy
  Dy  Dy0  1  0.00482159  0.99517841  0.00482159  1
  Al  Al1  1  0.65981518  0.34018482  0.65981518  1
  Al  Al2  1  0.33930988  0.66069012  0.33930988  1
  Al  Al3  1  0.99164371  0.35105379  0.33434121  1
  Al  Al4  1  0.99164371  0.66565879  0.64894621  1
  Al  Al5  1  0.27463419  0.22536581  0.77463419  1
  Al  Al6  1  0.50446927  0.78403751  0.79297605  1
  Al  Al7  1  0.50446927  0.20702395  0.21596249  1
  Fe  Fe8  1  0.49610485  0.00208040  0.49895231  1
  Fe  Fe9  1  0.00076706  0.00208040  0.49895231  1
  Fe  Fe10  1  0.49610485  0.50104769  0.99791960  1
  Fe  Fe11  1  0.00076706  0.50104769  0.99791960  1
  Fe  Fe12  1  0.73544937  0.76455063  0.23544937  1
