# generated using pymatgen
data_Gd6S3(OF4)2
_symmetry_space_group_name_H-M   'P 1'
_cell_length_a   3.78963201
_cell_length_b   13.40937811
_cell_length_c   13.40691067
_cell_angle_alpha   120.55788981
_cell_angle_beta   90.00000000
_cell_angle_gamma   90.00000000
_symmetry_Int_Tables_number   1
_chemical_formula_structural   Gd6S3(OF4)2
_chemical_formula_sum   'Gd12 S6 O4 F16'
_cell_volume   586.67287824
_cell_formula_units_Z   2
loop_
 _symmetry_equiv_pos_site_id
 _symmetry_equiv_pos_as_xyz
  1  'x, y, z'
loop_
 _atom_site_type_symbol
 _atom_site_label
 _atom_site_symmetry_multiplicity
 _atom_site_fract_x
 _atom_site_fract_y
 _atom_site_fract_z
 _atom_site_occupancy
  Gd  Gd0  1  0.75000000  0.61138606  0.47351217  1
  Gd  Gd1  1  0.75000000  0.52683806  0.12890098  1
  Gd  Gd2  1  0.75000000  0.86238994  0.38600995  1
  Gd  Gd3  1  0.25000000  0.39898170  0.53813426  1
  Gd  Gd4  1  0.25000000  0.47482263  0.87433352  1
  Gd  Gd5  1  0.25000000  0.14108842  0.60435073  1
  Gd  Gd6  1  0.75000000  0.94294412  0.71805644  1
  Gd  Gd7  1  0.75000000  0.28265247  0.22457911  1
  Gd  Gd8  1  0.75000000  0.76405404  0.05258545  1
  Gd  Gd9  1  0.25000000  0.05391818  0.29035733  1
  Gd  Gd10  1  0.25000000  0.70765207  0.76371626  1
  Gd  Gd11  1  0.25000000  0.23635215  0.94246227  1
  S  S12  1  0.75000000  0.27323215  0.80187295  1
  S  S13  1  0.75000000  0.19652122  0.47424355  1
  S  S14  1  0.75000000  0.52697522  0.71835499  1
  S  S15  1  0.25000000  0.72349251  0.19368059  1
  S  S16  1  0.25000000  0.81171157  0.53180126  1
  S  S17  1  0.25000000  0.46780359  0.28176941  1
  O  O18  1  0.75000000  0.56728389  0.97993671  1
  O  O19  1  0.25000000  0.98302379  0.41826466  1
  O  O20  1  0.25000000  0.58307508  0.56351508  1
  O  O21  1  0.25000000  0.43161027  0.01969831  1
  F  F22  1  0.75000000  0.10290647  0.90228340  1
  F  F23  1  0.75000000  0.09844438  0.20238439  1
  F  F24  1  0.75000000  0.79730766  0.89420275  1
  F  F25  1  0.25000000  0.89658961  0.09831526  1
  F  F26  1  0.25000000  0.90312069  0.80085176  1
  F  F27  1  0.25000000  0.19873903  0.10129015  1
  F  F28  1  0.75000000  0.75210448  0.68181933  1
  F  F29  1  0.75000000  0.31688250  0.06879070  1
  F  F30  1  0.75000000  0.93090495  0.24924766  1
  F  F31  1  0.25000000  0.25361806  0.32335329  1
  F  F32  1  0.25000000  0.68049430  0.92772079  1
  F  F33  1  0.25000000  0.06688051  0.74497573  1
  F  F34  1  0.75000000  0.66632724  0.33309757  1
  F  F35  1  0.25000000  0.33624688  0.66984194  1
  F  F36  1  0.75000000  0.02129686  0.58835406  1
  F  F37  1  0.75000000  0.41032724  0.43333527  1
