# generated using pymatgen
data_Fe3H9S2O15
_symmetry_space_group_name_H-M   'P 1'
_cell_length_a   7.14869136
_cell_length_b   7.17162870
_cell_length_c   7.16497950
_cell_angle_alpha   62.98883559
_cell_angle_beta   63.19356961
_cell_angle_gamma   62.29952480
_symmetry_Int_Tables_number   1
_chemical_formula_structural   Fe3H9S2O15
_chemical_formula_sum   'Fe3 H9 S2 O15'
_cell_volume   276.03464614
_cell_formula_units_Z   1
loop_
 _symmetry_equiv_pos_site_id
 _symmetry_equiv_pos_as_xyz
  1  'x, y, z'
loop_
 _atom_site_type_symbol
 _atom_site_label
 _atom_site_symmetry_multiplicity
 _atom_site_fract_x
 _atom_site_fract_y
 _atom_site_fract_z
 _atom_site_occupancy
  Fe  Fe0  1  0.99716609  0.49446453  0.00541896  1
  Fe  Fe1  1  0.50024376  0.00098204  0.99720710  1
  Fe  Fe2  1  0.99506684  0.00607920  0.49968508  1
  H  H3  1  0.69925036  0.69642331  0.27888211  1
  H  H4  1  0.68826169  0.28588660  0.69412665  1
  H  H5  1  0.28326837  0.68691346  0.69923952  1
  H  H6  1  0.29673069  0.30058669  0.72223673  1
  H  H7  1  0.30102086  0.71831100  0.30041915  1
  H  H8  1  0.71414392  0.31006474  0.30318932  1
  H  H9  1  0.88306831  0.09366012  0.97620252  1
  H  H10  1  0.08029998  0.87772126  0.88682139  1
  H  H11  1  0.08746247  0.94344586  0.09668113  1
  S  S12  1  0.69510322  0.69226012  0.68987017  1
  S  S13  1  0.31089459  0.30475475  0.30729152  1
  O  O14  1  0.60881190  0.61066709  0.60055486  1
  O  O15  1  0.39531301  0.38784518  0.39694273  1
  O  O16  1  0.83500079  0.49874196  0.82771095  1
  O  O17  1  0.50621880  0.83104260  0.82775001  1
  O  O18  1  0.83483999  0.82801245  0.50603897  1
  O  O19  1  0.17043903  0.49670033  0.17030931  1
  O  O20  1  0.50218221  0.16571583  0.16917296  1
  O  O21  1  0.17401798  0.16629864  0.49030473  1
  O  O22  1  0.72990462  0.73155516  0.12008888  1
  O  O23  1  0.73910105  0.12250379  0.74012353  1
  O  O24  1  0.11982954  0.75063122  0.75298566  1
  O  O25  1  0.27266630  0.27663129  0.87692263  1
  O  O26  1  0.24565885  0.88211730  0.25122285  1
  O  O27  1  0.87674659  0.26330599  0.26410018  1
  O  O28  1  0.03628818  0.99367749  0.96550040  1
