# generated using pymatgen
data_Dy2(InSn)3
_symmetry_space_group_name_H-M   'P 1'
_cell_length_a   4.68533058
_cell_length_b   4.67376397
_cell_length_c   9.33713300
_cell_angle_alpha   90.00000000
_cell_angle_beta   90.00000000
_cell_angle_gamma   90.00000000
_symmetry_Int_Tables_number   1
_chemical_formula_structural   Dy2(InSn)3
_chemical_formula_sum   'Dy2 In3 Sn3'
_cell_volume   204.46574528
_cell_formula_units_Z   1
loop_
 _symmetry_equiv_pos_site_id
 _symmetry_equiv_pos_as_xyz
  1  'x, y, z'
loop_
 _atom_site_type_symbol
 _atom_site_label
 _atom_site_symmetry_multiplicity
 _atom_site_fract_x
 _atom_site_fract_y
 _atom_site_fract_z
 _atom_site_occupancy
  Dy  Dy0  1  0.00000000  -0.00000000  0.99835416  1
  Dy  Dy1  1  0.00000000  -0.00000000  0.50164584  1
  In  In2  1  0.50000000  0.50000000  0.00077424  1
  In  In3  1  0.50000000  0.50000000  0.49922576  1
  In  In4  1  0.50000000  -0.00000000  0.25000000  1
  Sn  Sn5  1  0.50000000  -0.00000000  0.75000000  1
  Sn  Sn6  1  -0.00000000  0.50000000  0.25000000  1
  Sn  Sn7  1  0.00000000  0.50000000  0.75000000  1
