# generated using pymatgen
data_Cs2RbSiF7
_symmetry_space_group_name_H-M   'P 1'
_cell_length_a   6.13561478
_cell_length_b   8.33121902
_cell_length_c   8.33203315
_cell_angle_alpha   89.41383215
_cell_angle_beta   90.00000000
_cell_angle_gamma   90.00000000
_symmetry_Int_Tables_number   1
_chemical_formula_structural   Cs2RbSiF7
_chemical_formula_sum   'Cs4 Rb2 Si2 F14'
_cell_volume   425.88750414
_cell_formula_units_Z   2
loop_
 _symmetry_equiv_pos_site_id
 _symmetry_equiv_pos_as_xyz
  1  'x, y, z'
loop_
 _atom_site_type_symbol
 _atom_site_label
 _atom_site_symmetry_multiplicity
 _atom_site_fract_x
 _atom_site_fract_y
 _atom_site_fract_z
 _atom_site_occupancy
  Cs  Cs0  1  0.00000000  0.50000000  0.50000000  1
  Cs  Cs1  1  0.00000000  -0.00000000  -0.00000000  1
  Cs  Cs2  1  0.50000000  0.30537443  0.80537344  1
  Cs  Cs3  1  0.50000000  0.69462557  0.19462656  1
  Rb  Rb4  1  0.50000000  0.19514149  0.30485898  1
  Rb  Rb5  1  0.50000000  0.80485851  0.69514102  1
  Si  Si6  1  -0.00000000  -0.00000000  0.50000000  1
  Si  Si7  1  -0.00000000  0.50000000  -0.00000000  1
  F  F8  1  -0.00000000  0.35463719  0.85464148  1
  F  F9  1  0.00000000  0.64536281  0.14535852  1
  F  F10  1  -0.00000000  0.14676443  0.35324673  1
  F  F11  1  0.00000000  0.85323557  0.64675327  1
  F  F12  1  0.79937894  0.10223758  0.60222156  1
  F  F13  1  0.79937894  0.89776242  0.39777844  1
  F  F14  1  0.80024719  0.39585393  0.10412716  1
  F  F15  1  0.80024719  0.60414607  0.89587284  1
  F  F16  1  0.20062106  0.89776242  0.39777844  1
  F  F17  1  0.20062106  0.10223758  0.60222156  1
  F  F18  1  0.19975281  0.60414607  0.89587284  1
  F  F19  1  0.19975281  0.39585393  0.10412716  1
  F  F20  1  0.50000000  0.50000000  0.50000000  1
  F  F21  1  0.50000000  -0.00000000  -0.00000000  1
