# generated using pymatgen
data_Dy13Mg7Co4
_symmetry_space_group_name_H-M   'P 1'
_cell_length_a   9.50533236
_cell_length_b   9.50533236
_cell_length_c   9.44463437
_cell_angle_alpha   59.78717724
_cell_angle_beta   120.21282276
_cell_angle_gamma   120.00000000
_symmetry_Int_Tables_number   1
_chemical_formula_structural   Dy13Mg7Co4
_chemical_formula_sum   'Dy13 Mg7 Co4'
_cell_volume   601.45093589
_cell_formula_units_Z   1
loop_
 _symmetry_equiv_pos_site_id
 _symmetry_equiv_pos_as_xyz
  1  'x, y, z'
loop_
 _atom_site_type_symbol
 _atom_site_label
 _atom_site_symmetry_multiplicity
 _atom_site_fract_x
 _atom_site_fract_y
 _atom_site_fract_z
 _atom_site_occupancy
  Dy  Dy0  1  0.81203582  0.81155166  0.18893250  1
  Dy  Dy1  1  0.18844834  0.18796418  0.18893250  1
  Dy  Dy2  1  0.18844834  0.81155166  0.18893250  1
  Dy  Dy3  1  0.18858376  0.19024543  0.80809290  1
  Dy  Dy4  1  0.80975457  0.81141624  0.80809290  1
  Dy  Dy5  1  0.80975457  0.19024543  0.80809290  1
  Dy  Dy6  1  0.34459921  0.65540079  0.03379764  1
  Dy  Dy7  1  0.34199032  0.65800968  0.65133959  1
  Dy  Dy8  1  0.34199032  0.03264106  0.65133959  1
  Dy  Dy9  1  0.96735894  0.65800968  0.65133959  1
  Dy  Dy10  1  0.94037610  0.43828119  0.06381371  1
  Dy  Dy11  1  0.56171881  0.05962390  0.06381371  1
  Dy  Dy12  1  0.56171881  0.43828119  0.06381371  1
  Mg  Mg13  1  0.58007339  0.41992661  0.74022017  1
  Mg  Mg14  1  0.58297194  0.41702806  0.42172045  1
  Mg  Mg15  1  0.58297194  0.74422342  0.42172045  1
  Mg  Mg16  1  0.25577658  0.41702806  0.42172045  1
  Mg  Mg17  1  0.55860921  0.06092029  0.43676864  1
  Mg  Mg18  1  0.93907971  0.44139079  0.43676864  1
  Mg  Mg19  1  0.93907971  0.06092029  0.43676864  1
  Co  Co20  1  0.13993511  0.86006489  0.41980534  1
  Co  Co21  1  0.14054432  0.85945568  0.86472450  1
  Co  Co22  1  0.14054432  0.41636414  0.86472450  1
  Co  Co23  1  0.58363586  0.85945568  0.86472450  1
