# generated using pymatgen
data_Fe2Te4BrClO10
_symmetry_space_group_name_H-M   'P 1'
_cell_length_a   6.68430905
_cell_length_b   13.49518658
_cell_length_c   14.49227917
_cell_angle_alpha   107.92522336
_cell_angle_beta   90.00000000
_cell_angle_gamma   90.00000000
_symmetry_Int_Tables_number   1
_chemical_formula_structural   Fe2Te4BrClO10
_chemical_formula_sum   'Fe8 Te16 Br4 Cl4 O40'
_cell_volume   1243.83331962
_cell_formula_units_Z   4
loop_
 _symmetry_equiv_pos_site_id
 _symmetry_equiv_pos_as_xyz
  1  'x, y, z'
loop_
 _atom_site_type_symbol
 _atom_site_label
 _atom_site_symmetry_multiplicity
 _atom_site_fract_x
 _atom_site_fract_y
 _atom_site_fract_z
 _atom_site_occupancy
  Fe  Fe0  1  0.50197453  0.88192026  0.52330267  1
  Fe  Fe1  1  0.00197453  0.11807974  0.97669733  1
  Fe  Fe2  1  0.49802547  0.11807974  0.47669733  1
  Fe  Fe3  1  0.99802547  0.88192026  0.02330267  1
  Fe  Fe4  1  0.79254050  0.06283593  0.64273254  1
  Fe  Fe5  1  0.29254050  0.93716407  0.85726746  1
  Fe  Fe6  1  0.20745950  0.93716407  0.35726746  1
  Fe  Fe7  1  0.70745950  0.06283593  0.14273254  1
  Te  Te8  1  0.30827986  0.10930283  0.71431025  1
  Te  Te9  1  0.80827986  0.89069717  0.78568975  1
  Te  Te10  1  0.69172014  0.89069717  0.28568975  1
  Te  Te11  1  0.19172014  0.10930283  0.21431025  1
  Te  Te12  1  0.79635615  0.28261009  0.85766666  1
  Te  Te13  1  0.29635615  0.71738991  0.64233334  1
  Te  Te14  1  0.20364385  0.71738991  0.14233334  1
  Te  Te15  1  0.70364385  0.28261009  0.35766666  1
  Te  Te16  1  0.98521250  0.80041120  0.48071115  1
  Te  Te17  1  0.48521250  0.19958880  0.01928885  1
  Te  Te18  1  0.01478750  0.19958880  0.51928885  1
  Te  Te19  1  0.51478750  0.80041120  0.98071115  1
  Te  Te20  1  0.96629978  0.36485582  0.14034015  1
  Te  Te21  1  0.46629978  0.63514418  0.35965985  1
  Te  Te22  1  0.03370022  0.63514418  0.85965985  1
  Te  Te23  1  0.53370022  0.36485582  0.64034015  1
  Br  Br24  1  0.22034735  0.43735255  0.04458704  1
  Br  Br25  1  0.72034735  0.56264745  0.45541296  1
  Br  Br26  1  0.77965265  0.56264745  0.95541296  1
  Br  Br27  1  0.27965265  0.43735255  0.54458704  1
  Cl  Cl28  1  0.14184647  0.38232148  0.77890914  1
  Cl  Cl29  1  0.64184647  0.61767852  0.72109086  1
  Cl  Cl30  1  0.85815353  0.61767852  0.22109086  1
  Cl  Cl31  1  0.35815353  0.38232148  0.27890914  1
  O  O32  1  0.05304200  0.78532248  0.60783285  1
  O  O33  1  0.55304200  0.21467752  0.89216715  1
  O  O34  1  0.94695800  0.21467752  0.39216715  1
  O  O35  1  0.44695800  0.78532248  0.10783285  1
  O  O36  1  0.21559850  0.88699809  0.48082800  1
  O  O37  1  0.71559850  0.11300191  0.01917200  1
  O  O38  1  0.78440150  0.11300191  0.51917200  1
  O  O39  1  0.28440150  0.88699809  0.98082800  1
  O  O40  1  0.48696884  0.03708814  0.60290317  1
  O  O41  1  0.98696884  0.96291186  0.89709683  1
  O  O42  1  0.51303116  0.96291186  0.39709683  1
  O  O43  1  0.01303116  0.03708814  0.10290317  1
  O  O44  1  0.98735120  0.18730327  0.87766605  1
  O  O45  1  0.48735120  0.81269673  0.62233395  1
  O  O46  1  0.01264880  0.81269673  0.12233395  1
  O  O47  1  0.51264880  0.18730327  0.37766605  1
  O  O48  1  0.80022545  0.91024176  0.55209199  1
  O  O49  1  0.30022545  0.08975824  0.94790801  1
  O  O50  1  0.19977455  0.08975824  0.44790801  1
  O  O51  1  0.69977455  0.91024176  0.05209199  1
  O  O52  1  0.73017634  0.21281361  0.72493112  1
  O  O53  1  0.23017634  0.78718639  0.77506888  1
  O  O54  1  0.26982366  0.78718639  0.27506888  1
  O  O55  1  0.76982366  0.21281361  0.22493112  1
  O  O56  1  0.09164138  0.23039522  0.09225937  1
  O  O57  1  0.59164138  0.76960478  0.40774063  1
  O  O58  1  0.90835862  0.76960478  0.90774063  1
  O  O59  1  0.40835862  0.23039522  0.59225937  1
  O  O60  1  0.25366932  0.98699403  0.74634231  1
  O  O61  1  0.75366932  0.01300597  0.75365769  1
  O  O62  1  0.74633068  0.01300597  0.25365769  1
  O  O63  1  0.24633068  0.98699403  0.24634231  1
  O  O64  1  0.76090925  0.33737631  0.04810155  1
  O  O65  1  0.26090925  0.66262369  0.45189845  1
  O  O66  1  0.23909075  0.66262369  0.95189845  1
  O  O67  1  0.73909075  0.33737631  0.54810155  1
  O  O68  1  0.07597333  0.09895006  0.63660069  1
  O  O69  1  0.57597333  0.90104994  0.86339931  1
  O  O70  1  0.92402667  0.90104994  0.36339931  1
  O  O71  1  0.42402667  0.09895006  0.13660069  1
