# generated using pymatgen
data_Er6Mn(SiS7)2
_symmetry_space_group_name_H-M   'P 1'
_cell_length_a   5.58316745
_cell_length_b   9.82752990
_cell_length_c   9.82745347
_cell_angle_alpha   119.99951680
_cell_angle_beta   89.99947756
_cell_angle_gamma   89.99836234
_symmetry_Int_Tables_number   1
_chemical_formula_structural   Er6Mn(SiS7)2
_chemical_formula_sum   'Er6 Mn1 Si2 S14'
_cell_volume   466.98052548
_cell_formula_units_Z   1
loop_
 _symmetry_equiv_pos_site_id
 _symmetry_equiv_pos_as_xyz
  1  'x, y, z'
loop_
 _atom_site_type_symbol
 _atom_site_label
 _atom_site_symmetry_multiplicity
 _atom_site_fract_x
 _atom_site_fract_y
 _atom_site_fract_z
 _atom_site_occupancy
  Er  Er0  1  0.24970702  0.23331494  0.35578665  1
  Er  Er1  1  0.24971633  0.64421629  0.87752230  1
  Er  Er2  1  0.24969366  0.12247418  0.76665766  1
  Er  Er3  1  0.74919296  0.76668970  0.64470027  1
  Er  Er4  1  0.74921143  0.35529392  0.12198878  1
  Er  Er5  1  0.74920072  0.87802083  0.23332219  1
  Mn  Mn6  1  0.48845812  0.99999419  0.00000393  1
  Si  Si7  1  0.83463887  0.33335140  0.66667853  1
  Si  Si8  1  0.33631901  0.66665649  0.33332443  1
  S  S9  1  0.45812003  0.33336168  0.66668723  1
  S  S10  1  0.95964374  0.66664585  0.33332493  1
  S  S11  1  0.72872143  0.16230206  0.24876861  1
  S  S12  1  0.72872454  0.75121915  0.91352412  1
  S  S13  1  0.72872499  0.08644456  0.83767943  1
  S  S14  1  0.24316598  0.83592284  0.75160836  1
  S  S15  1  0.24316869  0.24837120  0.08431703  1
  S  S16  1  0.24314582  0.91567522  0.16407714  1
  S  S17  1  0.98696047  0.10686643  0.51875270  1
  S  S18  1  0.98697476  0.48128043  0.58810899  1
  S  S19  1  0.98696914  0.41191474  0.89317462  1
  S  S20  1  0.48850293  0.89310257  0.48121527  1
  S  S21  1  0.48853029  0.51878165  0.41190467  1
  S  S22  1  0.48850908  0.58809966  0.10687215  1
