# generated using pymatgen
data_CsRb3(Mo3O10)2
_symmetry_space_group_name_H-M   'P 1'
_cell_length_a   8.59458368
_cell_length_b   8.67730977
_cell_length_c   8.84149253
_cell_angle_alpha   63.12704207
_cell_angle_beta   85.73938906
_cell_angle_gamma   74.44577167
_symmetry_Int_Tables_number   1
_chemical_formula_structural   CsRb3(Mo3O10)2
_chemical_formula_sum   'Cs1 Rb3 Mo6 O20'
_cell_volume   565.78818978
_cell_formula_units_Z   1
loop_
 _symmetry_equiv_pos_site_id
 _symmetry_equiv_pos_as_xyz
  1  'x, y, z'
loop_
 _atom_site_type_symbol
 _atom_site_label
 _atom_site_symmetry_multiplicity
 _atom_site_fract_x
 _atom_site_fract_y
 _atom_site_fract_z
 _atom_site_occupancy
  Cs  Cs0  1  0.69078682  0.76548341  0.90871843  1
  Rb  Rb1  1  0.15383617  0.97514768  0.72445130  1
  Rb  Rb2  1  0.84625238  0.02482285  0.27554536  1
  Rb  Rb3  1  0.30854591  0.23733100  0.08929364  1
  Mo  Mo4  1  0.45451223  0.30497163  0.53429990  1
  Mo  Mo5  1  0.54534847  0.69585458  0.46486031  1
  Mo  Mo6  1  0.03461362  0.55712660  0.64464967  1
  Mo  Mo7  1  0.96656900  0.44160268  0.35619907  1
  Mo  Mo8  1  0.76404849  0.34457384  0.79827299  1
  Mo  Mo9  1  0.23527106  0.65556967  0.20167092  1
  O  O10  1  0.42506191  0.12838835  0.72580518  1
  O  O11  1  0.57229784  0.87441986  0.27342078  1
  O  O12  1  0.24073176  0.45869738  0.70527780  1
  O  O13  1  0.75976191  0.53924524  0.29856943  1
  O  O14  1  0.60008112  0.20174913  0.43776055  1
  O  O15  1  0.40029262  0.79730083  0.56313966  1
  O  O16  1  0.73256511  0.62814369  0.60308435  1
  O  O17  1  0.26768380  0.37183086  0.39577675  1
  O  O18  1  0.59443436  0.40336794  0.62297765  1
  O  O19  1  0.40547069  0.59672371  0.37686406  1
  O  O20  1  0.94274065  0.40829013  0.85632379  1
  O  O21  1  0.05647831  0.59206559  0.14374007  1
  O  O22  1  0.98717066  0.76076201  0.65883764  1
  O  O23  1  0.01454644  0.23910683  0.33976855  1
  O  O24  1  0.82962290  0.11221593  0.86942117  1
  O  O25  1  0.17147537  0.88808408  0.13050499  1
  O  O26  1  0.63866363  0.36608057  0.95629212  1
  O  O27  1  0.35977821  0.63221804  0.04383815  1
  O  O28  1  0.96812527  0.35305653  0.59601493  1
  O  O29  1  0.03323331  0.64576937  0.40462079  1
