# generated using pymatgen
data_Cr8Ga3CuSe16
_symmetry_space_group_name_H-M   'P 1'
_cell_length_a   7.53114958
_cell_length_b   10.62107996
_cell_length_c   7.53114958
_cell_angle_alpha   90.00000000
_cell_angle_beta   90.00000000
_cell_angle_gamma   90.00000000
_symmetry_Int_Tables_number   1
_chemical_formula_structural   Cr8Ga3CuSe16
_chemical_formula_sum   'Cr8 Ga3 Cu1 Se16'
_cell_volume   602.40868646
_cell_formula_units_Z   1
loop_
 _symmetry_equiv_pos_site_id
 _symmetry_equiv_pos_as_xyz
  1  'x, y, z'
loop_
 _atom_site_type_symbol
 _atom_site_label
 _atom_site_symmetry_multiplicity
 _atom_site_fract_x
 _atom_site_fract_y
 _atom_site_fract_z
 _atom_site_occupancy
  Cr  Cr0  1  0.25000000  0.24910157  0.24309722  1
  Cr  Cr1  1  0.75000000  0.74710107  0.74938551  1
  Cr  Cr2  1  0.25000000  0.24910157  0.75690278  1
  Cr  Cr3  1  0.75000000  0.74710107  0.25061449  1
  Cr  Cr4  1  0.99309722  0.50089843  0.50000000  1
  Cr  Cr5  1  0.49938551  0.00289893  -0.00000000  1
  Cr  Cr6  1  0.00061449  0.00289893  -0.00000000  1
  Cr  Cr7  1  0.50690278  0.50089843  0.50000000  1
  Ga  Ga8  1  0.25000000  0.87500000  0.50000000  1
  Ga  Ga9  1  0.25000000  0.62363286  -0.00000000  1
  Ga  Ga10  1  0.75000000  0.12636714  0.50000000  1
  Cu  Cu11  1  0.75000000  0.37500000  -0.00000000  1
  Se  Se12  1  0.75000000  0.50880553  0.26780282  1
  Se  Se13  1  0.25000000  0.01046685  0.77335934  1
  Se  Se14  1  0.75000000  0.50880553  0.73219718  1
  Se  Se15  1  0.25000000  0.01046685  0.22664066  1
  Se  Se16  1  0.01780282  0.24119447  0.00000000  1
  Se  Se17  1  0.52335934  0.73953315  0.50000000  1
  Se  Se18  1  0.48219718  0.24119447  -0.00000000  1
  Se  Se19  1  0.97664066  0.73953315  0.50000000  1
  Se  Se20  1  0.25000000  0.48863887  0.72719819  1
  Se  Se21  1  0.75000000  0.98935719  0.22689163  1
  Se  Se22  1  0.25000000  0.48863887  0.27280181  1
  Se  Se23  1  0.75000000  0.98935719  0.77310837  1
  Se  Se24  1  0.97689163  0.76064281  -0.00000000  1
  Se  Se25  1  0.47719819  0.26136113  0.50000000  1
  Se  Se26  1  0.52310837  0.76064281  0.00000000  1
  Se  Se27  1  0.02280181  0.26136113  0.50000000  1
