# generated using pymatgen
data_Mg16Al12Br
_symmetry_space_group_name_H-M   'P 1'
_cell_length_a   9.62152085
_cell_length_b   9.08160392
_cell_length_c   9.03215806
_cell_angle_alpha   108.43258929
_cell_angle_beta   110.88820438
_cell_angle_gamma   110.50217016
_symmetry_Int_Tables_number   1
_chemical_formula_structural   Mg16Al12Br
_chemical_formula_sum   'Mg16 Al12 Br1'
_cell_volume   596.50590867
_cell_formula_units_Z   1
loop_
 _symmetry_equiv_pos_site_id
 _symmetry_equiv_pos_as_xyz
  1  'x, y, z'
loop_
 _atom_site_type_symbol
 _atom_site_label
 _atom_site_symmetry_multiplicity
 _atom_site_fract_x
 _atom_site_fract_y
 _atom_site_fract_z
 _atom_site_occupancy
  Mg  Mg0  1  0.99841660  0.34097446  0.99999900  1
  Mg  Mg1  1  0.33485541  0.01480351  0.99999900  1
  Mg  Mg2  1  0.31087475  0.60353275  0.00000100  1
  Mg  Mg3  1  0.00227144  0.99955459  0.00000100  1
  Mg  Mg4  1  0.66898838  0.67561615  0.27419234  1
  Mg  Mg5  1  0.59857964  0.99845699  0.30487164  1
  Mg  Mg6  1  0.00595200  0.59878820  0.31394614  1
  Mg  Mg7  1  0.00605300  0.99376721  0.35387260  1
  Mg  Mg8  1  0.71495819  0.39235421  0.39155988  1
  Mg  Mg9  1  0.40340455  0.72239337  0.40584083  1
  Mg  Mg10  1  0.99756372  0.31655154  0.59415917  1
  Mg  Mg11  1  0.32339832  0.00079333  0.60844112  1
  Mg  Mg12  1  0.65217940  0.63989161  0.64612540  1
  Mg  Mg13  1  0.69200586  0.28484306  0.68605386  1
  Mg  Mg14  1  0.29370701  0.69358435  0.69512836  1
  Mg  Mg15  1  0.39479604  0.40142481  0.72580766  1
  Al  Al16  1  0.63886786  0.79792311  0.99999900  1
  Al  Al17  1  0.84118756  0.65203098  0.00000100  1
  Al  Al18  1  0.34622861  0.36973714  0.18874045  1
  Al  Al19  1  0.83131742  0.17546921  0.19021414  1
  Al  Al20  1  0.19555704  0.82710280  0.18788510  1
  Al  Al21  1  0.18149062  0.36686919  0.37369517  1
  Al  Al22  1  0.37677947  0.19291695  0.38118893  1
  Al  Al23  1  0.99559154  0.81173002  0.61881207  1
  Al  Al24  1  0.80779645  0.99317402  0.62630683  1
  Al  Al25  1  0.00767095  0.63921870  0.81211490  1
  Al  Al26  1  0.64110329  0.98525508  0.80978486  1
  Al  Al27  1  0.15748716  0.18099469  0.81125855  1
  Br  Br28  1  0.58091871  0.33024895  -0.00000000  1
