# generated using pymatgen
data_Co11B4SbO20
_symmetry_space_group_name_H-M   'P 1'
_cell_length_a   6.23232906
_cell_length_b   11.21986908
_cell_length_c   6.26380750
_cell_angle_alpha   101.51257171
_cell_angle_beta   119.83389829
_cell_angle_gamma   73.87485573
_symmetry_Int_Tables_number   1
_chemical_formula_structural   Co11B4SbO20
_chemical_formula_sum   'Co11 B4 Sb1 O20'
_cell_volume   364.01365346
_cell_formula_units_Z   1
loop_
 _symmetry_equiv_pos_site_id
 _symmetry_equiv_pos_as_xyz
  1  'x, y, z'
loop_
 _atom_site_type_symbol
 _atom_site_label
 _atom_site_symmetry_multiplicity
 _atom_site_fract_x
 _atom_site_fract_y
 _atom_site_fract_z
 _atom_site_occupancy
  Co  Co0  1  0.50000000  0.00000000  0.00000000  1
  Co  Co1  1  0.00000000  0.00000000  0.00000000  1
  Co  Co2  1  0.74973440  0.99854913  0.49801793  1
  Co  Co3  1  0.25026560  0.00145087  0.50198207  1
  Co  Co4  1  0.21983577  0.78174255  0.71953188  1
  Co  Co5  1  0.71795356  0.78174255  0.71953188  1
  Co  Co6  1  0.28204644  0.21825745  0.28046812  1
  Co  Co7  1  0.78016423  0.21825745  0.28046812  1
  Co  Co8  1  0.50000000  0.50000000  0.00000000  1
  Co  Co9  1  0.00000000  0.50000000  0.00000000  1
  Co  Co10  1  0.00000000  0.50000000  0.50000000  1
  B  B11  1  0.23617644  0.74226245  0.21461532  1
  B  B12  1  0.73590836  0.73747693  0.20929365  1
  B  B13  1  0.76382356  0.25773755  0.78538468  1
  B  B14  1  0.26409164  0.26252307  0.79070635  1
  Sb  Sb15  1  0.50000000  0.50000000  0.50000000  1
  O  O16  1  0.13591427  0.97126145  0.74602887  1
  O  O17  1  0.63885315  0.97126145  0.74602887  1
  O  O18  1  0.36114685  0.02873855  0.25397113  1
  O  O19  1  0.86408573  0.02873855  0.25397113  1
  O  O20  1  0.59773824  0.80211859  0.99759506  1
  O  O21  1  0.09925788  0.79866841  0.99718417  1
  O  O22  1  0.40226176  0.19788141  0.00240494  1
  O  O23  1  0.90074212  0.20133159  0.00281583  1
  O  O24  1  0.30936220  0.59146689  0.68316215  1
  O  O25  1  0.78233305  0.59146689  0.68316215  1
  O  O26  1  0.21766695  0.40853311  0.31683785  1
  O  O27  1  0.69063780  0.40853311  0.31683785  1
  O  O28  1  0.32161337  0.80225173  0.44547846  1
  O  O29  1  0.82228128  0.79871475  0.44327732  1
  O  O30  1  0.67838663  0.19774827  0.55452154  1
  O  O31  1  0.17771872  0.20128525  0.55672268  1
  O  O32  1  0.29425397  0.60881397  0.19732190  1
  O  O33  1  0.78878418  0.60651896  0.18408731  1
  O  O34  1  0.70574603  0.39118603  0.80267810  1
  O  O35  1  0.21121582  0.39348104  0.81591269  1
