# generated using pymatgen
data_CdGeAsP
_symmetry_space_group_name_H-M   'P 1'
_cell_length_a   5.94580732
_cell_length_b   5.89582673
_cell_length_c   7.00914063
_cell_angle_alpha   65.12871211
_cell_angle_beta   64.90334160
_cell_angle_gamma   90.00000000
_symmetry_Int_Tables_number   1
_chemical_formula_structural   CdGeAsP
_chemical_formula_sum   'Cd2 Ge2 As2 P2'
_cell_volume   197.05936493
_cell_formula_units_Z   2
loop_
 _symmetry_equiv_pos_site_id
 _symmetry_equiv_pos_as_xyz
  1  'x, y, z'
loop_
 _atom_site_type_symbol
 _atom_site_label
 _atom_site_symmetry_multiplicity
 _atom_site_fract_x
 _atom_site_fract_y
 _atom_site_fract_z
 _atom_site_occupancy
  Cd  Cd0  1  0.75530013  0.25530013  0.48939973  1
  Cd  Cd1  1  0.99469987  0.99469987  0.01060027  1
  Ge  Ge2  1  0.25512952  0.75512952  0.48974096  1
  Ge  Ge3  1  0.49487048  0.49487048  0.01025904  1
  As  As4  1  0.37500000  0.84812681  0.75000000  1
  As  As5  1  0.87500000  0.40187319  0.75000000  1
  P  P6  1  0.15792599  0.12500000  0.25000000  1
  P  P7  1  0.59207401  0.62500000  0.25000000  1
