# generated using pymatgen
data_CeSiNi
_symmetry_space_group_name_H-M   'P 1'
_cell_length_a   4.07442066
_cell_length_b   4.07523419
_cell_length_c   3.87119525
_cell_angle_alpha   90.00000000
_cell_angle_beta   90.00000000
_cell_angle_gamma   60.04352101
_symmetry_Int_Tables_number   1
_chemical_formula_structural   CeSiNi
_chemical_formula_sum   'Ce1 Si1 Ni1'
_cell_volume   55.69092555
_cell_formula_units_Z   1
loop_
 _symmetry_equiv_pos_site_id
 _symmetry_equiv_pos_as_xyz
  1  'x, y, z'
loop_
 _atom_site_type_symbol
 _atom_site_label
 _atom_site_symmetry_multiplicity
 _atom_site_fract_x
 _atom_site_fract_y
 _atom_site_fract_z
 _atom_site_occupancy
  Ce  Ce0  1  0.99998045  -0.00000864  0.00000000  1
  Si  Si1  1  0.33324400  0.33326781  0.50000000  1
  Ni  Ni2  1  0.66667554  0.66674082  0.50000000  1
