# generated using pymatgen
data_Ce3YRh4
_symmetry_space_group_name_H-M   'P 1'
_cell_length_a   3.81628957
_cell_length_b   4.16752515
_cell_length_c   10.97130538
_cell_angle_alpha   90.00000000
_cell_angle_beta   90.00000000
_cell_angle_gamma   90.00000000
_symmetry_Int_Tables_number   1
_chemical_formula_structural   Ce3YRh4
_chemical_formula_sum   'Ce3 Y1 Rh4'
_cell_volume   174.49293730
_cell_formula_units_Z   1
loop_
 _symmetry_equiv_pos_site_id
 _symmetry_equiv_pos_as_xyz
  1  'x, y, z'
loop_
 _atom_site_type_symbol
 _atom_site_label
 _atom_site_symmetry_multiplicity
 _atom_site_fract_x
 _atom_site_fract_y
 _atom_site_fract_z
 _atom_site_occupancy
  Ce  Ce0  1  0.00000000  0.75000000  0.86308207  1
  Ce  Ce1  1  0.00000000  0.25000000  0.14330756  1
  Ce  Ce2  1  0.50000000  0.25000000  0.63201693  1
  Y  Y3  1  0.50000000  0.75000000  0.36061782  1
  Rh  Rh4  1  0.50000000  0.75000000  0.09287707  1
  Rh  Rh5  1  0.00000000  0.75000000  0.59589350  1
  Rh  Rh6  1  -0.00000000  0.25000000  0.40921358  1
  Rh  Rh7  1  0.50000000  0.25000000  0.90299147  1
