# generated using pymatgen
data_CeUB8
_symmetry_space_group_name_H-M   'P 1'
_cell_length_a   4.01070392
_cell_length_b   7.10838719
_cell_length_c   7.10838719
_cell_angle_alpha   90.70012790
_cell_angle_beta   90.00000000
_cell_angle_gamma   90.00000000
_symmetry_Int_Tables_number   1
_chemical_formula_structural   CeUB8
_chemical_formula_sum   'Ce2 U2 B16'
_cell_volume   202.64240374
_cell_formula_units_Z   2
loop_
 _symmetry_equiv_pos_site_id
 _symmetry_equiv_pos_as_xyz
  1  'x, y, z'
loop_
 _atom_site_type_symbol
 _atom_site_label
 _atom_site_symmetry_multiplicity
 _atom_site_fract_x
 _atom_site_fract_y
 _atom_site_fract_z
 _atom_site_occupancy
  Ce  Ce0  1  -0.00000000  0.31151992  0.81151992  1
  Ce  Ce1  1  0.00000000  0.68848008  0.18848008  1
  U  U2  1  -0.00000000  0.18877075  0.31122925  1
  U  U3  1  0.00000000  0.81122925  0.68877075  1
  B  B4  1  0.79910994  0.50000000  0.50000000  1
  B  B5  1  0.79910994  -0.00000000  -0.00000000  1
  B  B6  1  0.20089006  0.50000000  0.50000000  1
  B  B7  1  0.20089006  -0.00000000  -0.00000000  1
  B  B8  1  0.50000000  0.54229067  0.67702192  1
  B  B9  1  0.50000000  0.45770933  0.32297808  1
  B  B10  1  0.50000000  0.96483796  0.17829763  1
  B  B11  1  0.50000000  0.03516204  0.82170237  1
  B  B12  1  0.50000000  0.67829763  0.46483796  1
  B  B13  1  0.50000000  0.32170237  0.53516204  1
  B  B14  1  0.50000000  0.17702192  0.04229067  1
  B  B15  1  0.50000000  0.82297808  0.95770933  1
  B  B16  1  0.50000000  0.08736705  0.58736705  1
  B  B17  1  0.50000000  0.91263295  0.41263295  1
  B  B18  1  0.50000000  0.41192177  0.08807823  1
  B  B19  1  0.50000000  0.58807823  0.91192177  1
