# generated using pymatgen
data_Co43(SnB4)3
_symmetry_space_group_name_H-M   'P 1'
_cell_length_a   7.44641757
_cell_length_b   7.44641757
_cell_length_c   12.89314724
_cell_angle_alpha   73.21541426
_cell_angle_beta   90.00000000
_cell_angle_gamma   120.00000000
_symmetry_Int_Tables_number   1
_chemical_formula_structural   Co43(SnB4)3
_chemical_formula_sum   'Co43 Sn3 B12'
_cell_volume   583.69966549
_cell_formula_units_Z   1
loop_
 _symmetry_equiv_pos_site_id
 _symmetry_equiv_pos_as_xyz
  1  'x, y, z'
loop_
 _atom_site_type_symbol
 _atom_site_label
 _atom_site_symmetry_multiplicity
 _atom_site_fract_x
 _atom_site_fract_y
 _atom_site_fract_z
 _atom_site_occupancy
  Co  Co0  1  0.43288293  0.37779268  0.18932438  1
  Co  Co1  1  0.92242601  0.38503260  0.69254139  1
  Co  Co2  1  0.43288293  0.86576587  0.18932438  1
  Co  Co3  1  0.92242601  0.84485202  0.69254139  1
  Co  Co4  1  0.19241297  0.38482594  0.42276109  1
  Co  Co5  1  0.68901718  0.37803436  0.93294846  1
  Co  Co6  1  0.94490975  0.37779268  0.18932438  1
  Co  Co7  1  0.46260659  0.38503260  0.69254139  1
  Co  Co8  1  0.08069030  0.61483571  0.30447399  1
  Co  Co9  1  0.57920592  0.61196163  0.80883244  1
  Co  Co10  1  0.08069030  0.16138060  0.30447399  1
  Co  Co11  1  0.57920592  0.15841185  0.80883244  1
  Co  Co12  1  0.30615442  0.61230884  0.08153675  1
  Co  Co13  1  0.80743277  0.61486553  0.57770170  1
  Co  Co14  1  0.53414541  0.61483571  0.30447399  1
  Co  Co15  1  0.03275571  0.61196163  0.80883244  1
  Co  Co16  1  0.66550403  0.00282882  0.00200980  1
  Co  Co17  1  0.16541862  0.00019124  0.49964440  1
  Co  Co18  1  0.83029791  0.00334090  0.16636119  1
  Co  Co19  1  0.33251083  0.00004122  0.66744795  1
  Co  Co20  1  0.50016436  0.33493698  0.49964440  1
  Co  Co21  1  0.99516139  0.33248617  0.00200980  1
  Co  Co22  1  0.83029791  0.66059581  0.16636119  1
  Co  Co23  1  0.33251083  0.66502166  0.66744795  1
  Co  Co24  1  0.66550403  0.66066542  0.00200980  1
  Co  Co25  1  0.16541862  0.66558297  0.49964440  1
  Co  Co26  1  0.99516139  0.66066542  0.00200980  1
  Co  Co27  1  0.50016436  0.66558297  0.49964440  1
  Co  Co28  1  0.66641621  0.33283242  0.32978543  1
  Co  Co29  1  0.16728219  0.33456437  0.83305988  1
  Co  Co30  1  0.66641621  0.00379836  0.32978543  1
  Co  Co31  1  0.16728219  0.99965793  0.83305988  1
  Co  Co32  1  0.33738215  0.00379836  0.32978543  1
  Co  Co33  1  0.83237574  0.99965793  0.83305988  1
  Co  Co34  1  0.33732479  0.00282882  0.00200980  1
  Co  Co35  1  0.83477263  0.00019124  0.49964440  1
  Co  Co36  1  0.33732479  0.33248617  0.00200980  1
  Co  Co37  1  0.83477263  0.33493698  0.49964440  1
  Co  Co38  1  0.17304299  0.00334090  0.16636119  1
  Co  Co39  1  0.66753039  0.00004122  0.66744795  1
  Co  Co40  1  0.99976107  0.99952214  0.00071679  1
  Co  Co41  1  0.50018153  0.00036305  0.49945542  1
  Co  Co42  1  0.62513424  0.25026848  0.12459728  1
  Sn  Sn43  1  0.12490116  0.24980231  0.62529653  1
  Sn  Sn44  1  0.87545052  0.75090103  0.37364845  1
  Sn  Sn45  1  0.37479056  0.74958112  0.87562832  1
  B  B46  1  0.58680001  0.72466934  0.13746132  1
  B  B47  1  0.08698338  0.72459998  0.63778342  1
  B  B48  1  0.13786933  0.27573867  0.13746132  1
  B  B49  1  0.63761660  0.27523320  0.63778342  1
  B  B50  1  0.36217477  0.27555596  0.36226927  1
  B  B51  1  0.86255294  0.27485972  0.86258734  1
  B  B52  1  0.36217477  0.72434955  0.36226927  1
  B  B53  1  0.86255294  0.72510588  0.86258734  1
  B  B54  1  0.13786933  0.72466934  0.13746132  1
  B  B55  1  0.63761660  0.72459998  0.63778342  1
  B  B56  1  0.91338118  0.27555596  0.36226927  1
  B  B57  1  0.41230678  0.27485972  0.86258734  1
