# generated using pymatgen
data_Ca8Zn4Si3Ge5O28
_symmetry_space_group_name_H-M   'P 1'
_cell_length_a   8.02418088
_cell_length_b   9.20778933
_cell_length_c   9.49827847
_cell_angle_alpha   113.77026934
_cell_angle_beta   90.09538245
_cell_angle_gamma   89.95135901
_symmetry_Int_Tables_number   1
_chemical_formula_structural   Ca8Zn4Si3Ge5O28
_chemical_formula_sum   'Ca8 Zn4 Si3 Ge5 O28'
_cell_volume   642.24635173
_cell_formula_units_Z   1
loop_
 _symmetry_equiv_pos_site_id
 _symmetry_equiv_pos_as_xyz
  1  'x, y, z'
loop_
 _atom_site_type_symbol
 _atom_site_label
 _atom_site_symmetry_multiplicity
 _atom_site_fract_x
 _atom_site_fract_y
 _atom_site_fract_z
 _atom_site_occupancy
  Ca  Ca0  1  0.93100315  0.78766895  0.70168313  1
  Ca  Ca1  1  0.56795873  0.28949157  0.20322020  1
  Ca  Ca2  1  0.06666344  0.21262025  0.29993272  1
  Ca  Ca3  1  0.43308402  0.70929866  0.79644234  1
  Ca  Ca4  1  0.21685027  0.95800778  0.52856787  1
  Ca  Ca5  1  0.28326597  0.45996254  0.03042286  1
  Ca  Ca6  1  0.78352744  0.04139762  0.47017289  1
  Ca  Ca7  1  0.71702402  0.54181396  0.97028180  1
  Zn  Zn8  1  0.40392476  0.33162078  0.61390353  1
  Zn  Zn9  1  0.09429588  0.83064872  0.11627611  1
  Zn  Zn10  1  0.59582118  0.66853126  0.38603063  1
  Zn  Zn11  1  0.90149994  0.16975827  0.88592839  1
  Si  Si12  1  0.72964928  0.46978617  0.57833945  1
  Si  Si13  1  0.77005687  0.96968711  0.07809252  1
  Si  Si14  1  0.27039225  0.53026038  0.42174712  1
  Ge  Ge15  1  0.22942396  0.03212166  0.92484784  1
  Ge  Ge16  1  0.04257574  0.37042444  0.70745014  1
  Ge  Ge17  1  0.45769464  0.87026591  0.20737852  1
  Ge  Ge18  1  0.95731551  0.62925127  0.29278383  1
  Ge  Ge19  1  0.54497523  0.13030899  0.79120588  1
  O  O20  1  0.04359228  0.18729045  0.54523343  1
  O  O21  1  0.45685437  0.68698238  0.04569742  1
  O  O22  1  0.95616282  0.81281885  0.45403687  1
  O  O23  1  0.54333388  0.31297248  0.95440897  1
  O  O24  1  0.92315143  0.51005440  0.65556381  1
  O  O25  1  0.57639774  0.01043301  0.15553564  1
  O  O26  1  0.07655503  0.49006900  0.34495430  1
  O  O27  1  0.43580019  0.98448007  0.84027260  1
  O  O28  1  0.60191869  0.46797274  0.71500581  1
  O  O29  1  0.89798188  0.96853400  0.21534432  1
  O  O30  1  0.39839609  0.53226672  0.28530531  1
  O  O31  1  0.09369758  0.03082421  0.77616613  1
  O  O32  1  0.43427152  0.13253413  0.63134033  1
  O  O33  1  0.06495552  0.63132937  0.13183970  1
  O  O34  1  0.56530456  0.86801009  0.36869635  1
  O  O35  1  0.93473727  0.36845412  0.86866406  1
  O  O36  1  0.77198355  0.80433452  0.92709642  1
  O  O37  1  0.72783930  0.30439135  0.42692533  1
  O  O38  1  0.22878017  0.21136376  0.08602309  1
  O  O39  1  0.27215008  0.69561260  0.57300181  1
  O  O40  1  0.31579187  0.36232114  0.43713256  1
  O  O41  1  0.18097454  0.84823118  0.93283367  1
  O  O42  1  0.68428750  0.63775970  0.56308928  1
  O  O43  1  0.81640351  0.13774890  0.06307763  1
  O  O44  1  0.23896957  0.45508033  0.77817547  1
  O  O45  1  0.26133195  0.95594432  0.27783582  1
  O  O46  1  0.76094892  0.54437135  0.22172238  1
  O  O47  1  0.74042595  0.04488855  0.72031375  1
