# generated using pymatgen
data_CaYb2(GeO3)4
_symmetry_space_group_name_H-M   'P 1'
_cell_length_a   5.12572548
_cell_length_b   10.17348342
_cell_length_c   10.17348342
_cell_angle_alpha   89.95891345
_cell_angle_beta   90.00000000
_cell_angle_gamma   90.00000000
_symmetry_Int_Tables_number   1
_chemical_formula_structural   CaYb2(GeO3)4
_chemical_formula_sum   'Ca2 Yb4 Ge8 O24'
_cell_volume   530.51124612
_cell_formula_units_Z   2
loop_
 _symmetry_equiv_pos_site_id
 _symmetry_equiv_pos_as_xyz
  1  'x, y, z'
loop_
 _atom_site_type_symbol
 _atom_site_label
 _atom_site_symmetry_multiplicity
 _atom_site_fract_x
 _atom_site_fract_y
 _atom_site_fract_z
 _atom_site_occupancy
  Ca  Ca0  1  0.50000000  0.50000000  0.50000000  1
  Ca  Ca1  1  0.50000000  -0.00000000  -0.00000000  1
  Yb  Yb2  1  0.50000000  -0.00000000  0.50000000  1
  Yb  Yb3  1  0.50000000  0.50000000  -0.00000000  1
  Yb  Yb4  1  0.50000000  0.75000000  0.75000000  1
  Yb  Yb5  1  0.50000000  0.25000000  0.25000000  1
  Ge  Ge6  1  -0.00002845  0.74939080  0.02381989  1
  Ge  Ge7  1  0.00002845  0.25060920  0.97618011  1
  Ge  Ge8  1  0.00002845  0.24939080  0.52381989  1
  Ge  Ge9  1  -0.00002845  0.75060920  0.47618011  1
  Ge  Ge10  1  0.00002845  0.02381989  0.74939080  1
  Ge  Ge11  1  -0.00002845  0.97618011  0.25060920  1
  Ge  Ge12  1  -0.00002845  0.52381989  0.24939080  1
  Ge  Ge13  1  0.00002845  0.47618011  0.75060920  1
  O  O14  1  0.25360665  0.56353833  0.67677949  1
  O  O15  1  0.25559781  0.06227442  0.32453577  1
  O  O16  1  0.25559781  0.43772558  0.17546423  1
  O  O17  1  0.25360665  0.93646167  0.82322051  1
  O  O18  1  0.74639335  0.43646167  0.32322051  1
  O  O19  1  0.74440219  0.93772558  0.67546423  1
  O  O20  1  0.74440219  0.56227442  0.82453577  1
  O  O21  1  0.74639335  0.06353833  0.17677949  1
  O  O22  1  0.74639335  0.67677949  0.56353833  1
  O  O23  1  0.74440219  0.32453577  0.06227442  1
  O  O24  1  0.74440219  0.17546423  0.43772558  1
  O  O25  1  0.74639335  0.82322051  0.93646167  1
  O  O26  1  0.25360665  0.32322051  0.43646167  1
  O  O27  1  0.25559781  0.67546423  0.93772558  1
  O  O28  1  0.25559781  0.82453577  0.56227442  1
  O  O29  1  0.25360665  0.17677949  0.06353833  1
  O  O30  1  0.15642775  0.87265346  0.12734654  1
  O  O31  1  0.15976909  0.37411647  0.87411647  1
  O  O32  1  0.15976909  0.12588353  0.62588353  1
  O  O33  1  0.15642775  0.62734654  0.37265346  1
  O  O34  1  0.84357225  0.12734654  0.87265346  1
  O  O35  1  0.84023091  0.62588353  0.12588353  1
  O  O36  1  0.84023091  0.87411647  0.37411647  1
  O  O37  1  0.84357225  0.37265346  0.62734654  1
