# generated using pymatgen
data_CaPr3(CoO3)4
_symmetry_space_group_name_H-M   'P 1'
_cell_length_a   5.46117655
_cell_length_b   5.44390593
_cell_length_c   7.68021867
_cell_angle_alpha   90.00000000
_cell_angle_beta   90.00000000
_cell_angle_gamma   90.16677489
_symmetry_Int_Tables_number   1
_chemical_formula_structural   CaPr3(CoO3)4
_chemical_formula_sum   'Ca1 Pr3 Co4 O12'
_cell_volume   228.33294306
_cell_formula_units_Z   1
loop_
 _symmetry_equiv_pos_site_id
 _symmetry_equiv_pos_as_xyz
  1  'x, y, z'
loop_
 _atom_site_type_symbol
 _atom_site_label
 _atom_site_symmetry_multiplicity
 _atom_site_fract_x
 _atom_site_fract_y
 _atom_site_fract_z
 _atom_site_occupancy
  Ca  Ca0  1  0.54054614  0.49180958  0.75000000  1
  Pr  Pr1  1  0.03906997  0.00856814  0.75000000  1
  Pr  Pr2  1  0.46113344  0.50860084  0.25000000  1
  Pr  Pr3  1  0.96061105  0.99335054  0.25000000  1
  Co  Co4  1  0.50033322  0.00068571  0.99631987  1
  Co  Co5  1  0.99900713  0.50008249  0.50398747  1
  Co  Co6  1  0.50033322  0.00068571  0.50368013  1
  Co  Co7  1  0.99900713  0.50008249  0.99601253  1
  O  O8  1  0.98309618  0.57073536  0.75000000  1
  O  O9  1  0.49111994  0.91923336  0.75000000  1
  O  O10  1  0.00693407  0.43465834  0.25000000  1
  O  O11  1  0.50139185  0.07036988  0.25000000  1
  O  O12  1  0.28470800  0.28251865  0.96089394  1
  O  O13  1  0.78659631  0.21093971  0.53196379  1
  O  O14  1  0.71969167  0.72360874  0.45996737  1
  O  O15  1  0.21771235  0.78350168  0.03698700  1
  O  O16  1  0.71969167  0.72360874  0.04003263  1
  O  O17  1  0.21771235  0.78350168  0.46301300  1
  O  O18  1  0.28470800  0.28251865  0.53910606  1
  O  O19  1  0.78659631  0.21093971  0.96803621  1
