# generated using pymatgen
data_Ca2TiAlSi2O9F
_symmetry_space_group_name_H-M   'P 1'
_cell_length_a   5.47001042
_cell_length_b   5.42506130
_cell_length_c   7.14891904
_cell_angle_alpha   104.39345611
_cell_angle_beta   104.88996639
_cell_angle_gamma   105.62103375
_symmetry_Int_Tables_number   1
_chemical_formula_structural   Ca2TiAlSi2O9F
_chemical_formula_sum   'Ca2 Ti1 Al1 Si2 O9 F1'
_cell_volume   185.58397504
_cell_formula_units_Z   1
loop_
 _symmetry_equiv_pos_site_id
 _symmetry_equiv_pos_as_xyz
  1  'x, y, z'
loop_
 _atom_site_type_symbol
 _atom_site_label
 _atom_site_symmetry_multiplicity
 _atom_site_fract_x
 _atom_site_fract_y
 _atom_site_fract_z
 _atom_site_occupancy
  Ca  Ca0  1  0.15990118  0.82900076  0.24430125  1
  Ca  Ca1  1  0.83851449  0.17125419  0.75562817  1
  Ti  Ti2  1  0.50663547  0.49382719  0.52181824  1
  Al  Al3  1  0.50110573  0.49894099  0.99580856  1
  Si  Si4  1  0.18979966  0.82150779  0.75528530  1
  Si  Si5  1  0.80920256  0.17995279  0.24315226  1
  O  O6  1  0.80307694  0.39359242  0.11546095  1
  O  O7  1  0.39015912  0.81207578  0.61471527  1
  O  O8  1  0.19587979  0.60962275  0.88530496  1
  O  O9  1  0.60734848  0.18615227  0.38140364  1
  O  O10  1  0.87995213  0.74696058  0.59228198  1
  O  O11  1  0.74059457  0.86998264  0.09200285  1
  O  O12  1  0.12065233  0.25627915  0.40135076  1
  O  O13  1  0.25853520  0.13039995  0.90972498  1
  O  O14  1  0.57105706  0.43045965  0.75347901  1
  F  F15  1  0.42758530  0.56999110  0.23828180  1
