# generated using pymatgen
data_Mg16Al12Cl
_symmetry_space_group_name_H-M   'P 1'
_cell_length_a   9.53099623
_cell_length_b   9.08574007
_cell_length_c   9.07941141
_cell_angle_alpha   109.33100166
_cell_angle_beta   110.80256673
_cell_angle_gamma   110.24074565
_symmetry_Int_Tables_number   1
_chemical_formula_structural   Mg16Al12Cl
_chemical_formula_sum   'Mg16 Al12 Cl1'
_cell_volume   590.07667294
_cell_formula_units_Z   1
loop_
 _symmetry_equiv_pos_site_id
 _symmetry_equiv_pos_as_xyz
  1  'x, y, z'
loop_
 _atom_site_type_symbol
 _atom_site_label
 _atom_site_symmetry_multiplicity
 _atom_site_fract_x
 _atom_site_fract_y
 _atom_site_fract_z
 _atom_site_occupancy
  Mg  Mg0  1  0.00247962  0.99748783  -0.00000596  1
  Mg  Mg1  1  0.99370711  0.33789710  0.99988460  1
  Mg  Mg2  1  0.34689914  0.02561219  0.00039376  1
  Mg  Mg3  1  0.30907180  0.60161918  0.99984230  1
  Mg  Mg4  1  0.66837111  0.66695362  0.26576396  1
  Mg  Mg5  1  0.59796750  0.99679710  0.30336215  1
  Mg  Mg6  1  0.00684245  0.59938472  0.31427726  1
  Mg  Mg7  1  0.00357735  0.99230094  0.35236484  1
  Mg  Mg8  1  0.71332490  0.39142942  0.38970950  1
  Mg  Mg9  1  0.40338308  0.72233881  0.40520455  1
  Mg  Mg10  1  0.99823202  0.31585863  0.59468885  1
  Mg  Mg11  1  0.32471347  0.00186544  0.61101392  1
  Mg  Mg12  1  0.65195150  0.63937166  0.64755592  1
  Mg  Mg13  1  0.69196436  0.28359880  0.68472142  1
  Mg  Mg14  1  0.29506759  0.69409315  0.69738531  1
  Mg  Mg15  1  0.40148651  0.40042020  0.73423826  1
  Al  Al16  1  0.64270971  0.79904066  0.00125488  1
  Al  Al17  1  0.84183892  0.64751874  0.99972410  1
  Al  Al18  1  0.82696572  0.17454549  0.18781081  1
  Al  Al19  1  0.34449851  0.36763708  0.18838389  1
  Al  Al20  1  0.19925122  0.82954614  0.18905845  1
  Al  Al21  1  0.18146605  0.36568344  0.37685459  1
  Al  Al22  1  0.37716003  0.19380488  0.38162847  1
  Al  Al23  1  0.99324177  0.81069237  0.61779701  1
  Al  Al24  1  0.80428206  0.98985718  0.62322655  1
  Al  Al25  1  0.00954622  0.64248041  0.81189546  1
  Al  Al26  1  0.15608816  0.18090916  0.81111161  1
  Al  Al27  1  0.63845701  0.98816639  0.81129936  1
  Cl  Cl28  1  0.57546311  0.34309525  0.99955814  1
