# generated using pymatgen
data_CdCo3(PO3)8
_symmetry_space_group_name_H-M   'P 1'
_cell_length_a   7.39475666
_cell_length_b   7.39475666
_cell_length_c   9.91235656
_cell_angle_alpha   69.17938768
_cell_angle_beta   81.82056780
_cell_angle_gamma   109.44074027
_symmetry_Int_Tables_number   1
_chemical_formula_structural   CdCo3(PO3)8
_chemical_formula_sum   'Cd1 Co3 P8 O24'
_cell_volume   456.39540298
_cell_formula_units_Z   1
loop_
 _symmetry_equiv_pos_site_id
 _symmetry_equiv_pos_as_xyz
  1  'x, y, z'
loop_
 _atom_site_type_symbol
 _atom_site_label
 _atom_site_symmetry_multiplicity
 _atom_site_fract_x
 _atom_site_fract_y
 _atom_site_fract_z
 _atom_site_occupancy
  Cd  Cd0  1  0.05015875  0.80015875  0.75000000  1
  Co  Co1  1  0.00031998  0.00326147  0.00317021  1
  Co  Co2  1  0.50643168  0.00349019  0.49682979  1
  Co  Co3  1  0.95561412  0.20561412  0.25000000  1
  P  P4  1  0.30500697  0.49087155  0.69363031  1
  P  P5  1  0.68450185  0.99863728  0.80636969  1
  P  P6  1  0.69986380  0.50922835  0.29729855  1
  P  P7  1  0.30652690  0.99716235  0.20270145  1
  P  P8  1  0.74087350  0.69929143  0.51933519  1
  P  P9  1  0.71862662  0.26020869  0.98066481  1
  P  P10  1  0.26411576  0.30441402  0.46806890  1
  P  P11  1  0.27248292  0.73218466  0.03193110  1
  O  O12  1  0.91621496  0.74190608  0.57726079  1
  O  O13  1  0.81916687  0.49347574  0.92273921  1
  O  O14  1  0.08945050  0.25594641  0.40803482  1
  O  O15  1  0.16398123  0.49748532  0.09196518  1
  O  O16  1  0.29297615  0.69874836  0.67306524  1
  O  O17  1  0.87181361  0.96604140  0.82693476  1
  O  O18  1  0.71944566  0.30382840  0.31845936  1
  O  O19  1  0.12228776  0.03790501  0.18154064  1
  O  O20  1  0.75803124  0.55310310  0.43623194  1
  O  O21  1  0.48933504  0.19426318  0.06376806  1
  O  O22  1  0.23974882  0.44482081  0.55560119  1
  O  O23  1  0.50042200  0.79535001  0.94439881  1
  O  O24  1  0.53924179  0.53497040  0.65797405  1
  O  O25  1  0.69294445  0.19721584  0.84202595  1
  O  O26  1  0.46506991  0.46631238  0.32891348  1
  O  O27  1  0.29522586  0.79398339  0.17108652  1
  O  O28  1  0.70841257  0.89109175  0.41877339  1
  O  O29  1  0.80986515  0.12718596  0.08122661  1
  O  O30  1  0.30715398  0.12296407  0.56938109  1
  O  O31  1  0.19234516  0.87653507  0.93061891  1
  O  O32  1  0.19410365  0.30436520  0.84231193  1
  O  O33  1  0.64667713  0.03641558  0.65768807  1
  O  O34  1  0.81130955  0.69885092  0.15140322  1
  O  O35  1  0.35025413  0.96271277  0.34859678  1
