# generated using pymatgen
data_Cd2Ga2Se5
_symmetry_space_group_name_H-M   'P 1'
_cell_length_a   6.74063683
_cell_length_b   7.22394318
_cell_length_c   10.88107457
_cell_angle_alpha   70.35431613
_cell_angle_beta   90.00000000
_cell_angle_gamma   90.00000000
_symmetry_Int_Tables_number   1
_chemical_formula_structural   Cd2Ga2Se5
_chemical_formula_sum   'Cd4 Ga4 Se10'
_cell_volume   499.00048425
_cell_formula_units_Z   2
loop_
 _symmetry_equiv_pos_site_id
 _symmetry_equiv_pos_as_xyz
  1  'x, y, z'
loop_
 _atom_site_type_symbol
 _atom_site_label
 _atom_site_symmetry_multiplicity
 _atom_site_fract_x
 _atom_site_fract_y
 _atom_site_fract_z
 _atom_site_occupancy
  Cd  Cd0  1  0.51188533  0.33595106  0.01915510  1
  Cd  Cd1  1  0.48791948  0.54518612  0.58244245  1
  Cd  Cd2  1  0.01188533  0.26404894  0.78084490  1
  Cd  Cd3  1  0.98791948  0.05481388  0.21755755  1
  Ga  Ga4  1  0.50577862  0.14540372  0.40491210  1
  Ga  Ga5  1  0.50084128  0.92405164  0.79671353  1
  Ga  Ga6  1  0.00084128  0.67594836  0.00328647  1
  Ga  Ga7  1  0.00577862  0.45459628  0.39508790  1
  Se  Se8  1  0.10903677  0.35027407  0.99978125  1
  Se  Se9  1  0.14127378  0.71550276  0.20015784  1
  Se  Se10  1  0.13916420  0.12816010  0.42624396  1
  Se  Se11  1  0.09435125  0.57113358  0.57260947  1
  Se  Se12  1  0.13474930  0.90309211  0.79761152  1
  Se  Se13  1  0.60903677  0.24972593  0.80021875  1
  Se  Se14  1  0.63474930  0.69690789  0.00238848  1
  Se  Se15  1  0.59435125  0.02886642  0.22739053  1
  Se  Se16  1  0.63916420  0.47183990  0.37375604  1
  Se  Se17  1  0.64127378  0.88449724  0.59984216  1
