# generated using pymatgen
data_CeCdIn
_symmetry_space_group_name_H-M   'P 1'
_cell_length_a   4.99974589
_cell_length_b   5.00203497
_cell_length_c   7.34932095
_cell_angle_alpha   90.00000000
_cell_angle_beta   89.99457480
_cell_angle_gamma   59.98484736
_symmetry_Int_Tables_number   1
_chemical_formula_structural   CeCdIn
_chemical_formula_sum   'Ce2 Cd2 In2'
_cell_volume   159.14982547
_cell_formula_units_Z   2
loop_
 _symmetry_equiv_pos_site_id
 _symmetry_equiv_pos_as_xyz
  1  'x, y, z'
loop_
 _atom_site_type_symbol
 _atom_site_label
 _atom_site_symmetry_multiplicity
 _atom_site_fract_x
 _atom_site_fract_y
 _atom_site_fract_z
 _atom_site_occupancy
  Ce  Ce0  1  0.00009599  0.99995201  0.74007392  1
  Ce  Ce1  1  0.99990401  0.00004799  0.25992608  1
  Cd  Cd2  1  0.33327929  0.33336035  0.52063617  1
  Cd  Cd3  1  0.66672071  0.66663965  0.47936383  1
  In  In4  1  0.66675241  0.66662380  0.04148421  1
  In  In5  1  0.33324759  0.33337620  0.95851579  1
