# generated using pymatgen
data_CaSmAlO4
_symmetry_space_group_name_H-M   'P 1'
_cell_length_a   3.69925545
_cell_length_b   3.69925545
_cell_length_c   6.58423221
_cell_angle_alpha   73.68501329
_cell_angle_beta   73.68501329
_cell_angle_gamma   90.00000000
_symmetry_Int_Tables_number   1
_chemical_formula_structural   CaSmAlO4
_chemical_formula_sum   'Ca1 Sm1 Al1 O4'
_cell_volume   82.68634186
_cell_formula_units_Z   1
loop_
 _symmetry_equiv_pos_site_id
 _symmetry_equiv_pos_as_xyz
  1  'x, y, z'
loop_
 _atom_site_type_symbol
 _atom_site_label
 _atom_site_symmetry_multiplicity
 _atom_site_fract_x
 _atom_site_fract_y
 _atom_site_fract_z
 _atom_site_occupancy
  Ca  Ca0  1  0.35668522  0.35668522  0.28662957  1
  Sm  Sm1  1  0.64171637  0.64171637  0.71656726  1
  Al  Al2  1  0.99278235  0.99278235  0.01443529  1
  O  O3  1  0.16770196  0.16770196  0.66459608  1
  O  O4  1  0.83280955  0.83280955  0.33438089  1
  O  O5  1  0.50415227  0.00415227  0.99169546  1
  O  O6  1  0.00415227  0.50415227  0.99169546  1
