# generated using pymatgen
data_CaYTi2O6
_symmetry_space_group_name_H-M   'P 1'
_cell_length_a   5.37309996
_cell_length_b   5.58663579
_cell_length_c   7.71739386
_cell_angle_alpha   90.00000000
_cell_angle_beta   90.00000000
_cell_angle_gamma   90.00000000
_symmetry_Int_Tables_number   1
_chemical_formula_structural   CaYTi2O6
_chemical_formula_sum   'Ca2 Y2 Ti4 O12'
_cell_volume   231.65727566
_cell_formula_units_Z   2
loop_
 _symmetry_equiv_pos_site_id
 _symmetry_equiv_pos_as_xyz
  1  'x, y, z'
loop_
 _atom_site_type_symbol
 _atom_site_label
 _atom_site_symmetry_multiplicity
 _atom_site_fract_x
 _atom_site_fract_y
 _atom_site_fract_z
 _atom_site_occupancy
  Ca  Ca0  1  0.98807471  0.05443081  0.25000000  1
  Ca  Ca1  1  0.48807471  0.44556919  0.75000000  1
  Y  Y2  1  0.51552503  0.56334542  0.25000000  1
  Y  Y3  1  0.01552503  0.93665458  0.75000000  1
  Ti  Ti4  1  0.00033867  0.49705202  0.99951043  1
  Ti  Ti5  1  0.50033867  0.00294798  0.49951043  1
  Ti  Ti6  1  0.00033867  0.49705202  0.50048957  1
  Ti  Ti7  1  0.50033867  0.00294798  0.00048957  1
  O  O8  1  0.19322156  0.19671853  0.55218442  1
  O  O9  1  0.29541758  0.70818284  0.95301936  1
  O  O10  1  0.79541758  0.79181716  0.04698064  1
  O  O11  1  0.69322156  0.30328147  0.44781558  1
  O  O12  1  0.79541758  0.79181716  0.45301936  1
  O  O13  1  0.69322156  0.30328147  0.05218442  1
  O  O14  1  0.19322156  0.19671853  0.94781558  1
  O  O15  1  0.29541758  0.70818284  0.54698064  1
  O  O16  1  0.41459336  0.96872997  0.25000000  1
  O  O17  1  0.10385128  0.47187840  0.25000000  1
  O  O18  1  0.60385128  0.02812160  0.75000000  1
  O  O19  1  0.91459336  0.53127003  0.75000000  1
