# generated using pymatgen
data_Ca2Dy3Sb3O14
_symmetry_space_group_name_H-M   'P 1'
_cell_length_a   7.48616473
_cell_length_b   7.48616473
_cell_length_c   10.49413396
_cell_angle_alpha   91.23614321
_cell_angle_beta   88.76385679
_cell_angle_gamma   89.63865263
_symmetry_Int_Tables_number   1
_chemical_formula_structural   Ca2Dy3Sb3O14
_chemical_formula_sum   'Ca4 Dy6 Sb6 O28'
_cell_volume   587.83200363
_cell_formula_units_Z   2
loop_
 _symmetry_equiv_pos_site_id
 _symmetry_equiv_pos_as_xyz
  1  'x, y, z'
loop_
 _atom_site_type_symbol
 _atom_site_label
 _atom_site_symmetry_multiplicity
 _atom_site_fract_x
 _atom_site_fract_y
 _atom_site_fract_z
 _atom_site_occupancy
  Ca  Ca0  1  0.50000000  0.50000000  -0.00000000  1
  Ca  Ca1  1  0.00000000  0.00000000  0.50000000  1
  Ca  Ca2  1  0.26134093  0.76134093  0.25000000  1
  Ca  Ca3  1  0.73865907  0.23865907  0.75000000  1
  Dy  Dy4  1  0.72406653  0.22406653  0.25000000  1
  Dy  Dy5  1  0.23879353  0.28396302  0.75870470  1
  Dy  Dy6  1  0.78396302  0.73879353  0.74129530  1
  Dy  Dy7  1  0.76120647  0.71603698  0.24129530  1
  Dy  Dy8  1  0.21603698  0.26120647  0.25870470  1
  Dy  Dy9  1  0.27593347  0.77593347  0.75000000  1
  Sb  Sb10  1  0.50000000  0.50000000  0.50000000  1
  Sb  Sb11  1  0.00000000  0.00000000  -0.00000000  1
  Sb  Sb12  1  0.00000000  0.50000000  0.50000000  1
  Sb  Sb13  1  0.50000000  0.00000000  -0.00000000  1
  Sb  Sb14  1  0.50000000  0.00000000  0.50000000  1
  Sb  Sb15  1  0.00000000  0.50000000  -0.00000000  1
  O  O16  1  0.74498684  0.56674003  0.55798047  1
  O  O17  1  0.25501316  0.43325997  0.44201953  1
  O  O18  1  0.75025229  0.08605990  0.01587253  1
  O  O19  1  0.24974771  0.91394010  0.98412747  1
  O  O20  1  0.58605990  0.25025229  0.48412747  1
  O  O21  1  0.41394010  0.74974771  0.51587253  1
  O  O22  1  0.06674003  0.24498684  0.94201953  1
  O  O23  1  0.93325997  0.75501316  0.05798047  1
  O  O24  1  0.56728782  0.51170353  0.31508901  1
  O  O25  1  0.98829647  0.93271218  0.81508901  1
  O  O26  1  0.43271218  0.48829647  0.68491099  1
  O  O27  1  0.01170353  0.06728782  0.18491099  1
  O  O28  1  0.99928924  0.69633943  0.37054857  1
  O  O29  1  0.94866046  0.30631783  0.37451164  1
  O  O30  1  0.47438215  0.20394932  0.87904034  1
  O  O31  1  0.54103748  0.81470131  0.85938995  1
  O  O32  1  0.68529869  0.95896252  0.35938995  1
  O  O33  1  0.29605068  0.02561785  0.37904034  1
  O  O34  1  0.19368217  0.55133954  0.87451164  1
  O  O35  1  0.80366057  0.50071076  0.87054857  1
  O  O36  1  0.00071076  0.30366057  0.62945143  1
  O  O37  1  0.05133954  0.69368217  0.62548836  1
  O  O38  1  0.52561785  0.79605068  0.12095966  1
  O  O39  1  0.45896252  0.18529869  0.14061005  1
  O  O40  1  0.31470131  0.04103748  0.64061005  1
  O  O41  1  0.70394932  0.97438215  0.62095966  1
  O  O42  1  0.80631783  0.44866046  0.12548836  1
  O  O43  1  0.19633943  0.49928924  0.12945143  1
