# generated using pymatgen
data_BaSrMn2O6
_symmetry_space_group_name_H-M   'P 1'
_cell_length_a   5.65378339
_cell_length_b   5.65378418
_cell_length_c   9.30112455
_cell_angle_alpha   90.00000000
_cell_angle_beta   90.00000000
_cell_angle_gamma   60.00000121
_symmetry_Int_Tables_number   1
_chemical_formula_structural   BaSrMn2O6
_chemical_formula_sum   'Ba2 Sr2 Mn4 O12'
_cell_volume   257.48058585
_cell_formula_units_Z   2
loop_
 _symmetry_equiv_pos_site_id
 _symmetry_equiv_pos_as_xyz
  1  'x, y, z'
loop_
 _atom_site_type_symbol
 _atom_site_label
 _atom_site_symmetry_multiplicity
 _atom_site_fract_x
 _atom_site_fract_y
 _atom_site_fract_z
 _atom_site_occupancy
  Ba  Ba0  1  -0.00000000  0.00000000  0.50000000  1
  Ba  Ba1  1  -0.00000000  0.00000000  0.00000000  1
  Sr  Sr2  1  0.33338575  0.33330713  0.75000000  1
  Sr  Sr3  1  0.66661425  0.66669287  0.25000000  1
  Mn  Mn4  1  0.33333332  0.33333334  0.11219285  1
  Mn  Mn5  1  0.66666668  0.66666666  0.88780715  1
  Mn  Mn6  1  0.66666668  0.66666666  0.61219285  1
  Mn  Mn7  1  0.33333332  0.33333334  0.38780715  1
  O  O8  1  0.50000000  0.00000000  0.50000000  1
  O  O9  1  -0.00000000  0.50000000  0.50000000  1
  O  O10  1  0.50000000  0.50000000  0.50000000  1
  O  O11  1  0.50000000  0.00000000  0.00000000  1
  O  O12  1  -0.00000000  0.50000000  0.00000000  1
  O  O13  1  0.50000000  0.50000000  0.00000000  1
  O  O14  1  0.81533216  0.36931732  0.75000000  1
  O  O15  1  0.36928868  0.81535566  0.75000000  1
  O  O16  1  0.81533216  0.81535052  0.75000000  1
  O  O17  1  0.18466784  0.63068268  0.25000000  1
  O  O18  1  0.63071132  0.18464434  0.25000000  1
  O  O19  1  0.18466784  0.18464948  0.25000000  1
