# generated using pymatgen
data_Ca3NdMn4O12
_symmetry_space_group_name_H-M   'P 1'
_cell_length_a   5.38744557
_cell_length_b   5.44207017
_cell_length_c   7.68983417
_cell_angle_alpha   90.00000000
_cell_angle_beta   90.00000000
_cell_angle_gamma   90.26482468
_symmetry_Int_Tables_number   1
_chemical_formula_structural   Ca3NdMn4O12
_chemical_formula_sum   'Ca3 Nd1 Mn4 O12'
_cell_volume   225.45473882
_cell_formula_units_Z   1
loop_
 _symmetry_equiv_pos_site_id
 _symmetry_equiv_pos_as_xyz
  1  'x, y, z'
loop_
 _atom_site_type_symbol
 _atom_site_label
 _atom_site_symmetry_multiplicity
 _atom_site_fract_x
 _atom_site_fract_y
 _atom_site_fract_z
 _atom_site_occupancy
  Ca  Ca0  1  0.99330838  0.04282524  0.25000000  1
  Ca  Ca1  1  0.49352976  0.45864111  0.75000000  1
  Ca  Ca2  1  0.00671113  0.96209160  0.75000000  1
  Nd  Nd3  1  0.50960901  0.54246249  0.25000000  1
  Mn  Mn4  1  0.00141805  0.49988757  0.99646661  1
  Mn  Mn5  1  0.49919507  0.00144453  0.50335506  1
  Mn  Mn6  1  0.00141805  0.49988757  0.50353339  1
  Mn  Mn7  1  0.49919507  0.00144453  0.99664494  1
  O  O8  1  0.78715738  0.78670058  0.04497289  1
  O  O9  1  0.70836726  0.29036329  0.46286626  1
  O  O10  1  0.20546835  0.20663046  0.53871968  1
  O  O11  1  0.29836231  0.70325388  0.96435306  1
  O  O12  1  0.20546835  0.20663046  0.96128032  1
  O  O13  1  0.29836231  0.70325388  0.53564694  1
  O  O14  1  0.78715738  0.78670058  0.45502711  1
  O  O15  1  0.70836726  0.29036329  0.03713374  1
  O  O16  1  0.42577532  0.98880158  0.25000000  1
  O  O17  1  0.06900412  0.48409899  0.25000000  1
  O  O18  1  0.57645538  0.01932810  0.75000000  1
  O  O19  1  0.92567008  0.52519027  0.75000000  1
