# generated using pymatgen
data_Ca12ScCo7O24
_symmetry_space_group_name_H-M   'P 1'
_cell_length_a   6.36659911
_cell_length_b   6.36659911
_cell_length_c   12.67907624
_cell_angle_alpha   92.16583207
_cell_angle_beta   92.16583207
_cell_angle_gamma   91.85064484
_symmetry_Int_Tables_number   1
_chemical_formula_structural   Ca12ScCo7O24
_chemical_formula_sum   'Ca12 Sc1 Co7 O24'
_cell_volume   512.90167661
_cell_formula_units_Z   1
loop_
 _symmetry_equiv_pos_site_id
 _symmetry_equiv_pos_as_xyz
  1  'x, y, z'
loop_
 _atom_site_type_symbol
 _atom_site_label
 _atom_site_symmetry_multiplicity
 _atom_site_fract_x
 _atom_site_fract_y
 _atom_site_fract_z
 _atom_site_occupancy
  Ca  Ca0  1  0.62270982  0.87729018  0.12500000  1
  Ca  Ca1  1  0.61724013  0.88275987  0.62500000  1
  Ca  Ca2  1  0.87927016  0.24459608  0.31345777  1
  Ca  Ca3  1  0.87989603  0.25449309  0.80636931  1
  Ca  Ca4  1  0.24550691  0.62010397  0.44363069  1
  Ca  Ca5  1  0.25540392  0.62072984  0.93654223  1
  Ca  Ca6  1  0.11102379  0.75032359  0.19588876  1
  Ca  Ca7  1  0.11592586  0.75080225  0.68932843  1
  Ca  Ca8  1  0.74967641  0.38897621  0.05411124  1
  Ca  Ca9  1  0.74919775  0.38407414  0.56067157  1
  Ca  Ca10  1  0.38399150  0.11345499  0.38243610  1
  Ca  Ca11  1  0.38654501  0.11600850  0.86756390  1
  Sc  Sc12  1  0.24891819  0.25108181  0.12500000  1
  Co  Co13  1  0.49973535  0.50132588  0.25059558  1
  Co  Co14  1  0.49806049  0.49689603  0.74845294  1
  Co  Co15  1  0.99867412  0.00026465  0.99940442  1
  Co  Co16  1  0.00310397  0.00193951  0.50154706  1
  Co  Co17  1  0.24464313  0.25535687  0.62500000  1
  Co  Co18  1  0.75497082  0.74972107  0.37812504  1
  Co  Co19  1  0.75027893  0.74502918  0.87187496  1
  O  O20  1  0.54265347  0.21273621  0.20575917  1
  O  O21  1  0.53849021  0.20870853  0.70409511  1
  O  O22  1  0.20800142  0.41205080  0.27115072  1
  O  O23  1  0.20922717  0.40500665  0.76570578  1
  O  O24  1  0.41169089  0.54224946  0.10601680  1
  O  O25  1  0.41268046  0.53947530  0.60345044  1
  O  O26  1  0.05145083  0.91958428  0.35552261  1
  O  O27  1  0.04591385  0.91872488  0.86013325  1
  O  O28  1  0.91599893  0.71609266  0.02276984  1
  O  O29  1  0.91586644  0.71183957  0.52105625  1
  O  O30  1  0.71424943  0.04779124  0.45568990  1
  O  O31  1  0.71886243  0.04559824  0.96225732  1
  O  O32  1  0.45440176  0.78113757  0.28774268  1
  O  O33  1  0.45220876  0.78575057  0.79431010  1
  O  O34  1  0.78390734  0.58400107  0.22723016  1
  O  O35  1  0.78816043  0.58413356  0.72894375  1
  O  O36  1  0.58127512  0.45408615  0.38986675  1
  O  O37  1  0.58041572  0.44854917  0.89447739  1
  O  O38  1  0.95775054  0.08830911  0.14398320  1
  O  O39  1  0.96052470  0.08731954  0.64654956  1
  O  O40  1  0.09499335  0.29077283  0.48429422  1
  O  O41  1  0.08794920  0.29199858  0.97884928  1
  O  O42  1  0.28726379  0.95734653  0.04424083  1
  O  O43  1  0.29129147  0.96150979  0.54590489  1
