# generated using pymatgen
data_La9In5Se21
_symmetry_space_group_name_H-M   'P 1'
_cell_length_a   12.58051088
_cell_length_b   12.58043322
_cell_length_c   12.58005957
_cell_angle_alpha   95.19157646
_cell_angle_beta   84.80251959
_cell_angle_gamma   84.80873228
_symmetry_Int_Tables_number   1
_chemical_formula_structural   La9In5Se21
_chemical_formula_sum   'La18 In10 Se42'
_cell_volume   1964.90581323
_cell_formula_units_Z   2
loop_
 _symmetry_equiv_pos_site_id
 _symmetry_equiv_pos_as_xyz
  1  'x, y, z'
loop_
 _atom_site_type_symbol
 _atom_site_label
 _atom_site_symmetry_multiplicity
 _atom_site_fract_x
 _atom_site_fract_y
 _atom_site_fract_z
 _atom_site_occupancy
  La  La0  1  0.25281231  0.11644044  0.88498939  1
  La  La1  1  0.92072880  0.45501985  0.22601181  1
  La  La2  1  0.59416402  0.77714740  0.55563157  1
  La  La3  1  0.44437607  0.40586813  0.77719729  1
  La  La4  1  0.11507534  0.74719059  0.11642442  1
  La  La5  1  0.77377002  0.07924752  0.45512379  1
  La  La6  1  0.54490283  0.22603818  0.07912130  1
  La  La7  1  0.22287195  0.55564152  0.40584343  1
  La  La8  1  0.88355516  0.88493804  0.74717908  1
  La  La9  1  0.41466013  0.21476827  0.44303125  1
  La  La10  1  0.07218272  0.55115245  0.78049971  1
  La  La11  1  0.74885267  0.87905549  0.10899861  1
  La  La12  1  0.21954561  0.92789158  0.55112974  1
  La  La13  1  0.89103517  0.25123357  0.87906894  1
  La  La14  1  0.55690878  0.58535247  0.21483525  1
  La  La15  1  0.12086764  0.10898764  0.25126477  1
  La  La16  1  0.78509313  0.44311433  0.58538539  1
  La  La17  1  0.44884082  0.78046978  0.92783448  1
  In  In18  1  0.94454723  0.72296233  0.39116924  1
  In  In19  1  0.60870299  0.05557942  0.72276854  1
  In  In20  1  0.27718695  0.39117175  0.05556957  1
  In  In21  1  0.44484499  0.88828882  0.22491209  1
  In  In22  1  0.11168751  0.22482363  0.55520695  1
  In  In23  1  0.77510723  0.55525183  0.88837682  1
  In  In24  1  0.14627902  0.85357674  0.85354659  1
  In  In25  1  0.83886845  0.16106910  0.16099248  1
  In  In26  1  0.33866068  0.66125199  0.66136325  1
  In  In27  1  0.64571974  0.35421746  0.35416613  1
  Se  Se28  1  0.69687229  0.55977477  0.40250916  1
  Se  Se29  1  0.34775652  0.89177616  0.74841454  1
  Se  Se30  1  0.01876691  0.23563783  0.08424715  1
  Se  Se31  1  0.91564994  0.98118842  0.23560853  1
  Se  Se32  1  0.59749422  0.30318650  0.55983101  1
  Se  Se33  1  0.25155668  0.65223678  0.89184799  1
  Se  Se34  1  0.10821996  0.74842650  0.65222747  1
  Se  Se35  1  0.76438111  0.08429138  0.98122861  1
  Se  Se36  1  0.44016640  0.40248266  0.30313982  1
  Se  Se37  1  0.62417543  0.13774947  0.28062786  1
  Se  Se38  1  0.28000029  0.46618472  0.61367437  1
  Se  Se39  1  0.96140617  0.78124848  0.94030181  1
  Se  Se40  1  0.38637263  0.72003559  0.46623448  1
  Se  Se41  1  0.05967518  0.03860629  0.78121939  1
  Se  Se42  1  0.71937771  0.37579827  0.13772077  1
  Se  Se43  1  0.21875038  0.94030694  0.03857833  1
  Se  Se44  1  0.86223628  0.28066632  0.37585335  1
  Se  Se45  1  0.53374821  0.61364581  0.72004210  1
  Se  Se46  1  0.81485700  0.85304714  0.52143243  1
  Se  Se47  1  0.47856163  0.18516199  0.85300944  1
  Se  Se48  1  0.14697679  0.52141028  0.18521071  1
  Se  Se49  1  0.64766572  0.68535631  0.02039823  1
  Se  Se50  1  0.31461890  0.02040099  0.35233845  1
  Se  Se51  1  0.97960460  0.35236930  0.68542640  1
  Se  Se52  1  0.98698940  0.53136507  0.45159988  1
  Se  Se53  1  0.64553181  0.86477490  0.78537165  1
  Se  Se54  1  0.30945500  0.19667979  0.11151110  1
  Se  Se55  1  0.88844991  0.69052785  0.19672327  1
  Se  Se56  1  0.54841035  0.01300974  0.53135369  1
  Se  Se57  1  0.21456372  0.35454270  0.86483073  1
  Se  Se58  1  0.13533515  0.78544537  0.35446750  1
  Se  Se59  1  0.80332632  0.11153842  0.69053705  1
  Se  Se60  1  0.46863935  0.45159406  0.01301792  1
  Se  Se61  1  0.52429591  0.96983827  0.05585858  1
  Se  Se62  1  0.18944986  0.30246822  0.38210527  1
  Se  Se63  1  0.84722334  0.63596116  0.71438339  1
  Se  Se64  1  0.61796860  0.81060569  0.30246064  1
  Se  Se65  1  0.28566051  0.15279871  0.63598778  1
  Se  Se66  1  0.94412493  0.47573767  0.96989756  1
  Se  Se67  1  0.36405938  0.71438022  0.15278311  1
  Se  Se68  1  0.03018243  0.05587489  0.47570334  1
  Se  Se69  1  0.69759513  0.38211805  0.81064324  1
