# generated using pymatgen
data_Ca2Ga2SiO7
_symmetry_space_group_name_H-M   'P 1'
_cell_length_a   5.16850617
_cell_length_b   7.91851300
_cell_length_c   7.89356988
_cell_angle_alpha   90.00000000
_cell_angle_beta   90.00000000
_cell_angle_gamma   89.87780017
_symmetry_Int_Tables_number   1
_chemical_formula_structural   Ca2Ga2SiO7
_chemical_formula_sum   'Ca4 Ga4 Si2 O14'
_cell_volume   323.05847852
_cell_formula_units_Z   2
loop_
 _symmetry_equiv_pos_site_id
 _symmetry_equiv_pos_as_xyz
  1  'x, y, z'
loop_
 _atom_site_type_symbol
 _atom_site_label
 _atom_site_symmetry_multiplicity
 _atom_site_fract_x
 _atom_site_fract_y
 _atom_site_fract_z
 _atom_site_occupancy
  Ca  Ca0  1  0.51682065  0.82725112  0.34294290  1
  Ca  Ca1  1  0.48317935  0.67274888  0.84294290  1
  Ca  Ca2  1  0.51435478  0.14760325  0.66416703  1
  Ca  Ca3  1  0.48564522  0.35239675  0.16416703  1
  Ga  Ga4  1  0.00017308  0.49885943  0.50152573  1
  Ga  Ga5  1  0.99982692  0.00114057  0.00152573  1
  Ga  Ga6  1  0.96510055  0.64297137  0.14299901  1
  Ga  Ga7  1  0.03489945  0.85702863  0.64299901  1
  Si  Si8  1  0.94604678  0.35596734  0.85707894  1
  Si  Si9  1  0.05395322  0.14403266  0.35707894  1
  O  O10  1  0.19256942  0.00772040  0.48884645  1
  O  O11  1  0.80743058  0.49227960  0.98884645  1
  O  O12  1  0.19811674  0.32571488  0.40585105  1
  O  O13  1  0.80188326  0.17428512  0.90585105  1
  O  O14  1  0.21752670  0.66097897  0.58693477  1
  O  O15  1  0.78247330  0.83902103  0.08693477  1
  O  O16  1  0.78099106  0.58073922  0.33749838  1
  O  O17  1  0.21900894  0.91926078  0.83749838  1
  O  O18  1  0.80462983  0.40027069  0.67308285  1
  O  O19  1  0.19537017  0.09972931  0.17308285  1
  O  O20  1  0.31261137  0.63475787  0.13951242  1
  O  O21  1  0.68738863  0.86524213  0.63951242  1
  O  O22  1  0.25776680  0.35444110  0.85956049  1
  O  O23  1  0.74223320  0.14555890  0.35956049  1
