# generated using pymatgen
data_Ca6P19Rh30
_symmetry_space_group_name_H-M   'P 1'
_cell_length_a   3.83216211
_cell_length_b   15.67797588
_cell_length_c   15.67797534
_cell_angle_alpha   60.00000086
_cell_angle_beta   90.00000000
_cell_angle_gamma   90.00000000
_symmetry_Int_Tables_number   1
_chemical_formula_structural   Ca6P19Rh30
_chemical_formula_sum   'Ca6 P19 Rh30'
_cell_volume   815.74510620
_cell_formula_units_Z   1
loop_
 _symmetry_equiv_pos_site_id
 _symmetry_equiv_pos_as_xyz
  1  'x, y, z'
loop_
 _atom_site_type_symbol
 _atom_site_label
 _atom_site_symmetry_multiplicity
 _atom_site_fract_x
 _atom_site_fract_y
 _atom_site_fract_z
 _atom_site_occupancy
  Ca  Ca0  1  0.74983951  0.29713081  0.60649077  1
  Ca  Ca1  1  0.74983951  0.09637843  0.29713081  1
  Ca  Ca2  1  0.74983951  0.60649077  0.09637843  1
  Ca  Ca3  1  0.24988875  0.70324444  0.39296380  1
  Ca  Ca4  1  0.24988875  0.90379176  0.70324444  1
  Ca  Ca5  1  0.24988875  0.39296380  0.90379176  1
  P  P6  1  0.75354648  0.88427954  0.85909075  1
  P  P7  1  0.75354648  0.25662971  0.88427954  1
  P  P8  1  0.75354648  0.85909075  0.25662971  1
  P  P9  1  0.24770904  0.11654111  0.13980609  1
  P  P10  1  0.24770904  0.74365279  0.11654111  1
  P  P11  1  0.24770904  0.13980609  0.74365279  1
  P  P12  1  0.75075644  0.06203136  0.56699787  1
  P  P13  1  0.75075644  0.37097078  0.06203136  1
  P  P14  1  0.75075644  0.56699787  0.37097078  1
  P  P15  1  0.24960169  0.93779441  0.43308999  1
  P  P16  1  0.24960169  0.62911561  0.93779441  1
  P  P17  1  0.24960169  0.43308999  0.62911561  1
  P  P18  1  0.74952856  0.68249545  0.54832174  1
  P  P19  1  0.74952856  0.76918280  0.68249545  1
  P  P20  1  0.74952856  0.54832174  0.76918280  1
  P  P21  1  0.25056553  0.31731548  0.45148005  1
  P  P22  1  0.25056553  0.23120447  0.31731548  1
  P  P23  1  0.25056553  0.45148005  0.23120447  1
  P  P24  1  0.57927783  0.00000000  0.00000000  1
  Rh  Rh25  1  0.75370334  0.04813923  0.72294536  1
  Rh  Rh26  1  0.75370334  0.22891541  0.04813923  1
  Rh  Rh27  1  0.75370334  0.72294536  0.22891541  1
  Rh  Rh28  1  0.24739208  0.95223324  0.27777405  1
  Rh  Rh29  1  0.24739208  0.76999270  0.95223324  1
  Rh  Rh30  1  0.24739208  0.27777405  0.76999270  1
  Rh  Rh31  1  0.75045494  0.42873738  0.34794997  1
  Rh  Rh32  1  0.75045494  0.22331265  0.42873738  1
  Rh  Rh33  1  0.75045494  0.34794997  0.22331265  1
  Rh  Rh34  1  0.24901259  0.57236371  0.65175058  1
  Rh  Rh35  1  0.24901259  0.77588571  0.57236371  1
  Rh  Rh36  1  0.24901259  0.65175058  0.77588571  1
  Rh  Rh37  1  0.74843955  0.12912617  0.84732106  1
  Rh  Rh38  1  0.74843955  0.02355277  0.12912617  1
  Rh  Rh39  1  0.74843955  0.84732106  0.02355277  1
  Rh  Rh40  1  0.25709655  0.87605111  0.14723242  1
  Rh  Rh41  1  0.25709655  0.97671647  0.87605111  1
  Rh  Rh42  1  0.25709655  0.14723242  0.97671647  1
  Rh  Rh43  1  0.74976297  0.74024886  0.84397453  1
  Rh  Rh44  1  0.74976297  0.41577661  0.74024886  1
  Rh  Rh45  1  0.74976297  0.84397453  0.41577661  1
  Rh  Rh46  1  0.25041474  0.25980947  0.15608121  1
  Rh  Rh47  1  0.25041474  0.58410932  0.25980947  1
  Rh  Rh48  1  0.25041474  0.15608121  0.58410932  1
  Rh  Rh49  1  0.74878575  0.53929222  0.53490164  1
  Rh  Rh50  1  0.74878575  0.92580614  0.53929222  1
  Rh  Rh51  1  0.74878575  0.53490164  0.92580614  1
  Rh  Rh52  1  0.25140888  0.45966942  0.46580560  1
  Rh  Rh53  1  0.25140888  0.07452497  0.45966942  1
  Rh  Rh54  1  0.25140888  0.46580560  0.07452497  1
