# generated using pymatgen
data_Ca(InCu)6
_symmetry_space_group_name_H-M   'P 1'
_cell_length_a   5.56728401
_cell_length_b   7.11379330
_cell_length_c   7.11379330
_cell_angle_alpha   98.36184157
_cell_angle_beta   113.03554597
_cell_angle_gamma   66.96445403
_symmetry_Int_Tables_number   1
_chemical_formula_structural   Ca(InCu)6
_chemical_formula_sum   'Ca1 In6 Cu6'
_cell_volume   238.58941554
_cell_formula_units_Z   1
loop_
 _symmetry_equiv_pos_site_id
 _symmetry_equiv_pos_as_xyz
  1  'x, y, z'
loop_
 _atom_site_type_symbol
 _atom_site_label
 _atom_site_symmetry_multiplicity
 _atom_site_fract_x
 _atom_site_fract_y
 _atom_site_fract_z
 _atom_site_occupancy
  Ca  Ca0  1  -0.00000000  0.00000000  0.00000000  1
  In  In1  1  0.66150810  0.33849190  0.66150810  1
  In  In2  1  0.33849190  0.66150810  0.33849190  1
  In  In3  1  0.00000000  0.34251287  0.34251287  1
  In  In4  1  -0.00000000  0.65748713  0.65748713  1
  In  In5  1  0.50000000  0.81574775  0.81574775  1
  In  In6  1  0.50000000  0.18425225  0.18425225  1
  Cu  Cu7  1  0.50000000  0.00000000  0.50000000  1
  Cu  Cu8  1  -0.00000000  0.00000000  0.50000000  1
  Cu  Cu9  1  0.50000000  0.50000000  0.00000000  1
  Cu  Cu10  1  -0.00000000  0.50000000  0.00000000  1
  Cu  Cu11  1  0.73649700  0.76350300  0.23649700  1
  Cu  Cu12  1  0.26350300  0.23649700  0.76350300  1
