# generated using pymatgen
data_BaSrNdTlCu2O7
_symmetry_space_group_name_H-M   'P 1'
_cell_length_a   3.88819497
_cell_length_b   3.91798277
_cell_length_c   12.62761196
_cell_angle_alpha   90.18183193
_cell_angle_beta   90.00000000
_cell_angle_gamma   90.00000000
_symmetry_Int_Tables_number   1
_chemical_formula_structural   BaSrNdTlCu2O7
_chemical_formula_sum   'Ba1 Sr1 Nd1 Tl1 Cu2 O7'
_cell_volume   192.36656785
_cell_formula_units_Z   1
loop_
 _symmetry_equiv_pos_site_id
 _symmetry_equiv_pos_as_xyz
  1  'x, y, z'
loop_
 _atom_site_type_symbol
 _atom_site_label
 _atom_site_symmetry_multiplicity
 _atom_site_fract_x
 _atom_site_fract_y
 _atom_site_fract_z
 _atom_site_occupancy
  Ba  Ba0  1  0.50000000  0.51575543  0.79774742  1
  Sr  Sr1  1  0.50000000  0.51663046  0.20745093  1
  Nd  Nd2  1  0.50000000  0.50340807  0.49537751  1
  Tl  Tl3  1  0.00000000  0.08618264  0.00799528  1
  Cu  Cu4  1  0.00000000  0.00544073  0.63170815  1
  Cu  Cu5  1  -0.00000000  0.00427810  0.35442161  1
  O  O6  1  0.50000000  0.00520964  0.61705448  1
  O  O7  1  0.00000000  0.50531859  0.61781535  1
  O  O8  1  0.50000000  0.00360146  0.37278557  1
  O  O9  1  0.00000000  0.50480083  0.37144583  1
  O  O10  1  0.00000000  0.00595656  0.83910364  1
  O  O11  1  -0.00000000  0.99431304  0.17514153  1
  O  O12  1  0.50000000  0.43010446  0.01195269  1
