# generated using pymatgen
data_Ca2MnFeSi4(HO3)5
_symmetry_space_group_name_H-M   'P 1'
_cell_length_a   6.64723670
_cell_length_b   10.06812011
_cell_length_c   10.61528075
_cell_angle_alpha   66.14002582
_cell_angle_beta   74.09714741
_cell_angle_gamma   78.66829113
_symmetry_Int_Tables_number   1
_chemical_formula_structural   Ca2MnFeSi4(HO3)5
_chemical_formula_sum   'Ca4 Mn2 Fe2 Si8 H10 O30'
_cell_volume   621.87792699
_cell_formula_units_Z   2
loop_
 _symmetry_equiv_pos_site_id
 _symmetry_equiv_pos_as_xyz
  1  'x, y, z'
loop_
 _atom_site_type_symbol
 _atom_site_label
 _atom_site_symmetry_multiplicity
 _atom_site_fract_x
 _atom_site_fract_y
 _atom_site_fract_z
 _atom_site_occupancy
  Ca  Ca0  1  0.41023590  0.19647382  0.46777230  1
  Ca  Ca1  1  0.58976410  0.80352618  0.53222770  1
  Ca  Ca2  1  0.35696502  0.61812799  0.36091603  1
  Ca  Ca3  1  0.64303498  0.38187201  0.63908397  1
  Mn  Mn4  1  0.27758370  0.00892786  0.29281931  1
  Mn  Mn5  1  0.72241630  0.99107214  0.70718069  1
  Fe  Fe6  1  0.87729225  0.12371503  0.89637788  1
  Fe  Fe7  1  0.12270775  0.87628497  0.10362212  1
  Si  Si8  1  0.34715129  0.18555018  0.92328970  1
  Si  Si9  1  0.65284871  0.81444982  0.07671030  1
  Si  Si10  1  0.13850017  0.40790235  0.69136178  1
  Si  Si11  1  0.86149983  0.59209765  0.30863822  1
  Si  Si12  1  0.21019411  0.89697409  0.77863404  1
  Si  Si13  1  0.78980589  0.10302591  0.22136596  1
  Si  Si14  1  0.08446402  0.75450771  0.60766251  1
  Si  Si15  1  0.91553598  0.24549229  0.39233749  1
  H  H16  1  0.56671856  0.42579406  0.19104661  1
  H  H17  1  0.43328144  0.57420594  0.80895339  1
  H  H18  1  0.33513045  0.45079900  0.18087040  1
  H  H19  1  0.66486955  0.54920100  0.81912960  1
  H  H20  1  0.50914184  0.20416007  0.07089804  1
  H  H21  1  0.49085816  0.79583993  0.92910196  1
  H  H22  1  0.19898139  0.45899745  0.98738907  1
  H  H23  1  0.80101861  0.54100255  0.01261093  1
  H  H24  1  0.21421344  0.61812340  0.98753790  1
  H  H25  1  0.78578656  0.38187660  0.01246210  1
  O  O26  1  0.27220741  0.79558334  0.46493561  1
  O  O27  1  0.72779259  0.20441666  0.53506439  1
  O  O28  1  0.31719526  0.39269052  0.55646064  1
  O  O29  1  0.68280474  0.60730948  0.44353936  1
  O  O30  1  0.35795292  0.19041813  0.07541922  1
  O  O31  1  0.64204708  0.80958187  0.92458078  1
  O  O32  1  0.93711698  0.31568225  0.74117968  1
  O  O33  1  0.06288302  0.68431775  0.25882032  1
  O  O34  1  0.42525725  0.42779018  0.25076107  1
  O  O35  1  0.57474275  0.57220982  0.74923893  1
  O  O36  1  0.00253237  0.98832966  0.23145609  1
  O  O37  1  0.99746763  0.01167034  0.76854391  1
  O  O38  1  0.26847913  0.35454605  0.82186484  1
  O  O39  1  0.73152087  0.64545395  0.17813516  1
  O  O40  1  0.42071340  0.97111351  0.66774775  1
  O  O41  1  0.57928660  0.02888649  0.33225225  1
  O  O42  1  0.05345691  0.58041769  0.65389396  1
  O  O43  1  0.94654309  0.41958231  0.34610604  1
  O  O44  1  0.18085476  0.76267746  0.73240605  1
  O  O45  1  0.81914524  0.23732254  0.26759395  1
  O  O46  1  0.58837653  0.14935514  0.84303957  1
  O  O47  1  0.41162347  0.85064486  0.15696043  1
  O  O48  1  0.86155674  0.84979485  0.59497765  1
  O  O49  1  0.13844326  0.15020515  0.40502235  1
  O  O50  1  0.17250075  0.08160918  0.94461515  1
  O  O51  1  0.82749925  0.91839082  0.05538485  1
  O  O52  1  0.24518543  0.80684019  0.94190019  1
  O  O53  1  0.75481457  0.19315981  0.05809981  1
  O  O54  1  0.26120962  0.51241933  0.02375585  1
  O  O55  1  0.73879038  0.48758067  0.97624415  1
