# generated using pymatgen
data_Mg2Sb
_symmetry_space_group_name_H-M   'P 1'
_cell_length_a   4.03515300
_cell_length_b   7.16036987
_cell_length_c   5.96287930
_cell_angle_alpha   65.55941074
_cell_angle_beta   90.00000000
_cell_angle_gamma   106.36586463
_symmetry_Int_Tables_number   1
_chemical_formula_structural   Mg2Sb
_chemical_formula_sum   'Mg4 Sb2'
_cell_volume   149.14657503
_cell_formula_units_Z   2
loop_
 _symmetry_equiv_pos_site_id
 _symmetry_equiv_pos_as_xyz
  1  'x, y, z'
loop_
 _atom_site_type_symbol
 _atom_site_label
 _atom_site_symmetry_multiplicity
 _atom_site_fract_x
 _atom_site_fract_y
 _atom_site_fract_z
 _atom_site_occupancy
  Mg  Mg0  1  0.02835386  0.05670671  0.94213677  1
  Mg  Mg1  1  0.70316594  0.40632988  0.02070957  1
  Mg  Mg2  1  0.35240365  0.70480731  0.36820076  1
  Mg  Mg3  1  0.02721400  0.05442799  0.44671670  1
  Sb  Sb4  1  0.67733117  0.35466134  0.54530895  1
  Sb  Sb5  1  0.37819938  0.75639977  0.84359326  1
