# generated using pymatgen
data_Bi19(S9I)3
_symmetry_space_group_name_H-M   'P 1'
_cell_length_a   12.16797134
_cell_length_b   16.27070149
_cell_length_c   16.26221527
_cell_angle_alpha   113.87343848
_cell_angle_beta   104.36212797
_cell_angle_gamma   104.47676562
_symmetry_Int_Tables_number   1
_chemical_formula_structural   Bi19(S9I)3
_chemical_formula_sum   'Bi38 S54 I6'
_cell_volume   2619.56677824
_cell_formula_units_Z   2
loop_
 _symmetry_equiv_pos_site_id
 _symmetry_equiv_pos_as_xyz
  1  'x, y, z'
loop_
 _atom_site_type_symbol
 _atom_site_label
 _atom_site_symmetry_multiplicity
 _atom_site_fract_x
 _atom_site_fract_y
 _atom_site_fract_z
 _atom_site_occupancy
  Bi  Bi0  1  0.98463121  0.24377677  0.94909843  1
  Bi  Bi1  1  0.64256805  0.23217941  0.94114673  1
  Bi  Bi2  1  0.30666997  0.24068045  0.94672243  1
  Bi  Bi3  1  0.06390408  0.70487514  0.75836970  1
  Bi  Bi4  1  0.73995601  0.70499388  0.75570628  1
  Bi  Bi5  1  0.41059187  0.71014760  0.76873555  1
  Bi  Bi6  1  0.70086057  0.05870676  0.29120782  1
  Bi  Bi7  1  0.35918489  0.05327949  0.29408441  1
  Bi  Bi8  1  0.03518300  0.05079045  0.29442421  1
  Bi  Bi9  1  0.68151557  0.75844597  0.05290849  1
  Bi  Bi10  1  0.35568531  0.75731404  0.05102396  1
  Bi  Bi11  1  0.02714598  0.76793999  0.05897808  1
  Bi  Bi12  1  0.59967889  0.29437051  0.24321896  1
  Bi  Bi13  1  0.25984120  0.28970537  0.23094052  1
  Bi  Bi14  1  0.92412364  0.29492166  0.24237134  1
  Bi  Bi15  1  0.96908141  0.94143517  0.70885452  1
  Bi  Bi16  1  0.62909664  0.94717309  0.70590707  1
  Bi  Bi17  1  0.30533564  0.94920965  0.70617851  1
  Bi  Bi18  1  0.84434085  0.00029005  0.00042964  1
  Bi  Bi19  1  0.34762547  0.99881623  0.99890129  1
  Bi  Bi20  1  0.95821146  0.51206712  0.12034702  1
  Bi  Bi21  1  0.29281795  0.51249755  0.12111119  1
  Bi  Bi22  1  0.62828117  0.51031384  0.12008628  1
  Bi  Bi23  1  0.11810909  0.60964963  0.48956821  1
  Bi  Bi24  1  0.44555014  0.60787516  0.48758519  1
  Bi  Bi25  1  0.78017123  0.60846836  0.48716740  1
  Bi  Bi26  1  0.17212758  0.87887932  0.39154229  1
  Bi  Bi27  1  0.50857268  0.87998760  0.39046675  1
  Bi  Bi28  1  0.83808991  0.87985502  0.39210679  1
  Bi  Bi29  1  0.37290739  0.48736899  0.87887924  1
  Bi  Bi30  1  0.70641697  0.48889967  0.88039782  1
  Bi  Bi31  1  0.03610472  0.48901711  0.87940930  1
  Bi  Bi32  1  0.21793513  0.39195790  0.51155366  1
  Bi  Bi33  1  0.54659492  0.39008782  0.51082982  1
  Bi  Bi34  1  0.88577086  0.39187600  0.51314978  1
  Bi  Bi35  1  0.15620305  0.12062059  0.60930254  1
  Bi  Bi36  1  0.49372390  0.12109558  0.60827265  1
  Bi  Bi37  1  0.82559714  0.11941316  0.60812205  1
  S  S38  1  0.48351042  0.18592006  0.02053657  1
  S  S39  1  0.14801594  0.18238913  0.01793337  1
  S  S40  1  0.81883987  0.18080904  0.01928679  1
  S  S41  1  0.96516461  0.83476786  0.81696406  1
  S  S42  1  0.63939123  0.83903646  0.82044165  1
  S  S43  1  0.29665937  0.83434692  0.81406300  1
  S  S44  1  0.79965697  0.98054507  0.16145781  1
  S  S45  1  0.46330510  0.97994401  0.16549102  1
  S  S46  1  0.13035919  0.98176117  0.16449989  1
  S  S47  1  0.18627553  0.82026251  0.98042534  1
  S  S48  1  0.84681113  0.81441072  0.97988256  1
  S  S49  1  0.51496157  0.81764171  0.98202712  1
  S  S50  1  0.69782258  0.16505868  0.18301970  1
  S  S51  1  0.36697443  0.16036166  0.17968143  1
  S  S52  1  0.03139017  0.16512948  0.18445855  1
  S  S53  1  0.86679132  0.02006723  0.83445639  1
  S  S54  1  0.53261599  0.01835825  0.83566087  1
  S  S55  1  0.20568701  0.01938973  0.83995871  1
  S  S56  1  0.85341415  0.38631373  0.93162689  1
  S  S57  1  0.52457721  0.38710947  0.93093275  1
  S  S58  1  0.18891331  0.38699346  0.93240190  1
  S  S59  1  0.80206931  0.54547643  0.61358298  1
  S  S60  1  0.46726901  0.54507688  0.61384724  1
  S  S61  1  0.13620365  0.54367734  0.61320951  1
  S  S62  1  0.59415845  0.06915657  0.45555926  1
  S  S63  1  0.25656273  0.06763670  0.45401697  1
  S  S64  1  0.92204078  0.06851945  0.45413353  1
  S  S65  1  0.81200613  0.61466890  0.06889968  1
  S  S66  1  0.47749839  0.61279615  0.06776680  1
  S  S67  1  0.14142558  0.61271061  0.06839594  1
  S  S68  1  0.86452351  0.45504932  0.38679416  1
  S  S69  1  0.53007154  0.45592642  0.38717397  1
  S  S70  1  0.19696984  0.45461645  0.38535044  1
  S  S71  1  0.07257200  0.93156870  0.54476939  1
  S  S72  1  0.74278842  0.93096260  0.54631575  1
  S  S73  1  0.40962025  0.93221928  0.54557655  1
  S  S74  1  0.75765152  0.39258016  0.12938309  1
  S  S75  1  0.42494675  0.39650861  0.13090602  1
  S  S76  1  0.09213549  0.39730101  0.13260876  1
  S  S77  1  0.02867911  0.73412040  0.60296472  1
  S  S78  1  0.69432930  0.73485792  0.60190117  1
  S  S79  1  0.36540261  0.73680975  0.60699632  1
  S  S80  1  0.96008931  0.86723592  0.26501681  1
  S  S81  1  0.62856008  0.87037748  0.26329211  1
  S  S82  1  0.29462871  0.86887764  0.26594915  1
  S  S83  1  0.91097654  0.60779212  0.87075453  1
  S  S84  1  0.57307238  0.60383068  0.86853622  1
  S  S85  1  0.23917939  0.60251750  0.86783420  1
  S  S86  1  0.63645432  0.26553260  0.39804011  1
  S  S87  1  0.30286840  0.26318154  0.39276661  1
  S  S88  1  0.96970883  0.26521381  0.39710790  1
  S  S89  1  0.70399246  0.13156589  0.73493531  1
  S  S90  1  0.37086414  0.13251929  0.73435251  1
  S  S91  1  0.03984384  0.12955209  0.73682312  1
  I  I92  1  0.74885129  0.33317331  0.66698211  1
  I  I93  1  0.41557150  0.33348538  0.66710289  1
  I  I94  1  0.08187259  0.33310119  0.66675189  1
  I  I95  1  0.91392053  0.66661329  0.33329116  1
  I  I96  1  0.58065020  0.66663476  0.33284498  1
  I  I97  1  0.24729445  0.66695743  0.33315381  1
