# generated using pymatgen
data_Ca6Al2Fe4O15
_symmetry_space_group_name_H-M   'P 1'
_cell_length_a   5.44276897
_cell_length_b   15.69690780
_cell_length_c   17.13842729
_cell_angle_alpha   111.34262572
_cell_angle_beta   89.97560267
_cell_angle_gamma   90.00892660
_symmetry_Int_Tables_number   1
_chemical_formula_structural   Ca6Al2Fe4O15
_chemical_formula_sum   'Ca24 Al8 Fe16 O60'
_cell_volume   1363.80045887
_cell_formula_units_Z   4
loop_
 _symmetry_equiv_pos_site_id
 _symmetry_equiv_pos_as_xyz
  1  'x, y, z'
loop_
 _atom_site_type_symbol
 _atom_site_label
 _atom_site_symmetry_multiplicity
 _atom_site_fract_x
 _atom_site_fract_y
 _atom_site_fract_z
 _atom_site_occupancy
  Ca  Ca0  1  0.01502312  0.89209087  0.78642302  1
  Ca  Ca1  1  0.01495609  0.89356856  0.45576105  1
  Ca  Ca2  1  0.01628415  0.89313010  0.11905903  1
  Ca  Ca3  1  0.51369484  0.60738489  0.54568095  1
  Ca  Ca4  1  0.51643927  0.60569665  0.21212522  1
  Ca  Ca5  1  0.51341739  0.60711743  0.87851897  1
  Ca  Ca6  1  0.98881380  0.38988554  0.64112686  1
  Ca  Ca7  1  0.98855992  0.38889632  0.30775718  1
  Ca  Ca8  1  0.98843635  0.38967463  0.97371887  1
  Ca  Ca9  1  0.48800064  0.11024447  0.69280003  1
  Ca  Ca10  1  0.48847926  0.11103165  0.35927511  1
  Ca  Ca11  1  0.48793149  0.11021790  0.02582513  1
  Ca  Ca12  1  0.98859840  0.11112487  0.54853665  1
  Ca  Ca13  1  0.98852384  0.11018565  0.21392329  1
  Ca  Ca14  1  0.98872781  0.11023010  0.88115764  1
  Ca  Ca15  1  0.48808468  0.38965277  0.78563352  1
  Ca  Ca16  1  0.48785980  0.38985790  0.45266505  1
  Ca  Ca17  1  0.48849216  0.38898759  0.11861268  1
  Ca  Ca18  1  0.01501767  0.60792763  0.69172467  1
  Ca  Ca19  1  0.01496901  0.60643815  0.36002990  1
  Ca  Ca20  1  0.01629157  0.60683744  0.02362819  1
  Ca  Ca21  1  0.51372447  0.89265675  0.64079384  1
  Ca  Ca22  1  0.51641247  0.89429979  0.30831878  1
  Ca  Ca23  1  0.51342870  0.89286952  0.97376608  1
  Al  Al24  1  0.05642556  0.74999947  0.56020470  1
  Al  Al25  1  0.05605092  0.75002911  0.89339898  1
  Al  Al26  1  0.44487330  0.24997033  0.89060568  1
  Al  Al27  1  0.44486971  0.24996694  0.22406119  1
  Al  Al28  1  0.44494836  0.25005605  0.55749394  1
  Al  Al29  1  0.94537267  0.25000086  0.77559071  1
  Al  Al30  1  0.94527419  0.24978856  0.10886259  1
  Al  Al31  1  0.94523917  0.25020753  0.44250229  1
  Fe  Fe32  1  0.49931382  0.00465978  0.50130110  1
  Fe  Fe33  1  0.49891502  0.00393775  0.16758025  1
  Fe  Fe34  1  0.49939560  0.00369086  0.83415878  1
  Fe  Fe35  1  0.99917438  0.49865084  0.49968498  1
  Fe  Fe36  1  0.99899609  0.49558972  0.16542967  1
  Fe  Fe37  1  0.99915708  0.49876735  0.83250852  1
  Fe  Fe38  1  0.49937667  0.49628748  0.66500241  1
  Fe  Fe39  1  0.49931829  0.49533865  0.33149465  1
  Fe  Fe40  1  0.49891067  0.49599592  0.99825749  1
  Fe  Fe41  1  0.99924570  0.00145601  0.66730308  1
  Fe  Fe42  1  0.99897754  0.00449767  0.33511297  1
  Fe  Fe43  1  0.99911131  0.00120814  -0.00001361  1
  Fe  Fe44  1  0.55723187  0.74997485  0.10648071  1
  Fe  Fe45  1  0.55714978  0.74999988  0.44163810  1
  Fe  Fe46  1  0.55749142  0.75000716  0.77534891  1
  Fe  Fe47  1  0.05695993  0.75000858  0.22724693  1
  O  O48  1  0.24741771  0.01968150  0.42381480  1
  O  O49  1  0.24757836  0.01851864  0.08917227  1
  O  O50  1  0.24787930  0.01755430  0.75595908  1
  O  O51  1  0.74885099  0.48303025  0.57715086  1
  O  O52  1  0.74757285  0.47945910  0.24284228  1
  O  O53  1  0.74855779  0.48294290  0.91011583  1
  O  O54  1  0.75026497  0.51311866  0.75336659  1
  O  O55  1  0.75053816  0.51317456  0.42041828  1
  O  O56  1  0.75022193  0.51216428  0.08647331  1
  O  O57  1  0.25045309  0.98690785  0.91255281  1
  O  O58  1  0.25084569  0.98718949  0.57992284  1
  O  O59  1  0.25015600  0.98768512  0.24659362  1
  O  O60  1  0.75025944  0.98690034  0.91128416  1
  O  O61  1  0.75055355  0.98684676  0.57829995  1
  O  O62  1  0.75028508  0.98783485  0.24505830  1
  O  O63  1  0.25046413  0.51306858  0.75461710  1
  O  O64  1  0.25083046  0.51280722  0.42180680  1
  O  O65  1  0.25024298  0.51229642  0.08810133  1
  O  O66  1  0.24783978  0.48247566  0.57760981  1
  O  O67  1  0.24741076  0.48032092  0.24399417  1
  O  O68  1  0.24757925  0.48143120  0.91013749  1
  O  O69  1  0.74755933  0.02054269  0.42324564  1
  O  O70  1  0.74854846  0.01704270  0.08814656  1
  O  O71  1  0.74884419  0.01697376  0.75512113  1
  O  O72  1  0.91158155  0.74999886  0.79795525  1
  O  O73  1  0.91133671  0.75000313  0.46482339  1
  O  O74  1  0.91466799  0.74998326  0.12351909  1
  O  O75  1  0.38732390  0.75000149  0.87505236  1
  O  O76  1  0.38756095  0.75001837  0.54156859  1
  O  O77  1  0.41448396  0.74999595  0.21016872  1
  O  O78  1  0.11668104  0.25024312  0.53343778  1
  O  O79  1  0.11654445  0.24991499  0.19982993  1
  O  O80  1  0.11656094  0.24987358  0.86651194  1
  O  O81  1  0.61660250  0.25022535  0.46683343  1
  O  O82  1  0.61665229  0.24975505  0.13321752  1
  O  O83  1  0.61667663  0.24999586  0.79988053  1
  O  O84  1  0.47973866  0.85927985  0.76116201  1
  O  O85  1  0.47923048  0.86007197  0.42849899  1
  O  O86  1  0.47377844  0.85979412  0.09416077  1
  O  O87  1  0.98083436  0.64573425  0.57238593  1
  O  O88  1  0.97361544  0.64006154  0.23975794  1
  O  O89  1  0.98038827  0.64524946  0.90475649  1
  O  O90  1  0.50980307  0.35303960  0.64152867  1
  O  O91  1  0.50940529  0.35218013  0.30882636  1
  O  O92  1  0.50974253  0.35250090  0.97458060  1
  O  O93  1  0.00972004  0.14705418  0.69176721  1
  O  O94  1  0.00953898  0.14800905  0.35803291  1
  O  O95  1  0.00967246  0.14704004  0.02456315  1
  O  O96  1  0.50937903  0.14796117  0.57411104  1
  O  O97  1  0.50973452  0.14726929  0.23950939  1
  O  O98  1  0.50971664  0.14710714  0.90621088  1
  O  O99  1  0.00956204  0.35267497  0.75982443  1
  O  O100  1  0.00979793  0.35308183  0.42707288  1
  O  O101  1  0.00954094  0.35207880  0.09266695  1
  O  O102  1  0.47972042  0.64068420  0.68828189  1
  O  O103  1  0.47927143  0.63996627  0.35513960  1
  O  O104  1  0.47371967  0.64009844  0.02090525  1
  O  O105  1  0.98078348  0.85426857  0.64189030  1
  O  O106  1  0.97356635  0.85998075  0.31309272  1
  O  O107  1  0.98036645  0.85474006  0.97455333  1
