# generated using pymatgen
data_CaTi2PbO6
_symmetry_space_group_name_H-M   'P 1'
_cell_length_a   3.81841891
_cell_length_b   5.85141541
_cell_length_c   5.85141541
_cell_angle_alpha   81.82928149
_cell_angle_beta   90.00000000
_cell_angle_gamma   90.00000000
_symmetry_Int_Tables_number   1
_chemical_formula_structural   CaTi2PbO6
_chemical_formula_sum   'Ca1 Ti2 Pb1 O6'
_cell_volume   129.41194968
_cell_formula_units_Z   1
loop_
 _symmetry_equiv_pos_site_id
 _symmetry_equiv_pos_as_xyz
  1  'x, y, z'
loop_
 _atom_site_type_symbol
 _atom_site_label
 _atom_site_symmetry_multiplicity
 _atom_site_fract_x
 _atom_site_fract_y
 _atom_site_fract_z
 _atom_site_occupancy
  Ca  Ca0  1  0.00000000  0.94636424  0.94636424  1
  Ti  Ti1  1  0.50000000  0.47995984  0.98616367  1
  Ti  Ti2  1  0.50000000  0.98616367  0.47995984  1
  Pb  Pb3  1  0.00000000  0.46948665  0.46948665  1
  O  O4  1  0.50000000  0.24943048  0.82110314  1
  O  O5  1  0.50000000  0.82110314  0.24943048  1
  O  O6  1  0.00000000  0.53445545  0.03740276  1
  O  O7  1  0.00000000  0.03740276  0.53445545  1
  O  O8  1  0.50000000  0.30228459  0.30228459  1
  O  O9  1  0.50000000  0.76534918  0.76534918  1
