# generated using pymatgen
data_Cd10Ga5Cu(AgS5)4
_symmetry_space_group_name_H-M   'P 1'
_cell_length_a   7.00835948
_cell_length_b   8.19368930
_cell_length_c   33.29968170
_cell_angle_alpha   90.00000000
_cell_angle_beta   90.00283907
_cell_angle_gamma   90.00000000
_symmetry_Int_Tables_number   1
_chemical_formula_structural   Cd10Ga5Cu(AgS5)4
_chemical_formula_sum   'Cd20 Ga10 Cu2 Ag8 S40'
_cell_volume   1912.21157882
_cell_formula_units_Z   2
loop_
 _symmetry_equiv_pos_site_id
 _symmetry_equiv_pos_as_xyz
  1  'x, y, z'
loop_
 _atom_site_type_symbol
 _atom_site_label
 _atom_site_symmetry_multiplicity
 _atom_site_fract_x
 _atom_site_fract_y
 _atom_site_fract_z
 _atom_site_occupancy
  Cd  Cd0  1  0.17768934  0.24577615  0.19993121  1
  Cd  Cd1  1  0.17767762  0.24580251  0.39997291  1
  Cd  Cd2  1  0.17840602  0.24449357  0.60091500  1
  Cd  Cd3  1  0.18026376  0.24108082  0.80019847  1
  Cd  Cd4  1  0.17949007  0.24247336  0.99926831  1
  Cd  Cd5  1  0.17768934  0.75422385  0.19993121  1
  Cd  Cd6  1  0.17767762  0.75419749  0.39997291  1
  Cd  Cd7  1  0.17840602  0.75550643  0.60091500  1
  Cd  Cd8  1  0.18026376  0.75891918  0.80019847  1
  Cd  Cd9  1  0.17949007  0.75752664  0.99926831  1
  Cd  Cd10  1  0.82217542  0.25359420  0.09971305  1
  Cd  Cd11  1  0.82251096  0.25420502  0.29995032  1
  Cd  Cd12  1  0.82262285  0.25395485  0.50018582  1
  Cd  Cd13  1  0.82468381  0.24972008  0.69972619  1
  Cd  Cd14  1  0.82421198  0.24947317  0.89927575  1
  Cd  Cd15  1  0.82217542  0.74640580  0.09971305  1
  Cd  Cd16  1  0.82251096  0.74579498  0.29995032  1
  Cd  Cd17  1  0.82262285  0.74604515  0.50018582  1
  Cd  Cd18  1  0.82468381  0.75027992  0.69972619  1
  Cd  Cd19  1  0.82421198  0.75052683  0.89927575  1
  Ga  Ga20  1  0.32031368  0.50000000  0.09920990  1
  Ga  Ga21  1  0.32043362  0.50000000  0.29938534  1
  Ga  Ga22  1  0.32005563  0.50000000  0.49962369  1
  Ga  Ga23  1  0.32047828  0.50000000  0.69957298  1
  Ga  Ga24  1  0.32083013  0.50000000  0.89915541  1
  Ga  Ga25  1  0.67966279  0.00000000  0.19937332  1
  Ga  Ga26  1  0.67972927  0.00000000  0.39939155  1
  Ga  Ga27  1  0.67617414  0.00000000  0.60064513  1
  Ga  Ga28  1  0.67187876  0.00000000  0.79936524  1
  Ga  Ga29  1  0.67544554  0.00000000  0.99813687  1
  Cu  Cu30  1  0.34279847  -0.00000000  0.69924808  1
  Cu  Cu31  1  0.34262294  0.00000000  0.89914971  1
  Ag  Ag32  1  0.65980947  0.50000000  0.19876685  1
  Ag  Ag33  1  0.65975059  0.50000000  0.39883401  1
  Ag  Ag34  1  0.66020935  0.50000000  0.59881254  1
  Ag  Ag35  1  0.66016472  0.50000000  0.79865459  1
  Ag  Ag36  1  0.65977809  0.50000000  0.99865439  1
  Ag  Ag37  1  0.34034177  -0.00000000  0.09877220  1
  Ag  Ag38  1  0.34027221  -0.00000000  0.29877825  1
  Ag  Ag39  1  0.34055042  0.00000000  0.49879339  1
  S  S40  1  0.62991073  0.50000000  0.07580462  1
  S  S41  1  0.62988273  0.50000000  0.27582368  1
  S  S42  1  0.62982721  0.50000000  0.47602467  1
  S  S43  1  0.63269341  0.50000000  0.67615657  1
  S  S44  1  0.63278943  0.50000000  0.87595080  1
  S  S45  1  0.37028824  -0.00000000  0.17583572  1
  S  S46  1  0.37030521  -0.00000000  0.37584427  1
  S  S47  1  0.36996385  -0.00000000  0.57552105  1
  S  S48  1  0.36917436  0.00000000  0.77023164  1
  S  S49  1  0.36942364  0.00000000  0.97047121  1
  S  S50  1  0.17205171  0.26609615  0.07638363  1
  S  S51  1  0.17190807  0.26651711  0.27678398  1
  S  S52  1  0.17181359  0.26653700  0.47683879  1
  S  S53  1  0.18294075  0.25147311  0.67859787  1
  S  S54  1  0.18319311  0.25083963  0.87817484  1
  S  S55  1  0.17205171  0.73390385  0.07638363  1
  S  S56  1  0.17190807  0.73348289  0.27678398  1
  S  S57  1  0.17181359  0.73346300  0.47683879  1
  S  S58  1  0.18294075  0.74852689  0.67859787  1
  S  S59  1  0.18319311  0.74916037  0.87817484  1
  S  S60  1  0.82827265  0.23342944  0.17669235  1
  S  S61  1  0.82828276  0.23356337  0.37680340  1
  S  S62  1  0.82850114  0.23217189  0.57745741  1
  S  S63  1  0.82836502  0.23211797  0.77738630  1
  S  S64  1  0.82811997  0.23340229  0.97662850  1
  S  S65  1  0.82827265  0.76657056  0.17669235  1
  S  S66  1  0.82828276  0.76643663  0.37680340  1
  S  S67  1  0.82850114  0.76782811  0.57745741  1
  S  S68  1  0.82836502  0.76788203  0.77738630  1
  S  S69  1  0.82811997  0.76659771  0.97662850  1
  S  S70  1  0.32271023  0.50000000  0.16832921  1
  S  S71  1  0.32291933  0.50000000  0.36842922  1
  S  S72  1  0.32161072  0.50000000  0.56887539  1
  S  S73  1  0.32080229  0.50000000  0.76888661  1
  S  S74  1  0.32191146  0.50000000  0.96834351  1
  S  S75  1  0.67486255  0.00000000  0.06753936  1
  S  S76  1  0.67721592  -0.00000000  0.26842355  1
  S  S77  1  0.67731220  0.00000000  0.46844270  1
  S  S78  1  0.65063057  -0.00000000  0.67034328  1
  S  S79  1  0.64810486  -0.00000000  0.86943127  1
