# generated using pymatgen
data_Ca2YMn3O9
_symmetry_space_group_name_H-M   'P 1'
_cell_length_a   5.34881107
_cell_length_b   16.45852724
_cell_length_c   7.62226770
_cell_angle_alpha   90.00000000
_cell_angle_beta   90.00000000
_cell_angle_gamma   90.00000000
_symmetry_Int_Tables_number   1
_chemical_formula_structural   Ca2YMn3O9
_chemical_formula_sum   'Ca8 Y4 Mn12 O36'
_cell_volume   671.01530524
_cell_formula_units_Z   4
loop_
 _symmetry_equiv_pos_site_id
 _symmetry_equiv_pos_as_xyz
  1  'x, y, z'
loop_
 _atom_site_type_symbol
 _atom_site_label
 _atom_site_symmetry_multiplicity
 _atom_site_fract_x
 _atom_site_fract_y
 _atom_site_fract_z
 _atom_site_occupancy
  Ca  Ca0  1  0.51151936  0.48205245  0.25000000  1
  Ca  Ca1  1  0.51061393  0.81678801  0.25000000  1
  Ca  Ca2  1  0.98938607  0.31678801  0.25000000  1
  Ca  Ca3  1  0.98848064  0.98205245  0.25000000  1
  Ca  Ca4  1  0.48938607  0.18321199  0.75000000  1
  Ca  Ca5  1  0.48848064  0.51794755  0.75000000  1
  Ca  Ca6  1  0.01151936  0.01794755  0.75000000  1
  Ca  Ca7  1  0.01061393  0.68321199  0.75000000  1
  Y  Y8  1  0.51363599  0.14679951  0.25000000  1
  Y  Y9  1  0.98636401  0.64679951  0.25000000  1
  Y  Y10  1  0.48636401  0.85320049  0.75000000  1
  Y  Y11  1  0.01363599  0.35320049  0.75000000  1
  Mn  Mn12  1  0.50000000  -0.00000000  -0.00000000  1
  Mn  Mn13  1  0.50055911  0.33255190  0.00130011  1
  Mn  Mn14  1  0.49944089  0.66744810  0.99869989  1
  Mn  Mn15  1  0.00055911  0.16744810  0.50130011  1
  Mn  Mn16  1  0.00000000  0.50000000  0.50000000  1
  Mn  Mn17  1  0.99944089  0.83255190  0.49869989  1
  Mn  Mn18  1  0.50055911  0.33255190  0.49869989  1
  Mn  Mn19  1  0.49944089  0.66744810  0.50130011  1
  Mn  Mn20  1  0.50000000  -0.00000000  0.50000000  1
  Mn  Mn21  1  0.00055911  0.16744810  0.99869989  1
  Mn  Mn22  1  -0.00000000  0.50000000  -0.00000000  1
  Mn  Mn23  1  0.99944089  0.83255190  0.00130011  1
  O  O24  1  0.69965060  0.23350851  0.04779376  1
  O  O25  1  0.70819462  0.57080858  0.05055060  1
  O  O26  1  0.69872132  0.90028901  0.03484098  1
  O  O27  1  0.79180538  0.07080858  0.44944940  1
  O  O28  1  0.80127868  0.40028901  0.46515902  1
  O  O29  1  0.80034940  0.73350851  0.45220624  1
  O  O30  1  0.30127868  0.09971099  0.53484098  1
  O  O31  1  0.29180538  0.42919142  0.55055060  1
  O  O32  1  0.30034940  0.76649149  0.54779376  1
  O  O33  1  0.19965060  0.26649149  0.95220624  1
  O  O34  1  0.19872132  0.59971099  0.96515902  1
  O  O35  1  0.20819462  0.92919142  0.94944940  1
  O  O36  1  0.30127868  0.09971099  0.96515902  1
  O  O37  1  0.29180538  0.42919142  0.94944940  1
  O  O38  1  0.30034940  0.76649149  0.95220624  1
  O  O39  1  0.19965060  0.26649149  0.54779376  1
  O  O40  1  0.19872132  0.59971099  0.53484098  1
  O  O41  1  0.20819462  0.92919142  0.55055060  1
  O  O42  1  0.69965060  0.23350851  0.45220624  1
  O  O43  1  0.70819462  0.57080858  0.44944940  1
  O  O44  1  0.69872132  0.90028901  0.46515902  1
  O  O45  1  0.79180538  0.07080858  0.05055060  1
  O  O46  1  0.80127868  0.40028901  0.03484098  1
  O  O47  1  0.80034940  0.73350851  0.04779376  1
  O  O48  1  0.41928022  0.00797197  0.25000000  1
  O  O49  1  0.42039877  0.34114871  0.25000000  1
  O  O50  1  0.40715049  0.67529123  0.25000000  1
  O  O51  1  0.09284951  0.17529123  0.25000000  1
  O  O52  1  0.08071978  0.50797197  0.25000000  1
  O  O53  1  0.07960123  0.84114871  0.25000000  1
  O  O54  1  0.59284951  0.32470877  0.75000000  1
  O  O55  1  0.57960123  0.65885129  0.75000000  1
  O  O56  1  0.58071978  0.99202803  0.75000000  1
  O  O57  1  0.92039877  0.15885129  0.75000000  1
  O  O58  1  0.91928022  0.49202803  0.75000000  1
  O  O59  1  0.90715049  0.82470877  0.75000000  1
