# generated using pymatgen
data_Ba2Tl2CuO6
_symmetry_space_group_name_H-M   'P 1'
_cell_length_a   3.90561122
_cell_length_b   3.90561122
_cell_length_c   12.26301456
_cell_angle_alpha   81.19345978
_cell_angle_beta   80.64415325
_cell_angle_gamma   90.50782060
_symmetry_Int_Tables_number   1
_chemical_formula_structural   Ba2Tl2CuO6
_chemical_formula_sum   'Ba2 Tl2 Cu1 O6'
_cell_volume   182.28406308
_cell_formula_units_Z   1
loop_
 _symmetry_equiv_pos_site_id
 _symmetry_equiv_pos_as_xyz
  1  'x, y, z'
loop_
 _atom_site_type_symbol
 _atom_site_label
 _atom_site_symmetry_multiplicity
 _atom_site_fract_x
 _atom_site_fract_y
 _atom_site_fract_z
 _atom_site_occupancy
  Ba  Ba0  1  0.41701679  0.42110878  0.16187443  1
  Ba  Ba1  1  0.58298321  0.57889122  0.83812557  1
  Tl  Tl2  1  0.77707766  0.81970177  0.40322056  1
  Tl  Tl3  1  0.22292234  0.18029823  0.59677944  1
  Cu  Cu4  1  0.00000000  -0.00000000  -0.00000000  1
  O  O5  1  0.88741545  0.87898759  0.23359695  1
  O  O6  1  0.11258455  0.12101241  0.76640305  1
  O  O7  1  0.00000000  0.50000000  -0.00000000  1
  O  O8  1  0.50000000  -0.00000000  -0.00000000  1
  O  O9  1  0.69015218  0.73223849  0.57760933  1
  O  O10  1  0.30984782  0.26776151  0.42239067  1
