# generated using pymatgen
data_BaLaPrMn3O9
_symmetry_space_group_name_H-M   'P 1'
_cell_length_a   5.63538005
_cell_length_b   13.56515527
_cell_length_c   5.63537994
_cell_angle_alpha   90.00000000
_cell_angle_beta   59.99999441
_cell_angle_gamma   90.00000000
_symmetry_Int_Tables_number   1
_chemical_formula_structural   BaLaPrMn3O9
_chemical_formula_sum   'Ba2 La2 Pr2 Mn6 O18'
_cell_volume   373.07984529
_cell_formula_units_Z   2
loop_
 _symmetry_equiv_pos_site_id
 _symmetry_equiv_pos_as_xyz
  1  'x, y, z'
loop_
 _atom_site_type_symbol
 _atom_site_label
 _atom_site_symmetry_multiplicity
 _atom_site_fract_x
 _atom_site_fract_y
 _atom_site_fract_z
 _atom_site_occupancy
  Ba  Ba0  1  0.00000000  0.25000000  -0.00000000  1
  Ba  Ba1  1  0.00000000  0.75000000  -0.00000000  1
  La  La2  1  0.66666700  0.08189007  0.66666700  1
  La  La3  1  0.33333300  0.41810993  0.33333300  1
  Pr  Pr4  1  0.66666700  0.58217375  0.66666700  1
  Pr  Pr5  1  0.33333300  0.91782625  0.33333300  1
  Mn  Mn6  1  0.66666700  0.83324703  0.66666700  1
  Mn  Mn7  1  0.00000000  0.50030114  -0.00000000  1
  Mn  Mn8  1  0.33333300  0.16656698  0.33333300  1
  Mn  Mn9  1  0.66666700  0.33343302  0.66666700  1
  Mn  Mn10  1  0.00000000  -0.00030114  -0.00000000  1
  Mn  Mn11  1  0.33333300  0.66675297  0.33333300  1
  O  O12  1  0.65772209  0.57685961  0.23405922  1
  O  O13  1  0.34227791  0.92314039  0.89178031  1
  O  O14  1  0.00000000  0.25000000  0.52257759  1
  O  O15  1  0.10821969  0.57685961  0.65772209  1
  O  O16  1  0.76594078  0.92314039  0.34227791  1
  O  O17  1  0.47742241  0.25000000  1.00000000  1
  O  O18  1  0.23405922  0.57685961  0.10821969  1
  O  O19  1  0.89178031  0.92314039  0.76594078  1
  O  O20  1  0.52257759  0.25000000  0.47742241  1
  O  O21  1  0.88735287  0.42410288  0.34303148  1
  O  O22  1  0.52371161  0.75000000  0.00000000  1
  O  O23  1  0.23038535  0.07589712  0.65696852  1
  O  O24  1  0.76961465  0.42410288  0.88735287  1
  O  O25  1  0.47628839  0.75000000  0.52371161  1
  O  O26  1  0.11264713  0.07589712  0.23038535  1
  O  O27  1  0.34303148  0.42410288  0.76961465  1
  O  O28  1  1.00000000  0.75000000  0.47628839  1
  O  O29  1  0.65696852  0.07589712  0.11264713  1
