# generated using pymatgen
data_Ca19Mg(AsO4)14
_symmetry_space_group_name_H-M   'P 1'
_cell_length_a   10.89974738
_cell_length_b   10.89974749
_cell_length_c   14.20154735
_cell_angle_alpha   89.99999997
_cell_angle_beta   67.43370756
_cell_angle_gamma   119.99999754
_symmetry_Int_Tables_number   1
_chemical_formula_structural   Ca19Mg(AsO4)14
_chemical_formula_sum   'Ca19 Mg1 As14 O56'
_cell_volume   1309.87998079
_cell_formula_units_Z   1
loop_
 _symmetry_equiv_pos_site_id
 _symmetry_equiv_pos_as_xyz
  1  'x, y, z'
loop_
 _atom_site_type_symbol
 _atom_site_label
 _atom_site_symmetry_multiplicity
 _atom_site_fract_x
 _atom_site_fract_y
 _atom_site_fract_z
 _atom_site_occupancy
  Ca  Ca0  1  0.23452998  0.40696806  0.93168133  1
  Ca  Ca1  1  0.24075674  0.83378868  0.93168133  1
  Ca  Ca2  1  0.66135061  0.82756193  0.93168133  1
  Ca  Ca3  1  0.66010460  0.33241086  0.43547554  1
  Ca  Ca4  1  0.23683072  0.90441987  0.43547554  1
  Ca  Ca5  1  0.23211361  0.32769374  0.43547554  1
  Ca  Ca6  1  0.80092163  0.09940474  0.53771524  1
  Ca  Ca7  1  0.76076787  0.66136313  0.53771524  1
  Ca  Ca8  1  0.36288002  0.70151689  0.53771524  1
  Ca  Ca9  1  0.36322513  0.16188268  0.03507431  1
  Ca  Ca10  1  0.76358324  0.60170056  0.03507431  1
  Ca  Ca11  1  0.80304301  0.20134245  0.03507431  1
  Ca  Ca12  1  0.00224034  0.28948417  0.25571320  1
  Ca  Ca13  1  0.03153063  0.74204645  0.25571320  1
  Ca  Ca14  1  0.45480263  0.71275617  0.25571320  1
  Ca  Ca15  1  0.45405590  0.24076622  0.75614265  1
  Ca  Ca16  1  0.03056766  0.78980145  0.75614265  1
  Ca  Ca17  1  0.00309113  0.21328968  0.75614265  1
  Ca  Ca18  1  0.51077341  0.25538670  0.23383989  1
  Mg  Mg19  1  0.51038515  0.75519258  0.73442227  1
  As  As20  1  0.64031642  0.07454842  0.82628587  1
  As  As21  1  0.60794613  0.53339771  0.82628587  1
  As  As22  1  0.09916571  0.56576800  0.82628587  1
  As  As23  1  0.09126507  0.02937065  0.33027709  1
  As  As24  1  0.60782849  0.57845784  0.33027709  1
  As  As25  1  0.64035226  0.06189442  0.33027709  1
  As  As26  1  0.42182767  0.93210209  0.13338350  1
  As  As27  1  0.37689092  0.44478883  0.13338350  1
  As  As28  1  0.93451441  0.48972558  0.13338350  1
  As  As29  1  0.92564939  0.94168761  0.63793477  1
  As  As30  1  0.37810344  0.43641583  0.63793477  1
  As  As31  1  0.42037761  0.98396178  0.63793477  1
  As  As32  1  0.99780916  0.49890458  0.50328627  1
  As  As33  1  0.99831514  0.99915757  0.00252729  1
  O  O34  1  0.88622027  0.53156018  0.46024046  1
  O  O35  1  0.18509945  0.65353927  0.46024046  1
  O  O36  1  0.00819935  0.35466009  0.46024046  1
  O  O37  1  0.00802080  0.15284299  0.95897603  1
  O  O38  1  0.18584616  0.03300317  0.95897603  1
  O  O39  1  0.88818099  0.85517782  0.95897603  1
  O  O40  1  0.56360218  0.89115800  0.10113267  1
  O  O41  1  0.22642314  0.33526515  0.10113267  1
  O  O42  1  0.00770933  0.67244418  0.10113267  1
  O  O43  1  0.00234968  0.83480762  0.60220144  1
  O  O44  1  0.23025651  0.39544888  0.60220144  1
  O  O45  1  0.56299094  0.16754206  0.60220144  1
  O  O46  1  0.51964321  0.88807787  0.84272162  1
  O  O47  1  0.52571304  0.63763517  0.84272162  1
  O  O48  1  0.26920051  0.63156534  0.84272162  1
  O  O49  1  0.25255467  0.13044536  0.35598189  1
  O  O50  1  0.52190880  0.39146344  0.35598189  1
  O  O51  1  0.51357275  0.12210931  0.35598189  1
  O  O52  1  0.31036215  0.88618949  0.06679063  1
  O  O53  1  0.50903672  0.62284722  0.06679063  1
  O  O54  1  0.04701988  0.42417265  0.06679063  1
  O  O55  1  0.03693234  0.11862352  0.56859216  1
  O  O56  1  0.51309901  0.39447549  0.56859216  1
  O  O57  1  0.31278432  0.91830883  0.56859216  1
  O  O58  1  0.52250793  0.14294805  0.86498971  1
  O  O59  1  0.75545041  0.61250237  0.86498971  1
  O  O60  1  0.99206225  0.37955988  0.86498971  1
  O  O61  1  0.98350030  0.10756098  0.36562436  1
  O  O62  1  0.75843632  0.65087534  0.36562436  1
  O  O63  1  0.52681466  0.87593932  0.36562436  1
  O  O64  1  0.52105220  0.12007459  0.11047459  1
  O  O65  1  0.48854780  0.36847321  0.11047459  1
  O  O66  1  0.76945082  0.40097761  0.11047459  1
  O  O67  1  0.75280718  0.86115218  0.62359136  1
  O  O68  1  0.48475364  0.62360147  0.62359136  1
  O  O69  1  0.51525647  0.89165500  0.62359136  1
  O  O70  1  0.73842101  0.08762243  0.90078835  1
  O  O71  1  0.44841308  0.36079064  0.90078835  1
  O  O72  1  0.01158922  0.65079858  0.90078835  1
  O  O73  1  0.00465339  0.85565721  0.40243105  1
  O  O74  1  0.44857277  0.59291556  0.40243105  1
  O  O75  1  0.74191174  0.14899618  0.40243105  1
  O  O76  1  0.79014379  0.15445132  0.70128586  1
  O  O77  1  0.66302167  0.50857034  0.70128586  1
  O  O78  1  0.14426282  0.63569247  0.70128586  1
  O  O79  1  0.14876426  0.01158606  0.20329037  1
  O  O80  1  0.65953142  0.64794536  0.20329037  1
  O  O81  1  0.78512357  0.13717820  0.20329037  1
  O  O82  1  0.90641266  0.45320633  0.64038100  1
  O  O83  1  0.90703931  0.95351965  0.13944104  1
  O  O84  1  0.29004064  0.83534114  0.26283293  1
  O  O85  1  0.28246757  0.44712643  0.26283293  1
  O  O86  1  0.90182593  0.45469950  0.26283293  1
  O  O87  1  0.90388313  0.94856444  0.76473843  1
  O  O88  1  0.27994288  0.33137844  0.76473843  1
  O  O89  1  0.28669714  0.95531870  0.76473843  1
