# generated using pymatgen
data_Ba2Sr(ZrSe3)3
_symmetry_space_group_name_H-M   'P 1'
_cell_length_a   4.05466844
_cell_length_b   27.35231664
_cell_length_c   15.01896527
_cell_angle_alpha   90.05587602
_cell_angle_beta   90.00000000
_cell_angle_gamma   90.00000000
_symmetry_Int_Tables_number   1
_chemical_formula_structural   Ba2Sr(ZrSe3)3
_chemical_formula_sum   'Ba8 Sr4 Zr12 Se36'
_cell_volume   1665.67116825
_cell_formula_units_Z   4
loop_
 _symmetry_equiv_pos_site_id
 _symmetry_equiv_pos_as_xyz
  1  'x, y, z'
loop_
 _atom_site_type_symbol
 _atom_site_label
 _atom_site_symmetry_multiplicity
 _atom_site_fract_x
 _atom_site_fract_y
 _atom_site_fract_z
 _atom_site_occupancy
  Ba  Ba0  1  0.75000000  0.52249299  0.32371946  1
  Ba  Ba1  1  0.75000000  0.85587206  0.32367254  1
  Ba  Ba2  1  0.25000000  0.31073863  0.82618182  1
  Ba  Ba3  1  0.25000000  0.64410170  0.82622293  1
  Ba  Ba4  1  0.25000000  0.97755221  0.82621529  1
  Ba  Ba5  1  0.25000000  0.14417747  0.67408655  1
  Ba  Ba6  1  0.25000000  0.47756298  0.67447328  1
  Ba  Ba7  1  0.25000000  0.81087114  0.67464824  1
  Sr  Sr8  1  0.75000000  0.02171731  0.17629599  1
  Sr  Sr9  1  0.75000000  0.35377995  0.17706326  1
  Sr  Sr10  1  0.75000000  0.68771449  0.17601891  1
  Sr  Sr11  1  0.75000000  0.18788240  0.32258422  1
  Zr  Zr12  1  0.75000000  0.11134211  0.94359905  1
  Zr  Zr13  1  0.75000000  0.44443474  0.94300694  1
  Zr  Zr14  1  0.75000000  0.77774961  0.94297333  1
  Zr  Zr15  1  0.75000000  0.27793895  0.55635730  1
  Zr  Zr16  1  0.75000000  0.61225055  0.55882989  1
  Zr  Zr17  1  0.75000000  0.94569184  0.55880437  1
  Zr  Zr18  1  0.25000000  0.22182064  0.06158737  1
  Zr  Zr19  1  0.25000000  0.55549980  0.05974111  1
  Zr  Zr20  1  0.25000000  0.88884924  0.05965943  1
  Zr  Zr21  1  0.25000000  0.05530281  0.43825034  1
  Zr  Zr22  1  0.25000000  0.38749472  0.43886080  1
  Zr  Zr23  1  0.25000000  0.72095735  0.43871921  1
  Se  Se24  1  0.75000000  0.15885400  0.10835881  1
  Se  Se25  1  0.75000000  0.49228096  0.10691155  1
  Se  Se26  1  0.75000000  0.82559728  0.10696891  1
  Se  Se27  1  0.75000000  0.32496696  0.39221275  1
  Se  Se28  1  0.75000000  0.65803711  0.39241772  1
  Se  Se29  1  0.75000000  0.99186085  0.39188269  1
  Se  Se30  1  0.25000000  0.17477660  0.89537702  1
  Se  Se31  1  0.25000000  0.50805568  0.89475272  1
  Se  Se32  1  0.25000000  0.84144127  0.89473592  1
  Se  Se33  1  0.25000000  0.00888970  0.60534176  1
  Se  Se34  1  0.25000000  0.34120321  0.60493268  1
  Se  Se35  1  0.25000000  0.67533235  0.60564789  1
  Se  Se36  1  0.75000000  0.07088962  0.78690936  1
  Se  Se37  1  0.75000000  0.40409279  0.78649989  1
  Se  Se38  1  0.75000000  0.73748192  0.78645784  1
  Se  Se39  1  0.75000000  0.23750466  0.71313264  1
  Se  Se40  1  0.75000000  0.57086742  0.71433688  1
  Se  Se41  1  0.75000000  0.90421195  0.71416867  1
  Se  Se42  1  0.25000000  0.26291879  0.21840836  1
  Se  Se43  1  0.25000000  0.60023234  0.21301112  1
  Se  Se44  1  0.25000000  0.93377344  0.21292637  1
  Se  Se45  1  0.25000000  0.09649438  0.28192842  1
  Se  Se46  1  0.25000000  0.42540658  0.27972208  1
  Se  Se47  1  0.25000000  0.75887281  0.28003143  1
  Se  Se48  1  0.75000000  0.11192944  0.50283740  1
  Se  Se49  1  0.75000000  0.44423248  0.50460319  1
  Se  Se50  1  0.75000000  0.77751308  0.50443828  1
  Se  Se51  1  0.75000000  0.27865798  0.99699417  1
  Se  Se52  1  0.75000000  0.61205626  0.99582733  1
  Se  Se53  1  0.75000000  0.94538653  0.99589684  1
  Se  Se54  1  0.25000000  0.22171232  0.48794831  1
  Se  Se55  1  0.25000000  0.55569337  0.49385340  1
  Se  Se56  1  0.25000000  0.88907099  0.49382315  1
  Se  Se57  1  0.25000000  0.05526732  0.01181873  1
  Se  Se58  1  0.25000000  0.38861732  0.01176032  1
  Se  Se59  1  0.25000000  0.72202455  0.01155376  1
