# generated using pymatgen
data_Mg5Ge
_symmetry_space_group_name_H-M   'P 1'
_cell_length_a   3.17126270
_cell_length_b   8.10246897
_cell_length_c   5.12301436
_cell_angle_alpha   90.00000000
_cell_angle_beta   90.00000000
_cell_angle_gamma   78.71453518
_symmetry_Int_Tables_number   1
_chemical_formula_structural   Mg5Ge
_chemical_formula_sum   'Mg5 Ge1'
_cell_volume   129.09087679
_cell_formula_units_Z   1
loop_
 _symmetry_equiv_pos_site_id
 _symmetry_equiv_pos_as_xyz
  1  'x, y, z'
loop_
 _atom_site_type_symbol
 _atom_site_label
 _atom_site_symmetry_multiplicity
 _atom_site_fract_x
 _atom_site_fract_y
 _atom_site_fract_z
 _atom_site_occupancy
  Mg  Mg0  1  0.32889316  0.34221768  0.00000000  1
  Mg  Mg1  1  0.66805110  0.66389780  0.00000000  1
  Mg  Mg2  1  0.00063083  0.99873534  -0.00000000  1
  Mg  Mg3  1  0.43968281  0.12063838  0.50000000  1
  Mg  Mg4  1  0.11897500  0.76205199  0.50000000  1
  Ge  Ge5  1  0.77710310  0.44579481  0.50000000  1
