# generated using pymatgen
data_Al8Zn3CdS16
_symmetry_space_group_name_H-M   'P 1'
_cell_length_a   7.18635365
_cell_length_b   7.18635365
_cell_length_c   12.43778679
_cell_angle_alpha   73.20836537
_cell_angle_beta   90.00000000
_cell_angle_gamma   119.99999997
_symmetry_Int_Tables_number   1
_chemical_formula_structural   Al8Zn3CdS16
_chemical_formula_sum   'Al8 Zn3 Cd1 S16'
_cell_volume   524.41347619
_cell_formula_units_Z   1
loop_
 _symmetry_equiv_pos_site_id
 _symmetry_equiv_pos_as_xyz
  1  'x, y, z'
loop_
 _atom_site_type_symbol
 _atom_site_label
 _atom_site_symmetry_multiplicity
 _atom_site_fract_x
 _atom_site_fract_y
 _atom_site_fract_z
 _atom_site_occupancy
  Al  Al0  1  0.24986101  0.99972202  0.25041697  1
  Al  Al1  1  0.75011279  0.00022558  0.74966163  1
  Al  Al2  1  0.50020872  0.50041744  0.99848345  1
  Al  Al3  1  0.99988643  0.49977285  0.50150019  1
  Al  Al4  1  0.50020872  0.00130783  0.99848345  1
  Al  Al5  1  0.99988643  0.99861338  0.50150019  1
  Al  Al6  1  0.00109911  0.00130783  0.99848345  1
  Al  Al7  1  0.49872696  0.99861338  0.50150019  1
  Zn  Zn8  1  0.43733340  0.37466680  0.68799980  1
  Zn  Zn9  1  0.56249838  0.62499676  0.31250485  1
  Zn  Zn10  1  0.06250641  0.62501282  0.81248077  1
  Cd  Cd11  1  0.93757212  0.37514424  0.18728364  1
  S  S12  1  0.86697086  0.23394171  0.39908743  1
  S  S13  1  0.37080211  0.24160421  0.88759368  1
  S  S14  1  0.14741152  0.79482305  0.11692834  1
  S  S15  1  0.63915122  0.77830243  0.62073854  1
  S  S16  1  0.14741152  0.23566013  0.11692834  1
  S  S17  1  0.63915122  0.24011025  0.62073854  1
  S  S18  1  0.58824861  0.23566013  0.11692834  1
  S  S19  1  0.10095903  0.24011025  0.62073854  1
  S  S20  1  0.62998051  0.75996102  0.11005847  1
  S  S21  1  0.12998224  0.75996449  0.61005327  1
  S  S22  1  0.36004049  0.22008099  0.37984708  1
  S  S23  1  0.86005965  0.22011931  0.88012223  1
  S  S24  1  0.36004049  0.76011243  0.37984708  1
  S  S25  1  0.86005965  0.75981811  0.88012223  1
  S  S26  1  0.90007194  0.76011243  0.37984708  1
  S  S27  1  0.39975846  0.75981811  0.88012223  1
