# generated using pymatgen
data_CsU(PO4)2
_symmetry_space_group_name_H-M   'P 1'
_cell_length_a   5.64429641
_cell_length_b   8.38472506
_cell_length_c   9.71417923
_cell_angle_alpha   119.87263262
_cell_angle_beta   90.00000000
_cell_angle_gamma   90.00000000
_symmetry_Int_Tables_number   1
_chemical_formula_structural   CsU(PO4)2
_chemical_formula_sum   'Cs2 U2 P4 O16'
_cell_volume   398.64960994
_cell_formula_units_Z   2
loop_
 _symmetry_equiv_pos_site_id
 _symmetry_equiv_pos_as_xyz
  1  'x, y, z'
loop_
 _atom_site_type_symbol
 _atom_site_label
 _atom_site_symmetry_multiplicity
 _atom_site_fract_x
 _atom_site_fract_y
 _atom_site_fract_z
 _atom_site_occupancy
  Cs  Cs0  1  0.75000000  0.25382570  0.25100225  1
  Cs  Cs1  1  0.25000000  0.74617430  0.74899775  1
  U  U2  1  0.75000000  0.23956128  0.72241532  1
  U  U3  1  0.25000000  0.76043872  0.27758468  1
  P  P4  1  0.75000000  0.82653505  0.48380439  1
  P  P5  1  0.25000000  0.17346495  0.51619561  1
  P  P6  1  0.25000000  0.26865541  0.98276377  1
  P  P7  1  0.75000000  0.73134459  0.01723623  1
  O  O8  1  0.75000000  0.98393592  0.44467104  1
  O  O9  1  0.25000000  0.01606408  0.55532896  1
  O  O10  1  0.75000000  0.92599982  0.66701959  1
  O  O11  1  0.25000000  0.07400018  0.33298041  1
  O  O12  1  0.25000000  0.12160058  0.02615304  1
  O  O13  1  0.75000000  0.87839942  0.97384696  1
  O  O14  1  0.52883227  0.69870114  0.40966013  1
  O  O15  1  0.02883227  0.30129886  0.59033987  1
  O  O16  1  0.47116773  0.30129886  0.59033987  1
  O  O17  1  0.97116773  0.69870114  0.40966013  1
  O  O18  1  0.47414862  0.26238576  0.88328351  1
  O  O19  1  0.97414862  0.73761424  0.11671649  1
  O  O20  1  0.52585138  0.73761424  0.11671649  1
  O  O21  1  0.02585138  0.26238576  0.88328351  1
  O  O22  1  0.25000000  0.46521926  0.13535057  1
  O  O23  1  0.75000000  0.53478074  0.86464943  1
