# generated using pymatgen
data_Ca19Co2(PO4)14
_symmetry_space_group_name_H-M   'P 1'
_cell_length_a   10.45164583
_cell_length_b   10.45164624
_cell_length_c   13.86941188
_cell_angle_alpha   90.00000000
_cell_angle_beta   67.86515655
_cell_angle_gamma   119.99999872
_symmetry_Int_Tables_number   1
_chemical_formula_structural   Ca19Co2(PO4)14
_chemical_formula_sum   'Ca19 Co2 P14 O56'
_cell_volume   1181.38193305
_cell_formula_units_Z   1
loop_
 _symmetry_equiv_pos_site_id
 _symmetry_equiv_pos_as_xyz
  1  'x, y, z'
loop_
 _atom_site_type_symbol
 _atom_site_label
 _atom_site_symmetry_multiplicity
 _atom_site_fract_x
 _atom_site_fract_y
 _atom_site_fract_z
 _atom_site_occupancy
  Ca  Ca0  1  0.05987144  0.04325841  0.48817424  1
  Ca  Ca1  1  0.49521273  0.45195432  0.48817424  1
  Ca  Ca2  1  0.46856735  0.01661303  0.48817424  1
  Ca  Ca3  1  0.46664071  0.93173885  0.97894965  1
  Ca  Ca4  1  0.48614850  0.55440965  0.97894965  1
  Ca  Ca5  1  0.08931150  0.53490185  0.97894965  1
  Ca  Ca6  1  0.70839494  0.65390976  0.20396358  1
  Ca  Ca7  1  0.74155123  0.08764148  0.20396358  1
  Ca  Ca8  1  0.14212666  0.05448519  0.20396358  1
  Ca  Ca9  1  0.15890707  0.59382805  0.69548128  1
  Ca  Ca10  1  0.73943970  0.14561166  0.69548128  1
  Ca  Ca11  1  0.71069068  0.56507902  0.69548128  1
  Ca  Ca12  1  0.27246336  0.33828369  0.80493480  1
  Ca  Ca13  1  0.26088554  0.92260185  0.80493480  1
  Ca  Ca14  1  0.85678151  0.93417967  0.80493480  1
  Ca  Ca15  1  0.85751443  0.42124437  0.30643720  1
  Ca  Ca16  1  0.25729273  0.83604836  0.30643720  1
  Ca  Ca17  1  0.27231843  0.43627006  0.30643720  1
  Ca  Ca18  1  0.61880481  0.30940241  0.07179278  1
  Co  Co19  1  0.99380959  0.49690479  0.50928562  1
  Co  Co20  1  0.99284287  0.99642144  0.01073569  1
  P  P21  1  0.86152120  0.67225596  0.91064880  1
  P  P22  1  0.90008597  0.22783001  0.91064880  1
  P  P23  1  0.41709524  0.18926523  0.91064880  1
  P  P24  1  0.41093795  0.72456932  0.41074414  1
  P  P25  1  0.90288723  0.17831792  0.41074414  1
  P  P26  1  0.86468654  0.68636863  0.41074414  1
  P  P27  1  0.46553590  0.23276795  0.30169615  1
  P  P28  1  0.46514801  0.73257401  0.80227798  1
  P  P29  1  0.08577819  0.81117552  0.60024261  1
  P  P30  1  0.12515472  0.31397919  0.60024261  1
  P  P31  1  0.58858187  0.27460267  0.60024261  1
  P  P32  1  0.58849336  0.81518213  0.10051269  1
  P  P33  1  0.12617608  0.31099395  0.10051269  1
  P  P34  1  0.08430519  0.77331124  0.10051269  1
  O  O35  1  0.72626383  0.57328255  0.02650210  1
  O  O36  1  0.82051661  0.24723407  0.02650210  1
  O  O37  1  0.40021535  0.15298128  0.02650210  1
  O  O38  1  0.37906863  0.73960669  0.52631217  1
  O  O39  1  0.83422589  0.09461920  0.52631217  1
  O  O40  1  0.73408114  0.63946194  0.52631217  1
  O  O41  1  0.96680910  0.84691779  0.90535807  1
  O  O42  1  0.97475062  0.12783282  0.90535807  1
  O  O43  1  0.24772414  0.11989131  0.90535807  1
  O  O44  1  0.24551951  0.62702291  0.39882230  1
  O  O45  1  0.98268111  0.35565819  0.39882230  1
  O  O46  1  0.97415479  0.61849660  0.39882230  1
  O  O47  1  0.19673890  0.86763060  0.65930106  1
  O  O48  1  0.01159063  0.14396003  0.65930106  1
  O  O49  1  0.47306834  0.32910831  0.65930106  1
  O  O50  1  0.47316191  0.64493713  0.15778249  1
  O  O51  1  0.01399273  0.36905560  0.15778249  1
  O  O52  1  0.19728038  0.82822478  0.15778249  1
  O  O53  1  0.99631734  0.63409745  0.62136130  1
  O  O54  1  0.01641881  0.38232136  0.62136130  1
  O  O55  1  0.74454125  0.36221989  0.62136130  1
  O  O56  1  0.74296500  0.88201637  0.12329803  1
  O  O57  1  0.01575334  0.13373697  0.12329803  1
  O  O58  1  0.99468560  0.86094863  0.12329803  1
  O  O59  1  0.38424407  0.19212204  0.42363389  1
  O  O60  1  0.38135387  0.69067694  0.92796919  1
  O  O61  1  0.63617993  0.24875374  0.25344696  1
  O  O62  1  0.35912685  0.11037311  0.25344696  1
  O  O63  1  0.49779930  0.38742619  0.25344696  1
  O  O64  1  0.49067592  0.60309046  0.76664927  1
  O  O65  1  0.34576526  0.74267481  0.76664927  1
  O  O66  1  0.63026027  0.88758546  0.76664927  1
  O  O67  1  0.95252301  0.85065585  0.63959072  1
  O  O68  1  0.25854212  0.40788627  0.63959072  1
  O  O69  1  0.50975342  0.10186716  0.63959072  1
  O  O70  1  0.51104497  0.91067319  0.13659367  1
  O  O71  1  0.26303455  0.35236136  0.13659367  1
  O  O72  1  0.95273313  0.60037178  0.13659367  1
  O  O73  1  0.76608127  0.66080797  0.84437424  1
  O  O74  1  0.05035247  0.38954450  0.84437424  1
  O  O75  1  0.49481779  0.10527329  0.84437424  1
  O  O76  1  0.49557058  0.88818627  0.34246127  1
  O  O77  1  0.05015442  0.16196815  0.34246127  1
  O  O78  1  0.76935245  0.60738430  0.34246127  1
  O  O79  1  0.97854255  0.61558634  0.86861648  1
  O  O80  1  0.76842732  0.15284097  0.86861648  1
  O  O81  1  0.51579718  0.36295621  0.86861648  1
  O  O82  1  0.50864723  0.64814556  0.36744561  1
  O  O83  1  0.77205273  0.12390717  0.36744561  1
  O  O84  1  0.98440883  0.86050166  0.36744561  1
  O  O85  1  0.19523311  0.88771794  0.47975414  1
  O  O86  1  0.21273069  0.32501275  0.47975414  1
  O  O87  1  0.63252792  0.30751517  0.47975414  1
  O  O88  1  0.63594471  0.82640933  0.97931069  1
  O  O89  1  0.21115394  0.38474460  0.97931069  1
  O  O90  1  0.19427998  0.80953537  0.97931069  1
