# generated using pymatgen
data_Ba2CuAg3(SnS4)2
_symmetry_space_group_name_H-M   'P 1'
_cell_length_a   6.49502843
_cell_length_b   10.78688771
_cell_length_c   6.51544996
_cell_angle_alpha   79.89862704
_cell_angle_beta   68.02750653
_cell_angle_gamma   79.66224835
_symmetry_Int_Tables_number   1
_chemical_formula_structural   Ba2CuAg3(SnS4)2
_chemical_formula_sum   'Ba2 Cu1 Ag3 Sn2 S8'
_cell_volume   413.50919013
_cell_formula_units_Z   1
loop_
 _symmetry_equiv_pos_site_id
 _symmetry_equiv_pos_as_xyz
  1  'x, y, z'
loop_
 _atom_site_type_symbol
 _atom_site_label
 _atom_site_symmetry_multiplicity
 _atom_site_fract_x
 _atom_site_fract_y
 _atom_site_fract_z
 _atom_site_occupancy
  Ba  Ba0  1  0.00115979  0.99926119  0.00106698  1
  Ba  Ba1  1  0.49980701  0.50149646  0.49958619  1
  Cu  Cu2  1  0.09696660  0.59740150  0.09835428  1
  Ag  Ag3  1  0.40253062  0.90033392  0.40576799  1
  Ag  Ag4  1  0.90204074  0.40474491  0.89928728  1
  Ag  Ag5  1  0.59903847  0.09851956  0.59822133  1
  Sn  Sn6  1  0.24596368  0.25380276  0.24843040  1
  Sn  Sn7  1  0.75415172  0.74611520  0.75146200  1
  S  S8  1  0.24061551  0.23352652  0.62802745  1
  S  S9  1  0.77545041  0.72176371  0.12404078  1
  S  S10  1  0.46097807  0.06495540  0.07568379  1
  S  S11  1  0.96123695  0.56342788  0.56232367  1
  S  S12  1  0.37042995  0.76335642  0.76530898  1
  S  S13  1  0.86593530  0.26700522  0.25496972  1
  S  S14  1  0.92762221  0.93396164  0.54163082  1
  S  S15  1  0.39607297  0.45032771  0.04583833  1
