# generated using pymatgen
data_Ba2Sr3CaMg2(SiO4)4
_symmetry_space_group_name_H-M   'P 1'
_cell_length_a   5.54550490
_cell_length_b   5.54550971
_cell_length_c   14.08362524
_cell_angle_alpha   90.00133399
_cell_angle_beta   90.00100773
_cell_angle_gamma   60.00018907
_symmetry_Int_Tables_number   1
_chemical_formula_structural   Ba2Sr3CaMg2(SiO4)4
_chemical_formula_sum   'Ba2 Sr3 Ca1 Mg2 Si4 O16'
_cell_volume   375.08395148
_cell_formula_units_Z   1
loop_
 _symmetry_equiv_pos_site_id
 _symmetry_equiv_pos_as_xyz
  1  'x, y, z'
loop_
 _atom_site_type_symbol
 _atom_site_label
 _atom_site_symmetry_multiplicity
 _atom_site_fract_x
 _atom_site_fract_y
 _atom_site_fract_z
 _atom_site_occupancy
  Ba  Ba0  1  0.99999983  0.99999753  0.25117699  1
  Ba  Ba1  1  0.00000068  0.00000122  0.74930932  1
  Sr  Sr2  1  0.66667307  0.66667664  0.91878294  1
  Sr  Sr3  1  0.33332446  0.33332704  0.08151651  1
  Sr  Sr4  1  0.33332688  0.33332626  0.58031218  1
  Ca  Ca5  1  0.66669185  0.66669677  0.41586856  1
  Mg  Mg6  1  0.99999911  0.00000087  0.00058355  1
  Mg  Mg7  1  0.00000065  0.00000153  0.49917450  1
  Si  Si8  1  0.66667420  0.66667300  0.13769818  1
  Si  Si9  1  0.66667517  0.66666938  0.63351978  1
  Si  Si10  1  0.33332679  0.33332645  0.36456993  1
  Si  Si11  1  0.33332884  0.33332734  0.86501237  1
  O  O12  1  0.66667827  0.66668135  0.25362382  1
  O  O13  1  0.66668513  0.66668406  0.74837839  1
  O  O14  1  0.33331600  0.33331734  0.25008116  1
  O  O15  1  0.33331643  0.33331768  0.75017617  1
  O  O16  1  0.82469036  0.82468917  0.09013091  1
  O  O17  1  0.82493111  0.82493716  0.58676398  1
  O  O18  1  0.35062703  0.82468734  0.09013517  1
  O  O19  1  0.35012987  0.82494005  0.58677083  1
  O  O20  1  0.82469931  0.35061752  0.09013494  1
  O  O21  1  0.82493920  0.35012788  0.58677199  1
  O  O22  1  0.17490280  0.17490113  0.41136314  1
  O  O23  1  0.17488904  0.17488972  0.91181125  1
  O  O24  1  0.65018764  0.17488732  0.41136017  1
  O  O25  1  0.65021316  0.17489164  0.91180581  1
  O  O26  1  0.17488685  0.65019197  0.41136030  1
  O  O27  1  0.17488627  0.65021461  0.91180717  1
