# generated using pymatgen
data_AlSi9Ni16
_symmetry_space_group_name_H-M   'P 1'
_cell_length_a   7.08038888
_cell_length_b   7.08038888
_cell_length_c   12.07763306
_cell_angle_alpha   90.00000000
_cell_angle_beta   90.00000000
_cell_angle_gamma   105.68543380
_symmetry_Int_Tables_number   1
_chemical_formula_structural   AlSi9Ni16
_chemical_formula_sum   'Al2 Si18 Ni32'
_cell_volume   582.92720218
_cell_formula_units_Z   2
loop_
 _symmetry_equiv_pos_site_id
 _symmetry_equiv_pos_as_xyz
  1  'x, y, z'
loop_
 _atom_site_type_symbol
 _atom_site_label
 _atom_site_symmetry_multiplicity
 _atom_site_fract_x
 _atom_site_fract_y
 _atom_site_fract_z
 _atom_site_occupancy
  Al  Al0  1  0.28328934  0.64966024  0.25000000  1
  Al  Al1  1  0.35033976  0.71671066  0.75000000  1
  Si  Si2  1  0.41166738  0.41414458  0.40640680  1
  Si  Si3  1  0.58585542  0.58833262  0.59359320  1
  Si  Si4  1  0.41166738  0.41414458  0.09359320  1
  Si  Si5  1  0.58585542  0.58833262  0.90640680  1
  Si  Si6  1  0.15816286  0.15768017  0.85732807  1
  Si  Si7  1  0.84231983  0.84183714  0.14267193  1
  Si  Si8  1  0.15816286  0.15768017  0.64267193  1
  Si  Si9  1  0.84231983  0.84183714  0.35732807  1
  Si  Si10  1  0.00644949  0.38282639  0.39890324  1
  Si  Si11  1  0.61717361  0.99355051  0.60109676  1
  Si  Si12  1  0.00644949  0.38282639  0.10109676  1
  Si  Si13  1  0.61717361  0.99355051  0.89890324  1
  Si  Si14  1  0.99688857  0.62148547  0.60581156  1
  Si  Si15  1  0.37851453  0.00311143  0.39418844  1
  Si  Si16  1  0.99688857  0.62148547  0.89418844  1
  Si  Si17  1  0.37851453  0.00311143  0.10581156  1
  Si  Si18  1  0.71853989  0.33618863  0.75000000  1
  Si  Si19  1  0.66381137  0.28146011  0.25000000  1
  Ni  Ni20  1  0.10397186  0.71702002  0.42431799  1
  Ni  Ni21  1  0.28297998  0.89602814  0.57568201  1
  Ni  Ni22  1  0.10397186  0.71702002  0.07568201  1
  Ni  Ni23  1  0.28297998  0.89602814  0.92431799  1
  Ni  Ni24  1  0.89054832  0.28172875  0.57825424  1
  Ni  Ni25  1  0.71827125  0.10945168  0.42174576  1
  Ni  Ni26  1  0.89054832  0.28172875  0.92174576  1
  Ni  Ni27  1  0.71827125  0.10945168  0.07825424  1
  Ni  Ni28  1  0.12651381  0.12650965  0.44070327  1
  Ni  Ni29  1  0.87349035  0.87348619  0.55929673  1
  Ni  Ni30  1  0.12651381  0.12650965  0.05929673  1
  Ni  Ni31  1  0.87349035  0.87348619  0.94070327  1
  Ni  Ni32  1  0.58506232  0.57403484  0.25000000  1
  Ni  Ni33  1  0.42596516  0.41493768  0.75000000  1
  Ni  Ni34  1  0.74833205  0.51629755  0.44228846  1
  Ni  Ni35  1  0.48370245  0.25166795  0.55771154  1
  Ni  Ni36  1  0.74833205  0.51629755  0.05771154  1
  Ni  Ni37  1  0.48370245  0.25166795  0.94228846  1
  Ni  Ni38  1  0.24959091  0.48303691  0.56016881  1
  Ni  Ni39  1  0.51696309  0.75040909  0.43983119  1
  Ni  Ni40  1  0.24959091  0.48303691  0.93983119  1
  Ni  Ni41  1  0.51696309  0.75040909  0.06016881  1
  Ni  Ni42  1  0.93316496  0.55891464  0.25000000  1
  Ni  Ni43  1  0.44108536  0.06683504  0.75000000  1
  Ni  Ni44  1  0.06070215  0.42776527  0.75000000  1
  Ni  Ni45  1  0.57223473  0.93929785  0.25000000  1
  Ni  Ni46  1  0.93848508  0.16411843  0.25000000  1
  Ni  Ni47  1  0.83588157  0.06151492  0.75000000  1
  Ni  Ni48  1  0.07727658  0.85727116  0.75000000  1
  Ni  Ni49  1  0.14272884  0.92272342  0.25000000  1
  Ni  Ni50  1  0.73774445  0.69510311  0.75000000  1
  Ni  Ni51  1  0.30489689  0.26225555  0.25000000  1
