# generated using pymatgen
data_SiO2
_symmetry_space_group_name_H-M   'P 1'
_cell_length_a   5.03445515
_cell_length_b   7.48573888
_cell_length_c   7.52768318
_cell_angle_alpha   73.06299134
_cell_angle_beta   70.46418335
_cell_angle_gamma   70.35023048
_symmetry_Int_Tables_number   1
_chemical_formula_structural   SiO2
_chemical_formula_sum   'Si6 O12'
_cell_volume   246.62539476
_cell_formula_units_Z   6
loop_
 _symmetry_equiv_pos_site_id
 _symmetry_equiv_pos_as_xyz
  1  'x, y, z'
loop_
 _atom_site_type_symbol
 _atom_site_label
 _atom_site_symmetry_multiplicity
 _atom_site_fract_x
 _atom_site_fract_y
 _atom_site_fract_z
 _atom_site_occupancy
  O  O0  1  0.71925791  0.44052248  0.70181604  1
  O  O1  1  0.86159642  0.05947752  0.79818396  1
  O  O2  1  0.28074209  0.55947752  0.29818396  1
  O  O3  1  0.13840358  0.94052248  0.20181604  1
  O  O4  1  0.26560089  0.23699414  0.56637199  1
  O  O5  1  0.06896701  0.26300586  0.93362801  1
  O  O6  1  0.24593315  0.73288864  0.70016466  1
  O  O7  1  0.67898646  0.76711136  0.79983534  1
  O  O8  1  0.75406685  0.26711136  0.29983534  1
  O  O9  1  0.32101354  0.23288864  0.20016466  1
  O  O10  1  0.93103299  0.73699414  0.06637199  1
  O  O11  1  0.73439911  0.76300586  0.43362801  1
  Si  Si12  1  0.40075128  0.32463243  0.34143257  1
  Si  Si13  1  0.06681628  0.17536757  0.15856743  1
  Si  Si14  1  0.59924872  0.67536757  0.65856743  1
  Si  Si15  1  0.93318372  0.82463243  0.84143257  1
  Si  Si16  1  0.97934064  0.25000000  0.75000000  1
  Si  Si17  1  0.02065936  0.75000000  0.25000000  1
