# generated using pymatgen
data_Sr3AlO4F
_symmetry_space_group_name_H-M   'P 1'
_cell_length_a   6.83577881
_cell_length_b   6.83577881
_cell_length_c   7.42129077
_cell_angle_alpha   117.42272496
_cell_angle_beta   117.42272497
_cell_angle_gamma   90.00000001
_symmetry_Int_Tables_number   1
_chemical_formula_structural   Sr3AlO4F
_chemical_formula_sum   'Sr6 Al2 O8 F2'
_cell_volume   263.13900124
_cell_formula_units_Z   2
loop_
 _symmetry_equiv_pos_site_id
 _symmetry_equiv_pos_as_xyz
  1  'x, y, z'
loop_
 _atom_site_type_symbol
 _atom_site_label
 _atom_site_symmetry_multiplicity
 _atom_site_fract_x
 _atom_site_fract_y
 _atom_site_fract_z
 _atom_site_occupancy
  O  O0  1  0.50583030  0.00583030  0.29615503  1
  O  O1  1  0.20967526  0.70967526  0.70384497  1
  O  O2  1  0.49416970  0.99416970  0.70384497  1
  O  O3  1  0.70967526  0.49416970  0.70384497  1
  O  O4  1  0.99416970  0.20967526  0.70384497  1
  O  O5  1  0.29032474  0.50583030  0.29615503  1
  O  O6  1  0.00583030  0.79032474  0.29615503  1
  O  O7  1  0.79032474  0.29032474  0.29615503  1
  F  F8  1  0.00000000  0.00000000  0.00000000  1
  F  F9  1  0.50000000  0.50000000  0.00000000  1
  Al  Al10  1  0.75000000  0.25000000  0.50000000  1
  Al  Al11  1  0.25000000  0.75000000  0.50000000  1
  Sr  Sr12  1  0.83125648  0.33125648  0.00000000  1
  Sr  Sr13  1  0.66874352  0.83125648  0.00000000  1
  Sr  Sr14  1  0.33125648  0.16874352  0.00000000  1
  Sr  Sr15  1  0.16874352  0.66874352  0.00000000  1
  Sr  Sr16  1  0.75000000  0.75000000  0.50000000  1
  Sr  Sr17  1  0.25000000  0.25000000  0.50000000  1
