# generated using pymatgen
data_Ag6Au2Se3S
_symmetry_space_group_name_H-M   'P 1'
_cell_length_a   8.71726856
_cell_length_b   8.73338754
_cell_length_c   8.71726856
_cell_angle_alpha   70.54303095
_cell_angle_beta   70.59740856
_cell_angle_gamma   109.47921401
_symmetry_Int_Tables_number   1
_chemical_formula_structural   Ag6Au2Se3S
_chemical_formula_sum   'Ag12 Au4 Se6 S2'
_cell_volume   511.35472220
_cell_formula_units_Z   2
loop_
 _symmetry_equiv_pos_site_id
 _symmetry_equiv_pos_as_xyz
  1  'x, y, z'
loop_
 _atom_site_type_symbol
 _atom_site_label
 _atom_site_symmetry_multiplicity
 _atom_site_fract_x
 _atom_site_fract_y
 _atom_site_fract_z
 _atom_site_occupancy
  Ag  Ag0  1  0.62311638  0.75000000  0.62688362  1
  Ag  Ag1  1  0.87645341  0.25000000  0.87354659  1
  Ag  Ag2  1  0.12594555  0.75000000  0.12405445  1
  Ag  Ag3  1  0.38025888  0.25000000  0.36974112  1
  Ag  Ag4  1  0.12847253  0.37614179  0.24850681  1
  Ag  Ag5  1  0.37535140  0.12385821  0.74766927  1
  Ag  Ag6  1  0.62283496  0.87836344  0.25409751  1
  Ag  Ag7  1  0.86753905  0.62163656  0.75552849  1
  Ag  Ag8  1  0.25228633  0.87543999  0.37626037  1
  Ag  Ag9  1  0.74829964  0.62456001  0.12315366  1
  Ag  Ag10  1  0.25619733  0.37758912  0.87646207  1
  Ag  Ag11  1  0.74594880  0.12241088  0.62139179  1
  Au  Au12  1  0.25479316  0.75492031  0.74478457  1
  Au  Au13  1  0.50029513  0.74507969  0.00012715  1
  Au  Au14  1  0.24997951  0.49950843  0.50020735  1
  Au  Au15  1  0.00028422  0.00049157  0.74952892  1
  Se  Se16  1  0.96184466  0.49896310  0.50147515  1
  Se  Se17  1  0.99956175  0.00103690  0.03711844  1
  Se  Se18  1  0.50031727  0.03292784  0.00023716  1
  Se  Se19  1  0.96683500  0.46707216  0.03261057  1
  Se  Se20  1  0.53701979  0.49931395  0.50006661  1
  Se  Se21  1  0.00061943  0.00068605  0.46229416  1
  S  S22  1  0.52596980  0.02712339  0.47310058  1
  S  S23  1  0.49977603  0.47287661  0.00115360  1
