# generated using pymatgen
data_Np2O3
_symmetry_space_group_name_H-M   'P 1'
_cell_length_a   5.98843841
_cell_length_b   5.98750324
_cell_length_c   6.10143224
_cell_angle_alpha   119.43296522
_cell_angle_beta   60.58055901
_cell_angle_gamma   120.02376381
_symmetry_Int_Tables_number   1
_chemical_formula_structural   Np2O3
_chemical_formula_sum   'Np4 O6'
_cell_volume   155.99454480
_cell_formula_units_Z   2
loop_
 _symmetry_equiv_pos_site_id
 _symmetry_equiv_pos_as_xyz
  1  'x, y, z'
loop_
 _atom_site_type_symbol
 _atom_site_label
 _atom_site_symmetry_multiplicity
 _atom_site_fract_x
 _atom_site_fract_y
 _atom_site_fract_z
 _atom_site_occupancy
  Np  Np0  1  0.63743553  0.36253514  0.08766306  1
  Np  Np1  1  0.86252758  0.13748206  0.41242637  1
  Np  Np2  1  0.13752619  0.86246341  0.58744142  1
  Np  Np3  1  0.36250838  0.63750707  0.91244519  1
  O  O4  1  0.96829113  0.46829531  0.24997634  1
  O  O5  1  0.25000692  0.03176104  0.24997489  1
  O  O6  1  0.53175007  0.74994037  0.24998400  1
  O  O7  1  0.46851986  0.25003756  0.75002395  1
  O  O8  1  0.75003118  0.96853886  0.75003465  1
  O  O9  1  0.03140616  0.53144218  0.75003012  1
