# generated using pymatgen
data_BaCe2FeS5
_symmetry_space_group_name_H-M   'P 1'
_cell_length_a   7.80892460
_cell_length_b   7.80892460
_cell_length_c   8.68659510
_cell_angle_alpha   116.71041137
_cell_angle_beta   116.71041137
_cell_angle_gamma   89.99999998
_symmetry_Int_Tables_number   1
_chemical_formula_structural   BaCe2FeS5
_chemical_formula_sum   'Ba2 Ce4 Fe2 S10'
_cell_volume   408.91287109
_cell_formula_units_Z   2
loop_
 _symmetry_equiv_pos_site_id
 _symmetry_equiv_pos_as_xyz
  1  'x, y, z'
loop_
 _atom_site_type_symbol
 _atom_site_label
 _atom_site_symmetry_multiplicity
 _atom_site_fract_x
 _atom_site_fract_y
 _atom_site_fract_z
 _atom_site_occupancy
  S  S0  1  0.48547285  0.98547285  0.26988018  1
  S  S1  1  0.21559267  0.71559267  0.73011982  1
  S  S2  1  0.51452715  0.01452715  0.73011982  1
  S  S3  1  0.71559267  0.51452715  0.73011982  1
  S  S4  1  0.01452715  0.21559267  0.73011982  1
  S  S5  1  0.28440733  0.48547285  0.26988018  1
  S  S6  1  0.98547285  0.78440733  0.26988018  1
  S  S7  1  0.78440733  0.28440733  0.26988018  1
  S  S8  1  0.00000000  0.00000000  0.00000000  1
  S  S9  1  0.50000000  0.50000000  0.00000000  1
  Fe  Fe10  1  0.75000000  0.25000000  0.50000000  1
  Fe  Fe11  1  0.25000000  0.75000000  0.50000000  1
  Ba  Ba12  1  0.75000000  0.75000000  0.50000000  1
  Ba  Ba13  1  0.25000000  0.25000000  0.50000000  1
  Ce  Ce14  1  0.66081356  0.83918644  0.00000000  1
  Ce  Ce15  1  0.16081356  0.66081356  0.00000000  1
  Ce  Ce16  1  0.83918644  0.33918644  0.00000000  1
  Ce  Ce17  1  0.33918644  0.16081356  0.00000000  1
