# generated using pymatgen
data_Rb2Cu2SnS4
_symmetry_space_group_name_H-M   'P 1'
_cell_length_a   5.48068987
_cell_length_b   9.49033227
_cell_length_c   9.49033227
_cell_angle_alpha   76.53347716
_cell_angle_beta   73.21679244
_cell_angle_gamma   73.21679244
_symmetry_Int_Tables_number   1
_chemical_formula_structural   Rb2Cu2SnS4
_chemical_formula_sum   'Rb4 Cu4 Sn2 S8'
_cell_volume   446.41019125
_cell_formula_units_Z   2
loop_
 _symmetry_equiv_pos_site_id
 _symmetry_equiv_pos_as_xyz
  1  'x, y, z'
loop_
 _atom_site_type_symbol
 _atom_site_label
 _atom_site_symmetry_multiplicity
 _atom_site_fract_x
 _atom_site_fract_y
 _atom_site_fract_z
 _atom_site_occupancy
  S  S0  1  0.91919665  0.71899312  0.98336345  1
  S  S1  1  0.12155321  0.78100688  0.51663655  1
  S  S2  1  0.58080335  0.51663655  0.78100688  1
  S  S3  1  0.37844679  0.98336345  0.71899312  1
  S  S4  1  0.08080335  0.28100688  0.01663655  1
  S  S5  1  0.87844679  0.21899312  0.48336345  1
  S  S6  1  0.62155321  0.01663655  0.28100688  1
  S  S7  1  0.41919665  0.48336345  0.21899312  1
  Cu  Cu8  1  0.25000000  0.02454039  0.47545961  1
  Cu  Cu9  1  0.25000000  0.47545961  0.02454039  1
  Cu  Cu10  1  0.75000000  0.97545961  0.52454039  1
  Cu  Cu11  1  0.75000000  0.52454039  0.97545961  1
  Rb  Rb12  1  0.77164681  0.62433251  0.37566749  1
  Rb  Rb13  1  0.27164681  0.87566749  0.12433251  1
  Rb  Rb14  1  0.72835319  0.12433251  0.87566749  1
  Rb  Rb15  1  0.22835319  0.37566749  0.62433251  1
  Sn  Sn16  1  0.25000000  0.75000000  0.75000000  1
  Sn  Sn17  1  0.75000000  0.25000000  0.25000000  1
