# generated using pymatgen
data_Ti(MnP6)2
_symmetry_space_group_name_H-M   'P 1'
_cell_length_a   5.80046054
_cell_length_b   8.53309280
_cell_length_c   10.65148872
_cell_angle_alpha   113.60494229
_cell_angle_beta   90.00000000
_cell_angle_gamma   109.86958238
_symmetry_Int_Tables_number   1
_chemical_formula_structural   Ti(MnP6)2
_chemical_formula_sum   'Ti2 Mn4 P24'
_cell_volume   448.63189374
_cell_formula_units_Z   2
loop_
 _symmetry_equiv_pos_site_id
 _symmetry_equiv_pos_as_xyz
  1  'x, y, z'
loop_
 _atom_site_type_symbol
 _atom_site_label
 _atom_site_symmetry_multiplicity
 _atom_site_fract_x
 _atom_site_fract_y
 _atom_site_fract_z
 _atom_site_occupancy
  P  P0  1  0.59535147  0.54782807  0.92526886  1
  P  P1  1  0.04752340  0.45217193  0.57473114  1
  P  P2  1  0.40464853  0.45217193  0.07473114  1
  P  P3  1  0.95247660  0.54782807  0.42526886  1
  P  P4  1  0.58501217  0.87614282  0.83332463  1
  P  P5  1  0.70886934  0.12385718  0.66667537  1
  P  P6  1  0.97976759  0.31203867  0.24285000  1
  P  P7  1  0.66772892  0.68796133  0.25715000  1
  P  P8  1  0.02023241  0.68796133  0.75715000  1
  P  P9  1  0.33227108  0.31203867  0.74285000  1
  P  P10  1  0.01610041  0.93395753  0.07226831  1
  P  P11  1  0.08214288  0.06604247  0.42773169  1
  P  P12  1  0.98389959  0.06604247  0.92773169  1
  P  P13  1  0.91785712  0.93395753  0.57226831  1
  P  P14  1  0.33372033  0.76602311  0.49393292  1
  P  P15  1  0.56769722  0.23397689  0.00606708  1
  P  P16  1  0.66627967  0.23397689  0.50606708  1
  P  P17  1  0.43230278  0.76602311  0.99393292  1
  P  P18  1  0.99466776  0.64403139  0.16462604  1
  P  P19  1  0.35063637  0.35596861  0.33537396  1
  P  P20  1  0.00533224  0.35596861  0.83537396  1
  P  P21  1  0.64936363  0.64403139  0.66462604  1
  P  P22  1  0.29113066  0.87614282  0.33332463  1
  P  P23  1  0.41498783  0.12385718  0.16667537  1
  Ti  Ti24  1  0.69642505  0.00000000  0.25000000  1
  Ti  Ti25  1  0.30357495  0.00000000  0.75000000  1
  Mn  Mn26  1  0.62766896  0.63488609  0.45374490  1
  Mn  Mn27  1  0.99278287  0.36511391  0.04625510  1
  Mn  Mn28  1  0.00721713  0.63488609  0.95374490  1
  Mn  Mn29  1  0.37233104  0.36511391  0.54625510  1
