# generated using pymatgen
data_Y2Si2O7
_symmetry_space_group_name_H-M   'P 1'
_cell_length_a   5.09591197
_cell_length_b   8.22332222
_cell_length_c   13.84074351
_cell_angle_alpha   90.00000000
_cell_angle_beta   90.00000000
_cell_angle_gamma   90.00000000
_symmetry_Int_Tables_number   1
_chemical_formula_structural   Y2Si2O7
_chemical_formula_sum   'Y8 Si8 O28'
_cell_volume   580.00087072
_cell_formula_units_Z   4
loop_
 _symmetry_equiv_pos_site_id
 _symmetry_equiv_pos_as_xyz
  1  'x, y, z'
loop_
 _atom_site_type_symbol
 _atom_site_label
 _atom_site_symmetry_multiplicity
 _atom_site_fract_x
 _atom_site_fract_y
 _atom_site_fract_z
 _atom_site_occupancy
  O  O0  1  0.84961612  0.74335225  0.90032929  1
  O  O1  1  0.15038388  0.24335225  0.09967071  1
  O  O2  1  0.65038388  0.74335225  0.40032929  1
  O  O3  1  0.34961612  0.24335225  0.59967071  1
  O  O4  1  0.29317228  0.91174456  0.95291508  1
  O  O5  1  0.70682772  0.41174456  0.04708492  1
  O  O6  1  0.20682772  0.91174456  0.45291508  1
  O  O7  1  0.79317228  0.41174456  0.54708492  1
  O  O8  1  0.29305351  0.57486636  0.95297289  1
  O  O9  1  0.70694649  0.07486636  0.04702711  1
  O  O10  1  0.20694649  0.57486636  0.45297289  1
  O  O11  1  0.79305351  0.07486636  0.54702711  1
  O  O12  1  0.06445480  0.74334654  0.08032931  1
  O  O13  1  0.93554520  0.24334654  0.91967069  1
  O  O14  1  0.43554520  0.74334654  0.58032931  1
  O  O15  1  0.56445480  0.24334654  0.41967069  1
  O  O16  1  0.48934983  0.07892903  0.26727215  1
  O  O17  1  0.51065017  0.57892903  0.73272785  1
  O  O18  1  0.01065017  0.07892903  0.76727215  1
  O  O19  1  0.98934983  0.57892903  0.23272785  1
  O  O20  1  0.48932285  0.40792130  0.26733533  1
  O  O21  1  0.51067715  0.90792130  0.73266467  1
  O  O22  1  0.01067715  0.40792130  0.76733533  1
  O  O23  1  0.98932285  0.90792130  0.23266467  1
  O  O24  1  0.06891744  0.24336195  0.34509944  1
  O  O25  1  0.93108256  0.74336195  0.65490056  1
  O  O26  1  0.43108256  0.24336195  0.84509944  1
  O  O27  1  0.56891744  0.74336195  0.15490056  1
  Si  Si28  1  0.12562416  0.74334034  0.95994292  1
  Si  Si29  1  0.87437584  0.24334034  0.04005708  1
  Si  Si30  1  0.37437584  0.74334034  0.45994292  1
  Si  Si31  1  0.62562416  0.24334034  0.54005708  1
  Si  Si32  1  0.87937107  0.74340341  0.18111780  1
  Si  Si33  1  0.12062893  0.24340341  0.81888220  1
  Si  Si34  1  0.62062893  0.74340341  0.68111780  1
  Si  Si35  1  0.37937107  0.24340341  0.31888220  1
  Y  Y36  1  0.84194786  0.00274388  0.37431123  1
  Y  Y37  1  0.15805214  0.50274388  0.62568877  1
  Y  Y38  1  0.65805214  0.00274388  0.87431123  1
  Y  Y39  1  0.34194786  0.50274388  0.12568877  1
  Y  Y40  1  0.84204225  0.48399039  0.37435228  1
  Y  Y41  1  0.15795775  0.98399039  0.62564772  1
  Y  Y42  1  0.65795775  0.48399039  0.87435228  1
  Y  Y43  1  0.34204225  0.98399039  0.12564772  1
