# generated using pymatgen
data_Nd3Zn
_symmetry_space_group_name_H-M   'P 1'
_cell_length_a   7.11120031
_cell_length_b   7.11120071
_cell_length_c   5.39049722
_cell_angle_alpha   90.00000000
_cell_angle_beta   90.00000000
_cell_angle_gamma   119.99999811
_symmetry_Int_Tables_number   1
_chemical_formula_structural   Nd3Zn
_chemical_formula_sum   'Nd6 Zn2'
_cell_volume   236.07245411
_cell_formula_units_Z   2
loop_
 _symmetry_equiv_pos_site_id
 _symmetry_equiv_pos_as_xyz
  1  'x, y, z'
loop_
 _atom_site_type_symbol
 _atom_site_label
 _atom_site_symmetry_multiplicity
 _atom_site_fract_x
 _atom_site_fract_y
 _atom_site_fract_z
 _atom_site_occupancy
  Nd  Nd0  1  0.82353761  0.64707523  0.75000000  1
  Nd  Nd1  1  0.35292477  0.17646239  0.75000000  1
  Nd  Nd2  1  0.82353661  0.17646239  0.75000000  1
  Nd  Nd3  1  0.17646239  0.35292577  0.25000000  1
  Nd  Nd4  1  0.64707523  0.82353761  0.25000000  1
  Nd  Nd5  1  0.17646239  0.82353761  0.25000000  1
  Zn  Zn6  1  0.33333400  0.66666800  0.75000000  1
  Zn  Zn7  1  0.66666600  0.33333300  0.25000000  1
