# generated using pymatgen
data_BaTi18Mn3O38
_symmetry_space_group_name_H-M   'P 1'
_cell_length_a   9.30164246
_cell_length_b   9.30164246
_cell_length_c   9.30164247
_cell_angle_alpha   68.78735873
_cell_angle_beta   68.78735875
_cell_angle_gamma   68.78735872
_symmetry_Int_Tables_number   1
_chemical_formula_structural   BaTi18Mn3O38
_chemical_formula_sum   'Ba1 Ti18 Mn3 O38'
_cell_volume   674.28112078
_cell_formula_units_Z   1
loop_
 _symmetry_equiv_pos_site_id
 _symmetry_equiv_pos_as_xyz
  1  'x, y, z'
loop_
 _atom_site_type_symbol
 _atom_site_label
 _atom_site_symmetry_multiplicity
 _atom_site_fract_x
 _atom_site_fract_y
 _atom_site_fract_z
 _atom_site_occupancy
  O  O0  1  0.78820281  0.78820281  0.78820281  1
  O  O1  1  0.21179719  0.21179719  0.21179719  1
  O  O2  1  0.75597150  0.92522189  0.29448833  1
  O  O3  1  0.92522189  0.29448833  0.75597150  1
  O  O4  1  0.29448833  0.75597150  0.92522189  1
  O  O5  1  0.24402850  0.07477811  0.70551167  1
  O  O6  1  0.07477811  0.70551167  0.24402850  1
  O  O7  1  0.70551167  0.24402850  0.07477811  1
  O  O8  1  0.51009066  0.86792480  0.60716307  1
  O  O9  1  0.86792480  0.60716307  0.51009066  1
  O  O10  1  0.60716307  0.51009066  0.86792480  1
  O  O11  1  0.48990934  0.13207520  0.39283693  1
  O  O12  1  0.13207520  0.39283693  0.48990934  1
  O  O13  1  0.39283693  0.48990934  0.13207520  1
  O  O14  1  0.07437478  0.54389300  0.70217750  1
  O  O15  1  0.48651156  0.01133436  0.85579927  1
  O  O16  1  0.85579927  0.48651156  0.01133436  1
  O  O17  1  0.51348844  0.98866564  0.14420073  1
  O  O18  1  0.98866564  0.14420073  0.51348844  1
  O  O19  1  0.14420073  0.51348844  0.98866564  1
  O  O20  1  0.54389300  0.70217750  0.07437478  1
  O  O21  1  0.70217750  0.07437478  0.54389300  1
  O  O22  1  0.30562154  0.62759370  0.37632197  1
  O  O23  1  0.37632197  0.30562154  0.62759370  1
  O  O24  1  0.62759370  0.37632197  0.30562154  1
  O  O25  1  0.69437846  0.37240630  0.62367803  1
  O  O26  1  0.62367803  0.69437846  0.37240630  1
  O  O27  1  0.37240630  0.62367803  0.69437846  1
  O  O28  1  0.15401369  0.23882345  0.93896914  1
  O  O29  1  0.93896914  0.15401369  0.23882345  1
  O  O30  1  0.23882345  0.93896914  0.15401369  1
  O  O31  1  0.84598631  0.76117655  0.06103086  1
  O  O32  1  0.06103086  0.84598631  0.76117655  1
  O  O33  1  0.76117655  0.06103086  0.84598631  1
  O  O34  1  0.92562522  0.45610700  0.29782250  1
  O  O35  1  0.29782250  0.92562522  0.45610700  1
  O  O36  1  0.45610700  0.29782250  0.92562522  1
  O  O37  1  0.01133436  0.85579927  0.48651156  1
  Ti  Ti38  1  0.91275747  0.35982501  0.53275412  1
  Ti  Ti39  1  0.35982501  0.53275412  0.91275747  1
  Ti  Ti40  1  0.53275412  0.91275747  0.35982501  1
  Ti  Ti41  1  0.08724253  0.64017499  0.46724588  1
  Ti  Ti42  1  0.64017499  0.46724588  0.08724253  1
  Ti  Ti43  1  0.46724588  0.08724253  0.64017499  1
  Ti  Ti44  1  0.28587067  0.85043312  0.68538710  1
  Ti  Ti45  1  0.85043312  0.68538710  0.28587067  1
  Ti  Ti46  1  0.68538710  0.28587067  0.85043312  1
  Ti  Ti47  1  0.71412933  0.14956688  0.31461290  1
  Ti  Ti48  1  0.14956688  0.31461290  0.71412933  1
  Ti  Ti49  1  0.31461290  0.71412933  0.14956688  1
  Ti  Ti50  1  0.87597400  0.97937642  0.65184335  1
  Ti  Ti51  1  0.97937642  0.65184335  0.87597400  1
  Ti  Ti52  1  0.65184335  0.87597400  0.97937642  1
  Ti  Ti53  1  0.12402600  0.02062358  0.34815665  1
  Ti  Ti54  1  0.02062358  0.34815665  0.12402600  1
  Ti  Ti55  1  0.34815665  0.12402600  0.02062358  1
  Mn  Mn56  1  0.50000000  0.50000000  0.50000000  1
  Mn  Mn57  1  0.68960642  0.68960642  0.68960642  1
  Mn  Mn58  1  0.31039358  0.31039358  0.31039358  1
  Ba  Ba59  1  0.00000000  0.00000000  0.00000000  1
