# generated using pymatgen
data_CaMn(SiO3)2
_symmetry_space_group_name_H-M   'P 1'
_cell_length_a   5.35424385
_cell_length_b   6.83863901
_cell_length_c   6.83863901
_cell_angle_alpha   85.10786348
_cell_angle_beta   78.64794893
_cell_angle_gamma   78.64794887
_symmetry_Int_Tables_number   1
_chemical_formula_structural   CaMn(SiO3)2
_chemical_formula_sum   'Ca2 Mn2 Si4 O12'
_cell_volume   240.41785025
_cell_formula_units_Z   2
loop_
 _symmetry_equiv_pos_site_id
 _symmetry_equiv_pos_as_xyz
  1  'x, y, z'
loop_
 _atom_site_type_symbol
 _atom_site_label
 _atom_site_symmetry_multiplicity
 _atom_site_fract_x
 _atom_site_fract_y
 _atom_site_fract_z
 _atom_site_occupancy
  O  O0  1  0.49744617  0.33020918  0.36482631  1
  O  O1  1  0.00255374  0.63517384  0.66979181  1
  O  O2  1  0.50255475  0.66979131  0.63517310  1
  O  O3  1  0.99744527  0.36482665  0.33020936  1
  O  O4  1  0.17064552  0.12126937  0.60618653  1
  O  O5  1  0.32935382  0.39381341  0.87873174  1
  O  O6  1  0.82935349  0.87873112  0.39381317  1
  O  O7  1  0.67064518  0.60618709  0.12126943  1
  O  O8  1  0.84545440  0.21326971  0.02714612  1
  O  O9  1  0.65454619  0.97285438  0.78673021  1
  O  O10  1  0.34545473  0.02714611  0.21326920  1
  O  O11  1  0.15454651  0.78673078  0.97285476  1
  Si  Si12  1  0.26074534  0.19567310  0.37886180  1
  Si  Si13  1  0.23925441  0.62113869  0.80432608  1
  Si  Si14  1  0.76074651  0.37886180  0.19567333  1
  Si  Si15  1  0.73925402  0.80432589  0.62113944  1
  Ca  Ca16  1  0.25000048  0.70031878  0.29968016  1
  Ca  Ca17  1  0.75000080  0.29968021  0.70031933  1
  Mn  Mn18  1  0.74999963  0.90429893  0.09570036  1
  Mn  Mn19  1  0.24999938  0.09570156  0.90429934  1
