# generated using pymatgen
data_Cr2NiO4
_symmetry_space_group_name_H-M   'P 1'
_cell_length_a   5.86787213
_cell_length_b   5.86787214
_cell_length_c   6.03076059
_cell_angle_alpha   119.11048033
_cell_angle_beta   119.11048025
_cell_angle_gamma   89.99999993
_symmetry_Int_Tables_number   1
_chemical_formula_structural   Cr2NiO4
_chemical_formula_sum   'Cr4 Ni2 O8'
_cell_volume   150.69272610
_cell_formula_units_Z   2
loop_
 _symmetry_equiv_pos_site_id
 _symmetry_equiv_pos_as_xyz
  1  'x, y, z'
loop_
 _atom_site_type_symbol
 _atom_site_label
 _atom_site_symmetry_multiplicity
 _atom_site_fract_x
 _atom_site_fract_y
 _atom_site_fract_z
 _atom_site_occupancy
  O  O0  1  0.23109718  0.74479027  0.46219421  1
  O  O1  1  0.78259670  0.76890325  0.03780497  1
  O  O2  1  0.25521017  0.76890326  0.03780633  1
  O  O3  1  0.76890228  0.25521002  0.53780580  1
  O  O4  1  0.76890318  0.78259598  0.53780461  1
  O  O5  1  0.21740472  0.23109706  0.96219601  1
  O  O6  1  0.23109825  0.21740433  0.46219637  1
  O  O7  1  0.74479125  0.23109704  0.96219466  1
  Cr  Cr8  1  0.99999989  0.50000095  0.99999958  1
  Cr  Cr9  1  0.99999931  0.00000022  0.49999980  1
  Cr  Cr10  1  0.49999917  0.00000021  0.49999890  1
  Cr  Cr11  1  0.00000000  0.00000000  0.00000000  1
  Ni  Ni12  1  0.62499992  0.37500083  0.25000042  1
  Ni  Ni13  1  0.37499954  0.62499946  0.74999959  1
