# generated using pymatgen
data_V2CoO6
_symmetry_space_group_name_H-M   'P 1'
_cell_length_a   3.50967096
_cell_length_b   5.11595658
_cell_length_c   6.92870891
_cell_angle_alpha   106.63965384
_cell_angle_beta   89.99644833
_cell_angle_gamma   110.04428434
_symmetry_Int_Tables_number   1
_chemical_formula_structural   V2CoO6
_chemical_formula_sum   'V2 Co1 O6'
_cell_volume   111.31073768
_cell_formula_units_Z   1
loop_
 _symmetry_equiv_pos_site_id
 _symmetry_equiv_pos_as_xyz
  1  'x, y, z'
loop_
 _atom_site_type_symbol
 _atom_site_label
 _atom_site_symmetry_multiplicity
 _atom_site_fract_x
 _atom_site_fract_y
 _atom_site_fract_z
 _atom_site_occupancy
  V  V0  1  0.77619431  0.57752088  0.32783077  1
  V  V1  1  0.19870834  0.42248863  0.67217977  1
  Co  Co2  1  0.98743571  0.99998841  0.99999176  1
  O  O3  1  0.68721831  0.39942912  0.57161107  1
  O  O4  1  0.04954541  0.12387124  0.75321710  1
  O  O5  1  0.92540206  0.87613422  0.24678010  1
  O  O6  1  0.28772486  0.60057660  0.42839514  1
  O  O7  1  0.34763608  0.72077725  0.88191747  1
  O  O8  1  0.62713493  0.27921265  0.11807680  1
