# generated using pymatgen
data_KMgH9(CO5)2
_symmetry_space_group_name_H-M   'P 1'
_cell_length_a   5.35742625
_cell_length_b   6.73464923
_cell_length_c   7.12883772
_cell_angle_alpha   114.69442893
_cell_angle_beta   91.10089095
_cell_angle_gamma   107.31194681
_symmetry_Int_Tables_number   1
_chemical_formula_structural   KMgH9(CO5)2
_chemical_formula_sum   'K1 Mg1 H9 C2 O10'
_cell_volume   220.02678550
_cell_formula_units_Z   1
loop_
 _symmetry_equiv_pos_site_id
 _symmetry_equiv_pos_as_xyz
  1  'x, y, z'
loop_
 _atom_site_type_symbol
 _atom_site_label
 _atom_site_symmetry_multiplicity
 _atom_site_fract_x
 _atom_site_fract_y
 _atom_site_fract_z
 _atom_site_occupancy
  H  H0  1  0.00000000  0.50000000  0.00000000  1
  H  H1  1  0.79866573  0.79512437  0.39877580  1
  H  H2  1  0.99899669  0.33008377  0.57591451  1
  H  H3  1  0.63642125  0.25926464  0.13167585  1
  H  H4  1  0.36357875  0.74073536  0.86832415  1
  H  H5  1  0.00100331  0.66991623  0.42408549  1
  H  H6  1  0.42728574  0.91437026  0.75766531  1
  H  H7  1  0.20133427  0.20487563  0.60122420  1
  H  H8  1  0.57271426  0.08562974  0.24233469  1
  C  C9  1  0.36972011  0.69507876  0.20279923  1
  C  C10  1  0.63027989  0.30492124  0.79720077  1
  O  O11  1  0.79938830  0.33304235  0.95309304  1
  O  O12  1  0.39663764  0.15609389  0.75443032  1
  O  O13  1  0.60336236  0.84390611  0.24556968  1
  O  O14  1  0.71165589  0.42668193  0.69740241  1
  O  O15  1  0.85900830  0.72803374  0.48643610  1
  O  O16  1  0.14099170  0.27196626  0.51356390  1
  O  O17  1  0.53665549  0.22039857  0.23542090  1
  O  O18  1  0.46334451  0.77960143  0.76457910  1
  O  O19  1  0.20061170  0.66695765  0.04690696  1
  O  O20  1  0.28834411  0.57331807  0.30259759  1
  Mg  Mg21  1  0.50000000  0.50000000  0.50000000  1
  K  K22  1  0.00000000  0.00000000  0.00000000  1
