# generated using pymatgen
data_U2N3
_symmetry_space_group_name_H-M   'P 1'
_cell_length_a   9.23474754
_cell_length_b   9.23474755
_cell_length_c   9.23474754
_cell_angle_alpha   109.47122062
_cell_angle_beta   109.47122063
_cell_angle_gamma   109.47122063
_symmetry_Int_Tables_number   1
_chemical_formula_structural   U2N3
_chemical_formula_sum   'U16 N24'
_cell_volume   606.25200980
_cell_formula_units_Z   8
loop_
 _symmetry_equiv_pos_site_id
 _symmetry_equiv_pos_as_xyz
  1  'x, y, z'
loop_
 _atom_site_type_symbol
 _atom_site_label
 _atom_site_symmetry_multiplicity
 _atom_site_fract_x
 _atom_site_fract_y
 _atom_site_fract_z
 _atom_site_occupancy
  N  N0  1  0.52527818  0.76262410  0.52879071  1
  N  N1  1  0.99648748  0.97120929  0.73383339  1
  N  N2  1  0.26265409  0.76616661  0.73737590  1
  N  N3  1  0.50351252  0.23734591  0.97472182  1
  N  N4  1  0.97120929  0.73383339  0.99648748  1
  N  N5  1  0.73737590  0.26265409  0.76616661  1
  N  N6  1  0.23734591  0.97472182  0.50351252  1
  N  N7  1  0.52879071  0.52527818  0.76262410  1
  N  N8  1  0.76262410  0.52879071  0.52527818  1
  N  N9  1  0.73383339  0.99648748  0.97120929  1
  N  N10  1  0.76616661  0.73737590  0.26265409  1
  N  N11  1  0.97472182  0.50351252  0.23734591  1
  N  N12  1  0.47472182  0.23737590  0.47120929  1
  N  N13  1  0.00351252  0.02879071  0.26616661  1
  N  N14  1  0.73734591  0.23383339  0.26262410  1
  N  N15  1  0.49648748  0.76265409  0.02527818  1
  N  N16  1  0.02879071  0.26616661  0.00351252  1
  N  N17  1  0.26262410  0.73734591  0.23383339  1
  N  N18  1  0.76265409  0.02527818  0.49648748  1
  N  N19  1  0.47120929  0.47472182  0.23737590  1
  N  N20  1  0.23737590  0.47120929  0.47472182  1
  N  N21  1  0.26616661  0.00351252  0.02879071  1
  N  N22  1  0.23383339  0.26262410  0.73734591  1
  N  N23  1  0.02527818  0.49648748  0.76265409  1
  U  U24  1  0.50000000  0.50000000  0.50000000  1
  U  U25  1  0.00000000  0.00000000  0.50000000  1
  U  U26  1  0.50000000  0.00000000  0.00000000  1
  U  U27  1  0.00000000  0.50000000  0.00000000  1
  U  U28  1  0.25000000  0.22859461  0.97859461  1
  U  U29  1  0.27140539  0.52140539  0.75000000  1
  U  U30  1  0.52140539  0.75000000  0.27140539  1
  U  U31  1  0.22859461  0.97859461  0.25000000  1
  U  U32  1  0.97859461  0.25000000  0.22859461  1
  U  U33  1  0.75000000  0.27140539  0.52140539  1
  U  U34  1  0.75000000  0.77140539  0.02140539  1
  U  U35  1  0.72859461  0.47859461  0.25000000  1
  U  U36  1  0.47859461  0.25000000  0.72859461  1
  U  U37  1  0.77140539  0.02140539  0.75000000  1
  U  U38  1  0.02140539  0.75000000  0.77140539  1
  U  U39  1  0.25000000  0.72859461  0.47859461  1
