# generated using pymatgen
data_Sm3(Ge2Ru)2
_symmetry_space_group_name_H-M   'P 1'
_cell_length_a   4.37056643
_cell_length_b   5.90995801
_cell_length_c   8.31069267
_cell_angle_alpha   107.70728545
_cell_angle_beta   90.00000000
_cell_angle_gamma   111.70099555
_symmetry_Int_Tables_number   1
_chemical_formula_structural   Sm3(Ge2Ru)2
_chemical_formula_sum   'Sm3 Ge4 Ru2'
_cell_volume   188.46057463
_cell_formula_units_Z   1
loop_
 _symmetry_equiv_pos_site_id
 _symmetry_equiv_pos_as_xyz
  1  'x, y, z'
loop_
 _atom_site_type_symbol
 _atom_site_label
 _atom_site_symmetry_multiplicity
 _atom_site_fract_x
 _atom_site_fract_y
 _atom_site_fract_z
 _atom_site_occupancy
  Ge  Ge0  1  0.28615387  0.57230774  0.91932381  1
  Ge  Ge1  1  0.71384613  0.42769226  0.08067619  1
  Ge  Ge2  1  0.90114613  0.80229226  0.59713189  1
  Ge  Ge3  1  0.09885387  0.19770774  0.40286811  1
  Ru  Ru4  1  0.31480977  0.62961953  0.63858189  1
  Ru  Ru5  1  0.68519023  0.37038047  0.36141811  1
  Sm  Sm6  1  0.00000000  0.00000000  0.00000000  1
  Sm  Sm7  1  0.61944135  0.23888270  0.69735673  1
  Sm  Sm8  1  0.38055865  0.76111730  0.30264327  1
