# generated using pymatgen
data_Ba5Ge3
_symmetry_space_group_name_H-M   'P 1'
_cell_length_a   8.60331785
_cell_length_b   8.60331785
_cell_length_c   16.82546329
_cell_angle_alpha   90.00000000
_cell_angle_beta   90.00000000
_cell_angle_gamma   90.00000000
_symmetry_Int_Tables_number   1
_chemical_formula_structural   Ba5Ge3
_chemical_formula_sum   'Ba20 Ge12'
_cell_volume   1245.37162920
_cell_formula_units_Z   4
loop_
 _symmetry_equiv_pos_site_id
 _symmetry_equiv_pos_as_xyz
  1  'x, y, z'
loop_
 _atom_site_type_symbol
 _atom_site_label
 _atom_site_symmetry_multiplicity
 _atom_site_fract_x
 _atom_site_fract_y
 _atom_site_fract_z
 _atom_site_occupancy
  Ge  Ge0  1  0.35761864  0.64238136  0.75000000  1
  Ge  Ge1  1  0.85761864  0.35761864  0.75000000  1
  Ge  Ge2  1  0.64238136  0.14238136  0.75000000  1
  Ge  Ge3  1  0.14238136  0.85761864  0.75000000  1
  Ge  Ge4  1  0.64238136  0.35761864  0.25000000  1
  Ge  Ge5  1  0.14238136  0.64238136  0.25000000  1
  Ge  Ge6  1  0.35761864  0.85761864  0.25000000  1
  Ge  Ge7  1  0.85761864  0.14238136  0.25000000  1
  Ge  Ge8  1  0.25000000  0.25000000  0.51018278  1
  Ge  Ge9  1  0.75000000  0.75000000  0.98981722  1
  Ge  Ge10  1  0.75000000  0.75000000  0.48981722  1
  Ge  Ge11  1  0.25000000  0.25000000  0.01018278  1
  Ba  Ba12  1  0.41736763  0.94360462  0.89163475  1
  Ba  Ba13  1  0.55639538  0.41736763  0.89163475  1
  Ba  Ba14  1  0.94360462  0.08263237  0.89163475  1
  Ba  Ba15  1  0.91736763  0.05639538  0.60836525  1
  Ba  Ba16  1  0.58263237  0.44360462  0.60836525  1
  Ba  Ba17  1  0.08263237  0.55639538  0.89163475  1
  Ba  Ba18  1  0.44360462  0.91736763  0.60836525  1
  Ba  Ba19  1  0.05639538  0.58263237  0.60836525  1
  Ba  Ba20  1  0.94360462  0.41736763  0.39163475  1
  Ba  Ba21  1  0.55639538  0.08263237  0.39163475  1
  Ba  Ba22  1  0.91736763  0.44360462  0.10836525  1
  Ba  Ba23  1  0.41736763  0.55639538  0.39163475  1
  Ba  Ba24  1  0.08263237  0.94360462  0.39163475  1
  Ba  Ba25  1  0.05639538  0.91736763  0.10836525  1
  Ba  Ba26  1  0.44360462  0.58263237  0.10836525  1
  Ba  Ba27  1  0.58263237  0.05639538  0.10836525  1
  Ba  Ba28  1  0.25000000  0.25000000  0.72203166  1
  Ba  Ba29  1  0.75000000  0.75000000  0.77796834  1
  Ba  Ba30  1  0.75000000  0.75000000  0.27796834  1
  Ba  Ba31  1  0.25000000  0.25000000  0.22203166  1
