# generated using pymatgen
data_Li2H2SO5
_symmetry_space_group_name_H-M   'P 1'
_cell_length_a   4.90398998
_cell_length_b   5.55589409
_cell_length_c   8.26964596
_cell_angle_alpha   107.10825466
_cell_angle_beta   90.00000000
_cell_angle_gamma   90.00000000
_symmetry_Int_Tables_number   1
_chemical_formula_structural   Li2H2SO5
_chemical_formula_sum   'Li4 H4 S2 O10'
_cell_volume   215.34512646
_cell_formula_units_Z   2
loop_
 _symmetry_equiv_pos_site_id
 _symmetry_equiv_pos_as_xyz
  1  'x, y, z'
loop_
 _atom_site_type_symbol
 _atom_site_label
 _atom_site_symmetry_multiplicity
 _atom_site_fract_x
 _atom_site_fract_y
 _atom_site_fract_z
 _atom_site_occupancy
  H  H0  1  0.86652810  0.00493883  0.44037206  1
  H  H1  1  0.11451590  0.96970901  0.30954173  1
  H  H2  1  0.36652810  0.99506117  0.55962794  1
  H  H3  1  0.61451590  0.03029099  0.69045827  1
  Li  Li4  1  0.51057606  0.43973363  0.60510160  1
  Li  Li5  1  0.00097124  0.30331390  0.99321166  1
  Li  Li6  1  0.01057606  0.56026637  0.39489840  1
  Li  Li7  1  0.50097124  0.69668610  0.00678834  1
  O  O8  1  0.88741896  0.56479525  0.62161045  1
  O  O9  1  0.38741896  0.43520475  0.37838955  1
  O  O10  1  0.53697780  0.08711264  0.59817631  1
  O  O11  1  0.37607719  0.39900916  0.07801697  1
  O  O12  1  0.29971123  0.67314328  0.79031545  1
  O  O13  1  0.79971123  0.32685672  0.20968455  1
  O  O14  1  0.87607719  0.60099084  0.92198303  1
  O  O15  1  0.03697780  0.91288736  0.40182369  1
  O  O16  1  0.92465135  0.97639432  0.82860873  1
  O  O17  1  0.42465135  0.02360568  0.17139127  1
  S  S18  1  0.99737215  0.70667724  0.79151420  1
  S  S19  1  0.49737215  0.29332276  0.20848580  1
