# generated using pymatgen
data_PrSnPt
_symmetry_space_group_name_H-M   'P 1'
_cell_length_a   4.66004368
_cell_length_b   7.54140966
_cell_length_c   8.15741228
_cell_angle_alpha   90.00000000
_cell_angle_beta   90.00000000
_cell_angle_gamma   90.00000000
_symmetry_Int_Tables_number   1
_chemical_formula_structural   PrSnPt
_chemical_formula_sum   'Pr4 Sn4 Pt4'
_cell_volume   286.67837413
_cell_formula_units_Z   4
loop_
 _symmetry_equiv_pos_site_id
 _symmetry_equiv_pos_as_xyz
  1  'x, y, z'
loop_
 _atom_site_type_symbol
 _atom_site_label
 _atom_site_symmetry_multiplicity
 _atom_site_fract_x
 _atom_site_fract_y
 _atom_site_fract_z
 _atom_site_occupancy
  Sn  Sn0  1  0.25000000  0.67544196  0.41620940  1
  Sn  Sn1  1  0.25000000  0.17544196  0.08379060  1
  Sn  Sn2  1  0.75000000  0.32455804  0.58379060  1
  Sn  Sn3  1  0.75000000  0.82455804  0.91620940  1
  Pr  Pr4  1  0.75000000  0.48746410  0.19380006  1
  Pr  Pr5  1  0.25000000  0.01253590  0.69380006  1
  Pr  Pr6  1  0.75000000  0.98746410  0.30619994  1
  Pr  Pr7  1  0.25000000  0.51253590  0.80619994  1
  Pt  Pt8  1  0.25000000  0.79013210  0.09194543  1
  Pt  Pt9  1  0.25000000  0.29013210  0.40805457  1
  Pt  Pt10  1  0.75000000  0.70986790  0.59194543  1
  Pt  Pt11  1  0.75000000  0.20986790  0.90805457  1
