# generated using pymatgen
data_Cs3Mo2Br9
_symmetry_space_group_name_H-M   'P 1'
_cell_length_a   7.91244544
_cell_length_b   7.91244544
_cell_length_c   19.07480623
_cell_angle_alpha   90.00000000
_cell_angle_beta   90.00000000
_cell_angle_gamma   119.99999999
_symmetry_Int_Tables_number   1
_chemical_formula_structural   Cs3Mo2Br9
_chemical_formula_sum   'Cs6 Mo4 Br18'
_cell_volume   1034.21831283
_cell_formula_units_Z   2
loop_
 _symmetry_equiv_pos_site_id
 _symmetry_equiv_pos_as_xyz
  1  'x, y, z'
loop_
 _atom_site_type_symbol
 _atom_site_label
 _atom_site_symmetry_multiplicity
 _atom_site_fract_x
 _atom_site_fract_y
 _atom_site_fract_z
 _atom_site_occupancy
  Br  Br0  1  0.82031642  0.64063284  0.09607769  1
  Br  Br1  1  0.17968358  0.82031642  0.59607769  1
  Br  Br2  1  0.64063284  0.82031642  0.59607769  1
  Br  Br3  1  0.35936716  0.17968358  0.09607769  1
  Br  Br4  1  0.82031642  0.17968358  0.09607769  1
  Br  Br5  1  0.17968358  0.35936716  0.90392231  1
  Br  Br6  1  0.17968358  0.82031642  0.90392231  1
  Br  Br7  1  0.17968358  0.35936716  0.59607769  1
  Br  Br8  1  0.64063284  0.82031642  0.90392231  1
  Br  Br9  1  0.35936716  0.17968358  0.40392231  1
  Br  Br10  1  0.82031642  0.64063284  0.40392231  1
  Br  Br11  1  0.82031642  0.17968358  0.40392231  1
  Br  Br12  1  0.50576823  0.01153646  0.25000000  1
  Br  Br13  1  0.49423177  0.50576823  0.75000000  1
  Br  Br14  1  0.01153646  0.50576823  0.75000000  1
  Br  Br15  1  0.98846354  0.49423177  0.25000000  1
  Br  Br16  1  0.50576823  0.49423177  0.25000000  1
  Br  Br17  1  0.49423177  0.98846354  0.75000000  1
  Mo  Mo18  1  0.33333333  0.66666667  0.67477417  1
  Mo  Mo19  1  0.66666667  0.33333333  0.17477417  1
  Mo  Mo20  1  0.66666667  0.33333333  0.32522583  1
  Mo  Mo21  1  0.33333333  0.66666667  0.82522583  1
  Cs  Cs22  1  0.66666667  0.33333333  0.93055776  1
  Cs  Cs23  1  0.33333333  0.66666667  0.43055776  1
  Cs  Cs24  1  0.66666667  0.33333333  0.56944224  1
  Cs  Cs25  1  0.33333333  0.66666667  0.06944224  1
  Cs  Cs26  1  0.00000000  0.00000000  0.75000000  1
  Cs  Cs27  1  0.00000000  0.00000000  0.25000000  1
