# generated using pymatgen
data_IO2
_symmetry_space_group_name_H-M   'P 1'
_cell_length_a   7.01199464
_cell_length_b   8.14847062
_cell_length_c   8.33402110
_cell_angle_alpha   116.99717122
_cell_angle_beta   90.00000000
_cell_angle_gamma   90.00000000
_symmetry_Int_Tables_number   1
_chemical_formula_structural   IO2
_chemical_formula_sum   'I8 O16'
_cell_volume   424.29125789
_cell_formula_units_Z   8
loop_
 _symmetry_equiv_pos_site_id
 _symmetry_equiv_pos_as_xyz
  1  'x, y, z'
loop_
 _atom_site_type_symbol
 _atom_site_label
 _atom_site_symmetry_multiplicity
 _atom_site_fract_x
 _atom_site_fract_y
 _atom_site_fract_z
 _atom_site_occupancy
  O  O0  1  0.25637561  0.05261817  0.51234969  1
  O  O1  1  0.75637561  0.94738183  0.98765031  1
  O  O2  1  0.74362439  0.94738183  0.48765031  1
  O  O3  1  0.24362439  0.05261817  0.01234969  1
  O  O4  1  0.34810739  0.31115341  0.35396833  1
  O  O5  1  0.84810739  0.68884659  0.14603167  1
  O  O6  1  0.65189261  0.68884659  0.64603167  1
  O  O7  1  0.15189261  0.31115341  0.85396833  1
  O  O8  1  0.04418299  0.69906582  0.43779726  1
  O  O9  1  0.54418299  0.30093418  0.06220274  1
  O  O10  1  0.95581701  0.30093418  0.56220274  1
  O  O11  1  0.45581701  0.69906582  0.93779726  1
  O  O12  1  0.03920185  0.69410580  0.77976796  1
  O  O13  1  0.53920185  0.30589420  0.72023204  1
  O  O14  1  0.96079815  0.30589420  0.22023204  1
  O  O15  1  0.46079815  0.69410580  0.27976796  1
  I  I16  1  0.12088486  0.85949264  0.68432672  1
  I  I17  1  0.62088486  0.14050736  0.81567328  1
  I  I18  1  0.87911514  0.14050736  0.31567328  1
  I  I19  1  0.37911514  0.85949264  0.18432672  1
  I  I20  1  0.25775075  0.30535525  0.14757543  1
  I  I21  1  0.75775075  0.69464475  0.35242457  1
  I  I22  1  0.74224925  0.69464475  0.85242457  1
  I  I23  1  0.24224925  0.30535525  0.64757543  1
