# generated using pymatgen
data_KCeSe4
_symmetry_space_group_name_H-M   'P 1'
_cell_length_a   6.37765793
_cell_length_b   6.37765793
_cell_length_c   8.45975755
_cell_angle_alpha   90.00000000
_cell_angle_beta   90.00000000
_cell_angle_gamma   90.00000000
_symmetry_Int_Tables_number   1
_chemical_formula_structural   KCeSe4
_chemical_formula_sum   'K2 Ce2 Se8'
_cell_volume   344.09658335
_cell_formula_units_Z   2
loop_
 _symmetry_equiv_pos_site_id
 _symmetry_equiv_pos_as_xyz
  1  'x, y, z'
loop_
 _atom_site_type_symbol
 _atom_site_label
 _atom_site_symmetry_multiplicity
 _atom_site_fract_x
 _atom_site_fract_y
 _atom_site_fract_z
 _atom_site_occupancy
  K  K0  1  0.75000000  0.75000000  0.50000000  1
  K  K1  1  0.25000000  0.25000000  0.50000000  1
  Se  Se2  1  0.88664226  0.11335774  0.21010081  1
  Se  Se3  1  0.38664226  0.88664226  0.21010081  1
  Se  Se4  1  0.11335774  0.61335774  0.21010081  1
  Se  Se5  1  0.88664226  0.38664226  0.78989919  1
  Se  Se6  1  0.61335774  0.11335774  0.78989919  1
  Se  Se7  1  0.61335774  0.38664226  0.21010081  1
  Se  Se8  1  0.11335774  0.88664226  0.78989919  1
  Se  Se9  1  0.38664226  0.61335774  0.78989919  1
  Ce  Ce10  1  0.75000000  0.75000000  0.00000000  1
  Ce  Ce11  1  0.25000000  0.25000000  0.00000000  1
