# generated using pymatgen
data_Dy(HO)3
_symmetry_space_group_name_H-M   'P 1'
_cell_length_a   6.35839594
_cell_length_b   6.35839594
_cell_length_c   3.54361970
_cell_angle_alpha   90.00000000
_cell_angle_beta   90.00000000
_cell_angle_gamma   120.00000001
_symmetry_Int_Tables_number   1
_chemical_formula_structural   Dy(HO)3
_chemical_formula_sum   'Dy2 H6 O6'
_cell_volume   124.07174067
_cell_formula_units_Z   2
loop_
 _symmetry_equiv_pos_site_id
 _symmetry_equiv_pos_as_xyz
  1  'x, y, z'
loop_
 _atom_site_type_symbol
 _atom_site_label
 _atom_site_symmetry_multiplicity
 _atom_site_fract_x
 _atom_site_fract_y
 _atom_site_fract_z
 _atom_site_occupancy
  H  H0  1  0.71967265  0.86046301  0.75000000  1
  H  H1  1  0.85920964  0.71967265  0.25000000  1
  H  H2  1  0.14079036  0.28032735  0.75000000  1
  H  H3  1  0.28032735  0.13953699  0.25000000  1
  H  H4  1  0.86046301  0.14079036  0.25000000  1
  H  H5  1  0.13953699  0.85920964  0.75000000  1
  O  O6  1  0.91493029  0.60230591  0.25000000  1
  O  O7  1  0.60230591  0.68737562  0.75000000  1
  O  O8  1  0.08506971  0.39769409  0.75000000  1
  O  O9  1  0.39769409  0.31262438  0.25000000  1
  O  O10  1  0.68737562  0.08506971  0.25000000  1
  O  O11  1  0.31262438  0.91493029  0.75000000  1
  Dy  Dy12  1  0.66666667  0.33333333  0.75000000  1
  Dy  Dy13  1  0.33333333  0.66666667  0.25000000  1
