# generated using pymatgen
data_Fe2WO6
_symmetry_space_group_name_H-M   'P 1'
_cell_length_a   4.62486800
_cell_length_b   5.07373490
_cell_length_c   16.96556326
_cell_angle_alpha   90.00000000
_cell_angle_beta   90.00000000
_cell_angle_gamma   90.00000000
_symmetry_Int_Tables_number   1
_chemical_formula_structural   Fe2WO6
_chemical_formula_sum   'Fe8 W4 O24'
_cell_volume   398.10295075
_cell_formula_units_Z   4
loop_
 _symmetry_equiv_pos_site_id
 _symmetry_equiv_pos_as_xyz
  1  'x, y, z'
loop_
 _atom_site_type_symbol
 _atom_site_label
 _atom_site_symmetry_multiplicity
 _atom_site_fract_x
 _atom_site_fract_y
 _atom_site_fract_z
 _atom_site_occupancy
  O  O0  1  0.72489252  0.91604577  0.20274454  1
  O  O1  1  0.22489181  0.08395454  0.29725533  1
  O  O2  1  0.77510746  0.41604562  0.29725533  1
  O  O3  1  0.27510891  0.58395470  0.20274454  1
  O  O4  1  0.27510891  0.08395454  0.79725520  1
  O  O5  1  0.77510746  0.91604577  0.70274442  1
  O  O6  1  0.22489181  0.58395470  0.70274442  1
  O  O7  1  0.72489252  0.41604562  0.79725520  1
  O  O8  1  0.72654776  0.43002516  0.12589556  1
  O  O9  1  0.22654705  0.56997515  0.37410431  1
  O  O10  1  0.77345222  0.93002532  0.37410431  1
  O  O11  1  0.27345367  0.06997499  0.12589556  1
  O  O12  1  0.76375922  0.40660039  0.95909830  1
  O  O13  1  0.26376067  0.59339993  0.54090192  1
  O  O14  1  0.73624076  0.90659853  0.54090192  1
  O  O15  1  0.23624005  0.09339977  0.95909830  1
  O  O16  1  0.23624005  0.59339993  0.04090205  1
  O  O17  1  0.73624076  0.40660039  0.45909783  1
  O  O18  1  0.27345367  0.56997515  0.87410419  1
  O  O19  1  0.76375922  0.90659853  0.04090205  1
  O  O20  1  0.72654776  0.93002532  0.87410419  1
  O  O21  1  0.22654705  0.06997499  0.62589603  1
  O  O22  1  0.77345222  0.43002516  0.62589603  1
  O  O23  1  0.26376067  0.09339977  0.45909783  1
  Fe  Fe24  1  0.00000000  0.74999923  0.94720002  1
  Fe  Fe25  1  0.50000071  0.24999907  0.55280019  1
  Fe  Fe26  1  0.00000000  0.24999907  0.05280032  1
  Fe  Fe27  1  0.50000071  0.74999923  0.44720015  1
  Fe  Fe28  1  0.50000071  0.74999923  0.77768152  1
  Fe  Fe29  1  0.00000000  0.24999907  0.72231869  1
  Fe  Fe30  1  0.00000000  0.74999923  0.27768106  1
  Fe  Fe31  1  0.50000071  0.24999907  0.22231882  1
  W  W32  1  0.00000000  0.74999923  0.61565711  1
  W  W33  1  0.50000071  0.24999907  0.88434310  1
  W  W34  1  0.00000000  0.24999907  0.38434263  1
  W  W35  1  0.50000071  0.74999923  0.11565724  1
