# generated using pymatgen
data_Zn2PHO5
_symmetry_space_group_name_H-M   'P 1'
_cell_length_a   6.06249228
_cell_length_b   8.21356223
_cell_length_c   8.39598505
_cell_angle_alpha   90.00000000
_cell_angle_beta   90.00000000
_cell_angle_gamma   90.00000000
_symmetry_Int_Tables_number   1
_chemical_formula_structural   Zn2PHO5
_chemical_formula_sum   'Zn8 P4 H4 O20'
_cell_volume   418.07520087
_cell_formula_units_Z   4
loop_
 _symmetry_equiv_pos_site_id
 _symmetry_equiv_pos_as_xyz
  1  'x, y, z'
loop_
 _atom_site_type_symbol
 _atom_site_label
 _atom_site_symmetry_multiplicity
 _atom_site_fract_x
 _atom_site_fract_y
 _atom_site_fract_z
 _atom_site_occupancy
  H  H0  1  0.00000000  0.22453546  0.57863288  1
  H  H1  1  0.00000000  0.77546454  0.42136712  1
  H  H2  1  0.50000000  0.72453546  0.92136712  1
  H  H3  1  0.50000000  0.27546454  0.07863288  1
  O  O4  1  0.00000000  0.11492169  0.62366622  1
  O  O5  1  0.00000000  0.88507831  0.37633378  1
  O  O6  1  0.50000000  0.61492169  0.87633378  1
  O  O7  1  0.50000000  0.38507831  0.12366622  1
  O  O8  1  0.70768308  0.73369625  0.15303157  1
  O  O9  1  0.70768308  0.26630375  0.84696843  1
  O  O10  1  0.79231692  0.23369625  0.34696843  1
  O  O11  1  0.79231692  0.76630375  0.65303157  1
  O  O12  1  0.00000000  0.11375391  0.10907746  1
  O  O13  1  0.00000000  0.88624609  0.89092254  1
  O  O14  1  0.50000000  0.61375391  0.39092254  1
  O  O15  1  0.50000000  0.38624609  0.60907746  1
  O  O16  1  0.00000000  0.41635380  0.14698867  1
  O  O17  1  0.00000000  0.58364620  0.85301133  1
  O  O18  1  0.50000000  0.91635380  0.35301133  1
  O  O19  1  0.50000000  0.08364620  0.64698867  1
  O  O20  1  0.20768308  0.23369625  0.34696843  1
  O  O21  1  0.20768308  0.76630375  0.65303157  1
  O  O22  1  0.29231692  0.73369625  0.15303157  1
  O  O23  1  0.29231692  0.26630375  0.84696843  1
  P  P24  1  0.50000000  0.24967639  0.73918777  1
  P  P25  1  0.50000000  0.75032361  0.26081223  1
  P  P26  1  0.00000000  0.74967639  0.76081223  1
  P  P27  1  0.00000000  0.25032361  0.23918777  1
  Zn  Zn28  1  0.75278198  0.00000000  0.50000000  1
  Zn  Zn29  1  0.74721802  0.50000000  0.00000000  1
  Zn  Zn30  1  0.24721802  0.00000000  0.50000000  1
  Zn  Zn31  1  0.25278198  0.50000000  0.00000000  1
  Zn  Zn32  1  0.00000000  0.13559729  0.86319554  1
  Zn  Zn33  1  0.00000000  0.86440271  0.13680446  1
  Zn  Zn34  1  0.50000000  0.63559729  0.63680446  1
  Zn  Zn35  1  0.50000000  0.36440271  0.36319554  1
