# generated using pymatgen
data_Fe2PO5
_symmetry_space_group_name_H-M   'P 1'
_cell_length_a   6.53132100
_cell_length_b   7.47524062
_cell_length_c   7.58891998
_cell_angle_alpha   90.00000000
_cell_angle_beta   90.00000000
_cell_angle_gamma   90.00000000
_symmetry_Int_Tables_number   1
_chemical_formula_structural   Fe2PO5
_chemical_formula_sum   'Fe8 P4 O20'
_cell_volume   370.51532793
_cell_formula_units_Z   4
loop_
 _symmetry_equiv_pos_site_id
 _symmetry_equiv_pos_as_xyz
  1  'x, y, z'
loop_
 _atom_site_type_symbol
 _atom_site_label
 _atom_site_symmetry_multiplicity
 _atom_site_fract_x
 _atom_site_fract_y
 _atom_site_fract_z
 _atom_site_occupancy
  O  O0  1  0.55949456  0.63159564  0.74964144  1
  O  O1  1  0.05949456  0.36840436  0.25035856  1
  O  O2  1  0.94050544  0.13159564  0.75035856  1
  O  O3  1  0.44050544  0.86840436  0.24964144  1
  O  O4  1  0.44050544  0.36840436  0.25035856  1
  O  O5  1  0.94050544  0.63159564  0.74964144  1
  O  O6  1  0.05949456  0.86840436  0.24964144  1
  O  O7  1  0.55949456  0.13159564  0.75035856  1
  O  O8  1  0.25000000  0.54983499  0.01962733  1
  O  O9  1  0.75000000  0.45016501  0.98037267  1
  O  O10  1  0.25000000  0.04983499  0.48037267  1
  O  O11  1  0.75000000  0.95016501  0.51962733  1
  O  O12  1  0.25000000  0.90131306  0.85752207  1
  O  O13  1  0.75000000  0.09868694  0.14247793  1
  O  O14  1  0.25000000  0.40131306  0.64247793  1
  O  O15  1  0.75000000  0.59868694  0.35752207  1
  O  O16  1  0.25000000  0.20966896  0.00460689  1
  O  O17  1  0.75000000  0.79033104  0.99539311  1
  O  O18  1  0.25000000  0.70966896  0.49539311  1
  O  O19  1  0.75000000  0.29033104  0.50460689  1
  P  P20  1  0.25000000  0.87750790  0.37197272  1
  P  P21  1  0.75000000  0.12249210  0.62802728  1
  P  P22  1  0.25000000  0.37750790  0.12802728  1
  P  P23  1  0.75000000  0.62249210  0.87197272  1
  Fe  Fe24  1  0.75000000  0.84932504  0.28495961  1
  Fe  Fe25  1  0.25000000  0.15067496  0.71504039  1
  Fe  Fe26  1  0.75000000  0.34932504  0.21504039  1
  Fe  Fe27  1  0.25000000  0.65067496  0.78495961  1
  Fe  Fe28  1  0.00000000  0.50000000  0.50000000  1
  Fe  Fe29  1  0.50000000  0.50000000  0.50000000  1
  Fe  Fe30  1  0.50000000  0.00000000  0.00000000  1
  Fe  Fe31  1  0.00000000  0.00000000  0.00000000  1
