# generated using pymatgen
data_K2HgH2Cl4O
_symmetry_space_group_name_H-M   'P 1'
_cell_length_a   8.48214623
_cell_length_b   9.04082460
_cell_length_c   11.92697554
_cell_angle_alpha   90.00000000
_cell_angle_beta   90.00000000
_cell_angle_gamma   90.00000000
_symmetry_Int_Tables_number   1
_chemical_formula_structural   K2HgH2Cl4O
_chemical_formula_sum   'K8 Hg4 H8 Cl16 O4'
_cell_volume   914.62723130
_cell_formula_units_Z   4
loop_
 _symmetry_equiv_pos_site_id
 _symmetry_equiv_pos_as_xyz
  1  'x, y, z'
loop_
 _atom_site_type_symbol
 _atom_site_label
 _atom_site_symmetry_multiplicity
 _atom_site_fract_x
 _atom_site_fract_y
 _atom_site_fract_z
 _atom_site_occupancy
  H  H0  1  0.58631382  0.70026273  0.97734966  1
  H  H1  1  0.08631382  0.29973727  0.52265034  1
  H  H2  1  0.41368618  0.70026273  0.02265034  1
  H  H3  1  0.91368618  0.29973727  0.47734966  1
  H  H4  1  0.41368618  0.29973727  0.02265034  1
  H  H5  1  0.91368618  0.70026273  0.47734966  1
  H  H6  1  0.58631382  0.29973727  0.97734966  1
  H  H7  1  0.08631382  0.70026273  0.52265034  1
  O  O8  1  0.50000000  0.76719590  0.00000000  1
  O  O9  1  0.00000000  0.23280410  0.50000000  1
  O  O10  1  0.50000000  0.23280410  0.00000000  1
  O  O11  1  0.00000000  0.76719590  0.50000000  1
  Cl  Cl12  1  0.79846067  0.00000000  0.92408384  1
  Cl  Cl13  1  0.29846067  0.00000000  0.57591616  1
  Cl  Cl14  1  0.20153933  0.00000000  0.07591616  1
  Cl  Cl15  1  0.70153933  0.00000000  0.42408384  1
  Cl  Cl16  1  0.73771734  0.50000000  0.94028648  1
  Cl  Cl17  1  0.23771734  0.50000000  0.55971352  1
  Cl  Cl18  1  0.26228266  0.50000000  0.05971352  1
  Cl  Cl19  1  0.76228266  0.50000000  0.44028648  1
  Cl  Cl20  1  0.11532742  0.74568312  0.81412534  1
  Cl  Cl21  1  0.61532742  0.25431688  0.68587466  1
  Cl  Cl22  1  0.88467258  0.74568312  0.18587466  1
  Cl  Cl23  1  0.38467258  0.25431688  0.31412534  1
  Cl  Cl24  1  0.88467258  0.25431688  0.18587466  1
  Cl  Cl25  1  0.38467258  0.74568312  0.31412534  1
  Cl  Cl26  1  0.11532742  0.25431688  0.81412534  1
  Cl  Cl27  1  0.61532742  0.74568312  0.68587466  1
  K  K28  1  0.60719113  0.50000000  0.19691103  1
  K  K29  1  0.10719113  0.50000000  0.30308897  1
  K  K30  1  0.39280887  0.50000000  0.80308897  1
  K  K31  1  0.89280887  0.50000000  0.69691103  1
  K  K32  1  0.57988958  0.00000000  0.15509293  1
  K  K33  1  0.07988958  0.00000000  0.34490707  1
  K  K34  1  0.42011042  0.00000000  0.84490707  1
  K  K35  1  0.92011042  0.00000000  0.65509293  1
  Hg  Hg36  1  0.50000000  0.77515850  0.50000000  1
  Hg  Hg37  1  0.00000000  0.22484150  0.00000000  1
  Hg  Hg38  1  0.50000000  0.22484150  0.50000000  1
  Hg  Hg39  1  0.00000000  0.77515850  0.00000000  1
