# generated using pymatgen
data_LiH6NO6
_symmetry_space_group_name_H-M   'P 1'
_cell_length_a   6.06861008
_cell_length_b   6.93911489
_cell_length_c   7.22974397
_cell_angle_alpha   118.67890101
_cell_angle_beta   90.00000000
_cell_angle_gamma   90.00000000
_symmetry_Int_Tables_number   1
_chemical_formula_structural   LiH6NO6
_chemical_formula_sum   'Li2 H12 N2 O12'
_cell_volume   267.10112519
_cell_formula_units_Z   2
loop_
 _symmetry_equiv_pos_site_id
 _symmetry_equiv_pos_as_xyz
  1  'x, y, z'
loop_
 _atom_site_type_symbol
 _atom_site_label
 _atom_site_symmetry_multiplicity
 _atom_site_fract_x
 _atom_site_fract_y
 _atom_site_fract_z
 _atom_site_occupancy
  H  H0  1  0.62057639  0.68067585  0.36135169  1
  H  H1  1  0.75000000  0.20094359  0.83111834  1
  H  H2  1  0.12057639  0.31932415  0.63864831  1
  H  H3  1  0.37942361  0.31932415  0.63864831  1
  H  H4  1  0.87942361  0.68067585  0.36135169  1
  H  H5  1  0.75000000  0.34315551  0.07621085  1
  H  H6  1  0.25000000  0.79905641  0.16888166  1
  H  H7  1  0.25000000  0.65684449  0.92378915  1
  H  H8  1  0.75000000  0.73305534  0.07621085  1
  H  H9  1  0.75000000  0.63017475  0.83111834  1
  H  H10  1  0.25000000  0.36982525  0.16888166  1
  H  H11  1  0.25000000  0.26694466  0.92378915  1
  Li  Li12  1  0.50000000  0.00000000  0.00000000  1
  Li  Li13  1  0.00000000  0.00000000  0.00000000  1
  N  N14  1  0.75000000  0.22008078  0.44016156  1
  N  N15  1  0.25000000  0.77991922  0.55983844  1
  O  O16  1  0.56786171  0.17224680  0.34449360  1
  O  O17  1  0.25000000  0.81093828  0.03903584  1
  O  O18  1  0.75000000  0.18906172  0.96096416  1
  O  O19  1  0.25000000  0.67860347  0.35720695  1
  O  O20  1  0.75000000  0.32139653  0.64279305  1
  O  O21  1  0.25000000  0.22809756  0.03903584  1
  O  O22  1  0.06786171  0.82775320  0.65550640  1
  O  O23  1  0.43213829  0.82775320  0.65550640  1
  O  O24  1  0.93213829  0.17224680  0.34449360  1
  O  O25  1  0.75000000  0.77190244  0.96096416  1
  O  O26  1  0.25000000  0.36598841  0.73197682  1
  O  O27  1  0.75000000  0.63401159  0.26802318  1
