# generated using pymatgen
data_TbYb3
_symmetry_space_group_name_H-M   'P 1'
_cell_length_a   7.51378205
_cell_length_b   7.51314504
_cell_length_c   6.07062546
_cell_angle_alpha   90.00000000
_cell_angle_beta   90.00000000
_cell_angle_gamma   119.98419649
_symmetry_Int_Tables_number   1
_chemical_formula_structural   TbYb3
_chemical_formula_sum   'Tb2 Yb6'
_cell_volume   296.83395259
_cell_formula_units_Z   2
loop_
 _symmetry_equiv_pos_site_id
 _symmetry_equiv_pos_as_xyz
  1  'x, y, z'
loop_
 _atom_site_type_symbol
 _atom_site_label
 _atom_site_symmetry_multiplicity
 _atom_site_fract_x
 _atom_site_fract_y
 _atom_site_fract_z
 _atom_site_occupancy
  Tb  Tb0  1  0.33327785  0.66663639  0.74999900  1
  Tb  Tb1  1  0.66670817  0.33336792  0.24999900  1
  Yb  Yb2  1  0.17040232  0.34077925  0.24999900  1
  Yb  Yb3  1  0.65923092  0.82959401  0.24999900  1
  Yb  Yb4  1  0.17040455  0.82958870  0.24999900  1
  Yb  Yb5  1  0.82957853  0.65914778  0.74999900  1
  Yb  Yb6  1  0.34084089  0.17042827  0.74999900  1
  Yb  Yb7  1  0.82955777  0.17045369  0.74999900  1
