# generated using pymatgen
data_SrCaB5H2ClO10
_symmetry_space_group_name_H-M   'P 1'
_cell_length_a   6.42453403
_cell_length_b   6.58036042
_cell_length_c   6.73748072
_cell_angle_alpha   78.65943393
_cell_angle_beta   61.44467081
_cell_angle_gamma   60.88488411
_symmetry_Int_Tables_number   1
_chemical_formula_structural   SrCaB5H2ClO10
_chemical_formula_sum   'Sr1 Ca1 B5 H2 Cl1 O10'
_cell_volume   218.33177159
_cell_formula_units_Z   1
loop_
 _symmetry_equiv_pos_site_id
 _symmetry_equiv_pos_as_xyz
  1  'x, y, z'
loop_
 _atom_site_type_symbol
 _atom_site_label
 _atom_site_symmetry_multiplicity
 _atom_site_fract_x
 _atom_site_fract_y
 _atom_site_fract_z
 _atom_site_occupancy
  H  H0  1  0.05512460  0.10111731  0.24707495  1
  H  H1  1  0.77092625  0.16644603  0.27234003  1
  B  B2  1  0.56452059  0.61015263  0.16810409  1
  B  B3  1  0.35110446  0.64511777  0.61967071  1
  B  B4  1  0.00073730  0.49750667  0.83193138  1
  B  B5  1  0.59207482  0.72340553  0.77904038  1
  B  B6  1  0.21058505  0.05248204  0.73897206  1
  O  O7  1  0.45679024  0.66418046  0.01671977  1
  O  O8  1  0.89813353  0.07329501  0.33584418  1
  O  O9  1  0.39000422  0.61320034  0.38969303  1
  O  O10  1  0.15105697  0.89458082  0.69808442  1
  O  O11  1  0.60464497  0.58951667  0.61681260  1
  O  O12  1  0.25517405  0.48405392  0.77462241  1
  O  O13  1  0.01792284  0.27851000  0.77321379  1
  O  O14  1  0.83303721  0.53724823  0.08923488  1
  O  O15  1  0.85628033  0.68645192  0.72079062  1
  O  O16  1  0.44093280  0.97985224  0.75675538  1
  Cl  Cl17  1  0.45344896  0.13548858  0.20374747  1
  Ca  Ca18  1  0.69068945  0.16828809  0.74470568  1
  Sr  Sr19  1  0.03173137  0.62343574  0.29274217  1
