# generated using pymatgen
data_TeO2
_symmetry_space_group_name_H-M   'P 1'
_cell_length_a   4.96887467
_cell_length_b   4.96887467
_cell_length_c   7.62578377
_cell_angle_alpha   90.00000000
_cell_angle_beta   90.00000000
_cell_angle_gamma   90.00000000
_symmetry_Int_Tables_number   1
_chemical_formula_structural   TeO2
_chemical_formula_sum   'Te4 O8'
_cell_volume   188.27843164
_cell_formula_units_Z   4
loop_
 _symmetry_equiv_pos_site_id
 _symmetry_equiv_pos_as_xyz
  1  'x, y, z'
loop_
 _atom_site_type_symbol
 _atom_site_label
 _atom_site_symmetry_multiplicity
 _atom_site_fract_x
 _atom_site_fract_y
 _atom_site_fract_z
 _atom_site_occupancy
  O  O0  1  0.25477554  0.14535388  0.19051714  1
  O  O1  1  0.35464612  0.75477554  0.94051714  1
  O  O2  1  0.64535388  0.24522446  0.44051714  1
  O  O3  1  0.75477554  0.35464612  0.05948286  1
  O  O4  1  0.24522446  0.64535388  0.55948286  1
  O  O5  1  0.74522446  0.85464612  0.69051714  1
  O  O6  1  0.14535388  0.25477554  0.80948286  1
  O  O7  1  0.85464612  0.74522446  0.30948286  1
  Te  Te8  1  0.03155797  0.03155797  0.00000000  1
  Te  Te9  1  0.46844203  0.53155797  0.75000000  1
  Te  Te10  1  0.53155797  0.46844203  0.25000000  1
  Te  Te11  1  0.96844203  0.96844203  0.50000000  1
