# generated using pymatgen
data_LiBiP2O7
_symmetry_space_group_name_H-M   'P 1'
_cell_length_a   5.03834563
_cell_length_b   9.07576149
_cell_length_c   7.45530712
_cell_angle_alpha   90.00000000
_cell_angle_beta   107.30540653
_cell_angle_gamma   90.00000000
_symmetry_Int_Tables_number   1
_chemical_formula_structural   LiBiP2O7
_chemical_formula_sum   'Li2 Bi2 P4 O14'
_cell_volume   325.47556012
_cell_formula_units_Z   2
loop_
 _symmetry_equiv_pos_site_id
 _symmetry_equiv_pos_as_xyz
  1  'x, y, z'
loop_
 _atom_site_type_symbol
 _atom_site_label
 _atom_site_symmetry_multiplicity
 _atom_site_fract_x
 _atom_site_fract_y
 _atom_site_fract_z
 _atom_site_occupancy
  Li  Li0  1  0.20023496  0.78792213  0.65118652  1
  Li  Li1  1  0.79976504  0.28792213  0.34881348  1
  O  O2  1  0.40767069  0.61740600  0.21902121  1
  O  O3  1  0.93294322  0.74628046  0.11500877  1
  O  O4  1  0.06705678  0.24628046  0.88499123  1
  O  O5  1  0.19678474  0.68211553  0.88138336  1
  O  O6  1  0.22328684  0.25669074  0.52234175  1
  O  O7  1  0.24277475  0.97554375  0.53597764  1
  O  O8  1  0.38449843  0.62265962  0.55686190  1
  O  O9  1  0.77671316  0.75669074  0.47765825  1
  O  O10  1  0.59232931  0.11740600  0.78097879  1
  O  O11  1  0.63877460  0.38958181  0.88104411  1
  O  O12  1  0.36122540  0.88958181  0.11895589  1
  O  O13  1  0.61550157  0.12265962  0.44313810  1
  O  O14  1  0.75722525  0.47554375  0.46402236  1
  O  O15  1  0.80321526  0.18211553  0.11861664  1
  P  P16  1  0.21449583  0.73846704  0.07747486  1
  P  P17  1  0.78550417  0.23846704  0.92252514  1
  P  P18  1  0.41221564  0.11803106  0.56060819  1
  P  P19  1  0.58778436  0.61803106  0.43939181  1
  Bi  Bi20  1  0.80294253  0.94195586  0.27060143  1
  Bi  Bi21  1  0.19705747  0.44195586  0.72939857  1
