# generated using pymatgen
data_Ca2Fe2O5
_symmetry_space_group_name_H-M   'P 1'
_cell_length_a   5.53968045
_cell_length_b   5.65539421
_cell_length_c   14.87793800
_cell_angle_alpha   90.00000000
_cell_angle_beta   90.00000000
_cell_angle_gamma   90.00000000
_symmetry_Int_Tables_number   1
_chemical_formula_structural   Ca2Fe2O5
_chemical_formula_sum   'Ca8 Fe8 O20'
_cell_volume   466.11206137
_cell_formula_units_Z   4
loop_
 _symmetry_equiv_pos_site_id
 _symmetry_equiv_pos_as_xyz
  1  'x, y, z'
loop_
 _atom_site_type_symbol
 _atom_site_label
 _atom_site_symmetry_multiplicity
 _atom_site_fract_x
 _atom_site_fract_y
 _atom_site_fract_z
 _atom_site_occupancy
  O  O0  1  0.59935783  0.87327379  0.24999984  1
  O  O1  1  0.09935866  0.62672674  0.24999984  1
  O  O2  1  0.90064155  0.37327301  0.75000018  1
  O  O3  1  0.40064238  0.12672777  0.75000018  1
  O  O4  1  0.96503557  0.91824704  0.64104994  1
  O  O5  1  0.46503453  0.58175169  0.85894976  1
  O  O6  1  0.53496568  0.41824807  0.35895008  1
  O  O7  1  0.03496464  0.08175271  0.14105026  1
  O  O8  1  0.03496464  0.08175271  0.35895008  1
  O  O9  1  0.53496568  0.41824807  0.14105026  1
  O  O10  1  0.46503453  0.58175169  0.64104994  1
  O  O11  1  0.96503557  0.91824704  0.85894976  1
  O  O12  1  0.72098381  0.77941826  0.48057952  1
  O  O13  1  0.22098277  0.72058227  0.01942016  1
  O  O14  1  0.77901744  0.27941748  0.51942050  1
  O  O15  1  0.27901640  0.22058149  0.98057987  1
  O  O16  1  0.72098381  0.77941826  0.01942016  1
  O  O17  1  0.22098277  0.72058227  0.48057952  1
  O  O18  1  0.27901640  0.22058149  0.51942050  1
  O  O19  1  0.77901744  0.27941748  0.98057987  1
  Ca  Ca20  1  0.53476981  0.97953772  0.89066338  1
  Ca  Ca21  1  0.03477064  0.52046101  0.60933632  1
  Ca  Ca22  1  0.96522957  0.47953874  0.10933664  1
  Ca  Ca23  1  0.46522853  0.02046203  0.39066304  1
  Ca  Ca24  1  0.46522853  0.02046203  0.10933664  1
  Ca  Ca25  1  0.96522957  0.47953874  0.39066304  1
  Ca  Ca26  1  0.03477064  0.52046101  0.89066338  1
  Ca  Ca27  1  0.53476981  0.97953772  0.60933632  1
  Fe  Fe28  1  0.00000000  0.00000000  0.00000000  1
  Fe  Fe29  1  0.49999917  0.50000078  0.49999968  1
  Fe  Fe30  1  0.49999917  0.50000078  0.00000000  1
  Fe  Fe31  1  0.00000000  0.00000000  0.49999968  1
  Fe  Fe32  1  0.05251308  0.06205698  0.75000018  1
  Fe  Fe33  1  0.55251412  0.43794200  0.75000018  1
  Fe  Fe34  1  0.44748609  0.56205775  0.24999984  1
  Fe  Fe35  1  0.94748714  0.93794278  0.24999984  1
