# generated using pymatgen
data_Bi4Se3
_symmetry_space_group_name_H-M   'P 1'
_cell_length_a   13.84029085
_cell_length_b   13.84029085
_cell_length_c   13.84029086
_cell_angle_alpha   17.99432476
_cell_angle_beta   17.99432474
_cell_angle_gamma   17.99432476
_symmetry_Int_Tables_number   1
_chemical_formula_structural   Bi4Se3
_chemical_formula_sum   'Bi4 Se3'
_cell_volume   220.91266986
_cell_formula_units_Z   1
loop_
 _symmetry_equiv_pos_site_id
 _symmetry_equiv_pos_as_xyz
  1  'x, y, z'
loop_
 _atom_site_type_symbol
 _atom_site_label
 _atom_site_symmetry_multiplicity
 _atom_site_fract_x
 _atom_site_fract_y
 _atom_site_fract_z
 _atom_site_occupancy
  Se  Se0  1  0.00000000  0.00000000  0.00000000  1
  Se  Se1  1  0.58378320  0.58378320  0.58378320  1
  Se  Se2  1  0.41621680  0.41621680  0.41621680  1
  Bi  Bi3  1  0.71247186  0.71247186  0.71247186  1
  Bi  Bi4  1  0.28752814  0.28752814  0.28752814  1
  Bi  Bi5  1  0.85456770  0.85456770  0.85456770  1
  Bi  Bi6  1  0.14543230  0.14543230  0.14543230  1
