# generated using pymatgen
data_Li3InO3
_symmetry_space_group_name_H-M   'P 1'
_cell_length_a   9.88804162
_cell_length_b   9.88804162
_cell_length_c   10.43252482
_cell_angle_alpha   90.00000000
_cell_angle_beta   90.00000000
_cell_angle_gamma   119.99999999
_symmetry_Int_Tables_number   1
_chemical_formula_structural   Li3InO3
_chemical_formula_sum   'Li36 In12 O36'
_cell_volume   883.36589903
_cell_formula_units_Z   12
loop_
 _symmetry_equiv_pos_site_id
 _symmetry_equiv_pos_as_xyz
  1  'x, y, z'
loop_
 _atom_site_type_symbol
 _atom_site_label
 _atom_site_symmetry_multiplicity
 _atom_site_fract_x
 _atom_site_fract_y
 _atom_site_fract_z
 _atom_site_occupancy
  Li  Li0  1  0.43710370  0.19166193  0.92935679  1
  Li  Li1  1  0.80833807  0.24544178  0.92935679  1
  Li  Li2  1  0.75455822  0.56289630  0.92935679  1
  Li  Li3  1  0.24544178  0.80833807  0.57064321  1
  Li  Li4  1  0.56289630  0.75455822  0.57064321  1
  Li  Li5  1  0.19166193  0.43710370  0.57064321  1
  Li  Li6  1  0.56289630  0.80833807  0.07064321  1
  Li  Li7  1  0.19166193  0.75455822  0.07064321  1
  Li  Li8  1  0.24544178  0.43710370  0.07064321  1
  Li  Li9  1  0.75455822  0.19166193  0.42935679  1
  Li  Li10  1  0.43710370  0.24544178  0.42935679  1
  Li  Li11  1  0.80833807  0.56289630  0.42935679  1
  Li  Li12  1  0.10430799  0.52560559  0.92973945  1
  Li  Li13  1  0.47439441  0.57870240  0.92973945  1
  Li  Li14  1  0.42129760  0.89569201  0.92973945  1
  Li  Li15  1  0.57870240  0.47439441  0.57026055  1
  Li  Li16  1  0.89569201  0.42129760  0.57026055  1
  Li  Li17  1  0.52560559  0.10430799  0.57026055  1
  Li  Li18  1  0.89569201  0.47439441  0.07026055  1
  Li  Li19  1  0.52560559  0.42129760  0.07026055  1
  Li  Li20  1  0.57870240  0.10430799  0.07026055  1
  Li  Li21  1  0.42129760  0.52560559  0.42973945  1
  Li  Li22  1  0.10430799  0.57870240  0.42973945  1
  Li  Li23  1  0.47439441  0.89569201  0.42973945  1
  Li  Li24  1  0.77043918  0.85770669  0.92920689  1
  Li  Li25  1  0.14229331  0.91273249  0.92920689  1
  Li  Li26  1  0.08726751  0.22956082  0.92920689  1
  Li  Li27  1  0.91273249  0.14229331  0.57079311  1
  Li  Li28  1  0.22956082  0.08726751  0.57079311  1
  Li  Li29  1  0.85770669  0.77043918  0.57079311  1
  Li  Li30  1  0.22956082  0.14229331  0.07079311  1
  Li  Li31  1  0.85770669  0.08726751  0.07079311  1
  Li  Li32  1  0.91273249  0.77043918  0.07079311  1
  Li  Li33  1  0.08726751  0.85770669  0.42920689  1
  Li  Li34  1  0.77043918  0.91273249  0.42920689  1
  Li  Li35  1  0.14229331  0.22956082  0.42920689  1
  O  O36  1  0.45508334  0.24805269  0.62255407  1
  O  O37  1  0.75194731  0.20703066  0.62255407  1
  O  O38  1  0.79296934  0.54491666  0.62255407  1
  O  O39  1  0.20703066  0.75194731  0.87744593  1
  O  O40  1  0.54491666  0.79296934  0.87744593  1
  O  O41  1  0.24805269  0.45508334  0.87744593  1
  O  O42  1  0.54491666  0.75194731  0.37744593  1
  O  O43  1  0.24805269  0.79296934  0.37744593  1
  O  O44  1  0.20703066  0.45508334  0.37744593  1
  O  O45  1  0.79296934  0.24805269  0.12255407  1
  O  O46  1  0.45508334  0.20703066  0.12255407  1
  O  O47  1  0.75194731  0.54491666  0.12255407  1
  O  O48  1  0.12173255  0.58151895  0.62256362  1
  O  O49  1  0.41848105  0.54021360  0.62256362  1
  O  O50  1  0.45978640  0.87826745  0.62256362  1
  O  O51  1  0.54021360  0.41848105  0.87743638  1
  O  O52  1  0.87826745  0.45978640  0.87743638  1
  O  O53  1  0.58151895  0.12173255  0.87743638  1
  O  O54  1  0.87826745  0.41848105  0.37743638  1
  O  O55  1  0.58151895  0.45978640  0.37743638  1
  O  O56  1  0.54021360  0.12173255  0.37743638  1
  O  O57  1  0.45978640  0.58151895  0.12256362  1
  O  O58  1  0.12173255  0.54021360  0.12256362  1
  O  O59  1  0.41848105  0.87826745  0.12256362  1
  O  O60  1  0.78838768  0.91510505  0.62255210  1
  O  O61  1  0.08489495  0.87328262  0.62255210  1
  O  O62  1  0.12671738  0.21161232  0.62255210  1
  O  O63  1  0.87328262  0.08489495  0.87744790  1
  O  O64  1  0.21161232  0.12671738  0.87744790  1
  O  O65  1  0.91510505  0.78838768  0.87744790  1
  O  O66  1  0.21161232  0.08489495  0.37744790  1
  O  O67  1  0.91510505  0.12671738  0.37744790  1
  O  O68  1  0.87328262  0.78838768  0.37744790  1
  O  O69  1  0.12671738  0.91510505  0.12255210  1
  O  O70  1  0.78838768  0.87328262  0.12255210  1
  O  O71  1  0.08489495  0.21161232  0.12255210  1
  In  In72  1  0.33341821  0.33341821  0.75000000  1
  In  In73  1  0.00000000  0.66658179  0.75000000  1
  In  In74  1  0.66658179  0.00000000  0.75000000  1
  In  In75  1  0.66658179  0.66658179  0.25000000  1
  In  In76  1  0.00000000  0.33341821  0.25000000  1
  In  In77  1  0.33341821  0.00000000  0.25000000  1
  In  In78  1  0.33333333  0.66666667  0.75010001  1
  In  In79  1  0.66666667  0.33333333  0.74989999  1
  In  In80  1  0.66666667  0.33333333  0.24989999  1
  In  In81  1  0.33333333  0.66666667  0.25010001  1
  In  In82  1  0.00000000  0.00000000  0.75000000  1
  In  In83  1  0.00000000  0.00000000  0.25000000  1
