# generated using pymatgen
data_Rb3Sb2Br9
_symmetry_space_group_name_H-M   'P 1'
_cell_length_a   8.05060876
_cell_length_b   8.05060876
_cell_length_c   9.77617868
_cell_angle_alpha   90.00000000
_cell_angle_beta   90.00000000
_cell_angle_gamma   120.00000001
_symmetry_Int_Tables_number   1
_chemical_formula_structural   Rb3Sb2Br9
_chemical_formula_sum   'Rb3 Sb2 Br9'
_cell_volume   548.72810565
_cell_formula_units_Z   1
loop_
 _symmetry_equiv_pos_site_id
 _symmetry_equiv_pos_as_xyz
  1  'x, y, z'
loop_
 _atom_site_type_symbol
 _atom_site_label
 _atom_site_symmetry_multiplicity
 _atom_site_fract_x
 _atom_site_fract_y
 _atom_site_fract_z
 _atom_site_occupancy
  Br  Br0  1  0.82784420  0.17215580  0.33879673  1
  Br  Br1  1  0.82784420  0.65568840  0.33879673  1
  Br  Br2  1  0.34431160  0.17215580  0.33879673  1
  Br  Br3  1  0.65568840  0.82784420  0.66120327  1
  Br  Br4  1  0.17215580  0.34431160  0.66120327  1
  Br  Br5  1  0.50000000  0.50000000  0.00000000  1
  Br  Br6  1  0.50000000  0.00000000  0.00000000  1
  Br  Br7  1  0.00000000  0.50000000  0.00000000  1
  Br  Br8  1  0.17215580  0.82784420  0.66120327  1
  Rb  Rb9  1  0.00000000  0.00000000  0.00000000  1
  Rb  Rb10  1  0.66666667  0.33333333  0.66976439  1
  Rb  Rb11  1  0.33333333  0.66666667  0.33023561  1
  Sb  Sb12  1  0.66666667  0.33333333  0.18799202  1
  Sb  Sb13  1  0.33333333  0.66666667  0.81200798  1
