# generated using pymatgen
data_Na2MnCl4
_symmetry_space_group_name_H-M   'P 1'
_cell_length_a   3.87850599
_cell_length_b   6.96657846
_cell_length_c   12.04935648
_cell_angle_alpha   90.00000000
_cell_angle_beta   90.00000000
_cell_angle_gamma   90.00000000
_symmetry_Int_Tables_number   1
_chemical_formula_structural   Na2MnCl4
_chemical_formula_sum   'Na4 Mn2 Cl8'
_cell_volume   325.57260340
_cell_formula_units_Z   2
loop_
 _symmetry_equiv_pos_site_id
 _symmetry_equiv_pos_as_xyz
  1  'x, y, z'
loop_
 _atom_site_type_symbol
 _atom_site_label
 _atom_site_symmetry_multiplicity
 _atom_site_fract_x
 _atom_site_fract_y
 _atom_site_fract_z
 _atom_site_occupancy
  Na  Na0  1  0.50000000  0.08327158  0.68126891  1
  Na  Na1  1  0.50000000  0.91672842  0.31873109  1
  Na  Na2  1  0.50000000  0.41672842  0.18126891  1
  Na  Na3  1  0.50000000  0.58327158  0.81873109  1
  Cl  Cl4  1  0.50000000  0.73759579  0.54395550  1
  Cl  Cl5  1  0.50000000  0.26240421  0.45604450  1
  Cl  Cl6  1  0.00000000  0.12245990  0.19504236  1
  Cl  Cl7  1  0.00000000  0.87754010  0.80495764  1
  Cl  Cl8  1  0.00000000  0.62245990  0.30495764  1
  Cl  Cl9  1  0.00000000  0.37754010  0.69504236  1
  Cl  Cl10  1  0.50000000  0.23759579  0.95604450  1
  Cl  Cl11  1  0.50000000  0.76240421  0.04395550  1
  Mn  Mn12  1  0.00000000  0.50000000  0.50000000  1
  Mn  Mn13  1  0.00000000  0.00000000  0.00000000  1
