# generated using pymatgen
data_La4Bi2S9
_symmetry_space_group_name_H-M   'P 1'
_cell_length_a   4.04586456
_cell_length_b   12.99345009
_cell_length_c   28.58946657
_cell_angle_alpha   90.00000000
_cell_angle_beta   90.00000000
_cell_angle_gamma   90.00000000
_symmetry_Int_Tables_number   1
_chemical_formula_structural   La4Bi2S9
_chemical_formula_sum   'La16 Bi8 S36'
_cell_volume   1502.94080235
_cell_formula_units_Z   4
loop_
 _symmetry_equiv_pos_site_id
 _symmetry_equiv_pos_as_xyz
  1  'x, y, z'
loop_
 _atom_site_type_symbol
 _atom_site_label
 _atom_site_symmetry_multiplicity
 _atom_site_fract_x
 _atom_site_fract_y
 _atom_site_fract_z
 _atom_site_occupancy
  S  S0  1  0.25000000  0.68714121  0.64810076  1
  S  S1  1  0.75000000  0.31285879  0.35189924  1
  S  S2  1  0.75000000  0.18714121  0.85189924  1
  S  S3  1  0.25000000  0.81285879  0.14810076  1
  S  S4  1  0.25000000  0.27333350  0.75428656  1
  S  S5  1  0.75000000  0.72666650  0.24571344  1
  S  S6  1  0.75000000  0.77333350  0.74571344  1
  S  S7  1  0.25000000  0.22666650  0.25428656  1
  S  S8  1  0.25000000  0.40969252  0.65618785  1
  S  S9  1  0.75000000  0.59030748  0.34381215  1
  S  S10  1  0.75000000  0.90969252  0.84381215  1
  S  S11  1  0.25000000  0.09030748  0.15618785  1
  S  S12  1  0.25000000  0.37593406  0.88706492  1
  S  S13  1  0.75000000  0.62406594  0.11293508  1
  S  S14  1  0.25000000  0.09646386  0.95709527  1
  S  S15  1  0.75000000  0.87593406  0.61293508  1
  S  S16  1  0.25000000  0.53929100  0.76881043  1
  S  S17  1  0.75000000  0.46070900  0.23118957  1
  S  S18  1  0.75000000  0.03929100  0.73118957  1
  S  S19  1  0.25000000  0.96070900  0.26881043  1
  S  S20  1  0.25000000  0.71063181  0.44178588  1
  S  S21  1  0.75000000  0.28936819  0.55821412  1
  S  S22  1  0.75000000  0.21063181  0.05821412  1
  S  S23  1  0.25000000  0.78936819  0.94178588  1
  S  S24  1  0.25000000  0.11223387  0.49715059  1
  S  S25  1  0.75000000  0.88776613  0.50284941  1
  S  S26  1  0.75000000  0.61223387  0.00284941  1
  S  S27  1  0.25000000  0.38776613  0.99715059  1
  S  S28  1  0.25000000  0.39499634  0.13400029  1
  S  S29  1  0.75000000  0.60500366  0.86599971  1
  S  S30  1  0.75000000  0.89499634  0.36599971  1
  S  S31  1  0.25000000  0.10500366  0.63400029  1
  S  S32  1  0.25000000  0.40353614  0.45709527  1
  S  S33  1  0.75000000  0.59646386  0.54290473  1
  S  S34  1  0.75000000  0.90353614  0.04290473  1
  S  S35  1  0.25000000  0.12406594  0.38706492  1
  La  La36  1  0.25000000  0.07712688  0.80640369  1
  La  La37  1  0.75000000  0.92287312  0.19359631  1
  La  La38  1  0.75000000  0.57712688  0.69359631  1
  La  La39  1  0.25000000  0.42287312  0.30640369  1
  La  La40  1  0.25000000  0.74302405  0.05301784  1
  La  La41  1  0.75000000  0.25697595  0.94698216  1
  La  La42  1  0.75000000  0.24302405  0.44698216  1
  La  La43  1  0.25000000  0.75697595  0.55301784  1
  La  La44  1  0.25000000  0.73991071  0.82145918  1
  La  La45  1  0.75000000  0.26008929  0.17854082  1
  La  La46  1  0.75000000  0.23991071  0.67854082  1
  La  La47  1  0.25000000  0.76008929  0.32145918  1
  La  La48  1  0.25000000  0.89566450  0.68704645  1
  La  La49  1  0.75000000  0.10433550  0.31295355  1
  La  La50  1  0.75000000  0.39566450  0.81295355  1
  La  La51  1  0.25000000  0.60433550  0.18704645  1
  Bi  Bi52  1  0.25000000  0.55942026  0.93486630  1
  Bi  Bi53  1  0.75000000  0.44057974  0.06513370  1
  Bi  Bi54  1  0.75000000  0.05942026  0.56513370  1
  Bi  Bi55  1  0.25000000  0.94057974  0.43486630  1
  Bi  Bi56  1  0.25000000  0.42697965  0.55952515  1
  Bi  Bi57  1  0.75000000  0.57302035  0.44047485  1
  Bi  Bi58  1  0.75000000  0.92697965  0.94047485  1
  Bi  Bi59  1  0.25000000  0.07302035  0.05952515  1
