# generated using pymatgen
data_Ba(BiS2)2
_symmetry_space_group_name_H-M   'P 1'
_cell_length_a   25.78961243
_cell_length_b   25.78961243
_cell_length_c   4.16478218
_cell_angle_alpha   90.00000000
_cell_angle_beta   90.00000000
_cell_angle_gamma   120.00000000
_symmetry_Int_Tables_number   1
_chemical_formula_structural   Ba(BiS2)2
_chemical_formula_sum   'Ba12 Bi24 S48'
_cell_volume   2398.90226925
_cell_formula_units_Z   12
loop_
 _symmetry_equiv_pos_site_id
 _symmetry_equiv_pos_as_xyz
  1  'x, y, z'
loop_
 _atom_site_type_symbol
 _atom_site_label
 _atom_site_symmetry_multiplicity
 _atom_site_fract_x
 _atom_site_fract_y
 _atom_site_fract_z
 _atom_site_occupancy
  S  S0  1  0.93650148  0.86148169  0.75000000  1
  S  S1  1  0.07501979  0.93650148  0.25000000  1
  S  S2  1  0.86148169  0.92498021  0.25000000  1
  S  S3  1  0.13851831  0.07501979  0.75000000  1
  S  S4  1  0.92498021  0.06349852  0.75000000  1
  S  S5  1  0.06349852  0.13851831  0.25000000  1
  S  S6  1  0.69375923  0.80773688  0.75000000  1
  S  S7  1  0.88602235  0.69375923  0.25000000  1
  S  S8  1  0.80773688  0.11397765  0.25000000  1
  S  S9  1  0.19226312  0.88602235  0.75000000  1
  S  S10  1  0.11397765  0.30624077  0.75000000  1
  S  S11  1  0.30624077  0.19226312  0.25000000  1
  S  S12  1  0.34368929  0.75213112  0.75000000  1
  S  S13  1  0.59155816  0.34368929  0.25000000  1
  S  S14  1  0.75213112  0.40844184  0.25000000  1
  S  S15  1  0.24786888  0.59155816  0.75000000  1
  S  S16  1  0.40844184  0.65631071  0.75000000  1
  S  S17  1  0.65631071  0.24786888  0.25000000  1
  S  S18  1  0.36734113  0.99774895  0.75000000  1
  S  S19  1  0.36959218  0.36734113  0.25000000  1
  S  S20  1  0.54724658  0.85285438  0.75000000  1
  S  S21  1  0.99774895  0.63040782  0.25000000  1
  S  S22  1  0.63040782  0.63265887  0.75000000  1
  S  S23  1  0.63265887  0.00225105  0.25000000  1
  S  S24  1  0.74979610  0.96850953  0.75000000  1
  S  S25  1  0.78128657  0.74979610  0.25000000  1
  S  S26  1  0.96850953  0.21871343  0.25000000  1
  S  S27  1  0.03149047  0.78128657  0.75000000  1
  S  S28  1  0.21871343  0.25020390  0.75000000  1
  S  S29  1  0.25020390  0.03149047  0.25000000  1
  S  S30  1  0.91003740  0.45506176  0.75000000  1
  S  S31  1  0.45497565  0.91003740  0.25000000  1
  S  S32  1  0.45506176  0.54502435  0.25000000  1
  S  S33  1  0.54493824  0.45497565  0.75000000  1
  S  S34  1  0.54502435  0.08996260  0.75000000  1
  S  S35  1  0.08996260  0.54493824  0.25000000  1
  S  S36  1  0.17467162  0.44874087  0.25000000  1
  S  S37  1  0.72593075  0.17467162  0.75000000  1
  S  S38  1  0.44874087  0.27406925  0.75000000  1
  S  S39  1  0.55125913  0.72593075  0.25000000  1
  S  S40  1  0.27406925  0.82532838  0.25000000  1
  S  S41  1  0.82532838  0.55125913  0.75000000  1
  S  S42  1  0.45275342  0.14714562  0.25000000  1
  S  S43  1  0.30560780  0.45275342  0.75000000  1
  S  S44  1  0.14714562  0.69439220  0.75000000  1
  S  S45  1  0.85285438  0.30560780  0.25000000  1
  S  S46  1  0.69439220  0.54724658  0.25000000  1
  S  S47  1  0.00225105  0.36959218  0.75000000  1
  Ba  Ba48  1  0.77213504  0.65143571  0.75000000  1
  Ba  Ba49  1  0.12069934  0.77213504  0.25000000  1
  Ba  Ba50  1  0.65143571  0.87930066  0.25000000  1
  Ba  Ba51  1  0.34856429  0.12069934  0.75000000  1
  Ba  Ba52  1  0.87930066  0.22786496  0.75000000  1
  Ba  Ba53  1  0.22786496  0.34856429  0.25000000  1
  Ba  Ba54  1  0.67851210  0.44559303  0.75000000  1
  Ba  Ba55  1  0.23291907  0.67851210  0.25000000  1
  Ba  Ba56  1  0.44559303  0.76708093  0.25000000  1
  Ba  Ba57  1  0.55440697  0.23291907  0.75000000  1
  Ba  Ba58  1  0.76708093  0.32148790  0.75000000  1
  Ba  Ba59  1  0.32148790  0.55440697  0.25000000  1
  Bi  Bi60  1  0.15297210  0.97735810  0.75000000  1
  Bi  Bi61  1  0.17561400  0.15297210  0.25000000  1
  Bi  Bi62  1  0.97735810  0.82438600  0.25000000  1
  Bi  Bi63  1  0.02264190  0.17561400  0.75000000  1
  Bi  Bi64  1  0.82438600  0.84702790  0.75000000  1
  Bi  Bi65  1  0.84702790  0.02264190  0.25000000  1
  Bi  Bi66  1  0.54120851  0.94996929  0.75000000  1
  Bi  Bi67  1  0.59123922  0.54120851  0.25000000  1
  Bi  Bi68  1  0.94996929  0.40876078  0.25000000  1
  Bi  Bi69  1  0.05003071  0.59123922  0.75000000  1
  Bi  Bi70  1  0.40876078  0.45879149  0.75000000  1
  Bi  Bi71  1  0.45879149  0.05003071  0.25000000  1
  Bi  Bi72  1  0.35267548  0.85597659  0.75000000  1
  Bi  Bi73  1  0.49669889  0.35267548  0.25000000  1
  Bi  Bi74  1  0.85597659  0.50330111  0.25000000  1
  Bi  Bi75  1  0.14402341  0.49669889  0.75000000  1
  Bi  Bi76  1  0.50330111  0.64732452  0.75000000  1
  Bi  Bi77  1  0.64732452  0.14402341  0.25000000  1
  Bi  Bi78  1  0.72676509  0.05789647  0.75000000  1
  Bi  Bi79  1  0.66886863  0.72676509  0.25000000  1
  Bi  Bi80  1  0.05789647  0.33113137  0.25000000  1
  Bi  Bi81  1  0.94210353  0.66886863  0.75000000  1
  Bi  Bi82  1  0.33113137  0.27323491  0.75000000  1
  Bi  Bi83  1  0.27323491  0.94210353  0.25000000  1
