# generated using pymatgen
data_Pr5C2Br9
_symmetry_space_group_name_H-M   'P 1'
_cell_length_a   10.36139046
_cell_length_b   10.66395476
_cell_length_c   19.46911481
_cell_angle_alpha   90.00000000
_cell_angle_beta   90.00000000
_cell_angle_gamma   109.02910409
_symmetry_Int_Tables_number   1
_chemical_formula_structural   Pr5C2Br9
_chemical_formula_sum   'Pr20 C8 Br36'
_cell_volume   2033.65173952
_cell_formula_units_Z   4
loop_
 _symmetry_equiv_pos_site_id
 _symmetry_equiv_pos_as_xyz
  1  'x, y, z'
loop_
 _atom_site_type_symbol
 _atom_site_label
 _atom_site_symmetry_multiplicity
 _atom_site_fract_x
 _atom_site_fract_y
 _atom_site_fract_z
 _atom_site_occupancy
  C  C0  1  0.24570460  0.68308433  0.61768647  1
  C  C1  1  0.25429540  0.81691567  0.11768647  1
  C  C2  1  0.75429540  0.31691567  0.38231353  1
  C  C3  1  0.74570460  0.18308433  0.88231353  1
  C  C4  1  0.31854215  0.65050589  0.67445593  1
  C  C5  1  0.18145785  0.84949411  0.17445593  1
  C  C6  1  0.68145785  0.34949411  0.32554407  1
  C  C7  1  0.81854215  0.15050589  0.82554407  1
  Br  Br8  1  0.56331739  0.66898950  0.53066385  1
  Br  Br9  1  0.93668261  0.83101050  0.03066385  1
  Br  Br10  1  0.43668261  0.33101050  0.46933615  1
  Br  Br11  1  0.06331739  0.16898950  0.96933615  1
  Br  Br12  1  0.83221638  0.50040612  0.97271189  1
  Br  Br13  1  0.66778362  0.99959388  0.47271189  1
  Br  Br14  1  0.16778362  0.49959388  0.02728811  1
  Br  Br15  1  0.33221638  0.00040612  0.52728811  1
  Br  Br16  1  0.15548795  0.50127157  0.45057885  1
  Br  Br17  1  0.34451205  -0.00127157  0.95057885  1
  Br  Br18  1  0.84451205  0.49872843  0.54942115  1
  Br  Br19  1  0.65548795  1.00127157  0.04942115  1
  Br  Br20  1  0.97923897  0.84553884  0.62789546  1
  Br  Br21  1  0.52076103  0.65446116  0.12789546  1
  Br  Br22  1  0.02076103  0.15446116  0.37210454  1
  Br  Br23  1  0.47923897  0.34553884  0.87210454  1
  Br  Br24  1  0.07833364  0.21960406  0.58915283  1
  Br  Br25  1  0.42166636  0.28039594  0.08915283  1
  Br  Br26  1  0.92166636  0.78039594  0.41084717  1
  Br  Br27  1  0.57833364  0.71960406  0.91084717  1
  Br  Br28  1  0.21708069  0.64984174  0.86006212  1
  Br  Br29  1  0.28291931  0.85015826  0.36006212  1
  Br  Br30  1  0.78291931  0.35015826  0.13993788  1
  Br  Br31  1  0.71708069  0.14984174  0.63993788  1
  Br  Br32  1  0.00313600  0.90163692  0.82248299  1
  Br  Br33  1  0.49686400  0.59836308  0.32248299  1
  Br  Br34  1  0.99686400  0.09836308  0.17751701  1
  Br  Br35  1  0.50313600  0.40163692  0.67751701  1
  Br  Br36  1  0.16897326  0.32238991  0.77327621  1
  Br  Br37  1  0.33102674  0.17761009  0.27327621  1
  Br  Br38  1  0.83102674  0.67761009  0.22672379  1
  Br  Br39  1  0.66897326  0.82238991  0.72672379  1
  Br  Br40  1  0.87015483  0.49401473  0.76500458  1
  Br  Br41  1  0.62984517  0.00598527  0.26500458  1
  Br  Br42  1  0.12984517  0.50598527  0.23499542  1
  Br  Br43  1  0.37015483  0.99401473  0.73499542  1
  Pr  Pr44  1  0.30283173  0.48023354  0.58382404  1
  Pr  Pr45  1  0.19716827  0.01976646  0.08382404  1
  Pr  Pr46  1  0.69716827  0.51976646  0.41617596  1
  Pr  Pr47  1  0.80283173  0.98023354  0.91617596  1
  Pr  Pr48  1  0.42886813  0.59227265  0.76734724  1
  Pr  Pr49  1  0.07113187  0.90772735  0.26734724  1
  Pr  Pr50  1  0.57113187  0.40772735  0.23265276  1
  Pr  Pr51  1  0.92886813  0.09227265  0.73265276  1
  Pr  Pr52  1  0.13265123  0.72695823  0.72298931  1
  Pr  Pr53  1  0.36734877  0.77304177  0.22298931  1
  Pr  Pr54  1  0.86734877  0.27304177  0.27701069  1
  Pr  Pr55  1  0.63265123  0.22695823  0.77701069  1
  Pr  Pr56  1  0.12451100  0.73529601  0.52589738  1
  Pr  Pr57  1  0.37548900  0.76470399  0.02589738  1
  Pr  Pr58  1  0.87548900  0.26470399  0.47410262  1
  Pr  Pr59  1  0.62451100  0.23529601  0.97410262  1
  Pr  Pr60  1  0.47742529  0.86033701  0.61775974  1
  Pr  Pr61  1  0.02257471  0.63966299  0.11775974  1
  Pr  Pr62  1  0.52257471  0.13966299  0.38224026  1
  Pr  Pr63  1  0.97742529  0.36033701  0.88224026  1
