# generated using pymatgen
data_Na2Te2As
_symmetry_space_group_name_H-M   'P 1'
_cell_length_a   8.80608706
_cell_length_b   9.91581915
_cell_length_c   14.08409625
_cell_angle_alpha   90.00000000
_cell_angle_beta   90.00000000
_cell_angle_gamma   90.00000000
_symmetry_Int_Tables_number   1
_chemical_formula_structural   Na2Te2As
_chemical_formula_sum   'Na16 Te16 As8'
_cell_volume   1229.81718200
_cell_formula_units_Z   8
loop_
 _symmetry_equiv_pos_site_id
 _symmetry_equiv_pos_as_xyz
  1  'x, y, z'
loop_
 _atom_site_type_symbol
 _atom_site_label
 _atom_site_symmetry_multiplicity
 _atom_site_fract_x
 _atom_site_fract_y
 _atom_site_fract_z
 _atom_site_occupancy
  Na  Na0  1  0.83810719  0.60901611  0.87989988  1
  Na  Na1  1  0.33810719  0.39098389  0.62010012  1
  Na  Na2  1  0.66189281  0.10901611  0.12010012  1
  Na  Na3  1  0.16189281  0.89098389  0.37989988  1
  Na  Na4  1  0.17468431  0.37549087  0.87386621  1
  Na  Na5  1  0.67468431  0.62450913  0.62613379  1
  Na  Na6  1  0.32531569  0.87549087  0.12613379  1
  Na  Na7  1  0.82531569  0.12450913  0.37386621  1
  Na  Na8  1  0.01823209  0.00306654  0.94144645  1
  Na  Na9  1  0.51823209  0.99693346  0.55855355  1
  Na  Na10  1  0.48176791  0.50306654  0.05855355  1
  Na  Na11  1  0.98176791  0.49693346  0.44144645  1
  Na  Na12  1  0.57303987  0.18941156  0.81240315  1
  Na  Na13  1  0.07303987  0.81058844  0.68759685  1
  Na  Na14  1  0.92696013  0.68941156  0.18759685  1
  Na  Na15  1  0.42696013  0.31058844  0.31240315  1
  As  As16  1  0.15049666  0.22448293  0.18944261  1
  As  As17  1  0.65049666  0.77551707  0.31055739  1
  As  As18  1  0.34950334  0.72448293  0.81055739  1
  As  As19  1  0.84950334  0.27551707  0.68944261  1
  As  As20  1  0.97597046  0.39843823  0.11551037  1
  As  As21  1  0.47597046  0.60156177  0.38448963  1
  As  As22  1  0.52402954  0.89843823  0.88448963  1
  As  As23  1  0.02402954  0.10156177  0.61551037  1
  Te  Te24  1  0.98640308  0.00438886  0.18306799  1
  Te  Te25  1  0.48640308  0.99561114  0.31693201  1
  Te  Te26  1  0.51359692  0.50438886  0.81693201  1
  Te  Te27  1  0.01359692  0.49561114  0.68306799  1
  Te  Te28  1  0.85303625  0.29083945  0.96402854  1
  Te  Te29  1  0.35303625  0.70916055  0.53597146  1
  Te  Te30  1  0.64696375  0.79083945  0.03597146  1
  Te  Te31  1  0.14696375  0.20916055  0.46402854  1
  Te  Te32  1  0.76739035  0.40891355  0.25049023  1
  Te  Te33  1  0.26739035  0.59108645  0.24950977  1
  Te  Te34  1  0.73260965  0.90891355  0.74950977  1
  Te  Te35  1  0.23260965  0.09108645  0.75049023  1
  Te  Te36  1  0.33354080  0.20053105  0.04250893  1
  Te  Te37  1  0.83354080  0.79946895  0.45749107  1
  Te  Te38  1  0.16645920  0.70053105  0.95749107  1
  Te  Te39  1  0.66645920  0.29946895  0.54250893  1
