# generated using pymatgen
data_Cs2PdI6
_symmetry_space_group_name_H-M   'P 1'
_cell_length_a   8.02320413
_cell_length_b   8.02320412
_cell_length_c   8.02320412
_cell_angle_alpha   108.87867590
_cell_angle_beta   109.76830293
_cell_angle_gamma   109.76830303
_symmetry_Int_Tables_number   1
_chemical_formula_structural   Cs2PdI6
_chemical_formula_sum   'Cs2 Pd1 I6'
_cell_volume   397.54549702
_cell_formula_units_Z   1
loop_
 _symmetry_equiv_pos_site_id
 _symmetry_equiv_pos_as_xyz
  1  'x, y, z'
loop_
 _atom_site_type_symbol
 _atom_site_label
 _atom_site_symmetry_multiplicity
 _atom_site_fract_x
 _atom_site_fract_y
 _atom_site_fract_z
 _atom_site_occupancy
  Pd  Pd0  1  0.00000000  0.00000000  0.00000000  1
  I  I1  1  0.00000000  0.79585374  0.20414626  1
  I  I2  1  0.00000000  0.34578478  0.34578478  1
  I  I3  1  0.59170749  0.79585374  0.79585374  1
  I  I4  1  0.00000000  0.20414626  0.79585374  1
  I  I5  1  0.40829251  0.20414626  0.20414626  1
  I  I6  1  0.00000000  0.65421522  0.65421522  1
  Cs  Cs7  1  0.50000000  0.75000000  0.25000000  1
  Cs  Cs8  1  0.50000000  0.25000000  0.75000000  1
