# generated using pymatgen
data_Ba2EuCl7
_symmetry_space_group_name_H-M   'P 1'
_cell_length_a   7.04579590
_cell_length_b   10.75191471
_cell_length_c   15.76922278
_cell_angle_alpha   90.00000000
_cell_angle_beta   90.00000000
_cell_angle_gamma   91.26976512
_symmetry_Int_Tables_number   1
_chemical_formula_structural   Ba2EuCl7
_chemical_formula_sum   'Ba8 Eu4 Cl28'
_cell_volume   1194.31668767
_cell_formula_units_Z   4
loop_
 _symmetry_equiv_pos_site_id
 _symmetry_equiv_pos_as_xyz
  1  'x, y, z'
loop_
 _atom_site_type_symbol
 _atom_site_label
 _atom_site_symmetry_multiplicity
 _atom_site_fract_x
 _atom_site_fract_y
 _atom_site_fract_z
 _atom_site_occupancy
  Cl  Cl0  1  0.70890309  0.53582269  0.14127643  1
  Cl  Cl1  1  0.29109691  0.96417731  0.64127643  1
  Cl  Cl2  1  0.29109691  0.46417731  0.85872357  1
  Cl  Cl3  1  0.70890309  0.03582269  0.35872357  1
  Cl  Cl4  1  0.14174271  0.37654318  0.06983284  1
  Cl  Cl5  1  0.85825729  0.12345682  0.56983284  1
  Cl  Cl6  1  0.85825729  0.62345682  0.93016716  1
  Cl  Cl7  1  0.14174271  0.87654318  0.43016716  1
  Cl  Cl8  1  0.69589883  0.29059667  0.95579767  1
  Cl  Cl9  1  0.30410117  0.20940333  0.45579767  1
  Cl  Cl10  1  0.30410117  0.70940333  0.04420233  1
  Cl  Cl11  1  0.69589883  0.79059667  0.54420233  1
  Cl  Cl12  1  0.00249852  0.56992313  0.39620102  1
  Cl  Cl13  1  0.99750148  0.93007687  0.89620102  1
  Cl  Cl14  1  0.99750148  0.43007687  0.60379898  1
  Cl  Cl15  1  0.00249852  0.06992313  0.10379898  1
  Cl  Cl16  1  0.50758756  0.80636486  0.24110601  1
  Cl  Cl17  1  0.49241244  0.69363514  0.74110601  1
  Cl  Cl18  1  0.49241244  0.19363514  0.75889399  1
  Cl  Cl19  1  0.50758756  0.30636486  0.25889399  1
  Cl  Cl20  1  0.00357132  0.79591699  0.22467138  1
  Cl  Cl21  1  0.99642868  0.70408301  0.72467138  1
  Cl  Cl22  1  0.99642868  0.20408301  0.77532862  1
  Cl  Cl23  1  0.00357132  0.29591699  0.27532862  1
  Cl  Cl24  1  0.50845153  0.58249254  0.39622962  1
  Cl  Cl25  1  0.49154847  0.91750746  0.89622962  1
  Cl  Cl26  1  0.49154847  0.41750746  0.60377038  1
  Cl  Cl27  1  0.50845153  0.08249254  0.10377038  1
  Ba  Ba28  1  0.27090031  0.55184290  0.22229805  1
  Ba  Ba29  1  0.72909969  0.94815710  0.72229805  1
  Ba  Ba30  1  0.72909969  0.44815710  0.77770195  1
  Ba  Ba31  1  0.27090031  0.05184290  0.27770195  1
  Ba  Ba32  1  0.72758118  0.82757936  0.06163959  1
  Ba  Ba33  1  0.27241882  0.67242064  0.56163959  1
  Ba  Ba34  1  0.27241882  0.17242064  0.93836041  1
  Ba  Ba35  1  0.72758118  0.32757936  0.43836041  1
  Eu  Eu36  1  0.78552611  0.78462910  0.37383049  1
  Eu  Eu37  1  0.21447389  0.71537090  0.87383049  1
  Eu  Eu38  1  0.21447389  0.21537090  0.62616951  1
  Eu  Eu39  1  0.78552611  0.28462910  0.12616951  1
