# generated using pymatgen
data_Hg3PO4
_symmetry_space_group_name_H-M   'P 1'
_cell_length_a   5.14574926
_cell_length_b   9.00708801
_cell_length_c   12.29176037
_cell_angle_alpha   95.41797216
_cell_angle_beta   90.00000000
_cell_angle_gamma   90.00000000
_symmetry_Int_Tables_number   1
_chemical_formula_structural   Hg3PO4
_chemical_formula_sum   'Hg12 P4 O16'
_cell_volume   567.15597138
_cell_formula_units_Z   4
loop_
 _symmetry_equiv_pos_site_id
 _symmetry_equiv_pos_as_xyz
  1  'x, y, z'
loop_
 _atom_site_type_symbol
 _atom_site_label
 _atom_site_symmetry_multiplicity
 _atom_site_fract_x
 _atom_site_fract_y
 _atom_site_fract_z
 _atom_site_occupancy
  O  O0  1  0.50456359  0.87502901  0.28074526  1
  O  O1  1  0.00456359  0.62497099  0.21925474  1
  O  O2  1  0.49543641  0.12497099  0.71925474  1
  O  O3  1  0.99543641  0.37502901  0.78074526  1
  O  O4  1  0.91539141  0.03113716  0.27056936  1
  O  O5  1  0.41539141  0.46886284  0.22943064  1
  O  O6  1  0.08460859  0.96886284  0.72943064  1
  O  O7  1  0.58460859  0.53113716  0.77056936  1
  O  O8  1  0.51585390  0.09503784  0.16423386  1
  O  O9  1  0.97330212  0.64422697  0.87378251  1
  O  O10  1  0.48414610  0.90496216  0.83576614  1
  O  O11  1  0.98414610  0.59503784  0.66423386  1
  O  O12  1  0.52669788  0.14422697  0.37378251  1
  O  O13  1  0.02669788  0.35577303  0.12621749  1
  O  O14  1  0.47330212  0.85577303  0.62621749  1
  O  O15  1  0.01585390  0.40496216  0.33576614  1
  P  P16  1  0.88682798  0.53749880  0.77330605  1
  P  P17  1  0.11317202  0.46250120  0.22669395  1
  P  P18  1  0.38682798  0.96250120  0.72669395  1
  P  P19  1  0.61317202  0.03749880  0.27330605  1
  Hg  Hg20  1  0.84774453  0.18068584  0.62436499  1
  Hg  Hg21  1  0.63896868  0.31367713  0.04915525  1
  Hg  Hg22  1  0.86103132  0.81367713  0.54915525  1
  Hg  Hg23  1  0.36103132  0.68632287  0.95084475  1
  Hg  Hg24  1  0.13896868  0.18632287  0.45084475  1
  Hg  Hg25  1  0.34774453  0.31931416  0.87563501  1
  Hg  Hg26  1  0.15225547  0.81931416  0.37563501  1
  Hg  Hg27  1  0.65225547  0.68068584  0.12436499  1
  Hg  Hg28  1  0.63013372  0.45844260  0.41117189  1
  Hg  Hg29  1  0.13013372  0.04155740  0.08882811  1
  Hg  Hg30  1  0.36986628  0.54155740  0.58882811  1
  Hg  Hg31  1  0.86986628  0.95844260  0.91117189  1
