# generated using pymatgen
data_Sc6AgTe2
_symmetry_space_group_name_H-M   'P 1'
_cell_length_a   3.86418454
_cell_length_b   10.78862522
_cell_length_c   20.48672821
_cell_angle_alpha   90.00000000
_cell_angle_beta   90.00000000
_cell_angle_gamma   90.00000000
_symmetry_Int_Tables_number   1
_chemical_formula_structural   Sc6AgTe2
_chemical_formula_sum   'Sc24 Ag4 Te8'
_cell_volume   854.07610423
_cell_formula_units_Z   4
loop_
 _symmetry_equiv_pos_site_id
 _symmetry_equiv_pos_as_xyz
  1  'x, y, z'
loop_
 _atom_site_type_symbol
 _atom_site_label
 _atom_site_symmetry_multiplicity
 _atom_site_fract_x
 _atom_site_fract_y
 _atom_site_fract_z
 _atom_site_occupancy
  Sc  Sc0  1  0.25000000  0.39090405  0.98989433  1
  Sc  Sc1  1  0.75000000  0.60909595  0.01010567  1
  Sc  Sc2  1  0.75000000  0.89090405  0.51010567  1
  Sc  Sc3  1  0.25000000  0.10909595  0.48989433  1
  Sc  Sc4  1  0.25000000  0.93264492  0.63825351  1
  Sc  Sc5  1  0.75000000  0.06735508  0.36174649  1
  Sc  Sc6  1  0.75000000  0.43264492  0.86174649  1
  Sc  Sc7  1  0.25000000  0.56735508  0.13825351  1
  Sc  Sc8  1  0.25000000  0.87707896  0.02920357  1
  Sc  Sc9  1  0.75000000  0.12292104  0.97079643  1
  Sc  Sc10  1  0.75000000  0.37707896  0.47079643  1
  Sc  Sc11  1  0.25000000  0.62292104  0.52920357  1
  Sc  Sc12  1  0.25000000  0.82850809  0.39257730  1
  Sc  Sc13  1  0.75000000  0.17149191  0.60742270  1
  Sc  Sc14  1  0.75000000  0.32850809  0.10742270  1
  Sc  Sc15  1  0.25000000  0.67149191  0.89257730  1
  Sc  Sc16  1  0.25000000  0.53695265  0.33825821  1
  Sc  Sc17  1  0.75000000  0.46304735  0.66174179  1
  Sc  Sc18  1  0.75000000  0.03695265  0.16174179  1
  Sc  Sc19  1  0.25000000  0.96304735  0.83825821  1
  Sc  Sc20  1  0.25000000  0.24912992  0.23045716  1
  Sc  Sc21  1  0.75000000  0.75087008  0.76954284  1
  Sc  Sc22  1  0.75000000  0.74912992  0.26954284  1
  Sc  Sc23  1  0.25000000  0.25087008  0.73045716  1
  Ag  Ag24  1  0.25000000  0.14220886  0.07602013  1
  Ag  Ag25  1  0.75000000  0.85779114  0.92397987  1
  Ag  Ag26  1  0.75000000  0.64220886  0.42397987  1
  Ag  Ag27  1  0.25000000  0.35779114  0.57602013  1
  Te  Te28  1  0.25000000  0.22615255  0.87318094  1
  Te  Te29  1  0.75000000  0.77384745  0.12681906  1
  Te  Te30  1  0.75000000  0.72615255  0.62681906  1
  Te  Te31  1  0.25000000  0.27384745  0.37318094  1
  Te  Te32  1  0.25000000  0.53534677  0.76499025  1
  Te  Te33  1  0.75000000  0.46465323  0.23500975  1
  Te  Te34  1  0.75000000  0.03534677  0.73500975  1
  Te  Te35  1  0.25000000  0.96465323  0.26499025  1
