# generated using pymatgen
data_WBr5
_symmetry_space_group_name_H-M   'P 1'
_cell_length_a   6.46925022
_cell_length_b   14.15930121
_cell_length_c   14.15930120
_cell_angle_alpha   85.77884334
_cell_angle_beta   89.80895735
_cell_angle_gamma   89.80895735
_symmetry_Int_Tables_number   1
_chemical_formula_structural   WBr5
_chemical_formula_sum   'W6 Br30'
_cell_volume   1293.46121211
_cell_formula_units_Z   6
loop_
 _symmetry_equiv_pos_site_id
 _symmetry_equiv_pos_as_xyz
  1  'x, y, z'
loop_
 _atom_site_type_symbol
 _atom_site_label
 _atom_site_symmetry_multiplicity
 _atom_site_fract_x
 _atom_site_fract_y
 _atom_site_fract_z
 _atom_site_occupancy
  Br  Br0  1  0.26234253  0.33313481  0.52667785  1
  Br  Br1  1  0.73765747  0.47332215  0.66686519  1
  Br  Br2  1  0.73765747  0.66686519  0.47332215  1
  Br  Br3  1  0.26234253  0.52667785  0.33313481  1
  Br  Br4  1  0.71543224  0.19630231  0.57283645  1
  Br  Br5  1  0.28456776  0.42716355  0.80369769  1
  Br  Br6  1  0.77993047  0.04781465  0.04781465  1
  Br  Br7  1  0.22006953  0.95218535  0.95218535  1
  Br  Br8  1  0.76586364  0.23994586  0.86178644  1
  Br  Br9  1  0.23413636  0.13821356  0.76005414  1
  Br  Br10  1  0.23413636  0.76005414  0.13821356  1
  Br  Br11  1  0.76586364  0.86178644  0.23994586  1
  Br  Br12  1  0.21576092  0.19217062  1.00068841  1
  Br  Br13  1  0.78423908  -0.00068841  0.80782938  1
  Br  Br14  1  0.78423908  0.80782938  -0.00068841  1
  Br  Br15  1  0.21576092  1.00068841  0.19217062  1
  Br  Br16  1  0.26355320  0.28584329  0.28584329  1
  Br  Br17  1  0.73644680  0.71415671  0.71415671  1
  Br  Br18  1  0.24998675  0.47102007  0.09262580  1
  Br  Br19  1  0.75001325  0.90737420  0.52897993  1
  Br  Br20  1  0.75001325  0.52897993  0.90737420  1
  Br  Br21  1  0.24998675  0.09262580  0.47102007  1
  Br  Br22  1  0.70054917  0.33300793  0.14049958  1
  Br  Br23  1  0.29945083  0.85950042  0.66699207  1
  Br  Br24  1  0.29945083  0.66699207  0.85950042  1
  Br  Br25  1  0.70054917  0.14049958  0.33300793  1
  Br  Br26  1  0.69787892  0.38068561  0.38068561  1
  Br  Br27  1  0.30212108  0.61931439  0.61931439  1
  Br  Br28  1  0.71543224  0.57283645  0.19630231  1
  Br  Br29  1  0.28456776  0.80369769  0.42716355  1
  W  W30  1  0.48088683  0.22645131  0.44006523  1
  W  W31  1  0.51911317  0.55993477  0.77354869  1
  W  W32  1  0.51911317  0.77354869  0.55993477  1
  W  W33  1  0.48088683  0.44006523  0.22645131  1
  W  W34  1  0.00000000  0.89347117  0.10652883  1
  W  W35  1  0.00000000  0.10652883  0.89347117  1
