# generated using pymatgen
data_Ba2(Ni3B2)3
_symmetry_space_group_name_H-M   'P 1'
_cell_length_a   7.54455152
_cell_length_b   7.54455153
_cell_length_c   7.54455153
_cell_angle_alpha   83.41999041
_cell_angle_beta   83.41999041
_cell_angle_gamma   83.41999039
_symmetry_Int_Tables_number   1
_chemical_formula_structural   Ba2(Ni3B2)3
_chemical_formula_sum   'Ba4 Ni18 B12'
_cell_volume   421.55318563
_cell_formula_units_Z   2
loop_
 _symmetry_equiv_pos_site_id
 _symmetry_equiv_pos_as_xyz
  1  'x, y, z'
loop_
 _atom_site_type_symbol
 _atom_site_label
 _atom_site_symmetry_multiplicity
 _atom_site_fract_x
 _atom_site_fract_y
 _atom_site_fract_z
 _atom_site_occupancy
  B  B0  1  0.18777101  0.53451283  0.84746638  1
  B  B1  1  0.53451283  0.84746638  0.18777101  1
  B  B2  1  0.84746638  0.18777101  0.53451283  1
  B  B3  1  0.65253362  0.96548717  0.31222899  1
  B  B4  1  0.81222899  0.46548717  0.15253362  1
  B  B5  1  0.46548717  0.15253362  0.81222899  1
  B  B6  1  0.15253362  0.81222899  0.46548717  1
  B  B7  1  0.34746638  0.03451283  0.68777101  1
  B  B8  1  0.03451283  0.68777101  0.34746638  1
  B  B9  1  0.68777101  0.34746638  0.03451283  1
  B  B10  1  0.96548717  0.31222899  0.65253362  1
  B  B11  1  0.31222899  0.65253362  0.96548717  1
  Ni  Ni12  1  0.93269026  0.42387673  0.39148976  1
  Ni  Ni13  1  0.10851024  0.07612327  0.56730974  1
  Ni  Ni14  1  0.39148976  0.93269026  0.42387673  1
  Ni  Ni15  1  0.07612327  0.56730974  0.10851024  1
  Ni  Ni16  1  0.57612327  0.60851024  0.06730974  1
  Ni  Ni17  1  0.06730974  0.57612327  0.60851024  1
  Ni  Ni18  1  0.60851024  0.06730974  0.57612327  1
  Ni  Ni19  1  0.89148976  0.92387673  0.43269026  1
  Ni  Ni20  1  0.43269026  0.89148976  0.92387673  1
  Ni  Ni21  1  0.92387673  0.43269026  0.89148976  1
  Ni  Ni22  1  0.28450091  0.75000000  0.21549909  1
  Ni  Ni23  1  0.75000000  0.21549909  0.28450091  1
  Ni  Ni24  1  0.21549909  0.28450091  0.75000000  1
  Ni  Ni25  1  0.71549909  0.25000000  0.78450091  1
  Ni  Ni26  1  0.25000000  0.78450091  0.71549909  1
  Ni  Ni27  1  0.78450091  0.71549909  0.25000000  1
  Ni  Ni28  1  0.56730974  0.10851024  0.07612327  1
  Ni  Ni29  1  0.42387673  0.39148976  0.93269026  1
  Ba  Ba30  1  0.62287085  0.62287085  0.62287085  1
  Ba  Ba31  1  0.87712915  0.87712915  0.87712915  1
  Ba  Ba32  1  0.37712915  0.37712915  0.37712915  1
  Ba  Ba33  1  0.12287085  0.12287085  0.12287085  1
