# generated using pymatgen
data_Tb(IO3)3
_symmetry_space_group_name_H-M   'P 1'
_cell_length_a   7.23748382
_cell_length_b   8.62532992
_cell_length_c   13.58456321
_cell_angle_alpha   90.00000000
_cell_angle_beta   100.31798516
_cell_angle_gamma   90.00000000
_symmetry_Int_Tables_number   1
_chemical_formula_structural   Tb(IO3)3
_chemical_formula_sum   'Tb4 I12 O36'
_cell_volume   834.31213475
_cell_formula_units_Z   4
loop_
 _symmetry_equiv_pos_site_id
 _symmetry_equiv_pos_as_xyz
  1  'x, y, z'
loop_
 _atom_site_type_symbol
 _atom_site_label
 _atom_site_symmetry_multiplicity
 _atom_site_fract_x
 _atom_site_fract_y
 _atom_site_fract_z
 _atom_site_occupancy
  O  O0  1  0.65786818  0.52570526  0.68111508  1
  O  O1  1  0.34213182  0.02570526  0.81888492  1
  O  O2  1  0.34213182  0.47429474  0.31888492  1
  O  O3  1  0.65786818  0.97429474  0.18111508  1
  O  O4  1  0.86204618  0.66419929  0.54513317  1
  O  O5  1  0.13795382  0.16419929  0.95486683  1
  O  O6  1  0.13795382  0.33580071  0.45486683  1
  O  O7  1  0.86204618  0.83580071  0.04513317  1
  O  O8  1  0.46608010  0.66909009  0.50963702  1
  O  O9  1  0.53391990  0.16909009  0.99036298  1
  O  O10  1  0.53391990  0.33090991  0.49036298  1
  O  O11  1  0.46608010  0.83090991  0.00963702  1
  O  O12  1  0.72741490  0.29178192  0.82425446  1
  O  O13  1  0.27258510  0.79178192  0.67574554  1
  O  O14  1  0.27258510  0.70821808  0.17574554  1
  O  O15  1  0.72741490  0.20821808  0.32425446  1
  O  O16  1  0.64875029  0.69152024  0.32296712  1
  O  O17  1  0.35124971  0.19152024  0.17703288  1
  O  O18  1  0.35124971  0.30847976  0.67703288  1
  O  O19  1  0.64875029  0.80847976  0.82296712  1
  O  O20  1  0.03069881  0.67488191  0.36185973  1
  O  O21  1  0.96930119  0.17488191  0.13814027  1
  O  O22  1  0.96930119  0.32511809  0.63814027  1
  O  O23  1  0.03069881  0.82511809  0.86185973  1
  O  O24  1  0.83914608  0.46698685  0.23145611  1
  O  O25  1  0.16085392  0.96698685  0.26854389  1
  O  O26  1  0.16085392  0.53301315  0.76854389  1
  O  O27  1  0.83914608  0.03301315  0.73145611  1
  O  O28  1  0.81986113  0.07800016  0.52096163  1
  O  O29  1  0.18013887  0.57800016  0.97903837  1
  O  O30  1  0.18013887  0.92199984  0.47903837  1
  O  O31  1  0.81986113  0.42199984  0.02096163  1
  O  O32  1  0.51822032  0.97166581  0.38595062  1
  O  O33  1  0.48177968  0.47166581  0.11404938  1
  O  O34  1  0.48177968  0.02833419  0.61404938  1
  O  O35  1  0.51822032  0.52833419  0.88595062  1
  I  I36  1  0.66633079  0.70509174  0.60961006  1
  I  I37  1  0.33366921  0.20509174  0.89038994  1
  I  I38  1  0.33366921  0.29490826  0.39038994  1
  I  I39  1  0.66633079  0.79490826  0.10961006  1
  I  I40  1  0.76546427  0.47964505  0.89015846  1
  I  I41  1  0.23453573  0.97964505  0.60984154  1
  I  I42  1  0.23453573  0.52035495  0.10984154  1
  I  I43  1  0.76546427  0.02035495  0.39015846  1
  I  I44  1  0.83300059  0.95584061  0.85658633  1
  I  I45  1  0.16699941  0.45584061  0.64341367  1
  I  I46  1  0.16699941  0.04415939  0.14341367  1
  I  I47  1  0.83300059  0.54415939  0.35658633  1
  Tb  Tb48  1  0.67229944  0.24521884  0.64646706  1
  Tb  Tb49  1  0.32770056  0.74521884  0.85353294  1
  Tb  Tb50  1  0.32770056  0.75478116  0.35353294  1
  Tb  Tb51  1  0.67229944  0.25478116  0.14646706  1
