# generated using pymatgen
data_LiMo(PO3)4
_symmetry_space_group_name_H-M   'P 1'
_cell_length_a   7.39732627
_cell_length_b   7.39732628
_cell_length_c   9.91522276
_cell_angle_alpha   80.85652789
_cell_angle_beta   70.58030182
_cell_angle_gamma   109.95899578
_symmetry_Int_Tables_number   1
_chemical_formula_structural   LiMo(PO3)4
_chemical_formula_sum   'Li2 Mo2 P8 O24'
_cell_volume   457.69302081
_cell_formula_units_Z   2
loop_
 _symmetry_equiv_pos_site_id
 _symmetry_equiv_pos_as_xyz
  1  'x, y, z'
loop_
 _atom_site_type_symbol
 _atom_site_label
 _atom_site_symmetry_multiplicity
 _atom_site_fract_x
 _atom_site_fract_y
 _atom_site_fract_z
 _atom_site_occupancy
  Li  Li0  1  0.99999957  0.49999945  0.00000044  1
  Li  Li1  1  0.00000011  0.00000030  0.50000035  1
  O  O2  1  0.55227611  0.76530543  0.94560085  1
  O  O3  1  0.86683046  0.19507849  0.41619710  1
  O  O4  1  0.02353034  0.64130455  0.16070865  1
  O  O5  1  0.13316879  0.80492211  0.58380379  1
  O  O6  1  0.18812365  0.70724062  0.34295673  1
  O  O7  1  0.30520286  0.73007798  0.82416467  1
  O  O8  1  0.49824744  0.83826256  0.40894296  1
  O  O9  1  0.21090670  0.49787678  0.55439828  1
  O  O10  1  0.11127518  0.28302686  0.08380362  1
  O  O11  1  0.74720482  0.90718977  0.09105755  1
  O  O12  1  0.97647035  0.35869605  0.83929189  1
  O  O13  1  0.69798752  0.81576143  0.66070829  1
  O  O14  1  0.55019757  0.53108013  0.15704298  1
  O  O15  1  0.05424326  0.12936831  0.67583480  1
  O  O16  1  0.94575743  0.87063228  0.32416473  1
  O  O17  1  0.44980312  0.46892046  0.84295655  1
  O  O18  1  0.81187704  0.29275998  0.65704280  1
  O  O19  1  0.44772458  0.23469517  0.05439868  1
  O  O20  1  0.25279520  0.09280931  0.90894334  1
  O  O21  1  0.88872484  0.71697222  0.91619727  1
  O  O22  1  0.78909399  0.50212381  0.44560125  1
  O  O23  1  0.50175325  0.16173804  0.59105657  1
  O  O24  1  0.69479716  0.26992110  0.17583520  1
  O  O25  1  0.30201250  0.18423765  0.33929159  1
  P  P26  1  0.73660661  0.27334153  0.52433930  1
  P  P27  1  0.98690611  0.68682834  0.30411768  1
  P  P28  1  0.26339341  0.72665754  0.47566058  1
  P  P29  1  0.01309458  0.31317225  0.69588185  1
  P  P30  1  0.50905367  0.70897638  0.80411752  1
  P  P31  1  0.49094490  0.29102269  0.19588271  1
  P  P32  1  0.29768106  0.26094610  0.97566135  1
  P  P33  1  0.70231963  0.73905450  0.02433919  1
  Mo  Mo34  1  0.19605992  0.94605943  0.75000002  1
  Mo  Mo35  1  0.80394010  0.05393965  0.24999986  1
