# generated using pymatgen
data_LiMnPO4
_symmetry_space_group_name_H-M   'P 1'
_cell_length_a   5.15181888
_cell_length_b   10.31958694
_cell_length_c   6.95465448
_cell_angle_alpha   89.99887381
_cell_angle_beta   90.28028347
_cell_angle_gamma   89.99978751
_symmetry_Int_Tables_number   1
_chemical_formula_structural   LiMnPO4
_chemical_formula_sum   'Li4 Mn4 P4 O16'
_cell_volume   369.73729712
_cell_formula_units_Z   4
loop_
 _symmetry_equiv_pos_site_id
 _symmetry_equiv_pos_as_xyz
  1  'x, y, z'
loop_
 _atom_site_type_symbol
 _atom_site_label
 _atom_site_symmetry_multiplicity
 _atom_site_fract_x
 _atom_site_fract_y
 _atom_site_fract_z
 _atom_site_occupancy
  Li  Li0  1  0.19632292  0.15300468  1.00001601  1
  Li  Li1  1  0.30367301  0.65300606  0.49998261  1
  Li  Li2  1  0.69632550  0.34699433  0.50001858  1
  Li  Li3  1  0.80367753  0.84699571  -0.00001627  1
  O  O4  1  0.17751575  0.83978387  0.06758041  1
  O  O5  1  0.82248470  0.16021652  0.93241933  1
  O  O6  1  0.80293798  0.15668319  0.56519524  1
  O  O7  1  0.75425923  0.94787843  0.75603317  1
  O  O8  1  0.10307738  0.62100554  0.74100276  1
  O  O9  1  0.89692307  0.37899485  0.25899699  1
  O  O10  1  0.19706247  0.84331720  0.43480451  1
  O  O11  1  0.24574122  0.05212196  0.24396802  1
  O  O12  1  0.25426302  0.55212678  0.25602387  1
  O  O13  1  0.30292322  0.34331826  0.06519983  1
  O  O14  1  0.74573549  0.44787264  0.74397587  1
  O  O15  1  0.39692029  0.12100454  0.75899449  1
  O  O16  1  0.60308016  0.87899488  0.24100526  1
  O  O17  1  0.67751079  0.66021201  0.56758325  1
  O  O18  1  0.69707529  0.65668213  0.93479991  1
  O  O19  1  0.32248967  0.33978741  0.43241650  1
  P  P20  1  0.80522602  0.59532082  0.74563704  1
  P  P21  1  0.69478487  0.09531727  0.75436427  1
  P  P22  1  0.30521364  0.90468312  0.24563548  1
  P  P23  1  0.19477443  0.40467957  0.25436270  1
  Mn  Mn24  1  0.19912169  0.15282548  0.50134602  1
  Mn  Mn25  1  0.30092274  0.65282731  0.99861562  1
  Mn  Mn26  1  0.69907771  0.34717308  0.00138412  1
  Mn  Mn27  1  0.80087876  0.84717491  0.49865373  1
