# generated using pymatgen
data_La2Cd17
_symmetry_space_group_name_H-M   'P 1'
_cell_length_a   10.20251949
_cell_length_b   10.20251949
_cell_length_c   10.03542565
_cell_angle_alpha   90.00000000
_cell_angle_beta   90.00000000
_cell_angle_gamma   120.00000003
_symmetry_Int_Tables_number   1
_chemical_formula_structural   La2Cd17
_chemical_formula_sum   'La4 Cd34'
_cell_volume   904.65147478
_cell_formula_units_Z   2
loop_
 _symmetry_equiv_pos_site_id
 _symmetry_equiv_pos_as_xyz
  1  'x, y, z'
loop_
 _atom_site_type_symbol
 _atom_site_label
 _atom_site_symmetry_multiplicity
 _atom_site_fract_x
 _atom_site_fract_y
 _atom_site_fract_z
 _atom_site_occupancy
  Cd  Cd0  1  0.33333333  0.66666667  0.09854225  1
  Cd  Cd1  1  0.66666667  0.33333333  0.59854225  1
  Cd  Cd2  1  0.66666667  0.33333333  0.90145775  1
  Cd  Cd3  1  0.33333333  0.66666667  0.40145775  1
  Cd  Cd4  1  0.50000000  0.00000000  0.00000000  1
  Cd  Cd5  1  0.50000000  0.50000000  0.50000000  1
  Cd  Cd6  1  0.00000000  0.50000000  0.50000000  1
  Cd  Cd7  1  0.00000000  0.50000000  0.00000000  1
  Cd  Cd8  1  0.50000000  0.50000000  0.00000000  1
  Cd  Cd9  1  0.50000000  0.00000000  0.50000000  1
  Cd  Cd10  1  0.03863892  0.67270022  0.25000000  1
  Cd  Cd11  1  0.36593870  0.03863892  0.75000000  1
  Cd  Cd12  1  0.67270022  0.63406130  0.75000000  1
  Cd  Cd13  1  0.32729978  0.36593870  0.25000000  1
  Cd  Cd14  1  0.63406130  0.96136108  0.25000000  1
  Cd  Cd15  1  0.36593870  0.32729978  0.75000000  1
  Cd  Cd16  1  0.96136108  0.63406130  0.75000000  1
  Cd  Cd17  1  0.96136108  0.32729978  0.75000000  1
  Cd  Cd18  1  0.67270022  0.03863892  0.75000000  1
  Cd  Cd19  1  0.32729978  0.96136108  0.25000000  1
  Cd  Cd20  1  0.63406130  0.67270022  0.25000000  1
  Cd  Cd21  1  0.03863892  0.36593870  0.25000000  1
  Cd  Cd22  1  0.16019237  0.32038475  0.97132970  1
  Cd  Cd23  1  0.83980763  0.16019237  0.47132970  1
  Cd  Cd24  1  0.32038475  0.16019237  0.47132970  1
  Cd  Cd25  1  0.67961525  0.83980763  0.97132970  1
  Cd  Cd26  1  0.16019237  0.83980763  0.97132970  1
  Cd  Cd27  1  0.83980763  0.67961525  0.02867030  1
  Cd  Cd28  1  0.83980763  0.16019237  0.02867030  1
  Cd  Cd29  1  0.83980763  0.67961525  0.47132970  1
  Cd  Cd30  1  0.32038475  0.16019237  0.02867030  1
  Cd  Cd31  1  0.67961525  0.83980763  0.52867030  1
  Cd  Cd32  1  0.16019237  0.32038475  0.52867030  1
  Cd  Cd33  1  0.16019237  0.83980763  0.52867030  1
  La  La34  1  0.00000000  0.00000000  0.25000000  1
  La  La35  1  0.00000000  0.00000000  0.75000000  1
  La  La36  1  0.33333333  0.66666667  0.75000000  1
  La  La37  1  0.66666667  0.33333333  0.25000000  1
