# generated using pymatgen
data_Nb(NiP4)4
_symmetry_space_group_name_H-M   'P 1'
_cell_length_a   5.72517062
_cell_length_b   10.28966205
_cell_length_c   11.22665814
_cell_angle_alpha   100.23599665
_cell_angle_beta   90.00000000
_cell_angle_gamma   106.15281212
_symmetry_Int_Tables_number   1
_chemical_formula_structural   Nb(NiP4)4
_chemical_formula_sum   'Nb2 Ni8 P32'
_cell_volume   624.28846350
_cell_formula_units_Z   2
loop_
 _symmetry_equiv_pos_site_id
 _symmetry_equiv_pos_as_xyz
  1  'x, y, z'
loop_
 _atom_site_type_symbol
 _atom_site_label
 _atom_site_symmetry_multiplicity
 _atom_site_fract_x
 _atom_site_fract_y
 _atom_site_fract_z
 _atom_site_occupancy
  P  P0  1  0.74752050  0.00793622  0.60492692  1
  P  P1  1  0.73958428  0.99206378  0.89507308  1
  P  P2  1  0.25247950  0.99206378  0.39507308  1
  P  P3  1  0.26041572  0.00793622  0.10492692  1
  P  P4  1  0.37937130  0.75349456  0.66095808  1
  P  P5  1  0.62587674  0.24650544  0.83904192  1
  P  P6  1  0.62062870  0.24650544  0.33904192  1
  P  P7  1  0.37412326  0.75349456  0.16095808  1
  P  P8  1  0.72800704  0.71614659  0.71943726  1
  P  P9  1  0.01186045  0.28385341  0.78056274  1
  P  P10  1  0.01419499  0.12610898  0.36873325  1
  P  P11  1  0.88808601  0.87389102  0.13126675  1
  P  P12  1  0.98580501  0.87389102  0.63126675  1
  P  P13  1  0.11191399  0.12610898  0.86873325  1
  P  P14  1  0.78563183  0.12692952  0.07940908  1
  P  P15  1  0.65870231  0.87307048  0.42059092  1
  P  P16  1  0.21436817  0.87307048  0.92059092  1
  P  P17  1  0.34129769  0.12692952  0.57940908  1
  P  P18  1  0.60502113  0.28403655  0.04163531  1
  P  P19  1  0.32098458  0.71596345  0.45836469  1
  P  P20  1  0.39497887  0.71596345  0.95836469  1
  P  P21  1  0.67901542  0.28403655  0.54163531  1
  P  P22  1  0.14648951  0.42509126  0.05341061  1
  P  P23  1  0.72139825  0.57490874  0.44658939  1
  P  P24  1  0.85351049  0.57490874  0.94658939  1
  P  P25  1  0.27860175  0.42509126  0.55341061  1
  P  P26  1  0.88602838  0.44526433  0.31318792  1
  P  P27  1  0.44076405  0.55473567  0.18681208  1
  P  P28  1  0.11397162  0.55473567  0.68681208  1
  P  P29  1  0.55923595  0.44526433  0.81318792  1
  P  P30  1  0.98813955  0.71614659  0.21943726  1
  P  P31  1  0.27199296  0.28385341  0.28056274  1
  Ni  Ni32  1  0.69427878  0.49861532  0.62913427  1
  Ni  Ni33  1  0.19566345  0.50138468  0.87086573  1
  Ni  Ni34  1  0.30572122  0.50138468  0.37086573  1
  Ni  Ni35  1  0.80433655  0.49861532  0.12913427  1
  Ni  Ni36  1  0.20208838  0.21458473  0.07352795  1
  Ni  Ni37  1  0.98750364  0.78541527  0.42647205  1
  Ni  Ni38  1  0.79791162  0.78541527  0.92647205  1
  Ni  Ni39  1  0.01249636  0.21458473  0.57352795  1
  Nb  Nb40  1  0.39409733  0.00000000  0.75000000  1
  Nb  Nb41  1  0.60590267  0.00000000  0.25000000  1
