# generated using pymatgen
data_LiCrP2O7
_symmetry_space_group_name_H-M   'P 1'
_cell_length_a   6.32235640
_cell_length_b   6.32227081
_cell_length_c   13.16251370
_cell_angle_alpha   79.12279708
_cell_angle_beta   77.59617147
_cell_angle_gamma   99.20754670
_symmetry_Int_Tables_number   1
_chemical_formula_structural   LiCrP2O7
_chemical_formula_sum   'Li4 Cr4 P8 O28'
_cell_volume   493.46033685
_cell_formula_units_Z   4
loop_
 _symmetry_equiv_pos_site_id
 _symmetry_equiv_pos_as_xyz
  1  'x, y, z'
loop_
 _atom_site_type_symbol
 _atom_site_label
 _atom_site_symmetry_multiplicity
 _atom_site_fract_x
 _atom_site_fract_y
 _atom_site_fract_z
 _atom_site_occupancy
  Li  Li0  1  0.41249067  0.01676231  0.34869412  1
  Li  Li1  1  0.58750738  0.98324233  0.65130848  1
  Li  Li2  1  0.86560077  0.76145364  0.15126105  1
  Li  Li3  1  0.13439639  0.23855085  0.84874001  1
  O  O4  1  0.30391489  0.60472014  0.48104991  1
  O  O5  1  0.79419729  0.18964062  0.87230631  1
  O  O6  1  0.72953435  0.06998057  0.38002930  1
  O  O7  1  0.95000308  0.10964494  0.11997306  1
  O  O8  1  0.05000192  0.89034970  0.88002734  1
  O  O9  1  0.27046932  0.93002889  0.61996673  1
  O  O10  1  0.20580091  0.81034198  0.12769565  1
  O  O11  1  0.45666052  0.90826336  0.81633000  1
  O  O12  1  0.08654646  0.46458068  0.35578436  1
  O  O13  1  0.18119749  0.57508494  0.80126513  1
  O  O14  1  0.22629223  0.61228971  0.97842623  1
  O  O15  1  0.77535793  0.72704026  0.31632670  1
  O  O16  1  0.58578812  0.78495794  0.01895201  1
  O  O17  1  0.32031643  0.44238688  0.14424046  1
  O  O18  1  0.09068955  0.20467991  0.52159538  1
  O  O19  1  0.91345542  0.53543682  0.64421446  1
  O  O20  1  0.56204552  0.66655060  0.62769468  1
  O  O21  1  0.22464701  0.27296964  0.68367123  1
  O  O22  1  0.54334767  0.09172624  0.18367068  1
  O  O23  1  0.43795677  0.33346221  0.37230367  1
  O  O24  1  0.12356412  0.01762445  0.30123774  1
  O  O25  1  0.90931155  0.79532288  0.47840227  1
  O  O26  1  0.67967990  0.55759425  0.85576005  1
  O  O27  1  0.41420785  0.21503180  0.98105033  1
  O  O28  1  0.69608995  0.39529559  0.51894714  1
  O  O29  1  0.77370581  0.38770462  0.02157362  1
  O  O30  1  0.81880507  0.42492130  0.19873110  1
  O  O31  1  0.87643719  0.98236369  0.69876245  1
  P  P32  1  0.88493404  0.90820027  0.36340339  1
  P  P33  1  0.11506176  0.09182268  0.63659880  1
  P  P34  1  0.76167467  0.58408385  0.57199818  1
  P  P35  1  0.65605795  0.33359074  0.92799800  1
  P  P36  1  0.22842411  0.75158926  0.86341498  1
  P  P37  1  0.34394017  0.66638737  0.07200383  1
  P  P38  1  0.23832902  0.41592298  0.42800243  1
  P  P39  1  0.77157906  0.24840966  0.13658621  1
  Cr  Cr40  1  0.76529049  0.40166871  0.36096244  1
  Cr  Cr41  1  0.26262329  0.12629897  0.13903734  1
  Cr  Cr42  1  0.73737038  0.87365422  0.86097031  1
  Cr  Cr43  1  0.23469579  0.59836832  0.63903351  1
