# generated using pymatgen
data_LiMnP2O7
_symmetry_space_group_name_H-M   'P 1'
_cell_length_a   6.22787291
_cell_length_b   6.22777468
_cell_length_c   13.63029433
_cell_angle_alpha   78.12685907
_cell_angle_beta   79.67721453
_cell_angle_gamma   99.05848258
_symmetry_Int_Tables_number   1
_chemical_formula_structural   LiMnP2O7
_chemical_formula_sum   'Li4 Mn4 P8 O28'
_cell_volume   498.50336416
_cell_formula_units_Z   4
loop_
 _symmetry_equiv_pos_site_id
 _symmetry_equiv_pos_as_xyz
  1  'x, y, z'
loop_
 _atom_site_type_symbol
 _atom_site_label
 _atom_site_symmetry_multiplicity
 _atom_site_fract_x
 _atom_site_fract_y
 _atom_site_fract_z
 _atom_site_occupancy
  Li  Li0  1  0.39777827  0.97207296  0.36163240  1
  Li  Li1  1  0.16640518  0.24055445  0.86165776  1
  Li  Li2  1  0.83357883  0.75943771  0.13835509  1
  Li  Li3  1  0.60222110  0.02793706  0.63835755  1
  O  O4  1  0.31272142  0.62506078  0.46597993  1
  O  O5  1  0.72521917  0.06510817  0.37738648  1
  O  O6  1  0.79899203  0.19069844  0.87202157  1
  O  O7  1  0.53718126  0.08502553  0.17840116  1
  O  O8  1  0.05751145  0.89735162  0.87739399  1
  O  O9  1  0.27478912  0.93487512  0.62261444  1
  O  O10  1  0.20100831  0.80931764  0.12797044  1
  O  O11  1  0.46280692  0.91498273  0.82158643  1
  O  O12  1  0.07800269  0.45456186  0.35429059  1
  O  O13  1  0.18946858  0.56962163  0.81068858  1
  O  O14  1  0.23434839  0.62182195  0.98150721  1
  O  O15  1  0.94248082  0.10265535  0.12259413  1
  O  O16  1  0.59110048  0.77872539  0.03402073  1
  O  O17  1  0.10333226  0.21577164  0.51848624  1
  O  O18  1  0.30891252  0.43236607  0.14571210  1
  O  O19  1  0.88036586  1.00014724  0.68931041  1
  O  O20  1  0.56277905  0.67103131  0.62799451  1
  O  O21  1  0.23659622  0.28438140  0.67841534  1
  O  O22  1  0.92202747  0.54542633  0.64571082  1
  O  O23  1  0.43724015  0.32895949  0.37201475  1
  O  O24  1  0.11965189  -0.00014410  0.31067874  1
  O  O25  1  0.69107852  0.56765850  0.85427827  1
  O  O26  1  0.89667597  0.78421455  0.48151414  1
  O  O27  1  0.40890723  0.22128403  0.96596898  1
  O  O28  1  0.68729361  0.37493440  0.53402681  1
  O  O29  1  0.76564752  0.37818232  0.01848570  1
  O  O30  1  0.81052940  0.43036777  0.18930879  1
  O  O31  1  0.76341907  0.71561038  0.32159094  1
  P  P32  1  0.76391349  0.24923072  0.13301272  1
  P  P33  1  0.65315751  0.33265131  0.92430054  1
  P  P34  1  0.75702239  0.57748706  0.57569298  1
  P  P35  1  0.11776665  0.10302815  0.63301865  1
  P  P36  1  0.23606974  0.75078298  0.86698608  1
  P  P37  1  0.34682367  0.66736590  0.07569498  1
  P  P38  1  0.88220678  0.89695164  0.36698748  1
  P  P39  1  0.24300093  0.42249788  0.42430790  1
  Mn  Mn40  1  0.23911257  0.60624557  0.63928151  1
  Mn  Mn41  1  0.74550030  0.87829292  0.86078787  1
  Mn  Mn42  1  0.25446807  0.12175516  0.13921338  1
  Mn  Mn43  1  0.76088411  0.39371404  0.36076290  1
