# generated using pymatgen
data_U2Al19Co6
_symmetry_space_group_name_H-M   'P 1'
_cell_length_a   8.15856291
_cell_length_b   10.61423243
_cell_length_c   10.61423305
_cell_angle_alpha   68.88765744
_cell_angle_beta   78.53480643
_cell_angle_gamma   78.53480351
_symmetry_Int_Tables_number   1
_chemical_formula_structural   U2Al19Co6
_chemical_formula_sum   'U4 Al38 Co12'
_cell_volume   832.18189040
_cell_formula_units_Z   2
loop_
 _symmetry_equiv_pos_site_id
 _symmetry_equiv_pos_as_xyz
  1  'x, y, z'
loop_
 _atom_site_type_symbol
 _atom_site_label
 _atom_site_symmetry_multiplicity
 _atom_site_fract_x
 _atom_site_fract_y
 _atom_site_fract_z
 _atom_site_occupancy
  U  U0  1  0.74550718  0.28114591  0.28114591  1
  U  U1  1  0.25449282  0.71885409  0.71885409  1
  U  U2  1  0.22369136  0.28148916  0.28148916  1
  U  U3  1  0.77630864  0.71851084  0.71851084  1
  Al  Al4  1  0.63715503  0.85322131  0.20064297  1
  Al  Al5  1  0.94585605  0.18581143  0.53376008  1
  Al  Al6  1  0.15496818  0.56628899  0.32948523  1
  Al  Al7  1  0.55140874  0.48446125  0.81426342  1
  Al  Al8  1  0.76055596  0.50287191  0.00189670  1
  Al  Al9  1  0.23944404  0.99810330  0.49712809  1
  Al  Al10  1  0.00000000  0.83242609  0.16757391  1
  Al  Al11  1  0.18566253  0.90979736  0.90979736  1
  Al  Al12  1  0.81433747  0.09020264  0.09020264  1
  Al  Al13  1  0.64483181  0.91759101  0.91759101  1
  Al  Al14  1  0.15496818  0.32948523  0.56628899  1
  Al  Al15  1  0.05414395  0.46623992  0.81418857  1
  Al  Al16  1  0.35516819  0.08240899  0.08240899  1
  Al  Al17  1  1.00000000  0.16757391  0.83242609  1
  Al  Al18  1  0.84503182  0.67051477  0.43371101  1
  Al  Al19  1  0.46692880  0.93103858  0.70041211  1
  Al  Al20  1  0.53307120  0.29958789  0.06896142  1
  Al  Al21  1  0.36284497  0.14677869  0.79935703  1
  Al  Al22  1  0.04628564  0.05433773  0.27887104  1
  Al  Al23  1  0.95371436  0.72112896  0.94566227  1
  Al  Al24  1  0.94585605  0.53376008  0.18581143  1
  Al  Al25  1  0.63715503  0.20064297  0.85322131  1
  Al  Al26  1  0.53307120  0.06896142  0.29958789  1
  Al  Al27  1  0.64823642  0.56328374  0.32782090  1
  Al  Al28  1  0.04628564  0.27887104  0.05433773  1
  Al  Al29  1  0.44859126  0.51553875  0.18573658  1
  Al  Al30  1  0.46692880  0.70041211  0.93103858  1
  Al  Al31  1  0.64823642  0.32782090  0.56328374  1
  Al  Al32  1  0.84503182  0.43371101  0.67051477  1
  Al  Al33  1  0.35176358  0.43671626  0.67217910  1
  Al  Al34  1  0.95371436  0.94566227  0.72112896  1
  Al  Al35  1  0.36284497  0.79935703  0.14677869  1
  Al  Al36  1  0.05414395  0.81418857  0.46623992  1
  Al  Al37  1  0.44859126  0.18573658  0.51553875  1
  Al  Al38  1  0.55140874  0.81426342  0.48446125  1
  Al  Al39  1  0.76055596  0.00189670  0.50287191  1
  Al  Al40  1  0.35176358  0.67217910  0.43671626  1
  Al  Al41  1  0.23944404  0.49712809  0.99810330  1
  Co  Co42  1  0.81105718  0.92185594  0.32040895  1
  Co  Co43  1  0.67008100  0.68664734  0.08155728  1
  Co  Co44  1  0.09249976  0.56406262  0.56406262  1
  Co  Co45  1  0.81105718  0.32040895  0.92185594  1
  Co  Co46  1  0.32991900  0.91844272  0.31335266  1
  Co  Co47  1  0.90750024  0.43593738  0.43593738  1
  Co  Co48  1  0.40513199  0.43904669  0.43904669  1
  Co  Co49  1  0.32991900  0.31335266  0.91844272  1
  Co  Co50  1  0.18894282  0.07814406  0.67959105  1
  Co  Co51  1  0.67008100  0.08155728  0.68664734  1
  Co  Co52  1  0.59486801  0.56095331  0.56095331  1
  Co  Co53  1  0.18894282  0.67959105  0.07814406  1
