# generated using pymatgen
data_Ba2Tl7Au
_symmetry_space_group_name_H-M   'P 1'
_cell_length_a   5.31957042
_cell_length_b   10.77623428
_cell_length_c   22.48820618
_cell_angle_alpha   90.00000000
_cell_angle_beta   90.00000000
_cell_angle_gamma   90.00000000
_symmetry_Int_Tables_number   1
_chemical_formula_structural   Ba2Tl7Au
_chemical_formula_sum   'Ba8 Tl28 Au4'
_cell_volume   1289.13500509
_cell_formula_units_Z   4
loop_
 _symmetry_equiv_pos_site_id
 _symmetry_equiv_pos_as_xyz
  1  'x, y, z'
loop_
 _atom_site_type_symbol
 _atom_site_label
 _atom_site_symmetry_multiplicity
 _atom_site_fract_x
 _atom_site_fract_y
 _atom_site_fract_z
 _atom_site_occupancy
  Ba  Ba0  1  0.25000000  0.75101470  0.45890458  1
  Ba  Ba1  1  0.75000000  0.24898530  0.54109542  1
  Ba  Ba2  1  0.75000000  0.25101470  0.04109542  1
  Ba  Ba3  1  0.25000000  0.74898530  0.95890458  1
  Ba  Ba4  1  0.25000000  0.99611486  0.78934358  1
  Ba  Ba5  1  0.75000000  0.00388514  0.21065642  1
  Ba  Ba6  1  0.75000000  0.49611486  0.71065642  1
  Ba  Ba7  1  0.25000000  0.50388514  0.28934358  1
  Au  Au8  1  0.25000000  0.25763233  0.67317625  1
  Au  Au9  1  0.75000000  0.74236767  0.32682375  1
  Au  Au10  1  0.75000000  0.75763233  0.82682375  1
  Au  Au11  1  0.25000000  0.24236767  0.17317625  1
  Tl  Tl12  1  0.25000000  0.47485963  0.10250563  1
  Tl  Tl13  1  0.75000000  0.52514037  0.89749437  1
  Tl  Tl14  1  0.75000000  0.97485963  0.39749437  1
  Tl  Tl15  1  0.25000000  0.02514037  0.60250563  1
  Tl  Tl16  1  0.75000000  0.64741118  0.20145343  1
  Tl  Tl17  1  0.25000000  0.35258882  0.79854657  1
  Tl  Tl18  1  0.25000000  0.14741118  0.29854657  1
  Tl  Tl19  1  0.75000000  0.85258882  0.70145343  1
  Tl  Tl20  1  0.75000000  0.60053953  0.05165597  1
  Tl  Tl21  1  0.25000000  0.39946047  0.94834403  1
  Tl  Tl22  1  0.25000000  0.10053953  0.44834403  1
  Tl  Tl23  1  0.75000000  0.89946047  0.55165597  1
  Tl  Tl24  1  0.25000000  0.84951377  0.29752695  1
  Tl  Tl25  1  0.75000000  0.15048623  0.70247305  1
  Tl  Tl26  1  0.75000000  0.34951377  0.20247305  1
  Tl  Tl27  1  0.25000000  0.65048623  0.79752695  1
  Tl  Tl28  1  0.25000000  0.46105029  0.59008929  1
  Tl  Tl29  1  0.75000000  0.53894971  0.40991071  1
  Tl  Tl30  1  0.75000000  0.96105029  0.90991071  1
  Tl  Tl31  1  0.25000000  0.03894971  0.09008929  1
  Tl  Tl32  1  0.75000000  0.60223230  0.55251879  1
  Tl  Tl33  1  0.25000000  0.39776770  0.44748121  1
  Tl  Tl34  1  0.25000000  0.10223230  0.94748121  1
  Tl  Tl35  1  0.75000000  0.89776770  0.05251879  1
  Tl  Tl36  1  0.25000000  0.73362623  0.64886502  1
  Tl  Tl37  1  0.75000000  0.26637377  0.35113498  1
  Tl  Tl38  1  0.75000000  0.23362623  0.85113498  1
  Tl  Tl39  1  0.25000000  0.76637377  0.14886502  1
