# generated using pymatgen
data_LiMo2P3O13
_symmetry_space_group_name_H-M   'P 1'
_cell_length_a   6.49792603
_cell_length_b   7.61722444
_cell_length_c   11.39694466
_cell_angle_alpha   76.24319890
_cell_angle_beta   86.52553013
_cell_angle_gamma   80.02057092
_symmetry_Int_Tables_number   1
_chemical_formula_structural   LiMo2P3O13
_chemical_formula_sum   'Li2 Mo4 P6 O26'
_cell_volume   539.52203822
_cell_formula_units_Z   2
loop_
 _symmetry_equiv_pos_site_id
 _symmetry_equiv_pos_as_xyz
  1  'x, y, z'
loop_
 _atom_site_type_symbol
 _atom_site_label
 _atom_site_symmetry_multiplicity
 _atom_site_fract_x
 _atom_site_fract_y
 _atom_site_fract_z
 _atom_site_occupancy
  Li  Li0  1  0.19623414  0.56865827  0.81569458  1
  Li  Li1  1  0.80376696  0.43134059  0.18430633  1
  O  O2  1  0.21477458  0.36746374  0.96174790  1
  O  O3  1  0.92008578  0.21840446  0.57400544  1
  O  O4  1  0.89079869  0.54157903  0.33491958  1
  O  O5  1  0.77513692  0.89650877  0.21652866  1
  O  O6  1  0.13130143  0.37103868  0.20982986  1
  O  O7  1  0.07991377  0.78159441  0.42599554  1
  O  O8  1  0.10920061  0.45842120  0.66508030  1
  O  O9  1  0.22486394  0.10349146  0.78347204  1
  O  O10  1  0.10470495  0.80101927  0.88758856  1
  O  O11  1  0.24249879  0.35531658  0.42345059  1
  O  O12  1  0.24424318  0.64024214  0.25770041  1
  O  O13  1  0.86869967  0.62896017  0.79017018  1
  O  O14  1  0.25738695  0.98841609  0.00810193  1
  O  O15  1  0.24123954  0.97858933  0.24533803  1
  O  O16  1  0.30348655  0.98608377  0.57252564  1
  O  O17  1  0.52237552  0.19154777  0.12827731  1
  O  O18  1  0.52712357  0.26688076  0.60601817  1
  O  O19  1  0.89529435  0.19898097  0.11241132  1
  O  O20  1  0.47762533  0.80845245  0.87172251  1
  O  O21  1  0.69651454  0.01391508  0.42747440  1
  O  O22  1  0.75876156  0.02140952  0.75466201  1
  O  O23  1  0.74261235  0.01158414  0.99189795  1
  O  O24  1  0.78522473  0.63253650  0.03825198  1
  O  O25  1  0.75575612  0.35975809  0.74229947  1
  O  O26  1  0.75750051  0.64468365  0.57654929  1
  O  O27  1  0.47287574  0.73311948  0.39398259  1
  P  P28  1  0.87837240  0.53023611  0.68702543  1
  P  P29  1  0.73858514  0.20622905  0.66673533  1
  P  P30  1  0.73398315  0.06814518  0.11315668  1
  P  P31  1  0.26601771  0.93185505  0.88684402  1
  P  P32  1  0.12162846  0.46976412  0.31297527  1
  P  P33  1  0.26141417  0.79377119  0.33326455  1
  Mo  Mo34  1  0.21563242  0.19837756  0.09353945  1
  Mo  Mo35  1  0.23794086  0.19985547  0.59721462  1
  Mo  Mo36  1  0.76205845  0.80014476  0.40278526  1
  Mo  Mo37  1  0.78436688  0.80162267  0.90646043  1
