# generated using pymatgen
data_K9Ta10O30
_symmetry_space_group_name_H-M   'P 1'
_cell_length_a   20.12009891
_cell_length_b   8.99818618
_cell_length_c   8.99754984
_cell_angle_alpha   66.41883212
_cell_angle_beta   63.43018229
_cell_angle_gamma   26.56541850
_symmetry_Int_Tables_number   1
_chemical_formula_structural   K9Ta10O30
_chemical_formula_sum   'K9 Ta10 O30'
_cell_volume   651.56363905
_cell_formula_units_Z   1
loop_
 _symmetry_equiv_pos_site_id
 _symmetry_equiv_pos_as_xyz
  1  'x, y, z'
loop_
 _atom_site_type_symbol
 _atom_site_label
 _atom_site_symmetry_multiplicity
 _atom_site_fract_x
 _atom_site_fract_y
 _atom_site_fract_z
 _atom_site_occupancy
  K  K0  1  0.04976902  0.49974732  0.25011984  1
  K  K1  1  0.24918015  0.50174506  0.24998840  1
  K  K2  1  0.15030401  0.49991164  0.74997965  1
  K  K3  1  0.45081985  0.49825494  0.25001160  1
  K  K4  1  0.35000000  0.50000000  0.75000000  1
  K  K5  1  0.54969599  0.50008836  0.75002035  1
  K  K6  1  0.65023098  0.50025268  0.24988016  1
  K  K7  1  0.75020235  0.49939978  0.74947328  1
  K  K8  1  0.94979765  0.50060022  0.75052672  1
  O  O9  1  0.10198894  0.99600933  0.99797670  1
  O  O10  1  0.15240636  0.99598850  0.25006321  1
  O  O11  1  0.04980458  1.00053074  0.74994172  1
  O  O12  1  0.00130059  0.49978252  0.99798261  1
  O  O13  1  0.29980662  1.00024120  1.00012255  1
  O  O14  1  0.19986910  1.00028443  0.49982083  1
  O  O15  1  0.35000000  0.00000000  0.25000000  1
  O  O16  1  0.19990866  0.50030357  1.00010476  1
  O  O17  1  0.09994449  0.50031481  0.49985602  1
  O  O18  1  0.24981592  1.00025217  0.75018344  1
  O  O19  1  0.50013090  -0.00028443  1.00017917  1
  O  O20  1  0.40019338  -0.00024120  0.49987745  1
  O  O21  1  0.54759364  0.00401150  0.24993679  1
  O  O22  1  0.45018408  -0.00025217  0.74981656  1
  O  O23  1  0.39991819  0.50005416  1.00028054  1
  O  O24  1  0.30008181  0.49994584  0.49971946  1
  O  O25  1  0.69881613  0.00399605  0.99806213  1
  O  O26  1  0.59801106  0.00399067  0.50202330  1
  O  O27  1  0.74917838  0.00404273  0.25001469  1
  O  O28  1  0.60005551  0.49968519  1.00014398  1
  O  O29  1  0.65019542  -0.00053074  0.75005828  1
  O  O30  1  0.50009134  0.49969643  0.49989524  1
  O  O31  1  0.89995288  1.00002665  1.00024222  1
  O  O32  1  0.80004712  -0.00002665  0.49975778  1
  O  O33  1  0.85000000  0.00000000  0.75000000  1
  O  O34  1  0.95082162  0.99595727  0.24998531  1
  O  O35  1  0.79952059  0.50015940  0.99804307  1
  O  O36  1  0.69869941  0.50021748  0.50201739  1
  O  O37  1  0.00118387  0.99600395  0.50193787  1
  O  O38  1  0.90047941  0.49984060  0.50195693  1
  Ta  Ta39  1  0.99794559  0.00564769  0.00215015  1
  Ta  Ta40  1  0.19689664  0.00331762  0.00333573  1
  Ta  Ta41  1  0.09791446  0.00314528  0.49880990  1
  Ta  Ta42  1  0.40020534  0.99993368  0.99907198  1
  Ta  Ta43  1  0.29979466  0.00006632  0.50092802  1
  Ta  Ta44  1  0.60208554  0.99685472  0.00119010  1
  Ta  Ta45  1  0.50310336  0.99668238  0.49666427  1
  Ta  Ta46  1  0.80120955  0.99449401  0.00181329  1
  Ta  Ta47  1  0.70205441  0.99435231  0.49784985  1
  Ta  Ta48  1  0.89879045  0.00550599  0.49818671  1
