# generated using pymatgen
data_LiSbS2
_symmetry_space_group_name_H-M   'P 1'
_cell_length_a   7.68196980
_cell_length_b   10.21390188
_cell_length_c   6.73107936
_cell_angle_alpha   29.12117485
_cell_angle_beta   55.20552926
_cell_angle_gamma   41.22658298
_symmetry_Int_Tables_number   1
_chemical_formula_structural   LiSbS2
_chemical_formula_sum   'Li2 Sb2 S4'
_cell_volume   163.12607652
_cell_formula_units_Z   2
loop_
 _symmetry_equiv_pos_site_id
 _symmetry_equiv_pos_as_xyz
  1  'x, y, z'
loop_
 _atom_site_type_symbol
 _atom_site_label
 _atom_site_symmetry_multiplicity
 _atom_site_fract_x
 _atom_site_fract_y
 _atom_site_fract_z
 _atom_site_occupancy
  Li  Li0  1  0.24999913  0.50000000  0.00000000  1
  Li  Li1  1  0.50000087  0.00000000  0.00000000  1
  S  S2  1  0.50138538  0.50002714  0.49717597  1
  S  S3  1  0.24861462  -0.00002714  0.50282403  1
  S  S4  1  0.99861563  0.49997286  0.50282403  1
  S  S5  1  0.75138437  1.00002714  0.49717597  1
  Sb  Sb6  1  0.00000300  0.00000000  0.00000000  1
  Sb  Sb7  1  0.74999700  0.50000000  0.00000000  1
