# generated using pymatgen
data_Sr4Re2NiO12
_symmetry_space_group_name_H-M   'P 1'
_cell_length_a   9.60547767
_cell_length_b   9.60547768
_cell_length_c   9.60547767
_cell_angle_alpha   33.85219022
_cell_angle_beta   33.85219019
_cell_angle_gamma   33.85219021
_symmetry_Int_Tables_number   1
_chemical_formula_structural   Sr4Re2NiO12
_chemical_formula_sum   'Sr4 Re2 Ni1 O12'
_cell_volume   245.07739441
_cell_formula_units_Z   1
loop_
 _symmetry_equiv_pos_site_id
 _symmetry_equiv_pos_as_xyz
  1  'x, y, z'
loop_
 _atom_site_type_symbol
 _atom_site_label
 _atom_site_symmetry_multiplicity
 _atom_site_fract_x
 _atom_site_fract_y
 _atom_site_fract_z
 _atom_site_occupancy
  O  O0  1  0.38118204  0.38118204  0.86867832  1
  O  O1  1  0.38118204  0.86867832  0.38118204  1
  O  O2  1  0.86867832  0.38118204  0.38118204  1
  O  O3  1  0.13132168  0.61881796  0.61881796  1
  O  O4  1  0.61881796  0.61881796  0.13132168  1
  O  O5  1  0.61881796  0.13132168  0.61881796  1
  O  O6  1  0.21707350  0.21707350  0.69603487  1
  O  O7  1  0.78292650  0.30396513  0.78292650  1
  O  O8  1  0.78292650  0.78292650  0.30396513  1
  O  O9  1  0.30396513  0.78292650  0.78292650  1
  O  O10  1  0.69603487  0.21707350  0.21707350  1
  O  O11  1  0.21707350  0.69603487  0.21707350  1
  Ni  Ni12  1  0.00000000  0.00000000  0.00000000  1
  Sr  Sr13  1  0.86747081  0.86747081  0.86747081  1
  Sr  Sr14  1  0.29181548  0.29181548  0.29181548  1
  Sr  Sr15  1  0.13252919  0.13252919  0.13252919  1
  Sr  Sr16  1  0.70818452  0.70818452  0.70818452  1
  Re  Re17  1  0.57976155  0.57976155  0.57976155  1
  Re  Re18  1  0.42023845  0.42023845  0.42023845  1
