# generated using pymatgen
data_LiErS2
_symmetry_space_group_name_H-M   'P 1'
_cell_length_a   7.63439120
_cell_length_b   10.15482075
_cell_length_c   6.69600616
_cell_angle_alpha   29.10715147
_cell_angle_beta   55.23481831
_cell_angle_gamma   41.24689961
_symmetry_Int_Tables_number   1
_chemical_formula_structural   LiErS2
_chemical_formula_sum   'Li2 Er2 S4'
_cell_volume   160.28771740
_cell_formula_units_Z   2
loop_
 _symmetry_equiv_pos_site_id
 _symmetry_equiv_pos_as_xyz
  1  'x, y, z'
loop_
 _atom_site_type_symbol
 _atom_site_label
 _atom_site_symmetry_multiplicity
 _atom_site_fract_x
 _atom_site_fract_y
 _atom_site_fract_z
 _atom_site_occupancy
  Er  Er0  1  0.24999813  0.50002080  -0.00002740  1
  Er  Er1  1  0.50000187  -0.00002080  1.00002740  1
  Li  Li2  1  0.00000542  1.00000769  0.99998349  1
  Li  Li3  1  0.74999458  0.49999231  0.00001651  1
  S  S4  1  0.25446134  -0.00000053  0.49102769  1
  S  S5  1  0.74555651  1.00001012  0.50889872  1
  S  S6  1  0.49553866  0.50000053  0.50897231  1
  S  S7  1  0.00444349  0.49998988  0.49110128  1
