# generated using pymatgen
data_Rb2Sb4S7
_symmetry_space_group_name_H-M   'P 1'
_cell_length_a   7.28532912
_cell_length_b   8.72096468
_cell_length_c   12.55568311
_cell_angle_alpha   90.00000000
_cell_angle_beta   90.00000000
_cell_angle_gamma   92.57154531
_symmetry_Int_Tables_number   1
_chemical_formula_structural   Rb2Sb4S7
_chemical_formula_sum   'Rb4 Sb8 S14'
_cell_volume   796.92322545
_cell_formula_units_Z   2
loop_
 _symmetry_equiv_pos_site_id
 _symmetry_equiv_pos_as_xyz
  1  'x, y, z'
loop_
 _atom_site_type_symbol
 _atom_site_label
 _atom_site_symmetry_multiplicity
 _atom_site_fract_x
 _atom_site_fract_y
 _atom_site_fract_z
 _atom_site_occupancy
  S  S0  1  0.97691811  0.16515092  0.73260018  1
  S  S1  1  0.66409479  0.27983324  0.96742630  1
  S  S2  1  0.83590521  0.22016676  0.46742630  1
  S  S3  1  0.33590521  0.72016676  0.03257370  1
  S  S4  1  0.00000000  0.00000000  0.00000000  1
  S  S5  1  0.50000000  0.50000000  0.50000000  1
  S  S6  1  0.00139961  0.67863246  0.79743725  1
  S  S7  1  0.49860039  0.82136754  0.29743725  1
  S  S8  1  0.99860039  0.32136754  0.20256275  1
  S  S9  1  0.50139961  0.17863246  0.70256275  1
  S  S10  1  0.47691811  0.66515092  0.76739982  1
  S  S11  1  0.02308189  0.83484908  0.26739982  1
  S  S12  1  0.52308189  0.33484908  0.23260018  1
  S  S13  1  0.16409479  0.77983324  0.53257370  1
  Rb  Rb14  1  0.70704855  0.84842808  0.56043480  1
  Rb  Rb15  1  0.20704855  0.34842808  0.93956520  1
  Rb  Rb16  1  0.29295145  0.15157192  0.43956520  1
  Rb  Rb17  1  0.79295145  0.65157192  0.06043480  1
  Sb  Sb18  1  0.22863656  0.56132703  0.65435318  1
  Sb  Sb19  1  0.27136344  0.93867297  0.15435318  1
  Sb  Sb20  1  0.77136344  0.43867297  0.34564682  1
  Sb  Sb21  1  0.72863656  0.06132703  0.84564682  1
  Sb  Sb22  1  0.25172870  0.85025817  0.86275773  1
  Sb  Sb23  1  0.24827130  0.64974183  0.36275773  1
  Sb  Sb24  1  0.74827130  0.14974183  0.13724227  1
  Sb  Sb25  1  0.75172870  0.35025817  0.63724227  1
