# generated using pymatgen
data_Na6Al4Fe(Si4O13)2
_symmetry_space_group_name_H-M   'P 1'
_cell_length_a   8.15304208
_cell_length_b   8.62013945
_cell_length_c   10.44474719
_cell_angle_alpha   111.28074820
_cell_angle_beta   90.02323185
_cell_angle_gamma   118.26558564
_symmetry_Int_Tables_number   1
_chemical_formula_structural   Na6Al4Fe(Si4O13)2
_chemical_formula_sum   'Na6 Al4 Fe1 Si8 O26'
_cell_volume   589.02494948
_cell_formula_units_Z   1
loop_
 _symmetry_equiv_pos_site_id
 _symmetry_equiv_pos_as_xyz
  1  'x, y, z'
loop_
 _atom_site_type_symbol
 _atom_site_label
 _atom_site_symmetry_multiplicity
 _atom_site_fract_x
 _atom_site_fract_y
 _atom_site_fract_z
 _atom_site_occupancy
  Na  Na0  1  0.15620782  0.31237119  0.88964261  1
  Na  Na1  1  0.26858751  0.53721192  0.56056899  1
  Na  Na2  1  0.47180498  0.94272126  0.16897651  1
  Na  Na3  1  0.52819502  0.05727874  0.83102349  1
  Na  Na4  1  0.73141249  0.46278808  0.43943101  1
  Na  Na5  1  0.84379218  0.68762881  0.11035739  1
  Al  Al6  1  0.13632248  0.87886728  0.65957564  1
  Al  Al7  1  0.25738424  0.12080149  0.33996628  1
  Al  Al8  1  0.74261576  0.87919851  0.66003372  1
  Al  Al9  1  0.86367752  0.12113272  0.34042436  1
  Fe  Fe10  1  0.00000000  0.00000000  0.00000000  1
  Si  Si11  1  0.16208787  0.70997725  0.34388346  1
  Si  Si12  1  0.15630226  0.69683763  0.87394528  1
  Si  Si13  1  0.54020079  0.69665074  0.87421726  1
  Si  Si14  1  0.54834417  0.71021680  0.34398098  1
  Si  Si15  1  0.45165583  0.28978320  0.65601902  1
  Si  Si16  1  0.45979921  0.30334926  0.12578274  1
  Si  Si17  1  0.84369774  0.30316237  0.12605472  1
  Si  Si18  1  0.83791213  0.29002275  0.65611654  1
  O  O19  1  0.08890239  0.80893496  -0.00029211  1
  O  O20  1  0.06371897  0.71178139  0.47931974  1
  O  O21  1  0.00401898  0.45888235  0.79944936  1
  O  O22  1  0.25665155  0.90874807  0.32251348  1
  O  O23  1  0.20548819  0.77254739  0.74893523  1
  O  O24  1  0.03840502  0.07696833  0.27340228  1
  O  O25  1  0.32491905  0.64978805  0.35857582  1
  O  O26  1  0.35537792  0.71128775  0.93820123  1
  O  O27  1  0.28116493  0.19183310  0.99946421  1
  O  O28  1  0.35161188  0.28793548  0.52012746  1
  O  O29  1  0.56691912  0.77261726  0.74923727  1
  O  O30  1  0.45398696  0.45848015  0.79889193  1
  O  O31  1  0.65204816  0.90869757  0.32309506  1
  O  O32  1  0.34795184  0.09130243  0.67690494  1
  O  O33  1  0.54601304  0.54151985  0.20110807  1
  O  O34  1  0.43308088  0.22738274  0.25076273  1
  O  O35  1  0.64838812  0.71206452  0.47987254  1
  O  O36  1  0.71883507  0.80816690  0.00053579  1
  O  O37  1  0.64462208  0.28871225  0.06179877  1
  O  O38  1  0.67508095  0.35021195  0.64142418  1
  O  O39  1  0.96159498  0.92303167  0.72659772  1
  O  O40  1  0.79451181  0.22745261  0.25106477  1
  O  O41  1  0.74334845  0.09125193  0.67748652  1
  O  O42  1  0.99598102  0.54111765  0.20055064  1
  O  O43  1  0.93628103  0.28821861  0.52068026  1
  O  O44  1  0.91109761  0.19106504  0.00029211  1
