# generated using pymatgen
data_Na2As4O11
_symmetry_space_group_name_H-M   'P 1'
_cell_length_a   6.25847249
_cell_length_b   6.25847289
_cell_length_c   11.81632046
_cell_angle_alpha   79.96122254
_cell_angle_beta   79.96122204
_cell_angle_gamma   84.15616080
_symmetry_Int_Tables_number   1
_chemical_formula_structural   Na2As4O11
_chemical_formula_sum   'Na4 As8 O22'
_cell_volume   447.54457938
_cell_formula_units_Z   2
loop_
 _symmetry_equiv_pos_site_id
 _symmetry_equiv_pos_as_xyz
  1  'x, y, z'
loop_
 _atom_site_type_symbol
 _atom_site_label
 _atom_site_symmetry_multiplicity
 _atom_site_fract_x
 _atom_site_fract_y
 _atom_site_fract_z
 _atom_site_occupancy
  Na  Na0  1  0.53881533  0.73208091  0.53423511  1
  Na  Na1  1  0.73208091  0.53881533  0.03423511  1
  Na  Na2  1  0.26791909  0.46118467  0.96576489  1
  Na  Na3  1  0.46118467  0.26791909  0.46576489  1
  As  As4  1  0.04293765  0.46520040  0.66526947  1
  As  As5  1  0.00008184  0.91770537  0.11834188  1
  As  As6  1  0.08229463  -0.00008184  0.38165812  1
  As  As7  1  0.46520040  0.04293765  0.16526947  1
  As  As8  1  0.91770537  0.00008184  0.61834188  1
  As  As9  1  0.95706235  0.53479960  0.33473053  1
  As  As10  1  -0.00008184  0.08229463  0.88165812  1
  As  As11  1  0.53479960  0.95706235  0.83473053  1
  O  O12  1  0.69124911  0.53063715  0.38094688  1
  O  O13  1  0.13207797  0.30116444  0.35478858  1
  O  O14  1  0.62257712  0.02922533  0.68361048  1
  O  O15  1  0.30116444  0.13207797  0.85478858  1
  O  O16  1  0.69566291  0.08801886  0.90475726  1
  O  O17  1  0.04476922  0.95523078  0.75000000  1
  O  O18  1  0.81431057  0.02861782  0.47608658  1
  O  O19  1  0.95523078  0.04476922  0.25000000  1
  O  O20  1  0.69883556  0.86792203  0.14521142  1
  O  O21  1  0.97138218  0.18568943  0.02391342  1
  O  O22  1  0.46936285  0.30875089  0.11905312  1
  O  O23  1  0.02922533  0.62257712  0.18361048  1
  O  O24  1  0.30875089  0.46936285  0.61905312  1
  O  O25  1  0.53063715  0.69124911  0.88094688  1
  O  O26  1  0.30433709  0.91198114  0.09524274  1
  O  O27  1  0.18568943  0.97138218  0.52391342  1
  O  O28  1  0.08801886  0.69566291  0.40475726  1
  O  O29  1  0.91198114  0.30433709  0.59524274  1
  O  O30  1  0.97077467  0.37742288  0.81638952  1
  O  O31  1  0.37742288  0.97077467  0.31638952  1
  O  O32  1  0.86792203  0.69883556  0.64521142  1
  O  O33  1  0.02861782  0.81431057  0.97608658  1
