# generated using pymatgen
data_BaTi6O13
_symmetry_space_group_name_H-M   'P 1'
_cell_length_a   7.57115453
_cell_length_b   7.62492239
_cell_length_c   10.00514654
_cell_angle_alpha   72.36554558
_cell_angle_beta   74.45990561
_cell_angle_gamma   60.72660128
_symmetry_Int_Tables_number   1
_chemical_formula_structural   BaTi6O13
_chemical_formula_sum   'Ba2 Ti12 O26'
_cell_volume   475.14510522
_cell_formula_units_Z   2
loop_
 _symmetry_equiv_pos_site_id
 _symmetry_equiv_pos_as_xyz
  1  'x, y, z'
loop_
 _atom_site_type_symbol
 _atom_site_label
 _atom_site_symmetry_multiplicity
 _atom_site_fract_x
 _atom_site_fract_y
 _atom_site_fract_z
 _atom_site_occupancy
  Ba  Ba0  1  0.67621885  0.03115977  0.13173103  1
  Ba  Ba1  1  0.32378115  0.96884023  0.86826897  1
  Ti  Ti2  1  0.20745728  0.46035232  0.01861531  1
  Ti  Ti3  1  0.13077952  0.27530505  0.49621805  1
  Ti  Ti4  1  0.92088311  0.91492599  0.76897236  1
  Ti  Ti5  1  0.31806766  0.62786443  0.24851265  1
  Ti  Ti6  1  0.79254272  0.53964768  0.98138469  1
  Ti  Ti7  1  0.24767246  0.49139525  0.71997362  1
  Ti  Ti8  1  0.40702074  0.84565633  0.49614811  1
  Ti  Ti9  1  0.68193234  0.37213557  0.75148735  1
  Ti  Ti10  1  0.75232754  0.50860475  0.28002638  1
  Ti  Ti11  1  0.07911689  0.08507401  0.23102764  1
  Ti  Ti12  1  0.86922048  0.72469495  0.50378195  1
  Ti  Ti13  1  0.59297926  0.15434367  0.50385189  1
  O  O14  1  0.16877591  0.01128357  0.61201418  1
  O  O15  1  0.56280632  0.67409296  0.14104109  1
  O  O16  1  0.98295388  0.27692098  0.36594112  1
  O  O17  1  0.11890220  0.55458727  0.39113852  1
  O  O18  1  0.36730992  0.45973611  0.12768192  1
  O  O19  1  0.15408262  0.70891957  0.86117173  1
  O  O20  1  0.83122409  0.98871643  0.38798582  1
  O  O21  1  0.12744873  0.86960291  0.14777297  1
  O  O22  1  0.25985054  0.17158372  0.10904956  1
  O  O23  1  0.01704612  0.72307902  0.63405888  1
  O  O24  1  0.72335292  0.15052246  0.63937302  1
  O  O25  1  0.63269008  0.54026389  0.87231808  1
  O  O26  1  0.69087698  0.71090085  0.37636200  1
  O  O27  1  0.94415270  0.58223956  0.11674241  1
  O  O28  1  0.27664708  0.84947754  0.36062698  1
  O  O29  1  0.60213722  0.87399017  0.59940215  1
  O  O30  1  0.74014946  0.82841628  0.89095044  1
  O  O31  1  0.30912302  0.28909915  0.62363800  1
  O  O32  1  0.45229216  0.58656089  0.62589402  1
  O  O33  1  0.39786278  0.12600983  0.40059785  1
  O  O34  1  0.88109780  0.44541273  0.60886148  1
  O  O35  1  0.87255127  0.13039709  0.85222703  1
  O  O36  1  0.84591738  0.29108043  0.13882827  1
  O  O37  1  0.05584730  0.41776044  0.88325759  1
  O  O38  1  0.54770784  0.41343911  0.37410598  1
  O  O39  1  0.43719368  0.32590704  0.85895891  1
