# generated using pymatgen
data_Ho2CdSe4
_symmetry_space_group_name_H-M   'P 1'
_cell_length_a   8.32611435
_cell_length_b   8.32611435
_cell_length_c   8.32611435
_cell_angle_alpha   60.00000003
_cell_angle_beta   60.00000002
_cell_angle_gamma   60.00000002
_symmetry_Int_Tables_number   1
_chemical_formula_structural   Ho2CdSe4
_chemical_formula_sum   'Ho4 Cd2 Se8'
_cell_volume   408.14277743
_cell_formula_units_Z   2
loop_
 _symmetry_equiv_pos_site_id
 _symmetry_equiv_pos_as_xyz
  1  'x, y, z'
loop_
 _atom_site_type_symbol
 _atom_site_label
 _atom_site_symmetry_multiplicity
 _atom_site_fract_x
 _atom_site_fract_y
 _atom_site_fract_z
 _atom_site_occupancy
  Se  Se0  1  0.74273873  0.74273873  0.74273873  1
  Se  Se1  1  0.25726127  0.25726127  0.72821620  1
  Se  Se2  1  0.25726127  0.72821620  0.25726127  1
  Se  Se3  1  0.72821620  0.25726127  0.25726127  1
  Se  Se4  1  0.74273873  0.27178380  0.74273873  1
  Se  Se5  1  0.27178380  0.74273873  0.74273873  1
  Se  Se6  1  0.25726127  0.25726127  0.25726127  1
  Se  Se7  1  0.74273873  0.74273873  0.27178380  1
  Cd  Cd8  1  0.12500000  0.12500000  0.12500000  1
  Cd  Cd9  1  0.87500000  0.87500000  0.87500000  1
  Ho  Ho10  1  0.50000000  0.50000000  0.00000000  1
  Ho  Ho11  1  0.50000000  0.50000000  0.50000000  1
  Ho  Ho12  1  0.00000000  0.50000000  0.50000000  1
  Ho  Ho13  1  0.50000000  0.00000000  0.50000000  1
