# generated using pymatgen
data_Cu2SO5
_symmetry_space_group_name_H-M   'P 1'
_cell_length_a   5.72965575
_cell_length_b   5.72965575
_cell_length_c   7.30392480
_cell_angle_alpha   101.54757918
_cell_angle_beta   106.95909730
_cell_angle_gamma   111.89977031
_symmetry_Int_Tables_number   1
_chemical_formula_structural   Cu2SO5
_chemical_formula_sum   'Cu4 S2 O10'
_cell_volume   199.48937948
_cell_formula_units_Z   2
loop_
 _symmetry_equiv_pos_site_id
 _symmetry_equiv_pos_as_xyz
  1  'x, y, z'
loop_
 _atom_site_type_symbol
 _atom_site_label
 _atom_site_symmetry_multiplicity
 _atom_site_fract_x
 _atom_site_fract_y
 _atom_site_fract_z
 _atom_site_occupancy
  O  O0  1  0.42938546  0.70864695  0.75479362  1
  O  O1  1  0.95385333  0.67459184  0.24520638  1
  O  O2  1  0.57061454  0.29135305  0.24520638  1
  O  O3  1  0.04614667  0.32540816  0.75479362  1
  O  O4  1  0.86827154  0.14942957  0.01770112  1
  O  O5  1  0.13172846  0.85057043  0.98229888  1
  O  O6  1  0.46985873  0.29993593  0.76979466  1
  O  O7  1  0.53014127  0.70006407  0.23020534  1
  O  O8  1  0.84533566  0.69452688  0.53986255  1
  O  O9  1  0.15466434  0.30547312  0.46013745  1
  S  S10  1  0.71806845  0.59594579  0.31401425  1
  S  S11  1  0.28193155  0.40405421  0.68598575  1
  Cu  Cu12  1  0.13874794  0.08014045  0.21888839  1
  Cu  Cu13  1  0.86125206  0.91985955  0.78111161  1
  Cu  Cu14  1  0.50000000  0.00000000  0.00000000  1
  Cu  Cu15  1  0.00000000  0.50000000  0.00000000  1
