# generated using pymatgen
data_SrRuO3
_symmetry_space_group_name_H-M   'P 1'
_cell_length_a   5.57705509
_cell_length_b   5.57705509
_cell_length_c   5.64823151
_cell_angle_alpha   119.58401259
_cell_angle_beta   119.58401256
_cell_angle_gamma   90.00000004
_symmetry_Int_Tables_number   1
_chemical_formula_structural   SrRuO3
_chemical_formula_sum   'Sr2 Ru2 O6'
_cell_volume   125.77046733
_cell_formula_units_Z   2
loop_
 _symmetry_equiv_pos_site_id
 _symmetry_equiv_pos_as_xyz
  1  'x, y, z'
loop_
 _atom_site_type_symbol
 _atom_site_label
 _atom_site_symmetry_multiplicity
 _atom_site_fract_x
 _atom_site_fract_y
 _atom_site_fract_z
 _atom_site_occupancy
  O  O0  1  0.79924606  0.29924606  0.00000000  1
  O  O1  1  0.70075394  0.79924606  0.00000000  1
  O  O2  1  0.29924606  0.20075394  0.00000000  1
  O  O3  1  0.20075394  0.70075394  0.00000000  1
  O  O4  1  0.25000000  0.25000000  0.50000000  1
  O  O5  1  0.75000000  0.75000000  0.50000000  1
  Sr  Sr6  1  0.25000000  0.75000000  0.50000000  1
  Sr  Sr7  1  0.75000000  0.25000000  0.50000000  1
  Ru  Ru8  1  0.00000000  0.00000000  0.00000000  1
  Ru  Ru9  1  0.50000000  0.50000000  0.00000000  1
