# generated using pymatgen
data_SiO2
_symmetry_space_group_name_H-M   'P 1'
_cell_length_a   17.29464778
_cell_length_b   17.29464810
_cell_length_c   12.89612652
_cell_angle_alpha   90.00000000
_cell_angle_beta   90.00000000
_cell_angle_gamma   119.99999938
_symmetry_Int_Tables_number   1
_chemical_formula_structural   SiO2
_chemical_formula_sum   'Si54 O108'
_cell_volume   3340.51457577
_cell_formula_units_Z   54
loop_
 _symmetry_equiv_pos_site_id
 _symmetry_equiv_pos_as_xyz
  1  'x, y, z'
loop_
 _atom_site_type_symbol
 _atom_site_label
 _atom_site_symmetry_multiplicity
 _atom_site_fract_x
 _atom_site_fract_y
 _atom_site_fract_z
 _atom_site_occupancy
  O  O0  1  0.08771406  0.91228594  0.00000000  1
  O  O1  1  0.17491224  0.08745612  0.64720667  1
  O  O2  1  0.08745612  0.91254388  0.35279333  1
  O  O3  1  0.91254388  0.82508776  0.35279333  1
  O  O4  1  0.91228594  0.82457188  0.00000000  1
  O  O5  1  0.57039214  0.14078427  0.15690250  1
  O  O6  1  0.42960786  0.85921573  0.84309750  1
  O  O7  1  0.08745612  0.17491224  0.64720667  1
  O  O8  1  0.66354171  0.12657455  0.00000000  1
  O  O9  1  0.53696716  0.87342545  0.00000000  1
  O  O10  1  0.74240001  0.25759999  0.86048226  1
  O  O11  1  0.74240001  0.25759999  0.13951774  1
  O  O12  1  0.48480002  0.74240001  0.13951774  1
  O  O13  1  0.48480002  0.74240001  0.86048226  1
  O  O14  1  0.17542812  0.08771406  0.00000000  1
  O  O15  1  0.08745612  0.91254388  0.64720667  1
  O  O16  1  0.17491224  0.08745612  0.35279333  1
  O  O17  1  0.68863732  0.08922465  0.19092723  1
  O  O18  1  0.68863732  0.08922465  0.80907277  1
  O  O19  1  0.59941267  0.91077535  0.19092723  1
  O  O20  1  0.59941267  0.91077535  0.80907277  1
  O  O21  1  0.85921573  0.42960786  0.84309750  1
  O  O22  1  0.42960786  0.57039214  0.15690250  1
  O  O23  1  0.87342545  0.33645829  0.00000000  1
  O  O24  1  0.53696716  0.66354171  0.00000000  1
  O  O25  1  0.73974798  0.00000000  0.30844915  1
  O  O26  1  0.73974798  0.00000000  0.69155085  1
  O  O27  1  0.91077535  0.31136268  0.19092723  1
  O  O28  1  0.91077535  0.31136268  0.80907277  1
  O  O29  1  0.59941267  0.68863732  0.19092723  1
  O  O30  1  0.59941267  0.68863732  0.80907277  1
  O  O31  1  0.76052468  0.00000000  0.10350067  1
  O  O32  1  0.76052468  0.00000000  0.89649933  1
  O  O33  1  0.79051634  0.00000000  0.50000000  1
  O  O34  1  0.14078427  0.57039214  0.15690250  1
  O  O35  1  0.57039214  0.42960786  0.84309750  1
  O  O36  1  0.00000000  0.26025202  0.30844915  1
  O  O37  1  0.73974798  0.73974798  0.30844915  1
  O  O38  1  0.00000000  0.26025202  0.69155085  1
  O  O39  1  0.73974798  0.73974798  0.69155085  1
  O  O40  1  0.00000000  0.23947532  0.10350067  1
  O  O41  1  0.00000000  0.23947532  0.89649933  1
  O  O42  1  0.76052468  0.76052468  0.10350067  1
  O  O43  1  0.76052468  0.76052468  0.89649933  1
  O  O44  1  0.08922465  0.40058733  0.19092723  1
  O  O45  1  0.08922465  0.40058733  0.80907277  1
  O  O46  1  0.68863732  0.59941267  0.19092723  1
  O  O47  1  0.68863732  0.59941267  0.80907277  1
  O  O48  1  0.12657455  0.46303284  0.00000000  1
  O  O49  1  0.66354171  0.53696716  0.00000000  1
  O  O50  1  1.00000000  0.20948366  0.50000000  1
  O  O51  1  0.79051634  0.79051634  0.50000000  1
  O  O52  1  0.25759999  0.51519998  0.86048226  1
  O  O53  1  0.25759999  0.51519998  0.13951774  1
  O  O54  1  0.74240001  0.48480002  0.86048226  1
  O  O55  1  0.74240001  0.48480002  0.13951774  1
  O  O56  1  0.20948366  0.20948366  0.50000000  1
  O  O57  1  0.00000000  0.79051634  0.50000000  1
  O  O58  1  0.33645829  0.46303284  0.00000000  1
  O  O59  1  0.87342545  0.53696716  0.00000000  1
  O  O60  1  0.31136268  0.40058733  0.19092723  1
  O  O61  1  0.31136268  0.40058733  0.80907277  1
  O  O62  1  0.91077535  0.59941267  0.19092723  1
  O  O63  1  0.91077535  0.59941267  0.80907277  1
  O  O64  1  0.23947532  0.23947532  0.10350067  1
  O  O65  1  0.23947532  0.23947532  0.89649933  1
  O  O66  1  1.00000000  0.76052468  0.10350067  1
  O  O67  1  1.00000000  0.76052468  0.89649933  1
  O  O68  1  0.26025202  0.26025202  0.30844915  1
  O  O69  1  1.00000000  0.73974798  0.30844915  1
  O  O70  1  0.26025202  0.26025202  0.69155085  1
  O  O71  1  1.00000000  0.73974798  0.69155085  1
  O  O72  1  0.42960786  0.57039214  0.84309750  1
  O  O73  1  0.85921573  0.42960786  0.15690250  1
  O  O74  1  0.20948366  0.00000000  0.50000000  1
  O  O75  1  0.23947532  0.00000000  0.10350067  1
  O  O76  1  0.23947532  0.00000000  0.89649933  1
  O  O77  1  0.40058733  0.31136268  0.19092723  1
  O  O78  1  0.40058733  0.31136268  0.80907277  1
  O  O79  1  0.08922465  0.68863732  0.19092723  1
  O  O80  1  0.08922465  0.68863732  0.80907277  1
  O  O81  1  0.26025202  0.00000000  0.30844915  1
  O  O82  1  0.26025202  0.00000000  0.69155085  1
  O  O83  1  0.46303284  0.33645829  0.00000000  1
  O  O84  1  0.12657455  0.66354171  0.00000000  1
  O  O85  1  0.57039214  0.42960786  0.15690250  1
  O  O86  1  0.14078427  0.57039214  0.84309750  1
  O  O87  1  0.40058733  0.08922465  0.19092723  1
  O  O88  1  0.40058733  0.08922465  0.80907277  1
  O  O89  1  0.31136268  0.91077535  0.19092723  1
  O  O90  1  0.31136268  0.91077535  0.80907277  1
  O  O91  1  0.82508776  0.91254388  0.35279333  1
  O  O92  1  0.91254388  0.08745612  0.64720667  1
  O  O93  1  0.82457188  0.91228594  0.00000000  1
  O  O94  1  0.51519998  0.25759999  0.13951774  1
  O  O95  1  0.51519998  0.25759999  0.86048226  1
  O  O96  1  0.25759999  0.74240001  0.86048226  1
  O  O97  1  0.25759999  0.74240001  0.13951774  1
  O  O98  1  0.46303284  0.12657455  0.00000000  1
  O  O99  1  0.33645829  0.87342545  0.00000000  1
  O  O100  1  0.91254388  0.82508776  0.64720667  1
  O  O101  1  0.57039214  0.14078427  0.84309750  1
  O  O102  1  0.42960786  0.85921573  0.15690250  1
  O  O103  1  0.08771406  0.17542812  0.00000000  1
  O  O104  1  0.08745612  0.17491224  0.35279333  1
  O  O105  1  0.82508776  0.91254388  0.64720667  1
  O  O106  1  0.91254388  0.08745612  0.35279333  1
  O  O107  1  0.91228594  0.08771406  0.00000000  1
  Si  Si108  1  1.00000000  0.81688819  0.37903851  1
  Si  Si109  1  1.00000000  0.81688819  0.62096149  1
  Si  Si110  1  1.00000000  0.81376920  0.00000000  1
  Si  Si111  1  0.00000000  0.69735632  0.19656637  1
  Si  Si112  1  0.00000000  0.69735632  0.80343363  1
  Si  Si113  1  0.15374883  0.66635409  0.12173821  1
  Si  Si114  1  0.15374883  0.66635409  0.87826179  1
  Si  Si115  1  1.00000000  0.30264368  0.19656637  1
  Si  Si116  1  1.00000000  0.30264368  0.80343363  1
  Si  Si117  1  0.00000000  0.18623080  0.00000000  1
  Si  Si118  1  0.00000000  0.18311181  0.62096149  1
  Si  Si119  1  0.00000000  0.18311181  0.37903851  1
  Si  Si120  1  0.15374883  0.48739474  0.12173821  1
  Si  Si121  1  0.15374883  0.48739474  0.87826179  1
  Si  Si122  1  0.33364591  0.84625117  0.12173821  1
  Si  Si123  1  0.33364591  0.84625117  0.87826179  1
  Si  Si124  1  0.51260526  0.84625117  0.12173821  1
  Si  Si125  1  0.51260526  0.84625117  0.87826179  1
  Si  Si126  1  0.33364591  0.48739474  0.12173821  1
  Si  Si127  1  0.33364591  0.48739474  0.87826179  1
  Si  Si128  1  0.18311181  0.18311181  0.62096149  1
  Si  Si129  1  0.18311181  0.18311181  0.37903851  1
  Si  Si130  1  0.18623080  0.18623080  0.00000000  1
  Si  Si131  1  0.30264368  0.30264368  0.19656637  1
  Si  Si132  1  0.30264368  0.30264368  0.80343363  1
  Si  Si133  1  0.51260526  0.66635409  0.12173821  1
  Si  Si134  1  0.51260526  0.66635409  0.87826179  1
  Si  Si135  1  0.18311181  0.00000000  0.62096149  1
  Si  Si136  1  0.18311181  0.00000000  0.37903851  1
  Si  Si137  1  0.18623080  0.00000000  0.00000000  1
  Si  Si138  1  0.30264368  0.00000000  0.19656637  1
  Si  Si139  1  0.30264368  0.00000000  0.80343363  1
  Si  Si140  1  0.48739474  0.33364591  0.12173821  1
  Si  Si141  1  0.48739474  0.33364591  0.87826179  1
  Si  Si142  1  0.69735632  0.69735632  0.19656637  1
  Si  Si143  1  0.69735632  0.69735632  0.80343363  1
  Si  Si144  1  0.81376920  0.81376920  0.00000000  1
  Si  Si145  1  0.81688819  0.81688819  0.37903851  1
  Si  Si146  1  0.81688819  0.81688819  0.62096149  1
  Si  Si147  1  0.66635409  0.51260526  0.12173821  1
  Si  Si148  1  0.66635409  0.51260526  0.87826179  1
  Si  Si149  1  0.48739474  0.15374883  0.12173821  1
  Si  Si150  1  0.48739474  0.15374883  0.87826179  1
  Si  Si151  1  0.66635409  0.15374883  0.12173821  1
  Si  Si152  1  0.66635409  0.15374883  0.87826179  1
  Si  Si153  1  0.84625117  0.51260526  0.12173821  1
  Si  Si154  1  0.84625117  0.51260526  0.87826179  1
  Si  Si155  1  0.84625117  0.33364591  0.12173821  1
  Si  Si156  1  0.84625117  0.33364591  0.87826179  1
  Si  Si157  1  0.69735632  0.00000000  0.80343363  1
  Si  Si158  1  0.69735632  0.00000000  0.19656637  1
  Si  Si159  1  0.81376920  0.00000000  0.00000000  1
  Si  Si160  1  0.81688819  0.00000000  0.62096149  1
  Si  Si161  1  0.81688819  0.00000000  0.37903851  1
