# generated using pymatgen
data_CaTl2O4
_symmetry_space_group_name_H-M   'P 1'
_cell_length_a   3.38150008
_cell_length_b   5.85791657
_cell_length_c   10.65250903
_cell_angle_alpha   90.00000000
_cell_angle_beta   90.00000000
_cell_angle_gamma   106.77574528
_symmetry_Int_Tables_number   1
_chemical_formula_structural   CaTl2O4
_chemical_formula_sum   'Ca2 Tl4 O8'
_cell_volume   202.03046527
_cell_formula_units_Z   2
loop_
 _symmetry_equiv_pos_site_id
 _symmetry_equiv_pos_as_xyz
  1  'x, y, z'
loop_
 _atom_site_type_symbol
 _atom_site_label
 _atom_site_symmetry_multiplicity
 _atom_site_fract_x
 _atom_site_fract_y
 _atom_site_fract_z
 _atom_site_occupancy
  O  O0  1  0.53680556  0.07361111  0.25000000  1
  O  O1  1  0.46319444  0.92638889  0.75000000  1
  O  O2  1  0.00000000  0.00000000  0.50000000  1
  O  O3  1  0.00000000  0.00000000  0.00000000  1
  O  O4  1  0.28029543  0.56059087  0.11744218  1
  O  O5  1  0.71970457  0.43940913  0.88255782  1
  O  O6  1  0.28029543  0.56059087  0.38255782  1
  O  O7  1  0.71970457  0.43940913  0.61744218  1
  Ca  Ca8  1  0.89182234  0.78364468  0.25000000  1
  Ca  Ca9  1  0.10817766  0.21635532  0.75000000  1
  Tl  Tl10  1  0.36535543  0.73071086  0.57205503  1
  Tl  Tl11  1  0.63464457  0.26928914  0.42794497  1
  Tl  Tl12  1  0.63464457  0.26928914  0.07205503  1
  Tl  Tl13  1  0.36535543  0.73071086  0.92794497  1
