# generated using pymatgen
data_Li5P2N5
_symmetry_space_group_name_H-M   'P 1'
_cell_length_a   8.87928512
_cell_length_b   17.54825916
_cell_length_c   15.27810778
_cell_angle_alpha   29.46859166
_cell_angle_beta   54.46636050
_cell_angle_gamma   59.60239091
_symmetry_Int_Tables_number   1
_chemical_formula_structural   Li5P2N5
_chemical_formula_sum   'Li40 P16 N40'
_cell_volume   953.02308000
_cell_formula_units_Z   8
loop_
 _symmetry_equiv_pos_site_id
 _symmetry_equiv_pos_as_xyz
  1  'x, y, z'
loop_
 _atom_site_type_symbol
 _atom_site_label
 _atom_site_symmetry_multiplicity
 _atom_site_fract_x
 _atom_site_fract_y
 _atom_site_fract_z
 _atom_site_occupancy
  Li  Li0  1  0.03931310  0.00000596  0.03336248  1
  Li  Li1  1  0.12641888  0.00000313  0.13507270  1
  Li  Li2  1  0.07360981  0.27452102  0.07590694  1
  Li  Li3  1  0.10344177  0.49999856  0.13507700  1
  Li  Li4  1  0.39396088  0.50000354  0.03336252  1
  Li  Li5  1  0.27447307  0.27451955  0.37504679  1
  Li  Li6  1  0.06146898  0.19532601  0.67755460  1
  Li  Li7  1  0.06146350  0.80467620  0.06819727  1
  Li  Li8  1  0.51017408  0.00000430  0.49727072  1
  Li  Li9  1  0.69277350  0.30468258  0.06817877  1
  Li  Li10  1  0.50000000  0.25000000  0.50000000  1
  Li  Li11  1  0.64116533  0.49998457  0.07348869  1
  Li  Li12  1  0.07523041  0.50002041  0.68216422  1
  Li  Li13  1  0.30722650  0.19531742  0.93182123  1
  Li  Li14  1  0.07360428  0.72547759  0.62496585  1
  Li  Li15  1  0.30722733  0.80468484  0.32244271  1
  Li  Li16  1  0.48982592  0.49999570  0.50272928  1
  Li  Li17  1  0.72552809  0.77452325  0.07590298  1
  Li  Li18  1  0.93853102  0.30467399  0.32244540  1
  Li  Li19  1  0.72552693  0.22548045  0.62495321  1
  Li  Li20  1  0.50000000  0.25000000  0.00000000  1
  Li  Li21  1  0.93959104  0.49999558  0.31782077  1
  Li  Li22  1  0.89655823  0.00000144  0.86492300  1
  Li  Li23  1  0.71187292  -0.00000285  0.07347467  1
  Li  Li24  1  0.28812708  0.50000285  0.92652533  1
  Li  Li25  1  0.06040896  0.00000442  0.68217923  1
  Li  Li26  1  0.50000000  0.75000000  0.50000000  1
  Li  Li27  1  0.27447191  0.72547675  0.92409702  1
  Li  Li28  1  0.99528347  0.50000817  0.49727730  1
  Li  Li29  1  0.69277267  0.69531516  0.67755729  1
  Li  Li30  1  0.92639019  0.22547898  0.92409306  1
  Li  Li31  1  0.92639572  0.77452241  0.37503415  1
  Li  Li32  1  0.50000000  0.75000000  0.00000000  1
  Li  Li33  1  0.92476959  -0.00002041  0.31783578  1
  Li  Li34  1  0.87358112  0.49999687  0.86492730  1
  Li  Li35  1  0.35883467  0.00001543  0.92651131  1
  Li  Li36  1  0.96068690  0.49999404  0.96663752  1
  Li  Li37  1  0.00471653  -0.00000817  0.50272270  1
  Li  Li38  1  0.93853650  0.69532380  0.93180273  1
  Li  Li39  1  0.60603912  -0.00000354  0.96663748  1
  N  N40  1  0.22591426  0.15582197  0.22239336  1
  N  N41  1  0.23098127  0.00001128  0.52796979  1
  N  N42  1  0.23054897  0.31859369  0.21237016  1
  N  N43  1  0.53392350  0.15466992  0.21807617  1
  N  N44  1  0.23329298  0.49999732  0.21105893  1
  N  N45  1  0.16586895  -0.00000475  0.77247859  1
  N  N46  1  0.22057861  0.65467283  0.21807194  1
  N  N47  1  0.48234505  0.15581014  0.46597201  1
  N  N48  1  0.22057755  0.34534082  0.52741052  1
  N  N49  1  0.21307442  0.50002054  0.52795777  1
  N  N50  1  0.79246147  0.31855369  0.15048242  1
  N  N51  1  0.47212542  0.00000212  0.77635678  1
  N  N52  1  0.52787458  0.49999788  0.22364322  1
  N  N53  1  0.20753853  0.18144631  0.84951758  1
  N  N54  1  0.20754275  0.81858995  0.21236537  1
  N  N55  1  0.51765629  0.65582985  0.22238175  1
  N  N56  1  0.77942245  0.15465918  0.47258948  1
  N  N57  1  0.51765495  0.34418986  0.53402799  1
  N  N58  1  0.21081899  -0.00000789  0.22753359  1
  N  N59  1  0.15538398  0.50000369  0.78894888  1
  N  N60  1  0.83413105  0.50000475  0.22752141  1
  N  N61  1  0.76670702  0.00000268  0.78894107  1
  N  N62  1  0.46607432  0.65466717  0.47258525  1
  N  N63  1  0.22591460  0.84418545  0.53403691  1
  N  N64  1  0.46607650  0.34533008  0.78192383  1
  N  N65  1  0.76901873  0.49998872  0.47203021  1
  N  N66  1  0.76944689  0.81857425  0.15045723  1
  N  N67  1  0.47515999  0.50000416  0.77635669  1
  N  N68  1  0.52484001  -0.00000416  0.22364331  1
  N  N69  1  0.23055311  0.68142575  0.84954277  1
  N  N70  1  0.76945103  0.18140631  0.78762984  1
  N  N71  1  0.77408574  0.34417803  0.77760664  1
  N  N72  1  0.77408540  0.65581455  0.46596309  1
  N  N73  1  0.53392568  0.84533283  0.52741475  1
  N  N74  1  0.78918101  0.50000789  0.77246641  1
  N  N75  1  0.84461602  -0.00000369  0.21105112  1
  N  N76  1  0.48234371  0.84417015  0.77761825  1
  N  N77  1  0.79245725  0.68141005  0.78763463  1
  N  N78  1  0.78692558  -0.00002054  0.47204223  1
  N  N79  1  0.77942139  0.84532717  0.78192806  1
  P  P80  1  0.30105484  0.16657449  0.29016730  1
  P  P81  1  0.38755825  -0.00001192  0.70284654  1
  P  P82  1  0.29651920  0.49999774  0.29053169  1
  P  P83  1  0.71455570  0.16657404  0.37665512  1
  P  P84  1  0.28544430  0.33342596  0.62334488  1
  P  P85  1  0.28546338  0.66660979  0.29014736  1
  P  P86  1  0.70348080  0.00000226  0.70946831  1
  P  P87  1  0.61244175  0.50001192  0.29715346  1
  P  P88  1  0.37758586  0.49999859  0.70946684  1
  P  P89  1  0.29323844  0.00000300  0.29716973  1
  P  P90  1  0.69894468  0.66655489  0.37669610  1
  P  P91  1  0.69894516  0.33342551  0.70983270  1
  P  P92  1  0.30105532  0.83344511  0.62330390  1
  P  P93  1  0.70676156  0.49999700  0.70283027  1
  P  P94  1  0.62241414  0.00000141  0.29053316  1
  P  P95  1  0.71453662  0.83339021  0.70985264  1
