# generated using pymatgen
data_Fe2BO4
_symmetry_space_group_name_H-M   'P 1'
_cell_length_a   3.17446274
_cell_length_b   9.48519172
_cell_length_c   9.57727498
_cell_angle_alpha   90.00000000
_cell_angle_beta   90.00000000
_cell_angle_gamma   90.67122854
_symmetry_Int_Tables_number   1
_chemical_formula_structural   Fe2BO4
_chemical_formula_sum   'Fe8 B4 O16'
_cell_volume   288.35567358
_cell_formula_units_Z   4
loop_
 _symmetry_equiv_pos_site_id
 _symmetry_equiv_pos_as_xyz
  1  'x, y, z'
loop_
 _atom_site_type_symbol
 _atom_site_label
 _atom_site_symmetry_multiplicity
 _atom_site_fract_x
 _atom_site_fract_y
 _atom_site_fract_z
 _atom_site_occupancy
  Fe  Fe0  1  0.74869461  0.60155052  0.81460132  1
  Fe  Fe1  1  0.75179374  0.61835369  0.43353965  1
  Fe  Fe2  1  0.25130539  0.89844948  0.31460132  1
  Fe  Fe3  1  0.75179374  0.11835369  0.06646035  1
  Fe  Fe4  1  0.24820626  0.38164631  0.56645935  1
  Fe  Fe5  1  0.24820626  0.88164631  0.93354065  1
  Fe  Fe6  1  0.74869461  0.10155052  0.68539868  1
  Fe  Fe7  1  0.25130539  0.39844948  0.18539868  1
  B  B8  1  0.24951630  0.33190512  0.87041492  1
  B  B9  1  0.24951630  0.83190512  0.62958508  1
  B  B10  1  0.75048370  0.66809488  0.12958508  1
  B  B11  1  0.75048370  0.16809488  0.37041492  1
  O  O12  1  0.25471649  0.47428098  0.87232152  1
  O  O13  1  0.74528351  0.52571902  0.12767848  1
  O  O14  1  0.75283400  0.00562903  0.88677102  1
  O  O15  1  0.75283400  0.50562903  0.61322898  1
  O  O16  1  0.24716600  0.49437097  0.38677102  1
  O  O17  1  0.24036088  0.75798856  0.75633360  1
  O  O18  1  0.24716600  0.99437097  0.11322898  1
  O  O19  1  0.74528351  0.02571902  0.37232152  1
  O  O20  1  0.24036088  0.25798856  0.74366640  1
  O  O21  1  0.75963912  0.74201144  0.25633360  1
  O  O22  1  0.25337891  0.75585562  0.50243161  1
  O  O23  1  0.75963912  0.24201144  0.24366640  1
  O  O24  1  0.25337891  0.25585562  -0.00243161  1
  O  O25  1  0.74662109  0.24414438  0.49756839  1
  O  O26  1  0.74662109  0.74414438  1.00243161  1
  O  O27  1  0.25471649  0.97428098  0.62767848  1
