# generated using pymatgen
data_SrAsH3O5
_symmetry_space_group_name_H-M   'P 1'
_cell_length_a   7.60027808
_cell_length_b   8.51575426
_cell_length_c   14.45274347
_cell_angle_alpha   90.00000000
_cell_angle_beta   90.00000000
_cell_angle_gamma   90.00000000
_symmetry_Int_Tables_number   1
_chemical_formula_structural   SrAsH3O5
_chemical_formula_sum   'Sr8 As8 H24 O40'
_cell_volume   935.41191445
_cell_formula_units_Z   8
loop_
 _symmetry_equiv_pos_site_id
 _symmetry_equiv_pos_as_xyz
  1  'x, y, z'
loop_
 _atom_site_type_symbol
 _atom_site_label
 _atom_site_symmetry_multiplicity
 _atom_site_fract_x
 _atom_site_fract_y
 _atom_site_fract_z
 _atom_site_occupancy
  Sr  Sr0  1  0.63605827  0.17823727  0.08322040  1
  Sr  Sr1  1  0.13605827  0.32176273  0.91677960  1
  Sr  Sr2  1  0.36394173  0.67823727  0.41677960  1
  Sr  Sr3  1  0.86394173  0.82176273  0.58322040  1
  Sr  Sr4  1  0.36394173  0.82176273  0.91677960  1
  Sr  Sr5  1  0.86394173  0.67823727  0.08322040  1
  Sr  Sr6  1  0.63605827  0.32176273  0.58322040  1
  Sr  Sr7  1  0.13605827  0.17823727  0.41677960  1
  As  As8  1  0.14596461  0.05361043  0.11370858  1
  As  As9  1  0.64596461  0.44638957  0.88629142  1
  As  As10  1  0.85403539  0.55361043  0.38629142  1
  As  As11  1  0.35403539  0.94638957  0.61370858  1
  As  As12  1  0.85403539  0.94638957  0.88629142  1
  As  As13  1  0.35403539  0.55361043  0.11370858  1
  As  As14  1  0.14596461  0.44638957  0.61370858  1
  As  As15  1  0.64596461  0.05361043  0.38629142  1
  O  O16  1  0.20256141  0.16237041  0.21548717  1
  O  O17  1  0.70256141  0.33762959  0.78451283  1
  O  O18  1  0.79743859  0.66237041  0.28451283  1
  O  O19  1  0.29743859  0.83762959  0.71548717  1
  O  O20  1  0.79743859  0.83762959  0.78451283  1
  O  O21  1  0.29743859  0.66237041  0.21548717  1
  O  O22  1  0.20256141  0.33762959  0.71548717  1
  O  O23  1  0.70256141  0.16237041  0.28451283  1
  O  O24  1  0.07341019  0.88021652  0.16016876  1
  O  O25  1  0.57341019  0.61978348  0.83983124  1
  O  O26  1  0.92658981  0.38021652  0.33983124  1
  O  O27  1  0.42658981  0.11978348  0.66016876  1
  O  O28  1  0.92658981  0.11978348  0.83983124  1
  O  O29  1  0.42658981  0.38021652  0.16016876  1
  O  O30  1  0.07341019  0.61978348  0.66016876  1
  O  O31  1  0.57341019  0.88021652  0.33983124  1
  O  O32  1  0.32929687  0.03832196  0.04670388  1
  O  O33  1  0.82929687  0.46167804  0.95329612  1
  O  O34  1  0.67070313  0.53832196  0.45329612  1
  O  O35  1  0.17070313  0.96167804  0.54670388  1
  O  O36  1  0.67070313  0.96167804  0.95329612  1
  O  O37  1  0.17070313  0.53832196  0.04670388  1
  O  O38  1  0.32929687  0.46167804  0.54670388  1
  O  O39  1  0.82929687  0.03832196  0.45329612  1
  O  O40  1  0.98931142  0.16221583  0.05713083  1
  O  O41  1  0.48931142  0.33778417  0.94286917  1
  O  O42  1  0.01068858  0.66221583  0.44286917  1
  O  O43  1  0.51068858  0.83778417  0.55713083  1
  O  O44  1  0.01068858  0.83778417  0.94286917  1
  O  O45  1  0.51068858  0.66221583  0.05713083  1
  O  O46  1  0.98931142  0.33778417  0.55713083  1
  O  O47  1  0.48931142  0.16221583  0.44286917  1
  O  O48  1  0.86210447  0.09700659  0.65453538  1
  O  O49  1  0.36210447  0.40299341  0.34546462  1
  O  O50  1  0.13789553  0.59700659  0.84546462  1
  O  O51  1  0.63789553  0.90299341  0.15453538  1
  O  O52  1  0.13789553  0.90299341  0.34546462  1
  O  O53  1  0.63789553  0.59700659  0.65453538  1
  O  O54  1  0.86210447  0.40299341  0.15453538  1
  O  O55  1  0.36210447  0.09700659  0.84546462  1
  H  H56  1  0.27886868  0.25307560  0.19398372  1
  H  H57  1  0.77886868  0.24692440  0.80601628  1
  H  H58  1  0.72113132  0.75307560  0.30601628  1
  H  H59  1  0.22113132  0.74692440  0.69398372  1
  H  H60  1  0.72113132  0.74692440  0.80601628  1
  H  H61  1  0.22113132  0.75307560  0.19398372  1
  H  H62  1  0.27886868  0.24692440  0.69398372  1
  H  H63  1  0.77886868  0.25307560  0.30601628  1
  H  H64  1  0.94621716  0.16740031  0.62186336  1
  H  H65  1  0.44621716  0.33259969  0.37813664  1
  H  H66  1  0.05378284  0.66740031  0.87813664  1
  H  H67  1  0.55378284  0.83259969  0.12186336  1
  H  H68  1  0.05378284  0.83259969  0.37813664  1
  H  H69  1  0.55378284  0.66740031  0.62186336  1
  H  H70  1  0.94621716  0.33259969  0.12186336  1
  H  H71  1  0.44621716  0.16740031  0.87813664  1
  H  H72  1  0.89602040  0.10064200  0.72118547  1
  H  H73  1  0.39602040  0.39935800  0.27881453  1
  H  H74  1  0.10397960  0.60064200  0.77881453  1
  H  H75  1  0.60397960  0.89935800  0.22118547  1
  H  H76  1  0.10397960  0.89935800  0.27881453  1
  H  H77  1  0.60397960  0.60064200  0.72118547  1
  H  H78  1  0.89602040  0.39935800  0.22118547  1
  H  H79  1  0.39602040  0.10064200  0.77881453  1
