# generated using pymatgen
data_Na2SrNd2Ti5O15
_symmetry_space_group_name_H-M   'P 1'
_cell_length_a   5.56517378
_cell_length_b   5.49475368
_cell_length_c   38.71192901
_cell_angle_alpha   90.00000000
_cell_angle_beta   90.00000000
_cell_angle_gamma   89.74574480
_symmetry_Int_Tables_number   1
_chemical_formula_structural   Na2SrNd2Ti5O15
_chemical_formula_sum   'Na8 Sr4 Nd8 Ti20 O60'
_cell_volume   1183.77045282
_cell_formula_units_Z   4
loop_
 _symmetry_equiv_pos_site_id
 _symmetry_equiv_pos_as_xyz
  1  'x, y, z'
loop_
 _atom_site_type_symbol
 _atom_site_label
 _atom_site_symmetry_multiplicity
 _atom_site_fract_x
 _atom_site_fract_y
 _atom_site_fract_z
 _atom_site_occupancy
  Na  Na0  1  0.52043314  0.99565425  0.65000000  1
  Na  Na1  1  0.52258378  0.99602808  0.45121102  1
  Na  Na2  1  0.52258378  0.99602808  0.84878898  1
  Na  Na3  1  0.97419996  0.50371565  0.15000000  1
  Na  Na4  1  0.97834195  0.49685185  0.55060882  1
  Na  Na5  1  0.97834195  0.49685185  0.74939118  1
  Na  Na6  1  0.97628115  0.50079986  0.35123854  1
  Na  Na7  1  0.97628115  0.50079986  0.94876146  1
  Sr  Sr8  1  0.00818992  0.49348835  0.04925070  1
  Sr  Sr9  1  0.00818992  0.49348835  0.25074930  1
  Sr  Sr10  1  0.50265648  0.99826717  0.04916880  1
  Sr  Sr11  1  0.50265648  0.99826717  0.25083120  1
  Nd  Nd12  1  0.05524653  0.48696506  0.45112525  1
  Nd  Nd13  1  0.05452013  0.48764924  0.65000000  1
  Nd  Nd14  1  0.05524653  0.48696506  0.84887475  1
  Nd  Nd15  1  0.45396909  0.99195079  0.35162569  1
  Nd  Nd16  1  0.46258681  0.99572410  0.15000000  1
  Nd  Nd17  1  0.44471214  0.98771126  0.55061831  1
  Nd  Nd18  1  0.44471214  0.98771126  0.74938169  1
  Nd  Nd19  1  0.45396909  0.99195079  0.94837431  1
  Ti  Ti20  1  0.98118756  0.00090228  0.99776244  1
  Ti  Ti21  1  0.98468442  0.00056674  0.19959003  1
  Ti  Ti22  1  0.98994356  0.98279778  0.40097093  1
  Ti  Ti23  1  0.98118756  0.00090228  0.30223756  1
  Ti  Ti24  1  0.98485448  0.98236898  0.50156176  1
  Ti  Ti25  1  0.98485448  0.98236898  0.79843824  1
  Ti  Ti26  1  0.98457587  0.98260937  0.59970132  1
  Ti  Ti27  1  0.98457587  0.98260937  0.70029868  1
  Ti  Ti28  1  0.98994356  0.98279778  0.89902907  1
  Ti  Ti29  1  0.49118847  0.49481282  0.10017357  1
  Ti  Ti30  1  0.49013330  0.49312867  0.30205823  1
  Ti  Ti31  1  0.51371721  0.48223546  0.50038757  1
  Ti  Ti32  1  0.51511849  0.48451916  0.89781434  1
  Ti  Ti33  1  0.49013330  0.49312867  0.99794177  1
  Ti  Ti34  1  0.51335369  0.48230304  0.69909074  1
  Ti  Ti35  1  0.49118847  0.49481282  0.19982643  1
  Ti  Ti36  1  0.51335369  0.48230304  0.60090926  1
  Ti  Ti37  1  0.51511849  0.48451916  0.40218566  1
  Ti  Ti38  1  0.51371721  0.48223546  0.79961243  1
  Ti  Ti39  1  0.98468442  0.00056674  0.10040997  1
  O  O40  1  0.99885542  0.95152311  0.04910357  1
  O  O41  1  0.99885542  0.95152311  0.25089643  1
  O  O42  1  0.98519620  0.92593935  0.45119108  1
  O  O43  1  0.98401916  0.92609869  0.65000000  1
  O  O44  1  0.98519620  0.92593935  0.84880892  1
  O  O45  1  0.24488954  0.74065373  0.19419220  1
  O  O46  1  0.24488954  0.74065373  0.10580780  1
  O  O47  1  0.24132218  0.73921247  0.30779331  1
  O  O48  1  0.21455242  0.72695718  0.50793016  1
  O  O49  1  0.21407128  0.72691545  0.59327050  1
  O  O50  1  0.21407128  0.72691545  0.70672950  1
  O  O51  1  0.21833155  0.72721276  0.39455465  1
  O  O52  1  0.21455242  0.72695718  0.79206984  1
  O  O53  1  0.24132218  0.73921247  0.99220669  1
  O  O54  1  0.21833155  0.72721276  0.90544535  1
  O  O55  1  0.27608118  0.23069683  0.09515550  1
  O  O56  1  0.27487896  0.23104874  0.29675944  1
  O  O57  1  0.27487896  0.23104874  0.00324056  1
  O  O58  1  0.28905901  0.22721350  0.49388544  1
  O  O59  1  0.28853524  0.22714386  0.69273859  1
  O  O60  1  0.27608118  0.23069683  0.20484450  1
  O  O61  1  0.29092647  0.22648183  0.40839314  1
  O  O62  1  0.29092647  0.22648183  0.89160686  1
  O  O63  1  0.28853524  0.22714386  0.60726141  1
  O  O64  1  0.28905901  0.22721350  0.80611456  1
  O  O65  1  0.51517707  0.43001917  0.35198710  1
  O  O66  1  0.51080124  0.43401416  0.15000000  1
  O  O67  1  0.51841450  0.42586123  0.55059759  1
  O  O68  1  0.51841450  0.42586123  0.74940241  1
  O  O69  1  0.51517707  0.43001917  0.94801290  1
  O  O70  1  0.50319101  0.54428675  0.04908812  1
  O  O71  1  0.50319101  0.54428675  0.25091188  1
  O  O72  1  0.48541249  0.57226236  0.65000000  1
  O  O73  1  0.48684462  0.57235651  0.45121388  1
  O  O74  1  0.48684462  0.57235651  0.84878612  1
  O  O75  1  0.72838849  0.77795010  0.10689929  1
  O  O76  1  0.72838849  0.77795010  0.19310071  1
  O  O77  1  0.72532198  0.77974532  0.30860771  1
  O  O78  1  0.71035596  0.79812449  0.39340399  1
  O  O79  1  0.70690186  0.79829196  0.50888289  1
  O  O80  1  0.70654561  0.79816438  0.59234102  1
  O  O81  1  0.70654561  0.79816438  0.70765898  1
  O  O82  1  0.70690186  0.79829196  0.79111711  1
  O  O83  1  0.72532198  0.77974532  0.99139229  1
  O  O84  1  0.71035596  0.79812449  0.90659601  1
  O  O85  1  0.77049706  0.26695463  0.09476457  1
  O  O86  1  0.76924750  0.26806067  0.00412835  1
  O  O87  1  0.77049706  0.26695463  0.20523543  1
  O  O88  1  0.76924750  0.26806067  0.29587165  1
  O  O89  1  0.79801033  0.29870790  0.40906336  1
  O  O90  1  0.79557875  0.29815136  0.69169835  1
  O  O91  1  0.79612421  0.29800302  0.49284795  1
  O  O92  1  0.79557875  0.29815136  0.60830165  1
  O  O93  1  0.79801033  0.29870790  0.89093664  1
  O  O94  1  0.79612421  0.29800302  0.80715205  1
  O  O95  1  0.02300663  0.05772350  0.15000000  1
  O  O96  1  0.01933871  0.06687749  0.35175100  1
  O  O97  1  0.01513702  0.07272003  0.55059670  1
  O  O98  1  0.01513702  0.07272003  0.74940330  1
  O  O99  1  0.01933871  0.06687749  0.94824900  1
