# generated using pymatgen
data_Ca18Nd2Si3P9(O16F)3
_symmetry_space_group_name_H-M   'P 1'
_cell_length_a   9.57261935
_cell_length_b   9.53460266
_cell_length_c   13.89632850
_cell_angle_alpha   90.00000000
_cell_angle_beta   90.00000000
_cell_angle_gamma   119.80574890
_symmetry_Int_Tables_number   1
_chemical_formula_structural   Ca18Nd2Si3P9(O16F)3
_chemical_formula_sum   'Ca18 Nd2 Si3 P9 O48 F3'
_cell_volume   1100.55273767
_cell_formula_units_Z   1
loop_
 _symmetry_equiv_pos_site_id
 _symmetry_equiv_pos_as_xyz
  1  'x, y, z'
loop_
 _atom_site_type_symbol
 _atom_site_label
 _atom_site_symmetry_multiplicity
 _atom_site_fract_x
 _atom_site_fract_y
 _atom_site_fract_z
 _atom_site_occupancy
  Ca  Ca0  1  0.24568182  1.00208309  0.12532881  1
  Ca  Ca1  1  0.24568182  1.00208309  0.62467119  1
  Ca  Ca2  1  -0.00080518  0.24220799  0.12518768  1
  Ca  Ca3  1  -0.00080518  0.24220799  0.62481232  1
  Ca  Ca4  1  0.32585034  0.66126828  0.00013569  1
  Ca  Ca5  1  0.32999827  0.66634672  0.49897579  1
  Ca  Ca6  1  0.32999827  0.66634672  0.25102421  1
  Ca  Ca7  1  0.32585034  0.66126828  0.74986431  1
  Ca  Ca8  1  0.27417014  0.27697951  0.87500000  1
  Ca  Ca9  1  0.75414221  0.75527587  0.12485281  1
  Ca  Ca10  1  0.75414221  0.75527587  0.62514719  1
  Ca  Ca11  1  0.66773888  0.32628864  0.25299833  1
  Ca  Ca12  1  0.66719481  0.33009434  0.75046117  1
  Ca  Ca13  1  0.66773888  0.32628864  0.49700167  1
  Ca  Ca14  1  0.66719481  0.33009434  0.99953883  1
  Ca  Ca15  1  0.99401291  0.71582204  0.87500000  1
  Ca  Ca16  1  0.74061162  0.00518942  0.37500000  1
  Ca  Ca17  1  0.72794059  0.01402711  0.87500000  1
  F  F18  1  0.99953197  0.99675037  0.12349760  1
  F  F19  1  0.99953197  0.99675037  0.62650240  1
  F  F20  1  0.99115498  0.99980653  0.37500000  1
  Nd  Nd21  1  0.24694417  0.24064739  0.37500000  1
  Nd  Nd22  1  0.99824060  0.74955211  0.37500000  1
  O  O23  1  0.23843314  0.91931122  0.46731066  1
  O  O24  1  0.24040280  0.91961549  0.96390200  1
  O  O25  1  0.23843314  0.91931122  0.28268934  1
  O  O26  1  0.24040280  0.91961549  0.78609800  1
  O  O27  1  0.15466097  0.66723882  0.12370079  1
  O  O28  1  0.15466097  0.66723882  0.62629921  1
  O  O29  1  0.12612230  0.59366341  0.37500000  1
  O  O30  1  0.12970911  0.58164184  0.87500000  1
  O  O31  1  0.09573048  0.33628954  0.28171429  1
  O  O32  1  0.08510367  0.31785167  0.78212488  1
  O  O33  1  0.09573048  0.33628954  0.46828571  1
  O  O34  1  0.08510367  0.31785167  0.96787512  1
  O  O35  1  0.46076362  0.87313085  0.37500000  1
  O  O36  1  0.44835907  0.87698317  0.87500000  1
  O  O37  1  0.34101964  0.49501255  0.12253947  1
  O  O38  1  0.34101964  0.49501255  0.62746053  1
  O  O39  1  0.51000940  0.84107746  0.12376632  1
  O  O40  1  0.51000940  0.84107746  0.62623368  1
  O  O41  1  0.42206206  0.53547287  0.37500000  1
  O  O42  1  0.43139689  0.55655126  0.87500000  1
  O  O43  1  0.35505599  0.26573798  0.03324344  1
  O  O44  1  0.34327777  0.26219595  0.53773602  1
  O  O45  1  0.35505599  0.26573798  0.71675656  1
  O  O46  1  0.34327777  0.26219595  0.21226398  1
  O  O47  1  0.66719748  0.74697468  0.46482718  1
  O  O48  1  0.68219404  0.76202058  0.96369915  1
  O  O49  1  0.66719748  0.74697468  0.28517282  1
  O  O50  1  0.68219404  0.76202058  0.78630085  1
  O  O51  1  0.59448740  0.46873797  0.12705064  1
  O  O52  1  0.59448740  0.46873797  0.62294936  1
  O  O53  1  0.48126390  0.17206584  0.37500000  1
  O  O54  1  0.47572168  0.15609115  0.87500000  1
  O  O55  1  0.68385740  0.52279678  0.37500000  1
  O  O56  1  0.67899836  0.52301799  0.87500000  1
  O  O57  1  0.53026577  0.12003915  0.12622580  1
  O  O58  1  0.53026577  0.12003915  0.62377420  1
  O  O59  1  0.91352951  0.65292930  0.03451032  1
  O  O60  1  0.91589969  0.65559705  0.53644570  1
  O  O61  1  0.91589969  0.65559705  0.21355430  1
  O  O62  1  0.91352951  0.65292930  0.71548968  1
  O  O63  1  0.87793896  0.40875371  0.62493585  1
  O  O64  1  0.87793896  0.40875371  0.12506415  1
  O  O65  1  0.83410080  0.31819163  0.37500000  1
  O  O66  1  0.83053236  0.31764737  0.87500000  1
  O  O67  1  0.73856844  0.08002193  0.21371014  1
  O  O68  1  0.73522232  0.08307032  0.71545430  1
  O  O69  1  0.73522232  0.08307032  0.03454570  1
  O  O70  1  0.73856844  0.08002193  0.53628986  1
  P  P71  1  0.35367165  0.97216343  0.87500000  1
  P  P72  1  0.40692341  0.37655473  0.12318938  1
  P  P73  1  0.40692341  0.37655473  0.62681062  1
  P  P74  1  0.61048442  0.63619591  0.37500000  1
  P  P75  1  0.62025605  0.64831007  0.87500000  1
  P  P76  1  0.62545955  0.02626200  0.12492769  1
  P  P77  1  0.62545955  0.02626200  0.62507231  1
  P  P78  1  0.97008126  0.59676509  0.12368719  1
  P  P79  1  0.97008126  0.59676509  0.62631281  1
  Si  Si80  1  0.02872007  0.39305563  0.37500000  1
  Si  Si81  1  0.02467091  0.38116397  0.87500000  1
  Si  Si82  1  0.36464472  0.97508776  0.37500000  1
