# generated using pymatgen
data_SiO2
_symmetry_space_group_name_H-M   'P 1'
_cell_length_a   17.18680382
_cell_length_b   17.18680369
_cell_length_c   12.89236798
_cell_angle_alpha   90.00000000
_cell_angle_beta   90.00000000
_cell_angle_gamma   120.00000211
_symmetry_Int_Tables_number   1
_chemical_formula_structural   SiO2
_chemical_formula_sum   'Si54 O108'
_cell_volume   3298.02202270
_cell_formula_units_Z   54
loop_
 _symmetry_equiv_pos_site_id
 _symmetry_equiv_pos_as_xyz
  1  'x, y, z'
loop_
 _atom_site_type_symbol
 _atom_site_label
 _atom_site_symmetry_multiplicity
 _atom_site_fract_x
 _atom_site_fract_y
 _atom_site_fract_z
 _atom_site_occupancy
  Si  Si0  1  0.17910785  0.98460435  -0.00000000  1
  Si  Si1  1  0.17991633  0.99061567  0.37954921  1
  Si  Si2  1  0.17991633  0.99061567  0.62045079  1
  Si  Si3  1  0.30222668  0.99880219  0.19505395  1
  Si  Si4  1  0.30222668  0.99880219  0.80494605  1
  Si  Si5  1  0.16297976  0.68411259  0.12322821  1
  Si  Si6  1  0.16297976  0.68411259  0.87677179  1
  Si  Si7  1  0.00119781  0.30342450  0.19505395  1
  Si  Si8  1  0.00119781  0.30342450  0.80494605  1
  Si  Si9  1  0.14476361  0.49671102  0.12329298  1
  Si  Si10  1  0.14476361  0.49671102  0.87670702  1
  Si  Si11  1  0.00938433  0.18930166  0.62045079  1
  Si  Si12  1  0.00938433  0.18930166  0.37954921  1
  Si  Si13  1  0.01539565  0.19450350  -0.00000000  1
  Si  Si14  1  0.35194741  0.85523639  0.87670702  1
  Si  Si15  1  0.35194741  0.85523639  0.12329298  1
  Si  Si16  1  0.31588741  0.47886817  0.12322821  1
  Si  Si17  1  0.31588741  0.47886817  0.87677179  1
  Si  Si18  1  0.18930166  0.17991633  0.37954921  1
  Si  Si19  1  0.18930166  0.17991633  0.62045079  1
  Si  Si20  1  0.19450350  0.17910785  -0.00000000  1
  Si  Si21  1  0.52113183  0.83702024  0.87677179  1
  Si  Si22  1  0.52113183  0.83702024  0.12322821  1
  Si  Si23  1  0.30342450  0.30222668  0.19505395  1
  Si  Si24  1  0.30342450  0.30222668  0.80494605  1
  Si  Si25  1  0.50328898  0.64805259  0.12329298  1
  Si  Si26  1  0.50328898  0.64805259  0.87670702  1
  Si  Si27  1  0.49671102  0.35194741  0.12329298  1
  Si  Si28  1  0.49671102  0.35194741  0.87670702  1
  Si  Si29  1  0.69657550  0.69777332  0.19505395  1
  Si  Si30  1  0.69657550  0.69777332  0.80494605  1
  Si  Si31  1  0.47886817  0.16297976  0.87677179  1
  Si  Si32  1  0.47886817  0.16297976  0.12322821  1
  Si  Si33  1  0.80549650  0.82089215  -0.00000000  1
  Si  Si34  1  0.81069834  0.82008367  0.37954921  1
  Si  Si35  1  0.81069834  0.82008367  0.62045079  1
  Si  Si36  1  0.68411259  0.52113183  0.87677179  1
  Si  Si37  1  0.68411259  0.52113183  0.12322821  1
  Si  Si38  1  0.64805259  0.14476361  0.12329298  1
  Si  Si39  1  0.64805259  0.14476361  0.87670702  1
  Si  Si40  1  0.98460435  0.80549650  -0.00000000  1
  Si  Si41  1  0.99061567  0.81069834  0.37954921  1
  Si  Si42  1  0.99061567  0.81069834  0.62045079  1
  Si  Si43  1  0.85523639  0.50328898  0.12329298  1
  Si  Si44  1  0.85523639  0.50328898  0.87670702  1
  Si  Si45  1  0.99880219  0.69657550  0.19505395  1
  Si  Si46  1  0.99880219  0.69657550  0.80494605  1
  Si  Si47  1  0.83702024  0.31588741  0.12322821  1
  Si  Si48  1  0.83702024  0.31588741  0.87677179  1
  Si  Si49  1  0.69777332  0.00119781  0.80494605  1
  Si  Si50  1  0.69777332  0.00119781  0.19505395  1
  Si  Si51  1  0.82008367  0.00938433  0.62045079  1
  Si  Si52  1  0.82008367  0.00938433  0.37954921  1
  Si  Si53  1  0.82089215  0.01539565  -0.00000000  1
  O  O54  1  0.41073894  0.33979385  0.81184142  1
  O  O55  1  0.41073894  0.33979385  0.18815858  1
  O  O56  1  0.07094508  0.41073894  0.81184142  1
  O  O57  1  0.07094508  0.41073894  0.18815858  1
  O  O58  1  0.44421896  0.85946339  0.83914447  1
  O  O59  1  0.44421896  0.85946339  0.16085553  1
  O  O60  1  0.64276289  0.12165671  -0.00000000  1
  O  O61  1  0.54126544  0.85881793  -0.00000000  1
  O  O62  1  0.73167781  0.24522994  0.14533073  1
  O  O63  1  0.73167781  0.24522994  0.85466927  1
  O  O64  1  0.48644787  0.73167781  0.14533073  1
  O  O65  1  0.48644787  0.73167781  0.85466927  1
  O  O66  1  0.85946339  0.41524443  0.16085553  1
  O  O67  1  0.85946339  0.41524443  0.83914447  1
  O  O68  1  0.61381758  0.89866465  0.18643980  1
  O  O69  1  0.61381758  0.89866465  0.81356020  1
  O  O70  1  0.52110619  0.64276289  -0.00000000  1
  O  O71  1  0.85881793  0.31755249  -0.00000000  1
  O  O72  1  0.74536080  0.01339575  0.30695800  1
  O  O73  1  0.74536080  0.01339575  0.69304200  1
  O  O74  1  0.77014399  0.02165069  0.89691153  1
  O  O75  1  0.77014399  0.02165069  0.10308847  1
  O  O76  1  0.89866465  0.28484806  0.18643980  1
  O  O77  1  0.89866465  0.28484806  0.81356020  1
  O  O78  1  0.79271306  0.01113589  0.50000000  1
  O  O79  1  0.73196504  0.74536080  0.69304200  1
  O  O80  1  0.73196504  0.74536080  0.30695800  1
  O  O81  1  0.82378921  0.91859981  0.64478826  1
  O  O82  1  0.82378921  0.91859981  0.35521174  1
  O  O83  1  0.74849330  0.77014399  0.89691153  1
  O  O84  1  0.74849330  0.77014399  0.10308847  1
  O  O85  1  0.58475557  0.44421896  0.83914447  1
  O  O86  1  0.58475557  0.44421896  0.16085553  1
  O  O87  1  0.82391084  0.92284774  -0.00000000  1
  O  O88  1  0.91859981  0.09481160  0.64478826  1
  O  O89  1  0.91859981  0.09481160  0.35521174  1
  O  O90  1  0.92284774  0.09893590  -0.00000000  1
  O  O91  1  0.33979385  0.92905492  0.81184142  1
  O  O92  1  0.33979385  0.92905492  0.18815858  1
  O  O93  1  0.78157617  0.79271306  0.50000000  1
  O  O94  1  0.01339575  0.26803496  0.69304200  1
  O  O95  1  0.01339575  0.26803496  0.30695800  1
  O  O96  1  0.12165671  0.47889381  -0.00000000  1
  O  O97  1  0.02165069  0.25150670  0.10308847  1
  O  O98  1  0.02165069  0.25150670  0.89691153  1
  O  O99  1  0.01113589  0.21842383  0.50000000  1
  O  O100  1  0.71515194  0.61381758  0.81356020  1
  O  O101  1  0.71515194  0.61381758  0.18643980  1
  O  O102  1  0.68244751  0.54126544  -0.00000000  1
  O  O103  1  0.24522994  0.51355213  0.14533073  1
  O  O104  1  0.24522994  0.51355213  0.85466927  1
  O  O105  1  0.90106410  0.82391084  -0.00000000  1
  O  O106  1  0.90518840  0.82378921  0.64478826  1
  O  O107  1  0.90518840  0.82378921  0.35521174  1
  O  O108  1  0.09481160  0.17621079  0.64478826  1
  O  O109  1  0.09481160  0.17621079  0.35521174  1
  O  O110  1  0.09893590  0.17608916  -0.00000000  1
  O  O111  1  0.75477006  0.48644787  0.14533073  1
  O  O112  1  0.75477006  0.48644787  0.85466927  1
  O  O113  1  0.31755249  0.45873456  -0.00000000  1
  O  O114  1  0.28484806  0.38618242  0.81356020  1
  O  O115  1  0.28484806  0.38618242  0.18643980  1
  O  O116  1  0.98886411  0.78157617  0.50000000  1
  O  O117  1  0.97834931  0.74849330  0.10308847  1
  O  O118  1  0.97834931  0.74849330  0.89691153  1
  O  O119  1  0.87834329  0.52110619  -0.00000000  1
  O  O120  1  0.98660425  0.73196504  0.69304200  1
  O  O121  1  0.98660425  0.73196504  0.30695800  1
  O  O122  1  0.21842383  0.20728694  0.50000000  1
  O  O123  1  0.66020615  0.07094508  0.81184142  1
  O  O124  1  0.66020615  0.07094508  0.18815858  1
  O  O125  1  0.07715226  0.90106410  -0.00000000  1
  O  O126  1  0.08140019  0.90518840  0.64478826  1
  O  O127  1  0.08140019  0.90518840  0.35521174  1
  O  O128  1  0.17608916  0.07715226  -0.00000000  1
  O  O129  1  0.41524443  0.55578104  0.83914447  1
  O  O130  1  0.41524443  0.55578104  0.16085553  1
  O  O131  1  0.25150670  0.22985601  0.89691153  1
  O  O132  1  0.25150670  0.22985601  0.10308847  1
  O  O133  1  0.17621079  0.08140019  0.64478826  1
  O  O134  1  0.17621079  0.08140019  0.35521174  1
  O  O135  1  0.26803496  0.25463920  0.69304200  1
  O  O136  1  0.26803496  0.25463920  0.30695800  1
  O  O137  1  0.20728694  0.98886411  0.50000000  1
  O  O138  1  0.10133535  0.71515194  0.18643980  1
  O  O139  1  0.10133535  0.71515194  0.81356020  1
  O  O140  1  0.22985601  0.97834931  0.89691153  1
  O  O141  1  0.22985601  0.97834931  0.10308847  1
  O  O142  1  0.25463920  0.98660425  0.30695800  1
  O  O143  1  0.25463920  0.98660425  0.69304200  1
  O  O144  1  0.14118207  0.68244751  -0.00000000  1
  O  O145  1  0.47889381  0.35723711  -0.00000000  1
  O  O146  1  0.38618242  0.10133535  0.18643980  1
  O  O147  1  0.38618242  0.10133535  0.81356020  1
  O  O148  1  0.14053661  0.58475557  0.16085553  1
  O  O149  1  0.14053661  0.58475557  0.83914447  1
  O  O150  1  0.51355213  0.26832219  0.14533073  1
  O  O151  1  0.51355213  0.26832219  0.85466927  1
  O  O152  1  0.26832219  0.75477006  0.14533073  1
  O  O153  1  0.26832219  0.75477006  0.85466927  1
  O  O154  1  0.45873456  0.14118207  -0.00000000  1
  O  O155  1  0.35723711  0.87834329  -0.00000000  1
  O  O156  1  0.55578104  0.14053661  0.83914447  1
  O  O157  1  0.55578104  0.14053661  0.16085553  1
  O  O158  1  0.92905492  0.58926106  0.81184142  1
  O  O159  1  0.92905492  0.58926106  0.18815858  1
  O  O160  1  0.58926106  0.66020615  0.81184142  1
  O  O161  1  0.58926106  0.66020615  0.18815858  1
