# generated using pymatgen
data_Li6Nd6Sb(TeO8)3
_symmetry_space_group_name_H-M   'P 1'
_cell_length_a   11.01750691
_cell_length_b   11.01750702
_cell_length_c   11.04246858
_cell_angle_alpha   109.49319080
_cell_angle_beta   109.45624302
_cell_angle_gamma   109.37245494
_symmetry_Int_Tables_number   1
_chemical_formula_structural   Li6Nd6Sb(TeO8)3
_chemical_formula_sum   'Li12 Nd12 Sb2 Te6 O48'
_cell_volume   1033.00275533
_cell_formula_units_Z   2
loop_
 _symmetry_equiv_pos_site_id
 _symmetry_equiv_pos_as_xyz
  1  'x, y, z'
loop_
 _atom_site_type_symbol
 _atom_site_label
 _atom_site_symmetry_multiplicity
 _atom_site_fract_x
 _atom_site_fract_y
 _atom_site_fract_z
 _atom_site_occupancy
  Li  Li0  1  0.12482718  0.75000894  0.87568796  1
  Li  Li1  1  0.12518662  0.87518662  0.25000000  1
  Li  Li2  1  0.24899426  0.62441090  0.37409287  1
  Li  Li3  1  0.37543956  0.62543956  0.75000000  1
  Li  Li4  1  0.24968198  0.12509861  0.87409287  1
  Li  Li5  1  0.37432098  0.24913922  0.62431204  1
  Li  Li6  1  0.62567902  0.75086078  0.37568796  1
  Li  Li7  1  0.75100574  0.37558910  0.62590713  1
  Li  Li8  1  0.75031802  0.87490139  0.12590713  1
  Li  Li9  1  0.62456044  0.37456044  0.25000000  1
  Li  Li10  1  0.87481338  0.12481338  0.75000000  1
  Li  Li11  1  0.87517282  0.24999106  0.12431204  1
  Nd  Nd12  1  0.12478724  0.37478724  0.75000000  1
  Nd  Nd13  1  0.25114784  0.87583246  0.62620421  1
  Nd  Nd14  1  0.12649079  0.25026167  0.37481501  1
  Nd  Nd15  1  0.62432523  0.87432523  0.75000000  1
  Nd  Nd16  1  0.25037175  0.37505637  0.12620421  1
  Nd  Nd17  1  0.37544666  0.75167578  0.12518499  1
  Nd  Nd18  1  0.62455334  0.24832422  0.87481501  1
  Nd  Nd19  1  0.74962825  0.62494363  0.87379579  1
  Nd  Nd20  1  0.37567477  0.12567477  0.25000000  1
  Nd  Nd21  1  0.87350921  0.74973833  0.62518499  1
  Nd  Nd22  1  0.74885216  0.12416754  0.37379579  1
  Nd  Nd23  1  0.87521276  0.62521276  0.25000000  1
  O  O24  1  0.09290814  0.97660278  0.66961506  1
  O  O25  1  0.02287104  0.32963928  0.90617370  1
  O  O26  1  0.11633285  0.59271858  0.92286810  1
  O  O27  1  0.07659691  0.69291999  0.67009731  1
  O  O28  1  0.07653442  0.88330267  0.40617370  1
  O  O29  1  0.09302013  0.61673321  0.42337384  1
  O  O30  1  0.17001277  0.47637459  0.59345955  1
  O  O31  1  0.42094526  0.82790931  0.79976300  1
  O  O32  1  0.38291504  0.57655321  0.90654045  1
  O  O33  1  0.30664063  0.33035371  0.92337384  1
  O  O34  1  0.16985048  0.19346476  0.57713190  1
  O  O35  1  0.33010367  0.92353529  0.30769363  1
  O  O36  1  0.02319350  0.19304621  0.11659304  1
  O  O37  1  0.19301228  0.57670692  0.16961506  1
  O  O38  1  0.40612857  0.82965368  0.52219159  1
  O  O39  1  0.29989248  0.47245341  0.37844518  1
  O  O40  1  0.32750042  0.90584786  0.02722560  1
  O  O41  1  0.11584166  0.02241004  0.19230637  1
  O  O42  1  0.40599177  0.07855270  0.87844518  1
  O  O43  1  0.52814631  0.62118226  0.70023700  1
  O  O44  1  0.52282269  0.40649960  0.82990269  1
  O  O45  1  0.37862226  0.30027483  0.47277440  1
  O  O46  1  0.19253791  0.11606302  0.02219159  1
  O  O47  1  0.57645317  0.90660045  0.38340696  1
  O  O48  1  0.80746209  0.88393698  0.97780841  1
  O  O49  1  0.42354683  0.09339955  0.61659304  1
  O  O50  1  0.62137774  0.69972517  0.52722560  1
  O  O51  1  0.47717731  0.59350040  0.17009731  1
  O  O52  1  0.47185369  0.37881774  0.29976300  1
  O  O53  1  0.59400823  0.92144730  0.12155482  1
  O  O54  1  0.88415834  0.97758996  0.80769363  1
  O  O55  1  0.67249958  0.09415214  0.97277440  1
  O  O56  1  0.70010752  0.52754659  0.62155482  1
  O  O57  1  0.59387143  0.17034632  0.47780841  1
  O  O58  1  0.80698772  0.42329308  0.83038494  1
  O  O59  1  0.97680650  0.80695379  0.88340696  1
  O  O60  1  0.66989633  0.07646471  0.69230637  1
  O  O61  1  0.83014952  0.80653524  0.42286810  1
  O  O62  1  0.69335937  0.66964629  0.07662616  1
  O  O63  1  0.61708496  0.42344679  0.09345955  1
  O  O64  1  0.57905474  0.17209069  0.20023700  1
  O  O65  1  0.82998723  0.52362541  0.40654045  1
  O  O66  1  0.90697987  0.38326679  0.57662616  1
  O  O67  1  0.92346558  0.11669733  0.59382630  1
  O  O68  1  0.92340309  0.30708001  0.32990269  1
  O  O69  1  0.88366715  0.40728142  0.07713190  1
  O  O70  1  0.97712896  0.67036072  0.09382630  1
  O  O71  1  0.90709186  0.02339722  0.33038494  1
  Sb  Sb72  1  0.50000000  0.50000000  0.50000000  1
  Sb  Sb73  1  0.50000000  0.00000000  0.00000000  1
  Te  Te74  1  0.00000000  0.00000000  0.00000000  1
  Te  Te75  1  0.50000000  0.00000000  0.50000000  1
  Te  Te76  1  0.50000000  0.50000000  0.00000000  1
  Te  Te77  1  0.00000000  0.50000000  0.50000000  1
  Te  Te78  1  0.00000000  0.00000000  0.50000000  1
  Te  Te79  1  0.00000000  0.50000000  0.00000000  1
