# generated using pymatgen
data_Cu(PO3)3
_symmetry_space_group_name_H-M   'P 1'
_cell_length_a   8.44749362
_cell_length_b   8.42258646
_cell_length_c   9.01583487
_cell_angle_alpha   90.00000000
_cell_angle_beta   90.00000000
_cell_angle_gamma   90.00000000
_symmetry_Int_Tables_number   1
_chemical_formula_structural   Cu(PO3)3
_chemical_formula_sum   'Cu4 P12 O36'
_cell_volume   641.47435543
_cell_formula_units_Z   4
loop_
 _symmetry_equiv_pos_site_id
 _symmetry_equiv_pos_as_xyz
  1  'x, y, z'
loop_
 _atom_site_type_symbol
 _atom_site_label
 _atom_site_symmetry_multiplicity
 _atom_site_fract_x
 _atom_site_fract_y
 _atom_site_fract_z
 _atom_site_occupancy
  Cu  Cu0  1  0.12415906  0.09699492  0.13599249  1
  Cu  Cu1  1  0.37584094  0.90300508  0.63599249  1
  Cu  Cu2  1  0.62415906  0.40300508  0.86400751  1
  Cu  Cu3  1  0.87584094  0.59699492  0.36400751  1
  O  O4  1  0.01659842  0.78962951  0.91922517  1
  O  O5  1  0.06973363  0.13539594  0.35185266  1
  O  O6  1  0.10288401  0.52738121  0.69735635  1
  O  O7  1  0.13159732  0.86365804  0.17168270  1
  O  O8  1  0.13657724  0.90625743  0.68184613  1
  O  O9  1  0.11829381  0.60083221  0.42229393  1
  O  O10  1  0.14829737  0.32960772  0.10209090  1
  O  O11  1  0.16912320  0.05670869  0.92692296  1
  O  O12  1  0.20488277  0.60991460  0.03137251  1
  O  O13  1  0.29511723  0.39008540  0.53137251  1
  O  O14  1  0.33087680  0.94329131  0.42692296  1
  O  O15  1  0.35170263  0.67039228  0.60209090  1
  O  O16  1  0.38170619  0.39916779  0.92229393  1
  O  O17  1  0.36342276  0.09374257  0.18184613  1
  O  O18  1  0.36840268  0.13634196  0.67168270  1
  O  O19  1  0.39711599  0.47261979  0.19735635  1
  O  O20  1  0.43026637  0.86460406  0.85185266  1
  O  O21  1  0.48340158  0.21037049  0.41922517  1
  O  O22  1  0.51659842  0.71037049  0.08077483  1
  O  O23  1  0.56973363  0.36460406  0.64814734  1
  O  O24  1  0.60288401  0.97261879  0.30264365  1
  O  O25  1  0.63159732  0.63634196  0.82831730  1
  O  O26  1  0.63657724  0.59374257  0.31815387  1
  O  O27  1  0.61829381  0.89916779  0.57770607  1
  O  O28  1  0.64829737  0.17039228  0.89790910  1
  O  O29  1  0.66912320  0.44329131  0.07307704  1
  O  O30  1  0.70488277  0.89008540  0.96862749  1
  O  O31  1  0.79511723  0.10991460  0.46862749  1
  O  O32  1  0.83087680  0.55670869  0.57307704  1
  O  O33  1  0.85170263  0.82960772  0.39790910  1
  O  O34  1  0.88170619  0.10083221  0.07770607  1
  O  O35  1  0.86342276  0.40625743  0.81815387  1
  O  O36  1  0.86840268  0.36365804  0.32831730  1
  O  O37  1  0.89711599  0.02738021  0.80264365  1
  O  O38  1  0.93026637  0.63539594  0.14814734  1
  O  O39  1  0.98340158  0.28962951  0.58077483  1
  P  P40  1  0.06887498  0.94866991  0.83124038  1
  P  P41  1  0.06556319  0.72750001  0.08226421  1
  P  P42  1  0.21888066  0.56198661  0.55668063  1
  P  P43  1  0.28111934  0.43801339  0.05668063  1
  P  P44  1  0.43443681  0.27249999  0.58226421  1
  P  P45  1  0.43112502  0.05133009  0.33124038  1
  P  P46  1  0.56887498  0.55133009  0.16875962  1
  P  P47  1  0.56556319  0.77249999  0.91773579  1
  P  P48  1  0.71888066  0.93801339  0.44331937  1
  P  P49  1  0.78111934  0.06198661  0.94331937  1
  P  P50  1  0.93443681  0.22750001  0.41773579  1
  P  P51  1  0.93112502  0.44866991  0.66875962  1
