# generated using pymatgen
data_SrAlF5
_symmetry_space_group_name_H-M   'P 1'
_cell_length_a   7.23271836
_cell_length_b   10.80445229
_cell_length_c   10.80631601
_cell_angle_alpha   83.56620296
_cell_angle_beta   70.45043103
_cell_angle_gamma   70.44404094
_symmetry_Int_Tables_number   1
_chemical_formula_structural   SrAlF5
_chemical_formula_sum   'Sr8 Al8 F40'
_cell_volume   749.87936862
_cell_formula_units_Z   8
loop_
 _symmetry_equiv_pos_site_id
 _symmetry_equiv_pos_as_xyz
  1  'x, y, z'
loop_
 _atom_site_type_symbol
 _atom_site_label
 _atom_site_symmetry_multiplicity
 _atom_site_fract_x
 _atom_site_fract_y
 _atom_site_fract_z
 _atom_site_occupancy
  Sr  Sr0  1  0.22857459  0.82670305  0.72385415  1
  Sr  Sr1  1  0.95243014  0.27608993  0.82667937  1
  Sr  Sr2  1  0.05516752  0.72391678  0.17334021  1
  Sr  Sr3  1  0.77911132  0.17335513  0.27607520  1
  Sr  Sr4  1  0.57301464  0.17782360  0.68374978  1
  Sr  Sr5  1  0.25673270  0.31618186  0.17788476  1
  Sr  Sr6  1  0.75085685  0.68376891  0.82217725  1
  Sr  Sr7  1  0.43469923  0.82210629  0.31618948  1
  Al  Al8  1  0.26377076  -0.00000803  0.99997506  1
  Al  Al9  1  0.75874395  -0.00001468  0.99998596  1
  Al  Al10  1  0.00329895  0.50002273  0.50001799  1
  Al  Al11  1  0.50335867  0.49997041  0.50000055  1
  Al  Al12  1  0.18446994  0.15267158  0.48403739  1
  Al  Al13  1  0.66846896  0.51598135  0.15261670  1
  Al  Al14  1  0.33707522  0.48408173  0.84745280  1
  Al  Al15  1  0.82122507  0.84738182  0.51593919  1
  F  F16  1  0.01120712  -0.00000864  0.00004056  1
  F  F17  1  0.51148717  0.99993240  -0.00010656  1
  F  F18  1  0.29338643  0.08205967  0.84219576  1
  F  F19  1  0.13557370  0.15776819  0.08203467  1
  F  F20  1  0.37535199  0.84225069  0.91786304  1
  F  F21  1  0.21775108  0.91793694  0.15774864  1
  F  F22  1  0.80603566  0.08076197  0.84144406  1
  F  F23  1  0.64736881  0.15850238  0.08075714  1
  F  F24  1  0.88685046  0.84146268  0.91920837  1
  F  F25  1  0.72803714  0.91922227  0.15852751  1
  F  F26  1  0.25338731  0.49997435  0.49998631  1
  F  F27  1  0.75338761  0.49996223  0.50002047  1
  F  F28  1  0.11745042  0.33226180  0.44126948  1
  F  F29  1  0.55865983  0.55877182  0.33220887  1
  F  F30  1  0.44963300  0.44122323  0.66780073  1
  F  F31  1  0.89083978  0.66779621  0.55880143  1
  F  F32  1  0.61125745  0.32629705  0.45716479  1
  F  F33  1  0.06811348  0.54289988  0.32633499  1
  F  F34  1  0.93737637  0.45721683  0.67375543  1
  F  F35  1  0.39470653  0.67364930  0.54285503  1
  F  F36  1  0.42873128  0.14096485  0.35216120  1
  F  F37  1  0.78088689  0.64779309  0.14090039  1
  F  F38  1  0.56951473  0.35208503  0.85925412  1
  F  F39  1  0.92175854  0.85911874  0.64790424  1
  F  F40  1  0.08280636  0.14228656  0.35246915  1
  F  F41  1  0.43537253  0.64734787  0.14211997  1
  F  F42  1  0.22471699  0.35269029  0.85793557  1
  F  F43  1  0.57749109  0.85788627  0.64733218  1
  F  F44  1  0.27696358  0.18689981  0.60963174  1
  F  F45  1  0.88660818  0.39035770  0.18688113  1
  F  F46  1  0.46399121  0.60954424  0.81315043  1
  F  F47  1  0.07362698  0.81309548  0.39043205  1
  F  F48  1  0.93123732  0.18836625  0.60855066  1
  F  F49  1  0.53980003  0.39136346  0.18844344  1
  F  F50  1  0.11961384  0.60858569  0.81164715  1
  F  F51  1  0.72828836  0.81162832  0.39137187  1
  F  F52  1  0.25727049  0.97702852  0.51235502  1
  F  F53  1  0.76970546  0.48746685  0.97696972  1
  F  F54  1  0.23424928  0.51248481  0.02309438  1
  F  F55  1  0.74690698  0.02303251  0.48750904  1
