# generated using pymatgen
data_WOF4
_symmetry_space_group_name_H-M   'P 1'
_cell_length_a   5.43221958
_cell_length_b   8.75854625
_cell_length_c   8.75854591
_cell_angle_alpha   112.11093431
_cell_angle_beta   91.76642554
_cell_angle_gamma   91.76643368
_symmetry_Int_Tables_number   1
_chemical_formula_structural   WOF4
_chemical_formula_sum   'W4 O4 F16'
_cell_volume   385.48171521
_cell_formula_units_Z   4
loop_
 _symmetry_equiv_pos_site_id
 _symmetry_equiv_pos_as_xyz
  1  'x, y, z'
loop_
 _atom_site_type_symbol
 _atom_site_label
 _atom_site_symmetry_multiplicity
 _atom_site_fract_x
 _atom_site_fract_y
 _atom_site_fract_z
 _atom_site_occupancy
  W  W0  1  0.23279418  0.76059433  0.76059433  1
  W  W1  1  0.76720582  0.23940567  0.23940567  1
  W  W2  1  1.00000000  0.81360001  0.18639999  1
  W  W3  1  0.00000000  0.18639999  0.81360001  1
  O  O4  1  0.88092810  0.02585259  0.21307808  1
  O  O5  1  0.11907190  0.78692192  0.97414741  1
  O  O6  1  0.11907190  0.97414741  0.78692192  1
  O  O7  1  0.88092810  0.21307808  0.02585259  1
  F  F8  1  0.65171663  0.26541489  0.44800087  1
  F  F9  1  0.92847148  0.65850332  0.65850332  1
  F  F10  1  0.69536383  0.08691112  0.70873169  1
  F  F11  1  0.88052538  0.39324012  0.83522221  1
  F  F12  1  0.11947462  0.60675988  0.16477779  1
  F  F13  1  0.88052538  0.83522221  0.39324012  1
  F  F14  1  0.34828337  0.73458511  0.55199913  1
  F  F15  1  0.45486000  0.14345588  0.14345588  1
  F  F16  1  0.34828337  0.55199913  0.73458511  1
  F  F17  1  0.65171663  0.44800087  0.26541489  1
  F  F18  1  0.11947462  0.16477779  0.60675988  1
  F  F19  1  0.54514000  0.85654412  0.85654412  1
  F  F20  1  0.07152852  0.34149668  0.34149668  1
  F  F21  1  0.30463617  0.91308888  0.29126831  1
  F  F22  1  0.30463617  0.29126831  0.91308888  1
  F  F23  1  0.69536383  0.70873169  0.08691112  1
