# generated using pymatgen
data_NaLiMo(H2O3)2
_symmetry_space_group_name_H-M   'P 1'
_cell_length_a   8.37970681
_cell_length_b   10.46096696
_cell_length_c   13.31157315
_cell_angle_alpha   90.00000000
_cell_angle_beta   90.00000000
_cell_angle_gamma   90.00000000
_symmetry_Int_Tables_number   1
_chemical_formula_structural   NaLiMo(H2O3)2
_chemical_formula_sum   'Na8 Li8 Mo8 H32 O48'
_cell_volume   1166.89032021
_cell_formula_units_Z   8
loop_
 _symmetry_equiv_pos_site_id
 _symmetry_equiv_pos_as_xyz
  1  'x, y, z'
loop_
 _atom_site_type_symbol
 _atom_site_label
 _atom_site_symmetry_multiplicity
 _atom_site_fract_x
 _atom_site_fract_y
 _atom_site_fract_z
 _atom_site_occupancy
  Mo  Mo0  1  0.48944343  0.19169574  0.47335377  1
  Mo  Mo1  1  0.98944343  0.30830426  0.52664623  1
  Mo  Mo2  1  0.51055657  0.69169574  0.02664623  1
  Mo  Mo3  1  0.01055657  0.80830426  0.97335377  1
  Mo  Mo4  1  0.51055657  0.80830426  0.52664623  1
  Mo  Mo5  1  0.01055657  0.69169574  0.47335377  1
  Mo  Mo6  1  0.48944343  0.30830426  0.97335377  1
  Mo  Mo7  1  0.98944343  0.19169574  0.02664623  1
  O  O8  1  0.63805845  0.15540047  0.37889094  1
  O  O9  1  0.13805845  0.34459953  0.62110906  1
  O  O10  1  0.36194155  0.65540047  0.12110906  1
  O  O11  1  0.86194155  0.84459953  0.87889094  1
  O  O12  1  0.36194155  0.84459953  0.62110906  1
  O  O13  1  0.86194155  0.65540047  0.37889094  1
  O  O14  1  0.63805845  0.34459953  0.87889094  1
  O  O15  1  0.13805845  0.15540047  0.12110906  1
  O  O16  1  0.42992149  0.35546776  0.45550549  1
  O  O17  1  0.92992149  0.14453224  0.54449451  1
  O  O18  1  0.57007851  0.85546776  0.04449451  1
  O  O19  1  0.07007851  0.64453224  0.95550549  1
  O  O20  1  0.57007851  0.64453224  0.54449451  1
  O  O21  1  0.07007851  0.85546776  0.45550549  1
  O  O22  1  0.42992149  0.14453224  0.95550549  1
  O  O23  1  0.92992149  0.35546776  0.04449451  1
  O  O24  1  0.56569463  0.17508038  0.60000493  1
  O  O25  1  0.06569463  0.32491962  0.39999507  1
  O  O26  1  0.43430537  0.67508038  0.89999507  1
  O  O27  1  0.93430537  0.82491962  0.10000493  1
  O  O28  1  0.43430537  0.82491962  0.39999507  1
  O  O29  1  0.93430537  0.67508038  0.60000493  1
  O  O30  1  0.56569463  0.32491962  0.10000493  1
  O  O31  1  0.06569463  0.17508038  0.89999507  1
  O  O32  1  0.32253787  0.08711371  0.46022956  1
  O  O33  1  0.82253787  0.41288629  0.53977044  1
  O  O34  1  0.67746213  0.58711371  0.03977044  1
  O  O35  1  0.17746213  0.91288629  0.96022956  1
  O  O36  1  0.67746213  0.91288629  0.53977044  1
  O  O37  1  0.17746213  0.58711371  0.46022956  1
  O  O38  1  0.32253787  0.41288629  0.96022956  1
  O  O39  1  0.82253787  0.08711371  0.03977044  1
  O  O40  1  0.56922068  0.41625817  0.68803749  1
  O  O41  1  0.06922068  0.08374183  0.31196251  1
  O  O42  1  0.43077932  0.91625817  0.81196251  1
  O  O43  1  0.93077932  0.58374183  0.18803749  1
  O  O44  1  0.43077932  0.58374183  0.31196251  1
  O  O45  1  0.93077932  0.91625817  0.68803749  1
  O  O46  1  0.56922068  0.08374183  0.18803749  1
  O  O47  1  0.06922068  0.41625817  0.81196251  1
  O  O48  1  0.78162679  0.36420372  0.28468014  1
  O  O49  1  0.28162679  0.13579628  0.71531986  1
  O  O50  1  0.21837321  0.86420372  0.21531986  1
  O  O51  1  0.71837321  0.63579628  0.78468014  1
  O  O52  1  0.21837321  0.63579628  0.71531986  1
  O  O53  1  0.71837321  0.86420372  0.28468014  1
  O  O54  1  0.78162679  0.13579628  0.78468014  1
  O  O55  1  0.28162679  0.36420372  0.21531986  1
  Na  Na56  1  0.84869462  0.00533185  0.40724764  1
  Na  Na57  1  0.34869462  0.49466815  0.59275236  1
  Na  Na58  1  0.15130538  0.50533185  0.09275236  1
  Na  Na59  1  0.65130538  0.99466815  0.90724764  1
  Na  Na60  1  0.15130538  0.99466815  0.59275236  1
  Na  Na61  1  0.65130538  0.50533185  0.40724764  1
  Na  Na62  1  0.84869462  0.49466815  0.90724764  1
  Na  Na63  1  0.34869462  0.00533185  0.09275236  1
  Li  Li64  1  0.76766805  0.44150866  0.13875261  1
  Li  Li65  1  0.26766805  0.05849134  0.86124739  1
  Li  Li66  1  0.23233195  0.94150866  0.36124739  1
  Li  Li67  1  0.73233195  0.55849134  0.63875261  1
  Li  Li68  1  0.23233195  0.55849134  0.86124739  1
  Li  Li69  1  0.73233195  0.94150866  0.13875261  1
  Li  Li70  1  0.76766805  0.05849134  0.63875261  1
  Li  Li71  1  0.26766805  0.44150866  0.36124739  1
  H  H72  1  0.91616677  0.60325391  0.26060370  1
  H  H73  1  0.41616677  0.89674609  0.73939630  1
  H  H74  1  0.08383323  0.10325391  0.23939630  1
  H  H75  1  0.58383323  0.39674609  0.76060370  1
  H  H76  1  0.08383323  0.39674609  0.73939630  1
  H  H77  1  0.58383323  0.10325391  0.26060370  1
  H  H78  1  0.91616677  0.89674609  0.76060370  1
  H  H79  1  0.41616677  0.60325391  0.23939630  1
  H  H80  1  0.91435162  0.66752485  0.15451481  1
  H  H81  1  0.41435162  0.83247515  0.84548519  1
  H  H82  1  0.08564838  0.16752485  0.34548519  1
  H  H83  1  0.58564838  0.33247515  0.65451481  1
  H  H84  1  0.08564838  0.33247515  0.84548519  1
  H  H85  1  0.58564838  0.16752485  0.15451481  1
  H  H86  1  0.91435162  0.83247515  0.65451481  1
  H  H87  1  0.41435162  0.66752485  0.34548519  1
  H  H88  1  0.72814795  0.28514112  0.30863758  1
  H  H89  1  0.22814795  0.21485888  0.69136242  1
  H  H90  1  0.27185205  0.78514112  0.19136242  1
  H  H91  1  0.77185205  0.71485888  0.80863758  1
  H  H92  1  0.27185205  0.71485888  0.69136242  1
  H  H93  1  0.77185205  0.78514112  0.30863758  1
  H  H94  1  0.72814795  0.21485888  0.80863758  1
  H  H95  1  0.22814795  0.28514112  0.19136242  1
  H  H96  1  0.88922637  0.35855937  0.31519009  1
  H  H97  1  0.38922637  0.14144063  0.68480991  1
  H  H98  1  0.11077363  0.85855937  0.18480991  1
  H  H99  1  0.61077363  0.64144063  0.81519009  1
  H  H100  1  0.11077363  0.64144063  0.68480991  1
  H  H101  1  0.61077363  0.85855937  0.31519009  1
  H  H102  1  0.88922637  0.14144063  0.81519009  1
  H  H103  1  0.38922637  0.35855937  0.18480991  1
