# generated using pymatgen
data_Li2W2O7
_symmetry_space_group_name_H-M   'P 1'
_cell_length_a   5.18517757
_cell_length_b   7.10368833
_cell_length_c   8.50732582
_cell_angle_alpha   69.91160833
_cell_angle_beta   77.84047810
_cell_angle_gamma   85.74602271
_symmetry_Int_Tables_number   1
_chemical_formula_structural   Li2W2O7
_chemical_formula_sum   'Li4 W4 O14'
_cell_volume   287.69129847
_cell_formula_units_Z   2
loop_
 _symmetry_equiv_pos_site_id
 _symmetry_equiv_pos_as_xyz
  1  'x, y, z'
loop_
 _atom_site_type_symbol
 _atom_site_label
 _atom_site_symmetry_multiplicity
 _atom_site_fract_x
 _atom_site_fract_y
 _atom_site_fract_z
 _atom_site_occupancy
  W  W0  1  0.30180688  0.25383459  0.82229626  1
  W  W1  1  0.69819312  0.74616541  0.17770374  1
  W  W2  1  0.18483063  0.45856986  0.33447479  1
  W  W3  1  0.81516937  0.54143014  0.66552521  1
  Li  Li4  1  0.85969484  -0.00138264  0.73247747  1
  Li  Li5  1  0.14030516  1.00138264  0.26752253  1
  Li  Li6  1  0.69086791  0.25771827  0.09886369  1
  Li  Li7  1  0.30913209  0.74228173  0.90113631  1
  O  O8  1  0.04870907  0.60663634  0.12941465  1
  O  O9  1  0.95129093  0.39336366  0.87058535  1
  O  O10  1  0.34983658  0.75009352  0.29903389  1
  O  O11  1  0.65016342  0.24990648  0.70096611  1
  O  O12  1  0.81914090  0.97556850  0.18225667  1
  O  O13  1  0.18085910  0.02443150  0.81774333  1
  O  O14  1  0.82281827  0.58448730  0.42267982  1
  O  O15  1  0.17718173  0.41551270  0.57732018  1
  O  O16  1  0.08129980  0.21342293  0.36718981  1
  O  O17  1  0.91870020  0.78657707  0.63281019  1
  O  O18  1  0.35605463  0.18704190  0.03665383  1
  O  O19  1  0.64394537  0.81295810  0.96334617  1
  O  O20  1  0.53828863  0.43991986  0.23363686  1
  O  O21  1  0.46171137  0.56008014  0.76636314  1
