# generated using pymatgen
data_MgCrO4
_symmetry_space_group_name_H-M   'P 1'
_cell_length_a   6.84151102
_cell_length_b   6.84406250
_cell_length_c   6.84406288
_cell_angle_alpha   85.33203316
_cell_angle_beta   79.91160206
_cell_angle_gamma   79.91160370
_symmetry_Int_Tables_number   1
_chemical_formula_structural   MgCrO4
_chemical_formula_sum   'Mg4 Cr4 O16'
_cell_volume   310.20637396
_cell_formula_units_Z   4
loop_
 _symmetry_equiv_pos_site_id
 _symmetry_equiv_pos_as_xyz
  1  'x, y, z'
loop_
 _atom_site_type_symbol
 _atom_site_label
 _atom_site_symmetry_multiplicity
 _atom_site_fract_x
 _atom_site_fract_y
 _atom_site_fract_z
 _atom_site_occupancy
  Mg  Mg0  1  0.50000000  0.18189514  0.81810486  1
  Mg  Mg1  1  0.50000000  0.81810486  0.18189514  1
  Mg  Mg2  1  0.86605961  0.79670060  0.79670060  1
  Mg  Mg3  1  0.13394039  0.20329940  0.20329940  1
  Cr  Cr4  1  1.00000000  0.25615490  0.74384510  1
  Cr  Cr5  1  0.00000000  0.74384510  0.25615490  1
  Cr  Cr6  1  0.58824624  0.27447305  0.27447305  1
  Cr  Cr7  1  0.41175376  0.72552695  0.72552695  1
  O  O8  1  0.53954663  0.85767546  0.85767546  1
  O  O9  1  0.46045337  0.14232454  0.14232454  1
  O  O10  1  0.83244219  0.21186149  0.21186149  1
  O  O11  1  0.16755781  0.78813851  0.78813851  1
  O  O12  1  0.89712562  0.48778559  0.77852350  1
  O  O13  1  0.10287438  0.22147650  0.51221441  1
  O  O14  1  0.10287438  0.51221441  0.22147650  1
  O  O15  1  0.89712562  0.77852350  0.48778559  1
  O  O16  1  0.81629988  0.79879524  0.11235539  1
  O  O17  1  0.18370012  0.88764461  0.20120476  1
  O  O18  1  0.18370012  0.20120476  0.88764461  1
  O  O19  1  0.81629988  0.11235539  0.79879524  1
  O  O20  1  0.52343192  0.51109455  0.21623489  1
  O  O21  1  0.47656808  0.78376511  0.48890545  1
  O  O22  1  0.47656808  0.48890545  0.78376511  1
  O  O23  1  0.52343192  0.21623489  0.51109455  1
