# generated using pymatgen
data_KS2O3
_symmetry_space_group_name_H-M   'P 1'
_cell_length_a   8.30211527
_cell_length_b   10.31140100
_cell_length_c   11.99387069
_cell_angle_alpha   101.32824172
_cell_angle_beta   110.24885624
_cell_angle_gamma   90.00000070
_symmetry_Int_Tables_number   1
_chemical_formula_structural   KS2O3
_chemical_formula_sum   'K8 S16 O24'
_cell_volume   941.94764401
_cell_formula_units_Z   8
loop_
 _symmetry_equiv_pos_site_id
 _symmetry_equiv_pos_as_xyz
  1  'x, y, z'
loop_
 _atom_site_type_symbol
 _atom_site_label
 _atom_site_symmetry_multiplicity
 _atom_site_fract_x
 _atom_site_fract_y
 _atom_site_fract_z
 _atom_site_occupancy
  K  K0  1  0.85579224  0.61361895  0.87236837  1
  K  K1  1  0.01657614  0.11361895  0.87236837  1
  K  K2  1  0.37597492  0.73750845  0.97109962  1
  K  K3  1  0.59512470  0.23750845  0.97109962  1
  K  K4  1  0.34851310  0.56069130  0.56414466  1
  K  K5  1  0.21563156  0.06069130  0.56414466  1
  K  K6  1  0.91505425  0.94906409  0.15202808  1
  K  K7  1  0.23697384  0.44906409  0.15202808  1
  S  S8  1  0.60072661  0.89721592  0.80136812  1
  S  S9  1  0.20064151  0.39721592  0.80136812  1
  S  S10  1  0.63162461  0.90195375  0.62983815  1
  S  S11  1  -0.00178646  0.40195375  0.62983815  1
  S  S12  1  0.74529397  0.73854339  0.58341791  1
  S  S13  1  0.83812394  0.23854339  0.58341791  1
  S  S14  1  0.02064301  0.79453500  0.67388713  1
  S  S15  1  0.65324413  0.29453500  0.67388713  1
  S  S16  1  0.72518825  0.56790264  0.11238539  1
  S  S17  1  0.38719714  0.06790264  0.11238539  1
  S  S18  1  0.86037976  0.57797269  0.30352319  1
  S  S19  1  0.44314343  0.07797269  0.30352319  1
  S  S20  1  0.80558658  0.39500723  0.32151023  1
  S  S21  1  0.51592365  0.89500723  0.32151023  1
  S  S22  1  0.01301840  0.27762495  0.29229062  1
  S  S23  1  0.27927222  0.77762495  0.29229062  1
  O  O24  1  0.76614454  0.94615024  0.90016992  1
  O  O25  1  0.13402538  0.44615024  0.90016992  1
  O  O26  1  0.46538436  0.98988829  0.79452542  1
  O  O27  1  0.32914106  0.48988829  0.79452542  1
  O  O28  1  0.54939338  0.75923728  0.79756222  1
  O  O29  1  0.24816885  0.25923728  0.79756222  1
  O  O30  1  0.06488550  0.76380836  0.79520598  1
  O  O31  1  0.73032048  0.26380836  0.79520598  1
  O  O32  1  0.09314158  0.70945588  0.59330567  1
  O  O33  1  0.50016409  0.20945588  0.59330567  1
  O  O34  1  0.04025533  0.93673892  0.67710183  1
  O  O35  1  0.63684650  0.43673892  0.67710183  1
  O  O36  1  0.73765064  0.70722630  0.10138683  1
  O  O37  1  0.36373619  0.20722630  0.10138683  1
  O  O38  1  0.54791606  0.51516080  0.08469129  1
  O  O39  1  0.53677523  0.01516080  0.08469129  1
  O  O40  1  0.81863658  0.48066064  0.04715590  1
  O  O41  1  0.22851932  0.98066064  0.04715590  1
  O  O42  1  0.00622191  0.17072082  0.35590655  1
  O  O43  1  0.34968464  0.67072082  0.35590655  1
  O  O44  1  0.96392361  0.22957091  0.15974229  1
  O  O45  1  0.19581868  0.72957091  0.15974229  1
  O  O46  1  0.17022173  0.36694321  0.34578463  1
  O  O47  1  0.17556290  0.86694321  0.34578463  1
