# generated using pymatgen
data_La3MnS5
_symmetry_space_group_name_H-M   'P 1'
_cell_length_a   6.94216031
_cell_length_b   8.15012825
_cell_length_c   8.15741450
_cell_angle_alpha   119.97045660
_cell_angle_beta   90.00000000
_cell_angle_gamma   90.00000000
_symmetry_Int_Tables_number   1
_chemical_formula_structural   La3MnS5
_chemical_formula_sum   'La6 Mn2 S10'
_cell_volume   399.82638942
_cell_formula_units_Z   2
loop_
 _symmetry_equiv_pos_site_id
 _symmetry_equiv_pos_as_xyz
  1  'x, y, z'
loop_
 _atom_site_type_symbol
 _atom_site_label
 _atom_site_symmetry_multiplicity
 _atom_site_fract_x
 _atom_site_fract_y
 _atom_site_fract_z
 _atom_site_occupancy
  La  La0  1  0.74991113  0.39825357  0.00000000  1
  La  La1  1  0.75004538  0.60231363  0.60214315  1
  La  La2  1  0.75004538  0.00017048  0.39785685  1
  La  La3  1  0.24991113  0.60174643  1.00000000  1
  La  La4  1  0.25004538  0.39768637  0.39785685  1
  La  La5  1  0.25004538  0.99982952  0.60214315  1
  Mn  Mn6  1  0.49998704  0.00002037  0.00000000  1
  Mn  Mn7  1  0.99998704  0.99997963  -0.00000000  1
  S  S8  1  0.74999662  0.75960686  1.00000000  1
  S  S9  1  0.75000336  0.24044852  0.24029619  1
  S  S10  1  0.75000336  0.00015234  0.75970381  1
  S  S11  1  0.24999662  0.24039314  0.00000000  1
  S  S12  1  0.25000336  0.75955148  0.75970381  1
  S  S13  1  0.25000336  0.99984766  0.24029619  1
  S  S14  1  0.50000387  0.33323332  0.66649658  1
  S  S15  1  0.50000387  0.66673674  0.33350342  1
  S  S16  1  0.00000387  0.66676668  0.33350342  1
  S  S17  1  0.00000387  0.33326326  0.66649658  1
