# generated using pymatgen
data_Pu(IO3)4
_symmetry_space_group_name_H-M   'P 1'
_cell_length_a   5.39379049
_cell_length_b   10.14101468
_cell_length_c   10.14101468
_cell_angle_alpha   90.00000000
_cell_angle_beta   90.00000000
_cell_angle_gamma   90.00000000
_symmetry_Int_Tables_number   1
_chemical_formula_structural   Pu(IO3)4
_chemical_formula_sum   'Pu2 I8 O24'
_cell_volume   554.69837808
_cell_formula_units_Z   2
loop_
 _symmetry_equiv_pos_site_id
 _symmetry_equiv_pos_as_xyz
  1  'x, y, z'
loop_
 _atom_site_type_symbol
 _atom_site_label
 _atom_site_symmetry_multiplicity
 _atom_site_fract_x
 _atom_site_fract_y
 _atom_site_fract_z
 _atom_site_occupancy
  Pu  Pu0  1  0.25000000  0.75000000  0.75000000  1
  Pu  Pu1  1  0.75000000  0.25000000  0.25000000  1
  I  I2  1  0.21942114  0.52153740  0.25166777  1
  I  I3  1  0.78057886  0.02153740  0.75166777  1
  I  I4  1  0.78057886  0.47846260  0.74833223  1
  I  I5  1  0.28057886  0.24833223  0.52153740  1
  I  I6  1  0.71942114  0.75166777  0.47846260  1
  I  I7  1  0.28057886  0.25166777  0.97846260  1
  I  I8  1  0.71942114  0.74833223  0.02153740  1
  I  I9  1  0.21942114  0.97846260  0.24833223  1
  O  O10  1  0.05043797  0.93939325  0.82815303  1
  O  O11  1  0.44956203  0.67184697  0.93939325  1
  O  O12  1  0.75356580  0.62944736  0.15314768  1
  O  O13  1  0.55434265  0.90226519  0.82329283  1
  O  O14  1  0.94565735  0.82329283  0.59773481  1
  O  O15  1  0.55043797  0.17184697  0.43939325  1
  O  O16  1  0.05434265  0.17670717  0.40226519  1
  O  O17  1  0.44956203  0.82815303  0.56060675  1
  O  O18  1  0.55043797  0.32815303  0.06060675  1
  O  O19  1  0.94565735  0.67670717  0.90226519  1
  O  O20  1  0.24643420  0.37055264  0.84685232  1
  O  O21  1  0.75356580  0.87055264  0.34685232  1
  O  O22  1  0.74643420  0.34685232  0.62944736  1
  O  O23  1  0.94956203  0.06060675  0.17184697  1
  O  O24  1  0.94956203  0.43939325  0.32815303  1
  O  O25  1  0.74643420  0.15314768  0.87055264  1
  O  O26  1  0.44565735  0.40226519  0.32329283  1
  O  O27  1  0.55434265  0.59773481  0.67670717  1
  O  O28  1  0.25356580  0.65314768  0.37055264  1
  O  O29  1  0.25356580  0.84685232  0.12944736  1
  O  O30  1  0.24643420  0.12944736  0.65314768  1
  O  O31  1  0.44565735  0.09773481  0.17670717  1
  O  O32  1  0.05043797  0.56060675  0.67184697  1
  O  O33  1  0.05434265  0.32329283  0.09773481  1
