# generated using pymatgen
data_Fe2CoC
_symmetry_space_group_name_H-M   'P 1'
_cell_length_a   4.47614330
_cell_length_b   4.97666793
_cell_length_c   6.70991294
_cell_angle_alpha   90.00000000
_cell_angle_beta   90.00000000
_cell_angle_gamma   90.00000000
_symmetry_Int_Tables_number   1
_chemical_formula_structural   Fe2CoC
_chemical_formula_sum   'Fe8 Co4 C4'
_cell_volume   149.47189145
_cell_formula_units_Z   4
loop_
 _symmetry_equiv_pos_site_id
 _symmetry_equiv_pos_as_xyz
  1  'x, y, z'
loop_
 _atom_site_type_symbol
 _atom_site_label
 _atom_site_symmetry_multiplicity
 _atom_site_fract_x
 _atom_site_fract_y
 _atom_site_fract_z
 _atom_site_occupancy
  Fe  Fe0  1  0.16752592  0.68042130  0.06994468  1
  Fe  Fe1  1  0.33247408  0.18042130  0.43005532  1
  Fe  Fe2  1  0.83247408  0.31957870  0.56994468  1
  Fe  Fe3  1  0.66752592  0.81957870  0.93005532  1
  Fe  Fe4  1  0.83247408  0.31957870  0.93005532  1
  Fe  Fe5  1  0.66752592  0.81957870  0.56994468  1
  Fe  Fe6  1  0.16752592  0.68042130  0.43005532  1
  Fe  Fe7  1  0.33247408  0.18042130  0.06994468  1
  Co  Co8  1  0.65857284  0.53914804  0.25000000  1
  Co  Co9  1  0.84142716  0.03914804  0.25000000  1
  Co  Co10  1  0.34142716  0.46085196  0.75000000  1
  Co  Co11  1  0.15857284  0.96085196  0.75000000  1
  C  C12  1  0.05200529  0.37759113  0.25000000  1
  C  C13  1  0.44799471  0.87759113  0.25000000  1
  C  C14  1  0.94799471  0.62240887  0.75000000  1
  C  C15  1  0.55200529  0.12240887  0.75000000  1
