# generated using pymatgen
data_CsNaB4H12O13
_symmetry_space_group_name_H-M   'P 1'
_cell_length_a   8.25072241
_cell_length_b   11.54508884
_cell_length_c   13.25605487
_cell_angle_alpha   90.00000000
_cell_angle_beta   92.41553904
_cell_angle_gamma   90.00000000
_symmetry_Int_Tables_number   1
_chemical_formula_structural   CsNaB4H12O13
_chemical_formula_sum   'Cs4 Na4 B16 H48 O52'
_cell_volume   1261.58779423
_cell_formula_units_Z   4
loop_
 _symmetry_equiv_pos_site_id
 _symmetry_equiv_pos_as_xyz
  1  'x, y, z'
loop_
 _atom_site_type_symbol
 _atom_site_label
 _atom_site_symmetry_multiplicity
 _atom_site_fract_x
 _atom_site_fract_y
 _atom_site_fract_z
 _atom_site_occupancy
  Cs  Cs0  1  0.95823895  0.61050224  0.36828915  1
  Cs  Cs1  1  0.04176105  0.11050224  0.13171085  1
  Cs  Cs2  1  0.04176105  0.38949776  0.63171085  1
  Cs  Cs3  1  0.95823895  0.88949776  0.86828915  1
  Na  Na4  1  0.86170650  0.91171011  0.53713340  1
  Na  Na5  1  0.13829350  0.41171011  0.96286660  1
  Na  Na6  1  0.13829350  0.08828989  0.46286660  1
  Na  Na7  1  0.86170650  0.58828989  0.03713340  1
  O  O8  1  0.72708101  0.34117483  0.34293465  1
  O  O9  1  0.27291899  0.84117483  0.15706535  1
  O  O10  1  0.27291899  0.65882517  0.65706535  1
  O  O11  1  0.72708101  0.15882517  0.84293465  1
  O  O12  1  0.56574178  0.18119720  0.27526217  1
  O  O13  1  0.43425822  0.68119720  0.22473783  1
  O  O14  1  0.43425822  0.81880280  0.72473783  1
  O  O15  1  0.56574178  0.31880280  0.77526217  1
  O  O16  1  0.30729169  0.27380692  0.30113676  1
  O  O17  1  0.69270831  0.77380692  0.19886324  1
  O  O18  1  0.69270831  0.72619308  0.69886324  1
  O  O19  1  0.30729169  0.22619308  0.80113676  1
  O  O20  1  0.47109175  0.41938424  0.39115512  1
  O  O21  1  0.52890825  0.91938424  0.10884488  1
  O  O22  1  0.52890825  0.58061576  0.60884488  1
  O  O23  1  0.47109175  0.08061576  0.89115512  1
  O  O24  1  0.51364582  0.37673508  0.21377101  1
  O  O25  1  0.48635418  0.87673508  0.28622899  1
  O  O26  1  0.48635418  0.62326492  0.78622899  1
  O  O27  1  0.51364582  0.12326492  0.71377101  1
  O  O28  1  0.71448169  0.44477309  0.49530099  1
  O  O29  1  0.28551831  0.94477309  0.00469901  1
  O  O30  1  0.28551831  0.55522691  0.50469901  1
  O  O31  1  0.71448169  0.05522691  0.99530099  1
  O  O32  1  0.76618636  0.28190700  0.17388286  1
  O  O33  1  0.23381364  0.78190700  0.32611714  1
  O  O34  1  0.23381364  0.71809300  0.82611714  1
  O  O35  1  0.76618636  0.21809300  0.67388286  1
  O  O36  1  0.32765139  0.07286506  0.31843854  1
  O  O37  1  0.67234861  0.57286506  0.18156146  1
  O  O38  1  0.67234861  0.92713494  0.68156146  1
  O  O39  1  0.32765139  0.42713494  0.81843854  1
  O  O40  1  0.26413006  0.47304370  0.26330643  1
  O  O41  1  0.73586994  0.97304370  0.23669357  1
  O  O42  1  0.73586994  0.52695630  0.73669357  1
  O  O43  1  0.26413006  0.02695630  0.76330643  1
  O  O44  1  0.66628594  0.78333242  0.45096154  1
  O  O45  1  0.33371406  0.28333242  0.04903846  1
  O  O46  1  0.33371406  0.21666758  0.54903846  1
  O  O47  1  0.66628594  0.71666758  0.95096154  1
  O  O48  1  0.97189523  0.73072442  0.58941286  1
  O  O49  1  0.02810477  0.23072442  0.91058714  1
  O  O50  1  0.02810477  0.26927558  0.41058714  1
  O  O51  1  0.97189523  0.76927558  0.08941286  1
  O  O52  1  0.98637439  0.93813990  0.37615146  1
  O  O53  1  0.01362561  0.43813990  0.12384854  1
  O  O54  1  0.01362561  0.06186010  0.62384854  1
  O  O55  1  0.98637439  0.56186010  0.87615146  1
  O  O56  1  0.67811829  0.07639265  0.47046928  1
  O  O57  1  0.32188171  0.57639265  0.02953072  1
  O  O58  1  0.32188171  0.92360735  0.52953072  1
  O  O59  1  0.67811829  0.42360735  0.97046928  1
  B  B60  1  0.63545207  0.40182869  0.40958273  1
  B  B61  1  0.36454793  0.90182869  0.09041727  1
  B  B62  1  0.36454793  0.59817131  0.59041727  1
  B  B63  1  0.63545207  0.09817131  0.90958273  1
  B  B64  1  0.64359965  0.29661106  0.24886674  1
  B  B65  1  0.35640035  0.79661106  0.25113326  1
  B  B66  1  0.35640035  0.70338894  0.75113326  1
  B  B67  1  0.64359965  0.20338894  0.74886674  1
  B  B68  1  0.40340568  0.17605953  0.29740031  1
  B  B69  1  0.59659432  0.67605953  0.20259969  1
  B  B70  1  0.59659432  0.82394047  0.70259969  1
  B  B71  1  0.40340568  0.32394047  0.79740031  1
  B  B72  1  0.38709356  0.38769566  0.28986505  1
  B  B73  1  0.61290644  0.88769566  0.21013495  1
  B  B74  1  0.61290644  0.61230434  0.71013495  1
  B  B75  1  0.38709356  0.11230434  0.78986505  1
  H  H76  1  0.64340298  0.49166383  0.53909496  1
  H  H77  1  0.35659702  0.99166383  0.96090504  1
  H  H78  1  0.35659702  0.50833617  0.46090504  1
  H  H79  1  0.64340298  0.00833617  0.03909496  1
  H  H80  1  0.71695274  0.29029750  0.10614287  1
  H  H81  1  0.28304726  0.79029750  0.39385713  1
  H  H82  1  0.28304726  0.70970250  0.89385713  1
  H  H83  1  0.71695274  0.20970250  0.60614287  1
  H  H84  1  0.39325696  0.00029426  0.30837370  1
  H  H85  1  0.60674304  0.50029426  0.19162630  1
  H  H86  1  0.60674304  0.99970574  0.69162630  1
  H  H87  1  0.39325696  0.49970574  0.80837370  1
  H  H88  1  0.31599498  0.54922542  0.25421134  1
  H  H89  1  0.68400502  0.04922542  0.24578866  1
  H  H90  1  0.68400502  0.45077458  0.74578866  1
  H  H91  1  0.31599498  0.95077458  0.75421134  1
  H  H92  1  0.59128206  0.81071416  0.39529067  1
  H  H93  1  0.40871794  0.31071416  0.10470933  1
  H  H94  1  0.40871794  0.18928584  0.60470933  1
  H  H95  1  0.59128206  0.68928584  0.89529067  1
  H  H96  1  0.60686623  0.72878353  0.49174034  1
  H  H97  1  0.39313377  0.22878353  0.00825966  1
  H  H98  1  0.39313377  0.27121647  0.50825966  1
  H  H99  1  0.60686623  0.77121647  0.99174034  1
  H  H100  1  0.88496989  0.71533381  0.63671400  1
  H  H101  1  0.11503011  0.21533381  0.86328600  1
  H  H102  1  0.11503011  0.28466619  0.36328600  1
  H  H103  1  0.88496989  0.78466619  0.13671400  1
  H  H104  1  0.07683038  0.70526498  0.62127074  1
  H  H105  1  0.92316962  0.20526498  0.87872926  1
  H  H106  1  0.92316962  0.29473502  0.37872926  1
  H  H107  1  0.07683038  0.79473502  0.12127074  1
  H  H108  1  0.89503700  0.94583437  0.32471635  1
  H  H109  1  0.10496300  0.44583437  0.17528365  1
  H  H110  1  0.10496300  0.05416563  0.67528365  1
  H  H111  1  0.89503700  0.55416563  0.82471635  1
  H  H112  1  0.06993058  0.88761795  0.34752819  1
  H  H113  1  0.93006942  0.38761795  0.15247181  1
  H  H114  1  0.93006942  0.11238205  0.65247181  1
  H  H115  1  0.06993058  0.61238205  0.84752819  1
  H  H116  1  0.67435437  0.12284245  0.40821971  1
  H  H117  1  0.32564563  0.62284245  0.09178029  1
  H  H118  1  0.32564563  0.87715755  0.59178029  1
  H  H119  1  0.67435437  0.37715755  0.90821971  1
  H  H120  1  0.60229261  0.01383586  0.45334339  1
  H  H121  1  0.39770739  0.51383586  0.04665661  1
  H  H122  1  0.39770739  0.98616414  0.54665661  1
  H  H123  1  0.60229261  0.48616414  0.95334339  1
