# generated using pymatgen
data_Tl4Hg3Sb2(As2S5)4
_symmetry_space_group_name_H-M   'P 1'
_cell_length_a   11.58472597
_cell_length_b   13.61171824
_cell_length_c   14.02225486
_cell_angle_alpha   119.03614350
_cell_angle_beta   90.00000000
_cell_angle_gamma   90.00000000
_symmetry_Int_Tables_number   1
_chemical_formula_structural   Tl4Hg3Sb2(As2S5)4
_chemical_formula_sum   'Tl8 Hg6 Sb4 As16 S40'
_cell_volume   1933.23147761
_cell_formula_units_Z   2
loop_
 _symmetry_equiv_pos_site_id
 _symmetry_equiv_pos_as_xyz
  1  'x, y, z'
loop_
 _atom_site_type_symbol
 _atom_site_label
 _atom_site_symmetry_multiplicity
 _atom_site_fract_x
 _atom_site_fract_y
 _atom_site_fract_z
 _atom_site_occupancy
  Tl  Tl0  1  0.55774337  0.48008598  0.46247724  1
  Tl  Tl1  1  0.29710958  0.63523965  0.78223924  1
  Tl  Tl2  1  0.94225663  0.98008598  0.46247724  1
  Tl  Tl3  1  0.44225663  0.01760874  0.53752276  1
  Tl  Tl4  1  0.20289042  0.13523965  0.78223924  1
  Tl  Tl5  1  0.70289042  0.85300041  0.21776076  1
  Tl  Tl6  1  0.05774337  0.51760874  0.53752276  1
  Tl  Tl7  1  0.79710958  0.35300041  0.21776076  1
  Hg  Hg8  1  0.57428429  0.93915445  0.88503392  1
  Hg  Hg9  1  0.92571571  0.43915445  0.88503392  1
  Hg  Hg10  1  0.42571571  0.05412053  0.11496608  1
  Hg  Hg11  1  0.07428429  0.55412053  0.11496608  1
  Hg  Hg12  1  0.00000000  0.99661157  1.00000000  1
  Hg  Hg13  1  0.50000000  0.49661157  1.00000000  1
  Sb  Sb14  1  0.29223899  0.67100091  0.32364385  1
  Sb  Sb15  1  0.79223899  0.84735706  0.67635615  1
  Sb  Sb16  1  0.20776101  0.17100091  0.32364385  1
  Sb  Sb17  1  0.70776101  0.34735706  0.67635615  1
  As  As18  1  0.89645074  0.70223457  0.88937185  1
  As  As19  1  0.90592580  0.69139687  0.39472481  1
  As  As20  1  0.61297890  0.70805428  0.41720714  1
  As  As21  1  0.39555857  0.78813522  0.10027905  1
  As  As22  1  0.39645074  0.31286272  0.11062815  1
  As  As23  1  0.59407420  0.19139687  0.39472481  1
  As  As24  1  0.40592580  0.79667206  0.60527519  1
  As  As25  1  0.09407420  0.29667206  0.60527519  1
  As  As26  1  0.88702110  0.20805428  0.41720714  1
  As  As27  1  0.89555857  0.18785616  0.89972095  1
  As  As28  1  0.38702110  0.29084714  0.58279286  1
  As  As29  1  0.10444143  0.28813522  0.10027905  1
  As  As30  1  0.60444143  0.68785616  0.89972095  1
  As  As31  1  0.11297890  0.79084714  0.58279286  1
  As  As32  1  0.60354926  0.20223457  0.88937185  1
  As  As33  1  0.10354926  0.81286272  0.11062815  1
  S  S34  1  0.82612588  0.36880825  0.99195229  1
  S  S35  1  0.17387412  0.37685596  0.00804771  1
  S  S36  1  0.24599221  0.85860628  0.72200545  1
  S  S37  1  0.98157441  0.93697926  0.66107383  1
  S  S38  1  0.98213709  0.80241931  0.81994446  1
  S  S39  1  0.25470774  0.85524540  0.23519981  1
  S  S40  1  0.69012837  0.88215324  0.53103779  1
  S  S41  1  0.97992108  0.22798047  0.68523289  1
  S  S42  1  0.25400779  0.35860628  0.72200545  1
  S  S43  1  0.30987163  0.35111545  0.46896221  1
  S  S44  1  0.67678923  0.62583953  0.00982289  1
  S  S45  1  0.48213709  0.48247486  0.18005554  1
  S  S46  1  0.32612588  0.87685596  0.00804771  1
  S  S47  1  0.01786291  0.98247486  0.18005554  1
  S  S48  1  0.02007892  0.54274758  0.31476711  1
  S  S49  1  0.82321077  0.12583953  0.00982289  1
  S  S50  1  0.52064032  0.23447173  0.18219915  1
  S  S51  1  0.16986163  0.12375767  0.47265204  1
  S  S52  1  0.51842559  0.43697926  0.66107383  1
  S  S53  1  0.83013837  0.65110563  0.52734796  1
  S  S54  1  0.47935968  0.05227258  0.81780085  1
  S  S55  1  0.74599221  0.63660083  0.27799455  1
  S  S56  1  0.24529226  0.35524540  0.23519981  1
  S  S57  1  0.52007892  0.72798047  0.68523289  1
  S  S58  1  0.01842559  0.27590543  0.33892617  1
  S  S59  1  0.97935968  0.73447173  0.18219915  1
  S  S60  1  0.51786291  0.30241931  0.81994446  1
  S  S61  1  0.02064032  0.55227258  0.81780085  1
  S  S62  1  0.67387412  0.86880825  0.99195229  1
  S  S63  1  0.32321077  0.61601664  0.99017711  1
  S  S64  1  0.48157441  0.77590543  0.33892617  1
  S  S65  1  0.74529226  0.62004558  0.76480019  1
  S  S66  1  0.75400779  0.13660083  0.27799455  1
  S  S67  1  0.66986163  0.15110563  0.52734796  1
  S  S68  1  0.47992108  0.04274758  0.31476711  1
  S  S69  1  0.19012837  0.85111545  0.46896221  1
  S  S70  1  0.75470774  0.12004558  0.76480019  1
  S  S71  1  0.17678923  0.11601664  0.99017711  1
  S  S72  1  0.80987163  0.38215324  0.53103779  1
  S  S73  1  0.33013837  0.62375767  0.47265204  1
