# generated using pymatgen
data_Tl2SnS3
_symmetry_space_group_name_H-M   'P 1'
_cell_length_a   3.91530555
_cell_length_b   7.52817019
_cell_length_c   11.97321766
_cell_angle_alpha   93.37735138
_cell_angle_beta   99.41025655
_cell_angle_gamma   89.99999725
_symmetry_Int_Tables_number   1
_chemical_formula_structural   Tl2SnS3
_chemical_formula_sum   'Tl4 Sn2 S6'
_cell_volume   347.54114754
_cell_formula_units_Z   2
loop_
 _symmetry_equiv_pos_site_id
 _symmetry_equiv_pos_as_xyz
  1  'x, y, z'
loop_
 _atom_site_type_symbol
 _atom_site_label
 _atom_site_symmetry_multiplicity
 _atom_site_fract_x
 _atom_site_fract_y
 _atom_site_fract_z
 _atom_site_occupancy
  S  S0  1  0.91278608  0.98596515  0.82557216  1
  S  S1  1  0.08721392  0.01403485  0.17442784  1
  S  S2  1  0.91034888  0.47277139  0.82069776  1
  S  S3  1  0.08965112  0.52722861  0.17930224  1
  S  S4  1  0.28632644  0.71439970  0.57265288  1
  S  S5  1  0.71367356  0.28560030  0.42734712  1
  Sn  Sn6  1  0.85175176  0.72060076  0.70350353  1
  Sn  Sn7  1  0.14824824  0.27939924  0.29649647  1
  Tl  Tl8  1  0.66130844  0.78602046  0.32261689  1
  Tl  Tl9  1  0.33869156  0.21397954  0.67738311  1
  Tl  Tl10  1  0.49210340  0.74739359  0.98420681  1
  Tl  Tl11  1  0.50789660  0.25260641  0.01579319  1
