# generated using pymatgen
data_Ca6Si3H2O13
_symmetry_space_group_name_H-M   'P 1'
_cell_length_a   6.89256530
_cell_length_b   7.00606740
_cell_length_c   12.98538550
_cell_angle_alpha   90.79975810
_cell_angle_beta   97.63274759
_cell_angle_gamma   98.05304256
_symmetry_Int_Tables_number   1
_chemical_formula_structural   Ca6Si3H2O13
_chemical_formula_sum   'Ca12 Si6 H4 O26'
_cell_volume   615.03778359
_cell_formula_units_Z   2
loop_
 _symmetry_equiv_pos_site_id
 _symmetry_equiv_pos_as_xyz
  1  'x, y, z'
loop_
 _atom_site_type_symbol
 _atom_site_label
 _atom_site_symmetry_multiplicity
 _atom_site_fract_x
 _atom_site_fract_y
 _atom_site_fract_z
 _atom_site_occupancy
  Ca  Ca0  1  0.68381993  0.80825771  0.12424867  1
  Ca  Ca1  1  0.80987162  0.79622388  0.51179709  1
  Ca  Ca2  1  0.44005497  0.96666556  0.67865431  1
  Ca  Ca3  1  0.10713989  0.52781307  0.70907922  1
  Ca  Ca4  1  0.91872792  0.80535511  0.89836600  1
  Ca  Ca5  1  0.08127208  0.19464489  0.10163400  1
  Ca  Ca6  1  0.19012838  0.20377612  0.48820291  1
  Ca  Ca7  1  0.89286011  0.47218693  0.29092078  1
  Ca  Ca8  1  0.40647804  0.52325228  0.29671202  1
  Ca  Ca9  1  0.55994503  0.03333444  0.32134569  1
  Ca  Ca10  1  0.59352196  0.47674772  0.70328798  1
  Ca  Ca11  1  0.31618007  0.19174229  0.87575133  1
  Si  Si12  1  0.38587258  0.71131694  0.90200316  1
  Si  Si13  1  0.61412742  0.28868306  0.09799684  1
  Si  Si14  1  0.28523629  0.70106237  0.49089987  1
  Si  Si15  1  0.81030845  0.28485322  0.88435550  1
  Si  Si16  1  0.18969155  0.71514678  0.11564450  1
  Si  Si17  1  0.71476371  0.29893763  0.50910013  1
  H  H18  1  0.18832920  0.02789221  0.27720282  1
  H  H19  1  0.06623617  0.11767410  0.67668092  1
  H  H20  1  0.81167080  0.97210779  0.72279718  1
  H  H21  1  0.93376383  0.88232590  0.32331908  1
  O  O22  1  0.74311611  0.15088222  0.17616725  1
  O  O23  1  0.83355293  0.48501799  0.58198434  1
  O  O24  1  0.88498639  0.48940905  0.83081864  1
  O  O25  1  0.35816448  0.63319709  0.60975203  1
  O  O26  1  0.61681830  0.18519783  0.80470112  1
  O  O27  1  0.76457664  0.83919909  0.69836651  1
  O  O28  1  0.64183552  0.36680291  0.39024797  1
  O  O29  1  0.61858735  0.48871577  0.16559921  1
  O  O30  1  0.25248290  0.66425886  -0.00017196  1
  O  O31  1  0.38318170  0.81480217  0.19529888  1
  O  O32  1  0.38141265  0.51128423  0.83440079  1
  O  O33  1  0.81022849  0.79324801  0.31480172  1
  O  O34  1  0.16644707  0.51498201  0.41801566  1
  O  O35  1  0.74751710  0.33574114  1.00017196  1
  O  O36  1  0.84686093  0.12762718  0.48905356  1
  O  O37  1  0.23542336  0.16080091  0.30163349  1
  O  O38  1  0.25688389  0.84911778  0.82383275  1
  O  O39  1  0.18977151  0.20675199  0.68519828  1
  O  O40  1  0.52130228  0.21783868  0.56653266  1
  O  O41  1  0.60958030  0.80647088  0.94741503  1
  O  O42  1  0.47869772  0.78216132  0.43346734  1
  O  O43  1  0.01422364  0.85102549  0.09027265  1
  O  O44  1  0.98577636  0.14897451  0.90972735  1
  O  O45  1  0.11501361  0.51059095  0.16918136  1
  O  O46  1  0.15313907  0.87237282  0.51094644  1
  O  O47  1  0.39041970  0.19352912  0.05258497  1
