# generated using pymatgen
data_BiAsPbO5
_symmetry_space_group_name_H-M   'P 1'
_cell_length_a   5.62470271
_cell_length_b   7.24256978
_cell_length_c   7.26659078
_cell_angle_alpha   110.01920230
_cell_angle_beta   112.76786028
_cell_angle_gamma   89.98795226
_symmetry_Int_Tables_number   1
_chemical_formula_structural   BiAsPbO5
_chemical_formula_sum   'Bi2 As2 Pb2 O10'
_cell_volume   253.45623447
_cell_formula_units_Z   2
loop_
 _symmetry_equiv_pos_site_id
 _symmetry_equiv_pos_as_xyz
  1  'x, y, z'
loop_
 _atom_site_type_symbol
 _atom_site_label
 _atom_site_symmetry_multiplicity
 _atom_site_fract_x
 _atom_site_fract_y
 _atom_site_fract_z
 _atom_site_occupancy
  Bi  Bi0  1  0.01348836  0.24988157  0.02689589  1
  Bi  Bi1  1  0.98651164  0.75011843  0.97310411  1
  As  As2  1  0.66477644  0.65170848  0.32961888  1
  As  As3  1  0.33522356  0.34829152  0.67038112  1
  Pb  Pb4  1  0.33799516  0.87985661  0.67562388  1
  Pb  Pb5  1  0.66200484  0.12014339  0.32437612  1
  O  O6  1  0.19824230  0.29509485  0.39652149  1
  O  O7  1  0.39396715  0.77305409  0.28361479  1
  O  O8  1  0.80175770  0.70490515  0.60347851  1
  O  O9  1  0.59104090  0.40144796  0.18200078  1
  O  O10  1  0.11051981  0.22697926  0.71645475  1
  O  O11  1  0.88948019  0.77302074  0.28354525  1
  O  O12  1  0.23606019  0.99996442  0.99999046  1
  O  O13  1  0.76393981  0.00003558  0.00000954  1
  O  O14  1  0.40895910  0.59855204  0.81799922  1
  O  O15  1  0.60603285  0.22694591  0.71638521  1
