# generated using pymatgen
data_Cs2CuH12(SO7)2
_symmetry_space_group_name_H-M   'P 1'
_cell_length_a   6.35846606
_cell_length_b   9.52318935
_cell_length_c   12.85787032
_cell_angle_alpha   90.00000000
_cell_angle_beta   90.00000000
_cell_angle_gamma   105.50613983
_symmetry_Int_Tables_number   1
_chemical_formula_structural   Cs2CuH12(SO7)2
_chemical_formula_sum   'Cs4 Cu2 H24 S4 O28'
_cell_volume   750.24209061
_cell_formula_units_Z   2
loop_
 _symmetry_equiv_pos_site_id
 _symmetry_equiv_pos_as_xyz
  1  'x, y, z'
loop_
 _atom_site_type_symbol
 _atom_site_label
 _atom_site_symmetry_multiplicity
 _atom_site_fract_x
 _atom_site_fract_y
 _atom_site_fract_z
 _atom_site_occupancy
  Cu  Cu0  1  0.00000000  0.00000000  0.00000000  1
  Cu  Cu1  1  0.00000000  0.50000000  0.50000000  1
  Cs  Cs2  1  0.35253885  0.11200197  0.35508426  1
  Cs  Cs3  1  0.64746115  0.38799803  0.85508426  1
  Cs  Cs4  1  0.64746115  0.88799803  0.64491574  1
  Cs  Cs5  1  0.35253885  0.61200197  0.14491574  1
  S  S6  1  0.73639726  0.37600842  0.14781686  1
  S  S7  1  0.26360274  0.12399158  0.64781686  1
  S  S8  1  0.26360274  0.62399158  0.85218314  1
  S  S9  1  0.73639726  0.87600842  0.35218314  1
  O  O10  1  0.61601193  0.39624265  0.24378940  1
  O  O11  1  0.38398807  0.10375735  0.74378940  1
  O  O12  1  0.38398807  0.60375735  0.75621060  1
  O  O13  1  0.61601193  0.89624265  0.25621060  1
  O  O14  1  0.78330149  0.50952984  0.08269977  1
  O  O15  1  0.21669851  0.99047016  0.58269977  1
  O  O16  1  0.21669851  0.49047016  0.91730023  1
  O  O17  1  0.78330149  0.00952984  0.41730023  1
  O  O18  1  0.59580268  0.25113152  0.08620728  1
  O  O19  1  0.40419732  0.24886848  0.58620728  1
  O  O20  1  0.40419732  0.74886848  0.91379272  1
  O  O21  1  0.59580268  0.75113152  0.41379272  1
  O  O22  1  0.94477706  0.34028652  0.17727536  1
  O  O23  1  0.05522294  0.15971348  0.67727536  1
  O  O24  1  0.05522294  0.65971348  0.82272464  1
  O  O25  1  0.94477706  0.84028652  0.32272464  1
  O  O26  1  0.15455274  0.14152427  0.11140106  1
  O  O27  1  0.84544726  0.35847573  0.61140106  1
  O  O28  1  0.84544726  0.85847573  0.88859894  1
  O  O29  1  0.15455274  0.64152427  0.38859894  1
  O  O30  1  0.01448591  0.79949017  0.11295182  1
  O  O31  1  0.98551409  0.70050983  0.61295182  1
  O  O32  1  0.98551409  0.20050983  0.88704818  1
  O  O33  1  0.01448591  0.29949017  0.38704818  1
  O  O34  1  0.28581652  0.00064775  0.93733587  1
  O  O35  1  0.71418348  0.49935225  0.43733587  1
  O  O36  1  0.71418348  0.99935225  0.06266413  1
  O  O37  1  0.28581652  0.50064775  0.56266413  1
  H  H38  1  0.31145931  0.18946899  0.09604270  1
  H  H39  1  0.68854069  0.31053101  0.59604270  1
  H  H40  1  0.68854069  0.81053101  0.90395730  1
  H  H41  1  0.31145931  0.68946899  0.40395730  1
  H  H42  1  0.07768142  0.21771551  0.12755161  1
  H  H43  1  0.92231858  0.28228449  0.62755161  1
  H  H44  1  0.92231858  0.78228449  0.87244839  1
  H  H45  1  0.07768142  0.71771551  0.37244839  1
  H  H46  1  0.92322709  0.69938940  0.10005438  1
  H  H47  1  0.07677291  0.80061060  0.60005438  1
  H  H48  1  0.07677291  0.30061060  0.89994562  1
  H  H49  1  0.92322709  0.19938940  0.39994562  1
  H  H50  1  0.98584813  0.81985728  0.18638197  1
  H  H51  1  0.01415187  0.68014272  0.68638197  1
  H  H52  1  0.01415187  0.18014272  0.81361803  1
  H  H53  1  0.98584813  0.31985728  0.31361803  1
  H  H54  1  0.32350036  0.90511450  0.93727955  1
  H  H55  1  0.67649964  0.59488550  0.43727955  1
  H  H56  1  0.67649964  0.09488550  0.06272045  1
  H  H57  1  0.32350036  0.40511450  0.56272045  1
  H  H58  1  0.30218204  0.03505406  0.86347552  1
  H  H59  1  0.69781796  0.46494594  0.36347552  1
  H  H60  1  0.69781796  0.96494594  0.13652448  1
  H  H61  1  0.30218204  0.53505406  0.63652448  1
