# generated using pymatgen
data_KNaCu(Si2O5)2
_symmetry_space_group_name_H-M   'P 1'
_cell_length_a   7.04203270
_cell_length_b   8.16280869
_cell_length_c   9.91792481
_cell_angle_alpha   105.84842761
_cell_angle_beta   99.57985069
_cell_angle_gamma   113.68993031
_symmetry_Int_Tables_number   1
_chemical_formula_structural   KNaCu(Si2O5)2
_chemical_formula_sum   'K2 Na2 Cu2 Si8 O20'
_cell_volume   476.90953446
_cell_formula_units_Z   2
loop_
 _symmetry_equiv_pos_site_id
 _symmetry_equiv_pos_as_xyz
  1  'x, y, z'
loop_
 _atom_site_type_symbol
 _atom_site_label
 _atom_site_symmetry_multiplicity
 _atom_site_fract_x
 _atom_site_fract_y
 _atom_site_fract_z
 _atom_site_occupancy
  Cu  Cu0  1  0.33233023  0.86321589  0.08698124  1
  Cu  Cu1  1  0.66766977  0.13678411  0.91301876  1
  K  K2  1  0.16679752  0.79818438  0.49618023  1
  K  K3  1  0.83320248  0.20181562  0.50381977  1
  Na  Na4  1  0.16373978  0.12385557  0.90892948  1
  Na  Na5  1  0.83626022  0.87614443  0.09107052  1
  Si  Si6  1  0.31245405  0.17298167  0.35698326  1
  Si  Si7  1  0.68754595  0.82701833  0.64301674  1
  Si  Si8  1  0.34387056  0.61668649  0.77615162  1
  Si  Si9  1  0.65612944  0.38331351  0.22384838  1
  Si  Si10  1  0.46093560  0.28978129  0.71025390  1
  Si  Si11  1  0.53906440  0.71021871  0.28974610  1
  Si  Si12  1  0.06594071  0.35335404  0.22154589  1
  Si  Si13  1  0.93405929  0.64664596  0.77845411  1
  O  O14  1  0.46623946  0.78619529  0.93577738  1
  O  O15  1  0.53376054  0.21380471  0.06422262  1
  O  O16  1  0.35899097  0.18444260  0.52834647  1
  O  O17  1  0.64100903  0.81555740  0.47165353  1
  O  O18  1  0.45596184  0.67139847  0.65034681  1
  O  O19  1  0.54403816  0.32860153  0.34965319  1
  O  O20  1  0.05309077  0.80181145  0.94440100  1
  O  O21  1  0.94690923  0.19818855  0.05559900  1
  O  O22  1  0.21609853  0.95448380  0.24563092  1
  O  O23  1  0.78390147  0.04551620  0.75436908  1
  O  O24  1  0.08900595  0.56729521  0.70502444  1
  O  O25  1  0.91099405  0.43270479  0.29497556  1
  O  O26  1  0.58012535  0.88140706  0.22992782  1
  O  O27  1  0.41987465  0.11859294  0.77007218  1
  O  O28  1  0.67320697  0.59408010  0.23071761  1
  O  O29  1  0.32679303  0.40591990  0.76928239  1
  O  O30  1  0.28216744  0.55106844  0.24381973  1
  O  O31  1  0.71783256  0.44893156  0.75618027  1
  O  O32  1  0.86679869  0.74622711  0.66654590  1
  O  O33  1  0.13320131  0.25377289  0.33345410  1
