# generated using pymatgen
data_BaNb2O6
_symmetry_space_group_name_H-M   'P 1'
_cell_length_a   7.38814593
_cell_length_b   7.38814571
_cell_length_c   10.49011818
_cell_angle_alpha   90.00000000
_cell_angle_beta   90.00000000
_cell_angle_gamma   114.44322576
_symmetry_Int_Tables_number   1
_chemical_formula_structural   BaNb2O6
_chemical_formula_sum   'Ba4 Nb8 O24'
_cell_volume   521.27880551
_cell_formula_units_Z   4
loop_
 _symmetry_equiv_pos_site_id
 _symmetry_equiv_pos_as_xyz
  1  'x, y, z'
loop_
 _atom_site_type_symbol
 _atom_site_label
 _atom_site_symmetry_multiplicity
 _atom_site_fract_x
 _atom_site_fract_y
 _atom_site_fract_z
 _atom_site_occupancy
  Ba  Ba0  1  0.42436864  0.57563136  0.25000000  1
  Ba  Ba1  1  0.13102884  0.86897116  0.75000000  1
  Ba  Ba2  1  0.57563136  0.42436864  0.75000000  1
  Ba  Ba3  1  0.86897116  0.13102884  0.25000000  1
  Nb  Nb4  1  0.41379455  0.12722991  0.42180181  1
  Nb  Nb5  1  0.87277009  0.58620545  0.07819819  1
  Nb  Nb6  1  0.58620545  0.87277009  0.92180181  1
  Nb  Nb7  1  0.63555551  0.91195442  0.57167162  1
  Nb  Nb8  1  0.12722991  0.41379455  0.57819819  1
  Nb  Nb9  1  0.08804558  0.36444449  0.92832838  1
  Nb  Nb10  1  0.36444449  0.08804558  0.07167162  1
  Nb  Nb11  1  0.91195442  0.63555551  0.42832838  1
  O  O12  1  0.88009531  0.12159756  0.96359071  1
  O  O13  1  0.92095486  0.52038598  0.60965712  1
  O  O14  1  0.12159756  0.88009531  0.03640929  1
  O  O15  1  0.34404561  0.66140585  0.88566902  1
  O  O16  1  0.87840244  0.11990469  0.53640929  1
  O  O17  1  0.66140585  0.34404561  0.11433098  1
  O  O18  1  0.65595439  0.33859415  0.38566902  1
  O  O19  1  0.29947385  0.29947385  0.50000000  1
  O  O20  1  0.70341304  0.86535734  0.74975403  1
  O  O21  1  0.33859415  0.65595439  0.61433098  1
  O  O22  1  0.07904514  0.47961402  0.10965712  1
  O  O23  1  0.30871459  0.30871459  0.00000000  1
  O  O24  1  0.47961402  0.07904514  0.89034288  1
  O  O25  1  0.86535734  0.70341304  0.25024597  1
  O  O26  1  0.52038598  0.92095486  0.39034288  1
  O  O27  1  0.70052615  0.70052615  0.00000000  1
  O  O28  1  0.07598738  0.48193980  0.39223869  1
  O  O29  1  0.92401262  0.51806020  0.89223869  1
  O  O30  1  0.48193980  0.07598738  0.60776131  1
  O  O31  1  0.11990469  0.87840244  0.46359071  1
  O  O32  1  0.13464266  0.29658696  0.75024597  1
  O  O33  1  0.69128541  0.69128541  0.50000000  1
  O  O34  1  0.51806020  0.92401262  0.10776131  1
  O  O35  1  0.29658696  0.13464266  0.24975403  1
