# generated using pymatgen
data_ZnS
_symmetry_space_group_name_H-M   'P 1'
_cell_length_a   31.57174431
_cell_length_b   31.57174435
_cell_length_c   31.57174391
_cell_angle_alpha   7.01534699
_cell_angle_beta   7.01534642
_cell_angle_gamma   7.01534652
_symmetry_Int_Tables_number   1
_chemical_formula_structural   ZnS
_chemical_formula_sum   'Zn10 S10'
_cell_volume   407.05231170
_cell_formula_units_Z   10
loop_
 _symmetry_equiv_pos_site_id
 _symmetry_equiv_pos_as_xyz
  1  'x, y, z'
loop_
 _atom_site_type_symbol
 _atom_site_label
 _atom_site_symmetry_multiplicity
 _atom_site_fract_x
 _atom_site_fract_y
 _atom_site_fract_z
 _atom_site_occupancy
  Zn  Zn0  1  0.89998011  0.89998011  0.89998011  1
  Zn  Zn1  1  0.19999447  0.19999447  0.19999447  1
  Zn  Zn2  1  0.10000419  0.10000419  0.10000419  1
  Zn  Zn3  1  0.63330150  0.63330150  0.63330150  1
  Zn  Zn4  1  0.70000751  0.70000751  0.70000751  1
  Zn  Zn5  1  0.79998936  0.79998936  0.79998936  1
  Zn  Zn6  1  0.50001039  0.50001039  0.50001039  1
  Zn  Zn7  1  -0.00000701  -0.00000701  -0.00000701  1
  Zn  Zn8  1  0.40000712  0.40000712  0.40000712  1
  Zn  Zn9  1  0.26665052  0.26665052  0.26665052  1
  S  S10  1  0.22496402  0.22496402  0.22496402  1
  S  S11  1  0.72499353  0.72499353  0.72499353  1
  S  S12  1  0.52500232  0.52500232  0.52500232  1
  S  S13  1  0.42500381  0.42500381  0.42500381  1
  S  S14  1  0.82498974  0.82498974  0.82498974  1
  S  S15  1  0.92499184  0.92499184  0.92499184  1
  S  S16  1  0.65828622  0.65828622  0.65828622  1
  S  S17  1  0.29162790  0.29162790  0.29162790  1
  S  S18  1  0.12499172  0.12499172  0.12499172  1
  S  S19  1  0.02501073  0.02501073  0.02501073  1
