# generated using pymatgen
data_SiO2
_symmetry_space_group_name_H-M   'P 1'
_cell_length_a   10.33618140
_cell_length_b   11.35359512
_cell_length_c   11.35359586
_cell_angle_alpha   78.04158433
_cell_angle_beta   62.92257029
_cell_angle_gamma   62.92257359
_symmetry_Int_Tables_number   1
_chemical_formula_structural   SiO2
_chemical_formula_sum   'Si16 O32'
_cell_volume   1056.30576435
_cell_formula_units_Z   16
loop_
 _symmetry_equiv_pos_site_id
 _symmetry_equiv_pos_as_xyz
  1  'x, y, z'
loop_
 _atom_site_type_symbol
 _atom_site_label
 _atom_site_symmetry_multiplicity
 _atom_site_fract_x
 _atom_site_fract_y
 _atom_site_fract_z
 _atom_site_occupancy
  Si  Si0  1  0.35920786  0.28158428  0.50000000  1
  Si  Si1  1  0.85920786  0.28158428  0.50000000  1
  Si  Si2  1  0.88943016  0.84504007  0.37609962  1
  Si  Si3  1  0.73447023  0.37609962  0.15495993  1
  Si  Si4  1  0.14079214  0.50000000  0.71841572  1
  Si  Si5  1  0.64079214  0.71841572  0.50000000  1
  Si  Si6  1  0.26552977  0.84504007  0.62390038  1
  Si  Si7  1  0.11056984  0.15495993  0.62390038  1
  Si  Si8  1  0.88943016  0.37609962  0.84504007  1
  Si  Si9  1  0.14079214  0.71841572  0.50000000  1
  Si  Si10  1  0.64079214  0.50000000  0.71841572  1
  Si  Si11  1  0.26552977  0.62390038  0.84504007  1
  Si  Si12  1  0.73447023  0.15495993  0.37609962  1
  Si  Si13  1  0.35920786  0.50000000  0.28158428  1
  Si  Si14  1  0.85920786  0.50000000  0.28158428  1
  Si  Si15  1  0.11056984  0.62390038  0.15495993  1
  O  O16  1  0.23973540  0.76026460  0.76026460  1
  O  O17  1  0.73441018  0.81189418  0.46358266  1
  O  O18  1  0.28942740  0.37412330  0.62587670  1
  O  O19  1  0.71057260  0.62587670  0.37412330  1
  O  O20  1  0.54630436  0.18810582  0.46358266  1
  O  O21  1  0.83172136  0.00000000  0.33655728  1
  O  O22  1  0.80200716  0.46358266  0.18810582  1
  O  O23  1  0.00988702  0.18810582  0.53641734  1
  O  O24  1  0.71057260  0.37412330  0.62587670  1
  O  O25  1  0.19799284  0.81189418  0.53641734  1
  O  O26  1  0.45369564  0.53641734  0.81189418  1
  O  O27  1  0.99011298  0.81189418  0.46358266  1
  O  O28  1  1.00000000  0.76026460  0.23973540  1
  O  O29  1  0.76026460  0.23973540  0.23973540  1
  O  O30  1  0.08469590  0.62587670  0.62587670  1
  O  O31  1  0.80200716  0.18810582  0.46358266  1
  O  O32  1  0.66355071  0.62587670  0.62587670  1
  O  O33  1  0.16827864  1.00000000  0.66344272  1
  O  O34  1  0.26558982  0.53641734  0.18810582  1
  O  O35  1  0.73441018  0.46358266  0.81189418  1
  O  O36  1  0.00000000  0.23973540  0.76026460  1
  O  O37  1  0.83172136  0.33655728  0.00000000  1
  O  O38  1  0.26558982  0.18810582  0.53641734  1
  O  O39  1  0.91530410  0.37412330  0.37412330  1
  O  O40  1  0.19799284  0.53641734  0.81189418  1
  O  O41  1  0.99011298  0.46358266  0.81189418  1
  O  O42  1  0.54630436  0.46358266  0.18810582  1
  O  O43  1  0.45369564  0.81189418  0.53641734  1
  O  O44  1  0.00988702  0.53641734  0.18810582  1
  O  O45  1  0.16827864  0.66344272  1.00000000  1
  O  O46  1  0.28942740  0.62587670  0.37412330  1
  O  O47  1  0.33644929  0.37412330  0.37412330  1
