# generated using pymatgen
data_SiO2
_symmetry_space_group_name_H-M   'P 1'
_cell_length_a   13.57929062
_cell_length_b   15.89122847
_cell_length_c   15.89122932
_cell_angle_alpha   79.10652954
_cell_angle_beta   64.70636571
_cell_angle_gamma   64.70636430
_symmetry_Int_Tables_number   1
_chemical_formula_structural   SiO2
_chemical_formula_sum   'Si48 O96'
_cell_volume   2803.11149470
_cell_formula_units_Z   48
loop_
 _symmetry_equiv_pos_site_id
 _symmetry_equiv_pos_as_xyz
  1  'x, y, z'
loop_
 _atom_site_type_symbol
 _atom_site_label
 _atom_site_symmetry_multiplicity
 _atom_site_fract_x
 _atom_site_fract_y
 _atom_site_fract_z
 _atom_site_occupancy
  Si  Si0  1  0.26194857  0.06956201  0.68837201  1
  Si  Si1  1  0.28789171  0.69777303  0.45436759  1
  Si  Si2  1  0.43269697  0.70115788  0.14714090  1
  Si  Si3  1  0.41185731  0.91948144  0.52575222  1
  Si  Si4  1  0.27101579  0.45675990  0.30324389  1
  Si  Si5  1  0.92765050  0.38621757  0.76385646  1
  Si  Si6  1  0.67377905  0.06259942  0.30929913  1
  Si  Si7  1  0.01988259  0.31162799  0.93043799  1
  Si  Si8  1  0.66809758  0.46953008  0.90714800  1
  Si  Si9  1  0.28789171  0.45436759  0.69777303  1
  Si  Si10  1  0.01988259  0.93043799  0.31162799  1
  Si  Si11  1  0.04567761  0.93740058  0.69070087  1
  Si  Si12  1  0.42227031  0.30484460  0.14693340  1
  Si  Si13  1  0.07772452  0.23614354  0.61378243  1
  Si  Si14  1  0.44003233  0.54563241  0.30222697  1
  Si  Si15  1  0.87404831  0.69515540  0.85306660  1
  Si  Si16  1  0.28099575  0.29884212  0.85285910  1
  Si  Si17  1  0.85709097  0.08051856  0.47424778  1
  Si  Si18  1  0.29990602  0.77064787  0.61964628  1
  Si  Si19  1  0.07907948  0.00143280  0.84503379  1
  Si  Si20  1  0.43269697  0.14714090  0.70115788  1
  Si  Si21  1  0.44003233  0.30222697  0.54563241  1
  Si  Si22  1  0.67945882  0.99063932  0.62695114  1
  Si  Si23  1  0.92554607  0.15496621  0.99856720  1
  Si  Si24  1  0.07772452  0.61378243  0.23614354  1
  Si  Si25  1  0.04477566  0.09285200  0.53046992  1
  Si  Si26  1  0.03101957  0.54324010  0.69675611  1
  Si  Si27  1  0.87404831  0.85306660  0.69515540  1
  Si  Si28  1  0.92554607  0.99856720  0.15496621  1
  Si  Si29  1  0.85709097  0.47424778  0.08051856  1
  Si  Si30  1  0.03101957  0.69675611  0.54324010  1
  Si  Si31  1  0.42227031  0.14693340  0.30484460  1
  Si  Si32  1  0.67945882  0.62695114  0.99063932  1
  Si  Si33  1  0.26194857  0.68837201  0.06956201  1
  Si  Si34  1  0.69020017  0.22935213  0.38035372  1
  Si  Si35  1  0.29990602  0.61964628  0.77064787  1
  Si  Si36  1  0.66809758  0.90714800  0.46953008  1
  Si  Si37  1  0.41185731  0.52575222  0.91948144  1
  Si  Si38  1  0.29704928  0.00936068  0.37304886  1
  Si  Si39  1  0.04567761  0.69070087  0.93740058  1
  Si  Si40  1  0.92765050  0.76385646  0.38621757  1
  Si  Si41  1  0.04477566  0.53046992  0.09285200  1
  Si  Si42  1  0.67377905  0.30929913  0.06259942  1
  Si  Si43  1  0.29704928  0.37304886  0.00936068  1
  Si  Si44  1  0.28099575  0.85285910  0.29884212  1
  Si  Si45  1  0.07907948  0.84503379  0.00143280  1
  Si  Si46  1  0.69020017  0.38035372  0.22935213  1
  Si  Si47  1  0.27101579  0.30324389  0.45675990  1
  O  O48  1  0.20374454  0.77346197  0.00860874  1
  O  O49  1  0.96323849  0.30965938  0.69034062  1
  O  O50  1  0.98151364  0.84233926  0.33489617  1
  O  O51  1  0.92931705  0.70639726  0.92083075  1
  O  O52  1  0.23047241  0.38692279  0.38692279  1
  O  O53  1  0.32066394  0.71042870  0.53685878  1
  O  O54  1  0.55603173  0.06328907  0.69731775  1
  O  O55  1  0.98151364  0.33489617  0.84233926  1
  O  O56  1  0.34088010  0.32903403  0.50271816  1
  O  O57  1  0.98581525  0.99139126  0.22653803  1
  O  O58  1  0.32066394  0.53685878  0.71042870  1
  O  O59  1  0.95361245  0.99456265  0.40342740  1
  O  O60  1  0.35275479  0.08353125  0.31021596  1
  O  O61  1  0.56795142  0.28957130  0.46314122  1
  O  O62  1  0.20374454  0.00860874  0.77346197  1
  O  O63  1  0.38264921  0.83025920  0.58005823  1
  O  O64  1  0.33718385  0.69869499  0.69869499  1
  O  O65  1  0.35160251  0.59657260  0.00543735  1
  O  O66  1  0.15874906  0.66510383  0.15766074  1
  O  O67  1  0.02952222  0.18860708  0.56615410  1
  O  O68  1  0.35821093  0.20573359  0.40053837  1
  O  O69  1  0.75886278  0.04711196  0.55660951  1
  O  O70  1  0.96448289  0.79426641  0.59946163  1
  O  O71  1  0.31663854  0.30268225  0.93671093  1
  O  O72  1  0.25853059  0.39749976  0.79603060  1
  O  O73  1  0.39931919  0.38582985  0.61417015  1
  O  O74  1  0.65066436  0.56942955  0.93570829  1
  O  O75  1  0.07180952  0.00902419  0.60445766  1
  O  O76  1  0.98581525  0.22653803  0.99139126  1
  O  O77  1  0.68529138  0.39554234  0.99097581  1
  O  O78  1  0.45206095  0.60250024  0.20396940  1
  O  O79  1  0.15580220  0.06429171  0.43057045  1
  O  O80  1  0.10911607  0.91584468  0.91584468  1
  O  O81  1  0.17263229  0.67096597  0.49728184  1
  O  O82  1  0.01781659  0.78647009  0.98184417  1
  O  O83  1  0.35275479  0.31021596  0.08353125  1
  O  O84  1  0.31663854  0.93671093  0.30268225  1
  O  O85  1  0.38973891  0.21496397  0.78503603  1
  O  O86  1  0.42254948  0.21592639  0.21592639  1
  O  O87  1  0.66678513  0.16076643  0.33304072  1
  O  O88  1  0.45206095  0.20396940  0.60250024  1
  O  O89  1  0.16059229  0.83923357  0.66695928  1
  O  O90  1  0.94080542  0.08415532  0.08415532  1
  O  O91  1  0.36258425  0.44339049  0.95288804  1
  O  O92  1  0.78428340  0.81139292  0.43384590  1
  O  O93  1  0.75886278  0.55660951  0.04711196  1
  O  O94  1  0.55429057  0.48052104  0.88917582  1
  O  O95  1  0.36258425  0.95288804  0.44339049  1
  O  O96  1  0.33371210  0.72170126  0.10630051  1
  O  O97  1  0.15335638  0.53647068  0.29193275  1
  O  O98  1  0.73457383  0.30130501  0.30130501  1
  O  O99  1  0.07180952  0.60445766  0.00902419  1
  O  O100  1  0.78613085  0.01815583  0.21352991  1
  O  O101  1  0.85440227  0.78407361  0.78407361  1
  O  O102  1  0.96323849  0.69034062  0.30965938  1
  O  O103  1  0.15874906  0.15766074  0.66510383  1
  O  O104  1  0.39931919  0.61417015  0.38582985  1
  O  O105  1  0.78428340  0.43384590  0.81139292  1
  O  O106  1  0.55654506  0.07916925  0.29360274  1
  O  O107  1  0.79296664  0.41994177  0.16974080  1
  O  O108  1  0.55654506  0.29360274  0.07916925  1
  O  O109  1  0.92931705  0.92083075  0.70639726  1
  O  O110  1  1.00431800  0.61307721  0.61307721  1
  O  O111  1  0.66678513  0.33304072  0.16076643  1
  O  O112  1  0.16171387  0.27829874  0.89369949  1
  O  O113  1  0.78613085  0.21352991  0.01815583  1
  O  O114  1  0.98175981  0.46352932  0.70806725  1
  O  O115  1  0.38264921  0.58005823  0.83025920  1
  O  O116  1  0.55429057  0.88917582  0.48052104  1
  O  O117  1  0.15335638  0.29193275  0.53647068  1
  O  O118  1  0.35160251  0.00543735  0.59657260  1
  O  O119  1  0.16059229  0.66695928  0.83923357  1
  O  O120  1  0.02952222  0.56615410  0.18860708  1
  O  O121  1  0.98847710  0.09790539  0.90209461  1
  O  O122  1  0.34088010  0.50271816  0.32903403  1
  O  O123  1  0.15580220  0.43057045  0.06429171  1
  O  O124  1  0.74650200  0.68978404  0.91646875  1
  O  O125  1  0.01781659  0.98184417  0.78647009  1
  O  O126  1  0.17263229  0.49728184  0.67096597  1
  O  O127  1  0.25853059  0.79603060  0.39749976  1
  O  O128  1  0.92398743  0.11082418  0.51947896  1
  O  O129  1  0.96448289  0.59946163  0.79426641  1
  O  O130  1  0.79296664  0.16974080  0.41994177  1
  O  O131  1  0.38973891  0.78503603  0.21496397  1
  O  O132  1  0.74650200  0.91646875  0.68978404  1
  O  O133  1  0.56795142  0.46314122  0.28957130  1
  O  O134  1  0.98847710  0.90209461  0.09790539  1
  O  O135  1  0.98175981  0.70806725  0.46352932  1
  O  O136  1  0.33371210  0.10630051  0.72170126  1
  O  O137  1  0.16171387  0.89369949  0.27829874  1
  O  O138  1  0.68529138  0.99097581  0.39554234  1
  O  O139  1  0.35821093  0.40053837  0.20573359  1
  O  O140  1  0.55603173  0.69731775  0.06328907  1
  O  O141  1  0.65066436  0.93570829  0.56942955  1
  O  O142  1  0.95361245  0.40342740  0.99456265  1
  O  O143  1  0.92398743  0.51947896  0.11082418  1
