# generated using pymatgen
data_NaY(SiO3)2
_symmetry_space_group_name_H-M   'P 1'
_cell_length_a   6.70423682
_cell_length_b   6.70423658
_cell_length_c   17.85495724
_cell_angle_alpha   96.70842766
_cell_angle_beta   96.70842745
_cell_angle_gamma   103.49155581
_symmetry_Int_Tables_number   1
_chemical_formula_structural   NaY(SiO3)2
_chemical_formula_sum   'Na6 Y6 Si12 O36'
_cell_volume   766.36134356
_cell_formula_units_Z   6
loop_
 _symmetry_equiv_pos_site_id
 _symmetry_equiv_pos_as_xyz
  1  'x, y, z'
loop_
 _atom_site_type_symbol
 _atom_site_label
 _atom_site_symmetry_multiplicity
 _atom_site_fract_x
 _atom_site_fract_y
 _atom_site_fract_z
 _atom_site_occupancy
  Na  Na0  1  0.87645534  0.12354466  0.75000000  1
  Na  Na1  1  0.12354466  0.87645534  0.25000000  1
  Na  Na2  1  0.36235135  0.99497065  0.08300294  1
  Na  Na3  1  0.63764865  0.00502935  0.91699706  1
  Na  Na4  1  0.99497065  0.36235135  0.58300294  1
  Na  Na5  1  0.00502935  0.63764865  0.41699706  1
  Y  Y6  1  0.60774918  0.39225082  0.25000000  1
  Y  Y7  1  0.26526513  0.36053270  0.92653165  1
  Y  Y8  1  0.73473487  0.63946730  0.07346835  1
  Y  Y9  1  0.36053270  0.26526513  0.42653165  1
  Y  Y10  1  0.63946730  0.73473487  0.57346835  1
  Y  Y11  1  0.39225082  0.60774918  0.75000000  1
  Si  Si12  1  0.19077495  0.53437215  0.10156136  1
  Si  Si13  1  0.11355122  0.35388337  0.24306208  1
  Si  Si14  1  0.35388337  0.11355122  0.74306208  1
  Si  Si15  1  0.17853925  0.83328842  0.60113140  1
  Si  Si16  1  0.80922505  0.46562785  0.89843864  1
  Si  Si17  1  0.88644878  0.64611663  0.75693792  1
  Si  Si18  1  0.16671158  0.82146075  0.89886860  1
  Si  Si19  1  0.53437215  0.19077495  0.60156136  1
  Si  Si20  1  0.82146075  0.16671158  0.39886860  1
  Si  Si21  1  0.46562785  0.80922505  0.39843864  1
  Si  Si22  1  0.64611663  0.88644878  0.25693792  1
  Si  Si23  1  0.83328842  0.17853925  0.10113140  1
  O  O24  1  0.71842528  0.70900231  0.69781832  1
  O  O25  1  0.28157472  0.29099769  0.30218168  1
  O  O26  1  0.56462289  0.37173900  0.54820024  1
  O  O27  1  0.72373685  0.95857577  0.04915796  1
  O  O28  1  0.70900231  0.71842528  0.19781832  1
  O  O29  1  0.00798829  0.32478949  0.05672756  1
  O  O30  1  0.67521051  0.99201171  0.44327244  1
  O  O31  1  0.31861153  0.67141902  0.62239974  1
  O  O32  1  0.08469569  0.72537143  0.11551020  1
  O  O33  1  0.32858098  0.68138847  0.87760026  1
  O  O34  1  0.03272435  0.51042759  0.72281834  1
  O  O35  1  0.51042759  0.03272435  0.22281834  1
  O  O36  1  0.91530431  0.27462857  0.88448980  1
  O  O37  1  0.27626315  0.04142423  0.95084204  1
  O  O38  1  0.67141902  0.31861153  0.12239974  1
  O  O39  1  0.27462857  0.91530431  0.38448980  1
  O  O40  1  0.62826100  0.43537711  0.95179976  1
  O  O41  1  0.99201171  0.67521051  0.94327244  1
  O  O42  1  0.97106853  0.14822343  0.18122831  1
  O  O43  1  0.95857577  0.72373685  0.54915796  1
  O  O44  1  0.37173900  0.56462289  0.04820024  1
  O  O45  1  0.52984888  0.72461849  0.31489821  1
  O  O46  1  0.68138847  0.32858098  0.37760026  1
  O  O47  1  0.72537143  0.08469569  0.61551020  1
  O  O48  1  0.27538151  0.47015112  0.18510179  1
  O  O49  1  0.72461849  0.52984888  0.81489821  1
  O  O50  1  0.32478949  0.00798829  0.55672756  1
  O  O51  1  0.43537711  0.62826100  0.45179976  1
  O  O52  1  0.04142423  0.27626315  0.45084204  1
  O  O53  1  0.48957241  0.96727565  0.77718166  1
  O  O54  1  0.85177657  0.02893147  0.31877169  1
  O  O55  1  0.47015112  0.27538151  0.68510179  1
  O  O56  1  0.14822343  0.97106853  0.68122831  1
  O  O57  1  0.02893147  0.85177657  0.81877169  1
  O  O58  1  0.29099769  0.28157472  0.80218168  1
  O  O59  1  0.96727565  0.48957241  0.27718166  1
