# generated using pymatgen
data_AlPO4
_symmetry_space_group_name_H-M   'P 1'
_cell_length_a   9.46431537
_cell_length_b   9.46431498
_cell_length_c   9.46431514
_cell_angle_alpha   94.60599594
_cell_angle_beta   94.60599582
_cell_angle_gamma   94.60599686
_symmetry_Int_Tables_number   1
_chemical_formula_structural   AlPO4
_chemical_formula_sum   'Al6 P6 O24'
_cell_volume   839.06588947
_cell_formula_units_Z   6
loop_
 _symmetry_equiv_pos_site_id
 _symmetry_equiv_pos_as_xyz
  1  'x, y, z'
loop_
 _atom_site_type_symbol
 _atom_site_label
 _atom_site_symmetry_multiplicity
 _atom_site_fract_x
 _atom_site_fract_y
 _atom_site_fract_z
 _atom_site_occupancy
  Al  Al0  1  0.66680668  0.12317585  0.89946824  1
  Al  Al1  1  0.12317585  0.89946824  0.66680668  1
  Al  Al2  1  0.33319332  0.87682415  0.10053176  1
  Al  Al3  1  0.89946824  0.66680668  0.12317585  1
  Al  Al4  1  0.10053176  0.33319332  0.87682415  1
  Al  Al5  1  0.87682415  0.10053176  0.33319332  1
  P  P6  1  0.11108871  0.87864782  0.33353946  1
  P  P7  1  0.66646054  0.88891129  0.12135218  1
  P  P8  1  0.87864782  0.33353946  0.11108871  1
  P  P9  1  0.12135218  0.66646054  0.88891129  1
  P  P10  1  0.33353946  0.11108871  0.87864782  1
  P  P11  1  0.88891129  0.12135218  0.66646054  1
  O  O12  1  0.85649532  0.48957107  0.15322593  1
  O  O13  1  0.48957107  0.15322593  0.85649532  1
  O  O14  1  0.73299244  0.98681037  0.25149100  1
  O  O15  1  0.24721833  0.89403927  0.25651093  1
  O  O16  1  0.01558302  0.32318450  0.03431929  1
  O  O17  1  0.75278167  0.10596073  0.74348907  1
  O  O18  1  0.74850900  0.26700756  0.01318963  1
  O  O19  1  0.98681037  0.25149100  0.73299244  1
  O  O20  1  0.32318450  0.03431929  0.01558302  1
  O  O21  1  0.03431929  0.01558302  0.32318450  1
  O  O22  1  0.51042893  0.84677407  0.14350468  1
  O  O23  1  0.96568071  0.98441698  0.67681550  1
  O  O24  1  0.10596073  0.74348907  0.75278167  1
  O  O25  1  0.84677407  0.14350468  0.51042893  1
  O  O26  1  0.26700756  0.01318963  0.74850900  1
  O  O27  1  0.89403927  0.25651093  0.24721833  1
  O  O28  1  0.01318963  0.74850900  0.26700756  1
  O  O29  1  0.25651093  0.24721833  0.89403927  1
  O  O30  1  0.67681550  0.96568071  0.98441698  1
  O  O31  1  0.98441698  0.67681550  0.96568071  1
  O  O32  1  0.25149100  0.73299244  0.98681037  1
  O  O33  1  0.15322593  0.85649532  0.48957107  1
  O  O34  1  0.14350468  0.51042893  0.84677407  1
  O  O35  1  0.74348907  0.75278167  0.10596073  1
