# generated using pymatgen
data_Ba2Gd2Co4O11
_symmetry_space_group_name_H-M   'P 1'
_cell_length_a   3.86049575
_cell_length_b   7.59108287
_cell_length_c   8.05539736
_cell_angle_alpha   90.00000000
_cell_angle_beta   90.00000000
_cell_angle_gamma   90.00000000
_symmetry_Int_Tables_number   1
_chemical_formula_structural   Ba2Gd2Co4O11
_chemical_formula_sum   'Ba2 Gd2 Co4 O11'
_cell_volume   236.06618391
_cell_formula_units_Z   1
loop_
 _symmetry_equiv_pos_site_id
 _symmetry_equiv_pos_as_xyz
  1  'x, y, z'
loop_
 _atom_site_type_symbol
 _atom_site_label
 _atom_site_symmetry_multiplicity
 _atom_site_fract_x
 _atom_site_fract_y
 _atom_site_fract_z
 _atom_site_occupancy
  Ba  Ba0  1  0.50000000  0.00000000  0.24351665  1
  Ba  Ba1  1  0.50000000  0.00000000  0.75648335  1
  Gd  Gd2  1  0.50000000  0.50000000  0.27380582  1
  Gd  Gd3  1  0.50000000  0.50000000  0.72619418  1
  Co  Co4  1  0.00000000  0.75042679  0.50000000  1
  Co  Co5  1  -0.00000000  0.24957321  0.50000000  1
  Co  Co6  1  0.00000000  0.72866956  -0.00000000  1
  Co  Co7  1  -0.00000000  0.27133044  -0.00000000  1
  O  O8  1  0.00000000  0.00000000  -0.00000000  1
  O  O9  1  0.00000000  0.00000000  0.50000000  1
  O  O10  1  0.00000000  0.50000000  0.50000000  1
  O  O11  1  0.50000000  0.68354858  -0.00000000  1
  O  O12  1  0.50000000  0.31645142  -0.00000000  1
  O  O13  1  0.50000000  0.72607012  0.50000000  1
  O  O14  1  0.50000000  0.27392988  0.50000000  1
  O  O15  1  -0.00000000  0.70441886  0.23723822  1
  O  O16  1  -0.00000000  0.70441886  0.76276178  1
  O  O17  1  0.00000000  0.29558114  0.76276178  1
  O  O18  1  0.00000000  0.29558114  0.23723822  1
