# generated using pymatgen
data_K2Th(CuS2)2
_symmetry_space_group_name_H-M   'P 1'
_cell_length_a   4.02199504
_cell_length_b   7.54229401
_cell_length_c   7.62235498
_cell_angle_alpha   109.18384797
_cell_angle_beta   90.00000000
_cell_angle_gamma   105.46379604
_symmetry_Int_Tables_number   1
_chemical_formula_structural   K2Th(CuS2)2
_chemical_formula_sum   'K2 Th1 Cu2 S4'
_cell_volume   209.50160786
_cell_formula_units_Z   1
loop_
 _symmetry_equiv_pos_site_id
 _symmetry_equiv_pos_as_xyz
  1  'x, y, z'
loop_
 _atom_site_type_symbol
 _atom_site_label
 _atom_site_symmetry_multiplicity
 _atom_site_fract_x
 _atom_site_fract_y
 _atom_site_fract_z
 _atom_site_occupancy
  K  K0  1  0.13816154  0.27632308  0.56568538  1
  K  K1  1  0.86183846  0.72367692  0.43431462  1
  Th  Th2  1  0.00000000  0.00000000  0.00000000  1
  Cu  Cu3  1  0.68085586  0.36171173  0.98835588  1
  Cu  Cu4  1  0.31914414  0.63828827  0.01164412  1
  S  S5  1  0.52241523  0.04483046  0.76228644  1
  S  S6  1  0.47758477  0.95516954  0.23771356  1
  S  S7  1  0.20236271  0.40472541  0.17411247  1
  S  S8  1  0.79763729  0.59527459  0.82588753  1
