# generated using pymatgen
data_MgSiO3
_symmetry_space_group_name_H-M   'P 1'
_cell_length_a   9.28050493
_cell_length_b   8.95300596
_cell_length_c   5.26750048
_cell_angle_alpha   90.00000000
_cell_angle_beta   90.00000000
_cell_angle_gamma   90.00000000
_symmetry_Int_Tables_number   1
_chemical_formula_structural   MgSiO3
_chemical_formula_sum   'Mg8 Si8 O24'
_cell_volume   437.66827090
_cell_formula_units_Z   8
loop_
 _symmetry_equiv_pos_site_id
 _symmetry_equiv_pos_as_xyz
  1  'x, y, z'
loop_
 _atom_site_type_symbol
 _atom_site_label
 _atom_site_symmetry_multiplicity
 _atom_site_fract_x
 _atom_site_fract_y
 _atom_site_fract_z
 _atom_site_occupancy
  Mg  Mg0  1  0.99800854  0.15145450  0.22019773  1
  Mg  Mg1  1  0.49800854  0.84854550  0.77980227  1
  Mg  Mg2  1  0.49800854  0.65145450  0.27980227  1
  Mg  Mg3  1  0.99800854  0.34854550  0.72019773  1
  Mg  Mg4  1  0.00182228  0.99237898  0.72079044  1
  Mg  Mg5  1  0.50182228  0.00762102  0.27920956  1
  Mg  Mg6  1  0.50182228  0.49237898  0.77920956  1
  Mg  Mg7  1  0.00182228  0.50762102  0.22079044  1
  Si  Si8  1  0.70215977  0.33872096  0.37525906  1
  Si  Si9  1  0.20215977  0.66127904  0.62474094  1
  Si  Si10  1  0.20215977  0.83872096  0.12474094  1
  Si  Si11  1  0.70215977  0.16127904  0.87525906  1
  Si  Si12  1  0.29622661  0.16185741  0.56713385  1
  Si  Si13  1  0.79622661  0.83814259  0.43286615  1
  Si  Si14  1  0.79622661  0.66185741  0.93286615  1
  Si  Si15  1  0.29622661  0.33814259  0.06713385  1
  O  O16  1  0.87880209  0.34102752  0.38514135  1
  O  O17  1  0.37880209  0.65897248  0.61485865  1
  O  O18  1  0.37880209  0.84102752  0.11485865  1
  O  O19  1  0.87880209  0.15897248  0.88514135  1
  O  O20  1  0.12040129  0.16305627  0.56016406  1
  O  O21  1  0.62040129  0.83694373  0.43983594  1
  O  O22  1  0.62040129  0.66305627  0.93983594  1
  O  O23  1  0.12040129  0.33694373  0.06016406  1
  O  O24  1  0.61980399  0.48926727  0.46142839  1
  O  O25  1  0.11980399  0.51073273  0.53857161  1
  O  O26  1  0.11980399  0.98926727  0.03857161  1
  O  O27  1  0.61980399  0.01073273  0.96142839  1
  O  O28  1  0.37805107  0.00528553  0.59840404  1
  O  O29  1  0.87805107  0.99471447  0.40159596  1
  O  O30  1  0.87805107  0.50528553  0.90159596  1
  O  O31  1  0.37805107  0.49471447  0.09840404  1
  O  O32  1  0.64807088  0.29304853  0.08174117  1
  O  O33  1  0.14807088  0.70695147  0.91825883  1
  O  O34  1  0.14807088  0.79304853  0.41825883  1
  O  O35  1  0.64807088  0.20695147  0.58174117  1
  O  O36  1  0.35565349  0.28689939  0.77784529  1
  O  O37  1  0.85565349  0.71310061  0.22215471  1
  O  O38  1  0.85565349  0.78689939  0.72215471  1
  O  O39  1  0.35565349  0.21310061  0.27784529  1
