# generated using pymatgen
data_NaCaAlF6
_symmetry_space_group_name_H-M   'P 1'
_cell_length_a   5.26066932
_cell_length_b   8.86052636
_cell_length_c   20.59777213
_cell_angle_alpha   91.69113162
_cell_angle_beta   90.00000000
_cell_angle_gamma   90.00000000
_symmetry_Int_Tables_number   1
_chemical_formula_structural   NaCaAlF6
_chemical_formula_sum   'Na8 Ca8 Al8 F48'
_cell_volume   959.69133132
_cell_formula_units_Z   8
loop_
 _symmetry_equiv_pos_site_id
 _symmetry_equiv_pos_as_xyz
  1  'x, y, z'
loop_
 _atom_site_type_symbol
 _atom_site_label
 _atom_site_symmetry_multiplicity
 _atom_site_fract_x
 _atom_site_fract_y
 _atom_site_fract_z
 _atom_site_occupancy
  Na  Na0  1  0.75816599  0.02367169  0.31779127  1
  Na  Na1  1  0.25816599  0.97632831  0.18220873  1
  Na  Na2  1  0.24183401  0.97632831  0.68220873  1
  Na  Na3  1  0.20817412  0.95837258  0.93750209  1
  Na  Na4  1  0.29182588  0.95837258  0.43750209  1
  Na  Na5  1  0.74183401  0.02367169  0.81779127  1
  Na  Na6  1  0.70817412  0.04162742  0.56249791  1
  Na  Na7  1  0.79182588  0.04162742  0.06249791  1
  Ca  Ca8  1  0.76010244  0.36218986  0.68859365  1
  Ca  Ca9  1  0.81207602  0.36609977  0.93575788  1
  Ca  Ca10  1  0.18792398  0.63390023  0.06424212  1
  Ca  Ca11  1  0.23989756  0.63781014  0.31140635  1
  Ca  Ca12  1  0.73989756  0.36218986  0.18859365  1
  Ca  Ca13  1  0.31207602  0.63390023  0.56424212  1
  Ca  Ca14  1  0.26010244  0.63781014  0.81140635  1
  Ca  Ca15  1  0.68792398  0.36609977  0.43575788  1
  Al  Al16  1  0.75213484  0.74362915  0.18047004  1
  Al  Al17  1  0.25213484  0.25637085  0.31952996  1
  Al  Al18  1  0.19093843  0.25527965  0.57198134  1
  Al  Al19  1  0.69093843  0.74472035  0.92801866  1
  Al  Al20  1  0.80906157  0.74472035  0.42801866  1
  Al  Al21  1  0.74786516  0.74362915  0.68047004  1
  Al  Al22  1  0.30906157  0.25527965  0.07198134  1
  Al  Al23  1  0.24786516  0.25637085  0.81952996  1
  F  F24  1  0.52125028  0.24360271  0.87286377  1
  F  F25  1  0.46100510  0.74503587  0.73031904  1
  F  F26  1  0.90979295  0.60703376  0.73404353  1
  F  F27  1  0.59012769  0.26546243  0.01885038  1
  F  F28  1  0.71671165  0.91960001  0.46676228  1
  F  F29  1  0.86335682  0.90494669  0.72517460  1
  F  F30  1  0.12649600  0.37412217  0.01722660  1
  F  F31  1  0.13664318  0.09505331  0.27482540  1
  F  F32  1  0.50891558  0.15986172  0.13155574  1
  F  F33  1  0.05600837  0.15358129  0.88027174  1
  F  F34  1  0.09012769  0.73453757  0.48114962  1
  F  F35  1  0.97874972  0.24360271  0.37286377  1
  F  F36  1  0.90987231  0.26546243  0.51885038  1
  F  F37  1  0.03899490  0.74503587  0.23031904  1
  F  F38  1  0.63664318  0.90494669  0.22517460  1
  F  F39  1  0.09824746  0.43279047  0.61382332  1
  F  F40  1  0.53523712  0.76589390  0.37298116  1
  F  F41  1  0.46476288  0.23410610  0.62701884  1
  F  F42  1  0.02125028  0.75639729  0.62713623  1
  F  F43  1  0.62649600  0.62587783  0.48277340  1
  F  F44  1  0.99108442  0.15986172  0.63155574  1
  F  F45  1  0.40987231  0.73453757  0.98114962  1
  F  F46  1  0.87730382  0.57129167  0.13677726  1
  F  F47  1  0.37350400  0.37412217  0.51722660  1
  F  F48  1  0.87350400  0.62587783  0.98277340  1
  F  F49  1  0.55600837  0.84641871  0.61972826  1
  F  F50  1  0.47874972  0.75639729  0.12713623  1
  F  F51  1  0.03523712  0.23410610  0.12701884  1
  F  F52  1  0.62269618  0.57129167  0.63677726  1
  F  F53  1  0.90175254  0.56720953  0.38617668  1
  F  F54  1  0.12269618  0.42870833  0.86322274  1
  F  F55  1  0.59824746  0.56720953  0.88617668  1
  F  F56  1  0.40979295  0.39296624  0.76595647  1
  F  F57  1  0.21671165  0.08039999  0.03323772  1
  F  F58  1  0.96100510  0.25496413  0.76968096  1
  F  F59  1  0.53899490  0.25496413  0.26968096  1
  F  F60  1  0.37730382  0.42870833  0.36322274  1
  F  F61  1  0.94399163  0.84641871  0.11972826  1
  F  F62  1  0.36335682  0.09505331  0.77482540  1
  F  F63  1  0.28328835  0.08039999  0.53323772  1
  F  F64  1  0.40175254  0.43279047  0.11382332  1
  F  F65  1  0.59020705  0.60703376  0.23404353  1
  F  F66  1  0.96476288  0.76589390  0.87298116  1
  F  F67  1  0.78328835  0.91960001  0.96676228  1
  F  F68  1  0.49108442  0.84013828  0.86844426  1
  F  F69  1  0.09020705  0.39296624  0.26595647  1
  F  F70  1  0.44399163  0.15358129  0.38027174  1
  F  F71  1  0.00891558  0.84013828  0.36844426  1
