# generated using pymatgen
data_Fe2NiC
_symmetry_space_group_name_H-M   'P 1'
_cell_length_a   4.39823180
_cell_length_b   5.07589887
_cell_length_c   6.76006902
_cell_angle_alpha   90.00000000
_cell_angle_beta   90.00000000
_cell_angle_gamma   90.00000000
_symmetry_Int_Tables_number   1
_chemical_formula_structural   Fe2NiC
_chemical_formula_sum   'Fe8 Ni4 C4'
_cell_volume   150.91840448
_cell_formula_units_Z   4
loop_
 _symmetry_equiv_pos_site_id
 _symmetry_equiv_pos_as_xyz
  1  'x, y, z'
loop_
 _atom_site_type_symbol
 _atom_site_label
 _atom_site_symmetry_multiplicity
 _atom_site_fract_x
 _atom_site_fract_y
 _atom_site_fract_z
 _atom_site_occupancy
  Fe  Fe0  1  0.17154304  0.67884937  0.06993530  1
  Fe  Fe1  1  0.32845696  0.17884937  0.43006470  1
  Fe  Fe2  1  0.82845696  0.32115063  0.56993530  1
  Fe  Fe3  1  0.67154304  0.82115063  0.93006470  1
  Fe  Fe4  1  0.82845696  0.32115063  0.93006470  1
  Fe  Fe5  1  0.67154304  0.82115063  0.56993530  1
  Fe  Fe6  1  0.17154304  0.67884937  0.43006470  1
  Fe  Fe7  1  0.32845696  0.17884937  0.06993530  1
  Ni  Ni8  1  0.66084163  0.54020148  0.25000000  1
  Ni  Ni9  1  0.83915837  0.04020148  0.25000000  1
  Ni  Ni10  1  0.33915837  0.45979852  0.75000000  1
  Ni  Ni11  1  0.16084163  0.95979852  0.75000000  1
  C  C12  1  0.06186269  0.38148001  0.25000000  1
  C  C13  1  0.43813731  0.88148001  0.25000000  1
  C  C14  1  0.93813731  0.61851999  0.75000000  1
  C  C15  1  0.56186269  0.11851999  0.75000000  1
