# generated using pymatgen
data_TeO2
_symmetry_space_group_name_H-M   'P 1'
_cell_length_a   4.96740284
_cell_length_b   4.96740284
_cell_length_c   7.62283859
_cell_angle_alpha   90.00000000
_cell_angle_beta   90.00000000
_cell_angle_gamma   90.00000000
_symmetry_Int_Tables_number   1
_chemical_formula_structural   TeO2
_chemical_formula_sum   'Te4 O8'
_cell_volume   188.09423569
_cell_formula_units_Z   4
loop_
 _symmetry_equiv_pos_site_id
 _symmetry_equiv_pos_as_xyz
  1  'x, y, z'
loop_
 _atom_site_type_symbol
 _atom_site_label
 _atom_site_symmetry_multiplicity
 _atom_site_fract_x
 _atom_site_fract_y
 _atom_site_fract_z
 _atom_site_occupancy
  O  O0  1  0.74545004  0.85462363  0.30940274  1
  O  O1  1  0.25454996  0.14537637  0.80940274  1
  O  O2  1  0.85462363  0.74545004  0.69059726  1
  O  O3  1  0.35462363  0.75454996  0.05940274  1
  O  O4  1  0.14537637  0.25454996  0.19059726  1
  O  O5  1  0.24545004  0.64537637  0.44059726  1
  O  O6  1  0.75454996  0.35462363  0.94059726  1
  O  O7  1  0.64537637  0.24545004  0.55940274  1
  Te  Te8  1  0.96868469  0.96868469  0.50000000  1
  Te  Te9  1  0.53131531  0.46868469  0.75000000  1
  Te  Te10  1  0.46868469  0.53131531  0.25000000  1
  Te  Te11  1  0.03131531  0.03131531  0.00000000  1
