# generated using pymatgen
data_CaTiO3
_symmetry_space_group_name_H-M   'P 1'
_cell_length_a   5.47597249
_cell_length_b   5.47654609
_cell_length_c   7.67108164
_cell_angle_alpha   90.00000000
_cell_angle_beta   90.00000000
_cell_angle_gamma   90.00000000
_symmetry_Int_Tables_number   1
_chemical_formula_structural   CaTiO3
_chemical_formula_sum   'Ca4 Ti4 O12'
_cell_volume   230.05125639
_cell_formula_units_Z   4
loop_
 _symmetry_equiv_pos_site_id
 _symmetry_equiv_pos_as_xyz
  1  'x, y, z'
loop_
 _atom_site_type_symbol
 _atom_site_label
 _atom_site_symmetry_multiplicity
 _atom_site_fract_x
 _atom_site_fract_y
 _atom_site_fract_z
 _atom_site_occupancy
  Ca  Ca0  1  0.50036528  0.51255379  0.75000000  1
  Ca  Ca1  1  0.99963472  0.01255379  0.25000000  1
  Ca  Ca2  1  0.49963472  0.48744621  0.25000000  1
  Ca  Ca3  1  0.00036528  0.98744621  0.75000000  1
  Ti  Ti4  1  0.50000000  0.00000000  0.00000000  1
  Ti  Ti5  1  0.50000000  0.00000000  0.50000000  1
  Ti  Ti6  1  0.00000000  0.50000000  0.00000000  1
  Ti  Ti7  1  0.00000000  0.50000000  0.50000000  1
  O  O8  1  0.25015328  0.74985467  0.54687272  1
  O  O9  1  0.99963581  0.41366712  0.75000000  1
  O  O10  1  0.50036419  0.91366712  0.25000000  1
  O  O11  1  0.75015328  0.75014533  0.54687272  1
  O  O12  1  0.24984672  0.24985467  0.04687272  1
  O  O13  1  0.74984672  0.25014533  0.04687272  1
  O  O14  1  0.25015328  0.74985467  0.95312728  1
  O  O15  1  0.24984672  0.24985467  0.45312728  1
  O  O16  1  0.75015328  0.75014533  0.95312728  1
  O  O17  1  0.49963581  0.08633288  0.75000000  1
  O  O18  1  0.00036419  0.58633288  0.25000000  1
  O  O19  1  0.74984672  0.25014533  0.45312728  1
