# generated using pymatgen
data_ZnS
_symmetry_space_group_name_H-M   'P 1'
_cell_length_a   31.52757762
_cell_length_b   31.52757748
_cell_length_c   31.52757825
_cell_angle_alpha   7.01505789
_cell_angle_beta   7.01505986
_cell_angle_gamma   7.01505918
_symmetry_Int_Tables_number   1
_chemical_formula_structural   ZnS
_chemical_formula_sum   'Zn10 S10'
_cell_volume   405.31327996
_cell_formula_units_Z   10
loop_
 _symmetry_equiv_pos_site_id
 _symmetry_equiv_pos_as_xyz
  1  'x, y, z'
loop_
 _atom_site_type_symbol
 _atom_site_label
 _atom_site_symmetry_multiplicity
 _atom_site_fract_x
 _atom_site_fract_y
 _atom_site_fract_z
 _atom_site_occupancy
  Zn  Zn0  1  0.36641194  0.36641194  0.36641194  1
  Zn  Zn1  1  0.93309643  0.93309643  0.93309643  1
  Zn  Zn2  1  0.53309157  0.53309157  0.53309157  1
  Zn  Zn3  1  0.09977551  0.09977551  0.09977551  1
  Zn  Zn4  1  0.63309112  0.63309112  0.63309112  1
  Zn  Zn5  1  0.46642976  0.46642976  0.46642976  1
  Zn  Zn6  1  0.99975382  0.99975382  0.99975382  1
  Zn  Zn7  1  0.23309008  0.23309008  0.23309008  1
  Zn  Zn8  1  0.83309394  0.83309394  0.83309394  1
  Zn  Zn9  1  0.73309695  0.73309695  0.73309695  1
  S  S10  1  0.25807823  0.25807823  0.25807823  1
  S  S11  1  0.12475345  0.12475345  0.12475345  1
  S  S12  1  0.39140338  0.39140338  0.39140338  1
  S  S13  1  0.85809080  0.85809080  0.85809080  1
  S  S14  1  0.49139202  0.49139202  0.49139202  1
  S  S15  1  0.65808640  0.65808640  0.65808640  1
  S  S16  1  0.95805758  0.95805758  0.95805758  1
  S  S17  1  0.55806458  0.55806458  0.55806458  1
  S  S18  1  0.02472564  0.02472564  0.02472564  1
  S  S19  1  0.75808277  0.75808277  0.75808277  1
