# generated using pymatgen
data_AlPO4
_symmetry_space_group_name_H-M   'P 1'
_cell_length_a   8.70874550
_cell_length_b   12.60414329
_cell_length_c   12.60414345
_cell_angle_alpha   66.77680465
_cell_angle_beta   69.78941514
_cell_angle_gamma   69.78941614
_symmetry_Int_Tables_number   1
_chemical_formula_structural   AlPO4
_chemical_formula_sum   'Al10 P10 O40'
_cell_volume   1157.47657851
_cell_formula_units_Z   10
loop_
 _symmetry_equiv_pos_site_id
 _symmetry_equiv_pos_as_xyz
  1  'x, y, z'
loop_
 _atom_site_type_symbol
 _atom_site_label
 _atom_site_symmetry_multiplicity
 _atom_site_fract_x
 _atom_site_fract_y
 _atom_site_fract_z
 _atom_site_occupancy
  Al  Al0  1  0.20459493  0.15255201  0.05477728  1
  Al  Al1  1  0.91192421  0.44522272  0.34744799  1
  Al  Al2  1  0.77220579  0.89350615  0.17868723  1
  Al  Al3  1  0.70459493  0.55477728  0.65255201  1
  Al  Al4  1  0.05941386  0.60781488  0.89218512  1
  Al  Al5  1  0.84439917  0.10649385  0.82131277  1
  Al  Al6  1  0.34439917  0.32131277  0.60649385  1
  Al  Al7  1  0.55941386  0.39218512  0.10781488  1
  Al  Al8  1  0.27220579  0.67868723  0.39350615  1
  Al  Al9  1  0.41192421  0.84744799  0.94522272  1
  P  P10  1  0.71928900  0.31860421  0.60943788  1
  P  P11  1  0.07803003  0.55556267  0.65505791  1
  P  P12  1  0.43396007  0.61403517  0.88596483  1
  P  P13  1  0.14733110  0.89056212  0.18139579  1
  P  P14  1  0.78865061  0.84494209  0.94443733  1
  P  P15  1  0.28865061  0.44443733  0.34494209  1
  P  P16  1  0.57803003  0.15505791  0.05556267  1
  P  P17  1  0.64733110  0.68139579  0.39056212  1
  P  P18  1  0.21928900  0.10943788  0.81860421  1
  P  P19  1  0.93396007  0.38596483  0.11403517  1
  O  O20  1  0.27756875  0.83260586  0.08836503  1
  O  O21  1  0.05402287  0.26687686  0.10333741  1
  O  O22  1  0.75868543  0.39013384  0.10986616  1
  O  O23  1  0.19802340  0.43110494  0.66709165  1
  O  O24  1  0.69853964  0.41163497  0.66739414  1
  O  O25  1  0.29967501  0.18355192  0.69440389  1
  O  O26  1  0.49942522  0.51170372  0.98829628  1
  O  O27  1  0.96940485  0.89659983  0.18025412  1
  O  O28  1  0.17763082  0.81644808  0.30559611  1
  O  O29  1  0.33184483  0.35291018  0.46113704  1
  O  O30  1  0.40447172  0.15599064  0.05055797  1
  O  O31  1  0.99942522  0.48829628  0.01170372  1
  O  O32  1  0.92423714  0.39666259  0.23312314  1
  O  O33  1  0.25868543  0.60986616  0.89013384  1
  O  O34  1  0.77756875  0.58836503  0.33260586  1
  O  O35  1  0.67763082  0.80559611  0.31644808  1
  O  O36  1  0.55402287  0.60333741  0.76687686  1
  O  O37  1  0.61102033  0.84400936  0.94944203  1
  O  O38  1  0.04625880  0.10340017  0.81974588  1
  O  O39  1  0.06281097  0.59386746  0.75964177  1
  O  O40  1  0.11102033  0.44944203  0.34400936  1
  O  O41  1  0.56281097  0.25964177  0.09386746  1
  O  O42  1  0.46940485  0.68025412  0.39659983  1
  O  O43  1  0.29621998  0.56889506  0.33290835  1
  O  O44  1  0.16362431  0.01660199  0.15429860  1
  O  O45  1  0.83452490  0.34570140  0.48339801  1
  O  O46  1  0.91632020  0.74035823  0.90613254  1
  O  O47  1  0.66362431  0.65429860  0.51660199  1
  O  O48  1  0.83184483  0.96113704  0.85291018  1
  O  O49  1  0.79967501  0.19440389  0.68355192  1
  O  O50  1  0.42423714  0.73312314  0.89666259  1
  O  O51  1  0.79621998  0.83290835  0.06889506  1
  O  O52  1  0.41632020  0.40613254  0.24035823  1
  O  O53  1  0.90447172  0.55055797  0.65599064  1
  O  O54  1  0.14589205  0.64708982  0.53886296  1
  O  O55  1  0.54625880  0.31974588  0.60340017  1
  O  O56  1  0.69802340  0.16709165  0.93110494  1
  O  O57  1  0.64589205  0.03886296  0.14708982  1
  O  O58  1  0.33452490  0.98339801  0.84570140  1
  O  O59  1  0.19853964  0.16739414  0.91163497  1
