# generated using pymatgen
data_AlPO4
_symmetry_space_group_name_H-M   'P 1'
_cell_length_a   8.59217838
_cell_length_b   9.90434389
_cell_length_c   14.12800221
_cell_angle_alpha   110.72555956
_cell_angle_beta   90.00000000
_cell_angle_gamma   90.00000000
_symmetry_Int_Tables_number   1
_chemical_formula_structural   AlPO4
_chemical_formula_sum   'Al10 P10 O40'
_cell_volume   1124.48664303
_cell_formula_units_Z   10
loop_
 _symmetry_equiv_pos_site_id
 _symmetry_equiv_pos_as_xyz
  1  'x, y, z'
loop_
 _atom_site_type_symbol
 _atom_site_label
 _atom_site_symmetry_multiplicity
 _atom_site_fract_x
 _atom_site_fract_y
 _atom_site_fract_z
 _atom_site_occupancy
  Al  Al0  1  0.63889359  0.55735454  0.12420897  1
  Al  Al1  1  0.63580612  0.72012034  0.44461281  1
  Al  Al2  1  0.63824747  0.56698048  0.73045509  1
  Al  Al3  1  0.13824747  0.43301952  0.26954491  1
  Al  Al4  1  0.63367194  0.14958603  0.73103153  1
  Al  Al5  1  0.13367194  0.85041397  0.26896847  1
  Al  Al6  1  0.13580612  0.27987966  0.55538719  1
  Al  Al7  1  0.13723388  0.82154222  0.65876914  1
  Al  Al8  1  0.13889359  0.44264546  0.87579103  1
  Al  Al9  1  0.63723388  0.17845778  0.34123086  1
  P  P10  1  0.01655842  0.55264651  0.10771421  1
  P  P11  1  0.00920440  0.72111000  0.43098956  1
  P  P12  1  0.50841093  0.43430891  0.28917284  1
  P  P13  1  0.01249358  0.14892904  0.72009837  1
  P  P14  1  0.00841093  0.56569109  0.71082716  1
  P  P15  1  0.51655842  0.44735349  0.89228579  1
  P  P16  1  0.01082110  0.17099811  0.32206146  1
  P  P17  1  0.51082110  0.82900189  0.67793854  1
  P  P18  1  0.50920440  0.27889000  0.56901044  1
  P  P19  1  0.51249358  0.85107096  0.27990163  1
  O  O20  1  0.55738225  0.49211349  0.00429061  1
  O  O21  1  0.57961206  -0.00111084  0.29160514  1
  O  O22  1  0.34047156  0.45998927  0.88085799  1
  O  O23  1  0.07247569  0.82264000  0.37910176  1
  O  O24  1  0.05738225  0.50788651  0.99570939  1
  O  O25  1  0.10135861  0.45135073  0.15236431  1
  O  O26  1  0.83387821  0.52971546  0.69781468  1
  O  O27  1  0.05586168  0.01237838  0.26789212  1
  O  O28  1  0.55586168  0.98762162  0.73210788  1
  O  O29  1  0.09670746  0.46480888  0.61715116  1
  O  O30  1  0.08654566  0.26133784  0.81429609  1
  O  O31  1  0.57247569  0.17736000  0.62089824  1
  O  O32  1  0.33595806  0.24660632  0.54486194  1
  O  O33  1  0.06700284  0.71017475  0.16207474  1
  O  O34  1  0.56255015  0.77788046  0.56687056  1
  O  O35  1  0.83603945  0.14643551  0.73402027  1
  O  O36  1  0.60101260  0.25242730  0.47123776  1
  O  O37  1  0.52631360  0.43793664  0.63813883  1
  O  O38  1  0.33387821  0.47028454  0.30218532  1
  O  O39  1  0.02631360  0.56206336  0.36186117  1
  O  O40  1  0.59670746  0.53519112  0.38284884  1
  O  O41  1  0.56755489  0.45385168  0.19244395  1
  O  O42  1  0.09065730  0.26045886  0.26656018  1
  O  O43  1  0.06755489  0.54614832  0.80755605  1
  O  O44  1  0.58654566  0.73866216  0.18570391  1
  O  O45  1  0.59065730  0.73954114  0.73343982  1
  O  O46  1  0.33453728  0.81107314  0.68275192  1
  O  O47  1  0.10101260  0.74757270  0.52876224  1
  O  O48  1  0.53424331  0.27686432  0.28010732  1
  O  O49  1  0.07961206  1.00111084  0.70839486  1
  O  O50  1  0.03424331  0.72313568  0.71989268  1
  O  O51  1  0.83453728  0.18892686  0.31724808  1
  O  O52  1  0.06255015  0.22211954  0.43312944  1
  O  O53  1  0.56700284  0.28982525  0.83792526  1
  O  O54  1  0.04849589  0.18476355  0.62478164  1
  O  O55  1  0.54849589  0.81523645  0.37521836  1
  O  O56  1  0.33603945  0.85356449  0.26597973  1
  O  O57  1  0.83595806  0.75339368  0.45513806  1
  O  O58  1  0.84047156  0.54001073  0.11914201  1
  O  O59  1  0.60135861  0.54864927  0.84763569  1
