# generated using pymatgen
data_Cd(IO3)2
_symmetry_space_group_name_H-M   'P 1'
_cell_length_a   5.59748946
_cell_length_b   11.34823716
_cell_length_c   17.87955917
_cell_angle_alpha   90.00000000
_cell_angle_beta   90.00000000
_cell_angle_gamma   90.00000000
_symmetry_Int_Tables_number   1
_chemical_formula_structural   Cd(IO3)2
_chemical_formula_sum   'Cd8 I16 O48'
_cell_volume   1135.73888328
_cell_formula_units_Z   8
loop_
 _symmetry_equiv_pos_site_id
 _symmetry_equiv_pos_as_xyz
  1  'x, y, z'
loop_
 _atom_site_type_symbol
 _atom_site_label
 _atom_site_symmetry_multiplicity
 _atom_site_fract_x
 _atom_site_fract_y
 _atom_site_fract_z
 _atom_site_occupancy
  Cd  Cd0  1  0.27336552  0.63208300  0.11149073  1
  Cd  Cd1  1  0.21966947  0.84915674  0.94070333  1
  Cd  Cd2  1  0.78033053  0.34915674  0.05929667  1
  Cd  Cd3  1  0.72663448  0.63208300  0.61149073  1
  Cd  Cd4  1  0.27336552  0.13208300  0.38850927  1
  Cd  Cd5  1  0.72663448  0.13208300  0.88850927  1
  Cd  Cd6  1  0.78033053  0.84915674  0.44070333  1
  Cd  Cd7  1  0.21966947  0.34915674  0.55929667  1
  I  I8  1  0.27170216  0.37629054  0.19720135  1
  I  I9  1  0.32067308  0.36323391  0.89078387  1
  I  I10  1  0.78532350  0.60706174  0.96990068  1
  I  I11  1  0.19771782  0.62118531  0.77671642  1
  I  I12  1  0.67932692  0.86323391  0.10921613  1
  I  I13  1  0.72829784  0.37629054  0.69720135  1
  I  I14  1  0.72829784  0.87629054  0.80279865  1
  I  I15  1  0.78532350  0.10706174  0.53009932  1
  I  I16  1  0.19771782  0.12118531  0.72328358  1
  I  I17  1  0.21467650  0.60706174  0.46990068  1
  I  I18  1  0.80228218  0.12118531  0.22328358  1
  I  I19  1  0.32067308  0.86323391  0.60921613  1
  I  I20  1  0.27170216  0.87629054  0.30279865  1
  I  I21  1  0.80228218  0.62118531  0.27671642  1
  I  I22  1  0.67932692  0.36323391  0.39078387  1
  I  I23  1  0.21467650  0.10706174  0.03009932  1
  O  O24  1  0.48519796  0.79506810  0.85025199  1
  O  O25  1  0.11196258  0.43413422  0.11369819  1
  O  O26  1  0.57688205  0.51837774  0.71101671  1
  O  O27  1  0.46020942  0.80148925  0.52337650  1
  O  O28  1  0.98948238  0.69100099  0.35107870  1
  O  O29  1  0.57688205  0.01837774  0.78898329  1
  O  O30  1  0.96490705  0.69318515  0.51545431  1
  O  O31  1  0.93775569  0.46535718  0.95802994  1
  O  O32  1  0.98948238  0.19100099  0.14892130  1
  O  O33  1  0.51480204  0.79506810  0.35025199  1
  O  O34  1  0.01051762  0.19100099  0.64892130  1
  O  O35  1  0.46437971  0.29016026  0.32658266  1
  O  O36  1  0.93775569  0.96535718  0.54197006  1
  O  O37  1  0.53979058  0.80148925  0.02337650  1
  O  O38  1  0.96033518  0.18347774  0.30425756  1
  O  O39  1  0.88803742  0.93413422  0.88630181  1
  O  O40  1  0.03966482  0.18347774  0.80425756  1
  O  O41  1  0.46437971  0.79016026  0.17341734  1
  O  O42  1  0.03966482  0.68347774  0.69574244  1
  O  O43  1  0.96033518  0.68347774  0.19574244  1
  O  O44  1  0.44379898  0.51298205  0.89073173  1
  O  O45  1  0.53562029  0.29016026  0.82658266  1
  O  O46  1  0.53562029  0.79016026  0.67341734  1
  O  O47  1  0.62560971  0.05334367  0.44588585  1
  O  O48  1  0.07715266  0.47001242  0.77917759  1
  O  O49  1  0.55620102  0.01298205  0.10926827  1
  O  O50  1  0.55620102  0.51298205  0.39073173  1
  O  O51  1  0.44379898  0.01298205  0.60926827  1
  O  O52  1  0.62560971  0.55334367  0.05411415  1
  O  O53  1  0.37439029  0.55334367  0.55411415  1
  O  O54  1  0.01051762  0.69100099  0.85107870  1
  O  O55  1  0.11196258  0.93413422  0.38630181  1
  O  O56  1  0.96490705  0.19318515  0.98454569  1
  O  O57  1  0.03509295  0.19318515  0.48454569  1
  O  O58  1  0.37439029  0.05334367  0.94588585  1
  O  O59  1  0.92284734  0.47001242  0.27917759  1
  O  O60  1  0.03509295  0.69318515  0.01545431  1
  O  O61  1  0.06224431  0.96535718  0.04197006  1
  O  O62  1  0.07715266  0.97001242  0.72082241  1
  O  O63  1  0.42311795  0.01837774  0.28898329  1
  O  O64  1  0.42311795  0.51837774  0.21101671  1
  O  O65  1  0.92284734  0.97001242  0.22082241  1
  O  O66  1  0.48519796  0.29506810  0.64974801  1
  O  O67  1  0.53979058  0.30148925  0.47662350  1
  O  O68  1  0.51480204  0.29506810  0.14974801  1
  O  O69  1  0.88803742  0.43413422  0.61369819  1
  O  O70  1  0.46020942  0.30148925  0.97662350  1
  O  O71  1  0.06224431  0.46535718  0.45802994  1
