# generated using pymatgen
data_Ag2BrNO3
_symmetry_space_group_name_H-M   'P 1'
_cell_length_a   5.15686005
_cell_length_b   6.90573147
_cell_length_c   13.26076123
_cell_angle_alpha   90.00000000
_cell_angle_beta   90.00000000
_cell_angle_gamma   90.00000000
_symmetry_Int_Tables_number   1
_chemical_formula_structural   Ag2BrNO3
_chemical_formula_sum   'Ag8 Br4 N4 O12'
_cell_volume   472.24077997
_cell_formula_units_Z   4
loop_
 _symmetry_equiv_pos_site_id
 _symmetry_equiv_pos_as_xyz
  1  'x, y, z'
loop_
 _atom_site_type_symbol
 _atom_site_label
 _atom_site_symmetry_multiplicity
 _atom_site_fract_x
 _atom_site_fract_y
 _atom_site_fract_z
 _atom_site_occupancy
  Ag  Ag0  1  0.25000000  0.85410575  0.74532149  1
  Ag  Ag1  1  0.25000000  0.24785922  0.03124638  1
  Ag  Ag2  1  0.75000000  0.25214078  0.53124638  1
  Ag  Ag3  1  0.75000000  0.75214078  0.96875362  1
  Ag  Ag4  1  0.75000000  0.64589425  0.24532149  1
  Ag  Ag5  1  0.75000000  0.14589425  0.25467851  1
  Ag  Ag6  1  0.25000000  0.74785922  0.46875362  1
  Ag  Ag7  1  0.25000000  0.35410575  0.75467851  1
  Br  Br8  1  0.75000000  0.38800620  0.09175912  1
  Br  Br9  1  0.25000000  0.11199380  0.59175912  1
  Br  Br10  1  0.75000000  0.88800620  0.40824088  1
  Br  Br11  1  0.25000000  0.61199380  0.90824088  1
  N  N12  1  0.25000000  0.35632244  0.35230354  1
  N  N13  1  0.25000000  0.85632244  0.14769646  1
  N  N14  1  0.75000000  0.64367756  0.64769646  1
  N  N15  1  0.75000000  0.14367756  0.85230354  1
  O  O16  1  0.25000000  0.71322989  0.20736636  1
  O  O17  1  0.46304866  0.92966833  0.11758203  1
  O  O18  1  0.75000000  0.28677011  0.79263364  1
  O  O19  1  0.03695134  0.92966833  0.11758203  1
  O  O20  1  0.46304866  0.42966833  0.38241797  1
  O  O21  1  0.03695134  0.42966833  0.38241797  1
  O  O22  1  0.25000000  0.21322989  0.29263364  1
  O  O23  1  0.75000000  0.78677011  0.70736636  1
  O  O24  1  0.96304866  0.57033167  0.61758203  1
  O  O25  1  0.53695134  0.07033167  0.88241797  1
  O  O26  1  0.53695134  0.57033167  0.61758203  1
  O  O27  1  0.96304866  0.07033167  0.88241797  1
