# generated using pymatgen
data_AlPO4
_symmetry_space_group_name_H-M   'P 1'
_cell_length_a   13.86563601
_cell_length_b   13.86563594
_cell_length_c   20.19726583
_cell_angle_alpha   90.00000000
_cell_angle_beta   90.00000000
_cell_angle_gamma   120.00000019
_symmetry_Int_Tables_number   1
_chemical_formula_structural   AlPO4
_chemical_formula_sum   'Al24 P24 O96'
_cell_volume   3362.81364310
_cell_formula_units_Z   24
loop_
 _symmetry_equiv_pos_site_id
 _symmetry_equiv_pos_as_xyz
  1  'x, y, z'
loop_
 _atom_site_type_symbol
 _atom_site_label
 _atom_site_symmetry_multiplicity
 _atom_site_fract_x
 _atom_site_fract_y
 _atom_site_fract_z
 _atom_site_occupancy
  Al  Al0  1  0.56307616  0.66817244  0.32682651  1
  Al  Al1  1  0.99656825  0.22750145  0.57606804  1
  Al  Al2  1  0.23093320  0.00343175  0.57606804  1
  Al  Al3  1  0.56307616  0.89490372  0.17317349  1
  Al  Al4  1  0.99656825  0.76906680  0.92393196  1
  Al  Al5  1  0.10509628  0.43692384  0.32682651  1
  Al  Al6  1  0.66817244  0.56307616  0.82682651  1
  Al  Al7  1  0.23093320  0.22750145  0.92393196  1
  Al  Al8  1  0.22750145  0.99656825  0.07606804  1
  Al  Al9  1  0.77249855  0.76906680  0.57606804  1
  Al  Al10  1  0.77249855  0.00343175  0.92393196  1
  Al  Al11  1  0.89490372  0.33182756  0.82682651  1
  Al  Al12  1  0.66817244  0.10509628  0.67317349  1
  Al  Al13  1  0.33182756  0.43692384  0.17317349  1
  Al  Al14  1  0.43692384  0.33182756  0.67317349  1
  Al  Al15  1  0.33182756  0.89490372  0.32682651  1
  Al  Al16  1  0.89490372  0.56307616  0.67317349  1
  Al  Al17  1  0.00343175  0.77249855  0.42393196  1
  Al  Al18  1  0.43692384  0.10509628  0.82682651  1
  Al  Al19  1  0.10509628  0.66817244  0.17317349  1
  Al  Al20  1  0.76906680  0.99656825  0.42393196  1
  Al  Al21  1  0.00343175  0.23093320  0.07606804  1
  Al  Al22  1  0.76906680  0.77249855  0.07606804  1
  Al  Al23  1  0.22750145  0.23093320  0.42393196  1
  P  P24  1  0.00374896  0.23083104  0.92055051  1
  P  P25  1  0.10417806  0.43950623  0.17010746  1
  P  P26  1  0.99625104  0.76916896  0.07944949  1
  P  P27  1  0.89582194  0.33532817  0.67010746  1
  P  P28  1  0.33532817  0.89582194  0.17010746  1
  P  P29  1  0.77291792  0.00374896  0.07944949  1
  P  P30  1  0.76916896  0.77291792  0.92055051  1
  P  P31  1  0.43950623  0.33532817  0.82989254  1
  P  P32  1  0.76916896  0.99625104  0.57944949  1
  P  P33  1  0.23083104  0.00374896  0.42055051  1
  P  P34  1  0.89582194  0.56049377  0.82989254  1
  P  P35  1  0.23083104  0.22708208  0.07944949  1
  P  P36  1  0.56049377  0.89582194  0.32989254  1
  P  P37  1  0.22708208  0.99625104  0.92055051  1
  P  P38  1  0.77291792  0.76916896  0.42055051  1
  P  P39  1  0.66467183  0.56049377  0.67010746  1
  P  P40  1  0.22708208  0.23083104  0.57944949  1
  P  P41  1  0.56049377  0.66467183  0.17010746  1
  P  P42  1  0.33532817  0.43950623  0.32989254  1
  P  P43  1  0.00374896  0.77291792  0.57944949  1
  P  P44  1  0.43950623  0.10417806  0.67010746  1
  P  P45  1  0.10417806  0.66467183  0.32989254  1
  P  P46  1  0.99625104  0.22708208  0.42055051  1
  P  P47  1  0.66467183  0.10417806  0.82989254  1
  O  O48  1  0.30875222  0.32236076  0.12549918  1
  O  O49  1  0.67763924  0.69124778  0.37450082  1
  O  O50  1  0.45902252  0.90650919  0.34835478  1
  O  O51  1  0.91070970  0.80173050  0.58929592  1
  O  O52  1  0.30875222  0.98639146  0.37450082  1
  O  O53  1  0.24001031  0.12439346  0.09686355  1
  O  O54  1  0.69124778  0.67763924  0.87450082  1
  O  O55  1  0.00423428  0.26720763  0.99272170  1
  O  O56  1  0.59376238  0.66518922  0.24291217  1
  O  O57  1  0.54097748  0.09349081  0.65164522  1
  O  O58  1  0.32236076  0.01360854  0.87450082  1
  O  O59  1  0.73702665  0.73279237  0.49272170  1
  O  O60  1  0.69124778  0.01360854  0.62549918  1
  O  O61  1  0.40623762  0.07142683  0.74291217  1
  O  O62  1  0.45902252  0.55251333  0.15164522  1
  O  O63  1  0.75747858  0.53190065  0.65853722  1
  O  O64  1  0.09349081  0.55251333  0.34835478  1
  O  O65  1  0.24001031  0.11561685  0.40313645  1
  O  O66  1  0.24252142  0.77442207  0.15853722  1
  O  O67  1  0.31792128  0.34221165  0.37404584  1
  O  O68  1  0.34221165  0.31792128  0.87404584  1
  O  O69  1  0.54097748  0.44748667  0.84835478  1
  O  O70  1  0.26297335  0.26720763  0.50727830  1
  O  O71  1  0.26720763  0.00423428  0.49272170  1
  O  O72  1  0.89102080  0.80173050  0.91070408  1
  O  O73  1  0.98639146  0.67763924  0.62549918  1
  O  O74  1  0.01360854  0.32236076  0.37450082  1
  O  O75  1  0.01360854  0.69124778  0.12549918  1
  O  O76  1  0.10897920  0.91070970  0.41070408  1
  O  O77  1  0.91070970  0.10897920  0.91070408  1
  O  O78  1  0.09349081  0.54097748  0.15164522  1
  O  O79  1  0.65778835  0.97570963  0.37404584  1
  O  O80  1  0.87560654  0.11561685  0.09686355  1
  O  O81  1  0.68207872  0.02429037  0.87404584  1
  O  O82  1  0.66518922  0.07142683  0.75708783  1
  O  O83  1  0.22557793  0.75747858  0.34146278  1
  O  O84  1  0.32236076  0.30875222  0.62549918  1
  O  O85  1  0.26720763  0.26297335  0.00727830  1
  O  O86  1  0.24252142  0.46809935  0.34146278  1
  O  O87  1  0.53190065  0.77442207  0.34146278  1
  O  O88  1  0.19826950  0.10897920  0.58929592  1
  O  O89  1  0.66518922  0.59376238  0.74291217  1
  O  O90  1  0.88438315  0.12439346  0.40313645  1
  O  O91  1  0.75998969  0.88438315  0.59686355  1
  O  O92  1  0.08929030  0.89102080  0.08929592  1
  O  O93  1  0.08929030  0.19826950  0.41070408  1
  O  O94  1  0.99576572  0.26297335  0.49272170  1
  O  O95  1  0.34221165  0.02429037  0.62595416  1
  O  O96  1  0.19826950  0.08929030  0.91070408  1
  O  O97  1  0.88438315  0.75998969  0.09686355  1
  O  O98  1  0.90650919  0.44748667  0.65164522  1
  O  O99  1  0.80173050  0.89102080  0.41070408  1
  O  O100  1  0.22557793  0.46809935  0.15853722  1
  O  O101  1  0.44748667  0.54097748  0.34835478  1
  O  O102  1  0.33481078  0.40623762  0.25708783  1
  O  O103  1  0.73279237  0.73702665  0.99272170  1
  O  O104  1  0.33481078  0.92857317  0.24291217  1
  O  O105  1  0.97570963  0.31792128  0.62595416  1
  O  O106  1  0.55251333  0.45902252  0.65164522  1
  O  O107  1  0.67763924  0.98639146  0.12549918  1
  O  O108  1  0.40623762  0.33481078  0.75708783  1
  O  O109  1  0.00423428  0.73702665  0.50727830  1
  O  O110  1  0.98639146  0.30875222  0.87450082  1
  O  O111  1  0.80173050  0.91070970  0.08929592  1
  O  O112  1  0.87560654  0.75998969  0.40313645  1
  O  O113  1  0.89102080  0.08929030  0.58929592  1
  O  O114  1  0.46809935  0.22557793  0.65853722  1
  O  O115  1  0.59376238  0.92857317  0.25708783  1
  O  O116  1  0.11561685  0.24001031  0.90313645  1
  O  O117  1  0.75747858  0.22557793  0.84146278  1
  O  O118  1  0.92857317  0.59376238  0.75708783  1
  O  O119  1  0.10897920  0.19826950  0.08929592  1
  O  O120  1  0.07142683  0.66518922  0.25708783  1
  O  O121  1  0.26297335  0.99576572  0.99272170  1
  O  O122  1  0.44748667  0.90650919  0.15164522  1
  O  O123  1  0.12439346  0.88438315  0.90313645  1
  O  O124  1  0.02429037  0.34221165  0.12595416  1
  O  O125  1  0.07142683  0.40623762  0.24291217  1
  O  O126  1  0.99576572  0.73279237  0.00727830  1
  O  O127  1  0.90650919  0.45902252  0.84835478  1
  O  O128  1  0.12439346  0.24001031  0.59686355  1
  O  O129  1  0.11561685  0.87560654  0.59686355  1
  O  O130  1  0.97570963  0.65778835  0.87404584  1
  O  O131  1  0.31792128  0.97570963  0.12595416  1
  O  O132  1  0.77442207  0.24252142  0.65853722  1
  O  O133  1  0.73279237  0.99576572  0.50727830  1
  O  O134  1  0.65778835  0.68207872  0.12595416  1
  O  O135  1  0.73702665  0.00423428  0.00727830  1
  O  O136  1  0.02429037  0.68207872  0.37404584  1
  O  O137  1  0.68207872  0.65778835  0.62595416  1
  O  O138  1  0.77442207  0.53190065  0.84146278  1
  O  O139  1  0.53190065  0.75747858  0.15853722  1
  O  O140  1  0.55251333  0.09349081  0.84835478  1
  O  O141  1  0.75998969  0.87560654  0.90313645  1
  O  O142  1  0.92857317  0.33481078  0.74291217  1
  O  O143  1  0.46809935  0.24252142  0.84146278  1
