# generated using pymatgen
data_Mn3CuAs2
_symmetry_space_group_name_H-M   'P 1'
_cell_length_a   3.54790571
_cell_length_b   7.28942585
_cell_length_c   12.70097587
_cell_angle_alpha   90.00000000
_cell_angle_beta   90.00000000
_cell_angle_gamma   90.00000000
_symmetry_Int_Tables_number   1
_chemical_formula_structural   Mn3CuAs2
_chemical_formula_sum   'Mn12 Cu4 As8'
_cell_volume   328.47512221
_cell_formula_units_Z   4
loop_
 _symmetry_equiv_pos_site_id
 _symmetry_equiv_pos_as_xyz
  1  'x, y, z'
loop_
 _atom_site_type_symbol
 _atom_site_label
 _atom_site_symmetry_multiplicity
 _atom_site_fract_x
 _atom_site_fract_y
 _atom_site_fract_z
 _atom_site_occupancy
  Mn  Mn0  1  0.25000000  0.19174528  0.81025525  1
  Mn  Mn1  1  0.25000000  0.30825472  0.31025525  1
  Mn  Mn2  1  0.75000000  0.80825472  0.18974475  1
  Mn  Mn3  1  0.75000000  0.69174528  0.68974475  1
  Mn  Mn4  1  0.25000000  0.80033492  0.84796386  1
  Mn  Mn5  1  0.25000000  0.69966508  0.34796386  1
  Mn  Mn6  1  0.75000000  0.19966508  0.15203614  1
  Mn  Mn7  1  0.75000000  0.30033492  0.65203614  1
  Mn  Mn8  1  0.75000000  0.44769394  0.89316518  1
  Mn  Mn9  1  0.75000000  0.05230606  0.39316518  1
  Mn  Mn10  1  0.25000000  0.55230606  0.10683482  1
  Mn  Mn11  1  0.25000000  0.94769394  0.60683482  1
  Cu  Cu12  1  0.75000000  0.05958970  0.94106884  1
  Cu  Cu13  1  0.75000000  0.44041030  0.44106884  1
  Cu  Cu14  1  0.25000000  0.94041030  0.05893116  1
  Cu  Cu15  1  0.25000000  0.55958970  0.55893116  1
  As  As16  1  0.75000000  -0.00162485  0.74715524  1
  As  As17  1  0.75000000  0.50162485  0.24715524  1
  As  As18  1  0.25000000  0.00162485  0.25284476  1
  As  As19  1  0.25000000  0.49837515  0.75284476  1
  As  As20  1  0.25000000  0.27548493  0.00165298  1
  As  As21  1  0.25000000  0.22451507  0.50165298  1
  As  As22  1  0.75000000  0.72451507  0.99834702  1
  As  As23  1  0.75000000  0.77548493  0.49834702  1
