# generated using pymatgen
data_BaWO4
_symmetry_space_group_name_H-M   'P 1'
_cell_length_a   7.29019848
_cell_length_b   7.63204825
_cell_length_c   13.50054834
_cell_angle_alpha   94.30804636
_cell_angle_beta   90.00000000
_cell_angle_gamma   90.00000000
_symmetry_Int_Tables_number   1
_chemical_formula_structural   BaWO4
_chemical_formula_sum   'Ba8 W8 O32'
_cell_volume   749.03665835
_cell_formula_units_Z   8
loop_
 _symmetry_equiv_pos_site_id
 _symmetry_equiv_pos_as_xyz
  1  'x, y, z'
loop_
 _atom_site_type_symbol
 _atom_site_label
 _atom_site_symmetry_multiplicity
 _atom_site_fract_x
 _atom_site_fract_y
 _atom_site_fract_z
 _atom_site_occupancy
  Ba  Ba0  1  0.65923278  0.15722505  0.16000851  1
  Ba  Ba1  1  0.15923278  0.34277495  0.33999149  1
  Ba  Ba2  1  0.34076722  0.84277495  0.83999149  1
  Ba  Ba3  1  0.84076722  0.65722505  0.66000851  1
  Ba  Ba4  1  0.93580735  0.63969527  0.14862559  1
  Ba  Ba5  1  0.43580735  0.86030473  0.35137441  1
  Ba  Ba6  1  0.06419265  0.36030473  0.85137441  1
  Ba  Ba7  1  0.56419265  0.13969527  0.64862559  1
  W  W8  1  0.15960794  0.09083176  0.07782312  1
  W  W9  1  0.65960794  0.40916824  0.42217688  1
  W  W10  1  0.84039206  0.90916824  0.92217688  1
  W  W11  1  0.34039206  0.59083176  0.57782312  1
  W  W12  1  0.44939842  0.66274125  0.07903045  1
  W  W13  1  0.94939842  0.83725875  0.42096955  1
  W  W14  1  0.55060158  0.33725875  0.92096955  1
  W  W15  1  0.05060158  0.16274125  0.57903045  1
  O  O16  1  0.02269149  0.28977163  0.10863223  1
  O  O17  1  0.52269149  0.21022837  0.39136777  1
  O  O18  1  0.97730851  0.71022837  0.89136777  1
  O  O19  1  0.47730851  0.78977163  0.60863223  1
  O  O20  1  0.58705043  0.79350252  0.17221060  1
  O  O21  1  0.08705043  0.70649748  0.32778940  1
  O  O22  1  0.41294957  0.20649748  0.82778940  1
  O  O23  1  0.91294957  0.29350252  0.67221060  1
  O  O24  1  0.63471582  0.47306151  0.05508050  1
  O  O25  1  0.13471582  0.02693849  0.44491950  1
  O  O26  1  0.36528418  0.52693849  0.94491950  1
  O  O27  1  0.86528418  0.97306151  0.55508050  1
  O  O28  1  0.25086497  0.06900016  0.20449365  1
  O  O29  1  0.75086497  0.43099984  0.29550635  1
  O  O30  1  0.74913503  0.93099984  0.79550635  1
  O  O31  1  0.24913503  0.56900016  0.70449365  1
  O  O32  1  0.27618696  0.83453599  0.04450757  1
  O  O33  1  0.77618696  0.66546401  0.45549243  1
  O  O34  1  0.72381304  0.16546401  0.95549243  1
  O  O35  1  0.22381304  0.33453599  0.54450757  1
  O  O36  1  0.30816085  0.55227036  0.16471979  1
  O  O37  1  0.80816085  0.94772964  0.33528021  1
  O  O38  1  0.69183915  0.44772964  0.83528021  1
  O  O39  1  0.19183915  0.05227036  0.66471979  1
  O  O40  1  0.36972689  0.19369502  0.02537301  1
  O  O41  1  0.86972689  0.30630498  0.47462699  1
  O  O42  1  0.63027311  0.80630498  0.97462699  1
  O  O43  1  0.13027311  0.69369502  0.52537301  1
  O  O44  1  0.92700997  0.94855691  0.07545937  1
  O  O45  1  0.42700997  0.55144309  0.42454063  1
  O  O46  1  0.07299003  0.05144309  0.92454063  1
  O  O47  1  0.57299003  0.44855691  0.57545937  1
