# generated using pymatgen
data_AlS2NCl4
_symmetry_space_group_name_H-M   'P 1'
_cell_length_a   7.58803031
_cell_length_b   11.47805652
_cell_length_c   10.93618228
_cell_angle_alpha   90.00000000
_cell_angle_beta   90.00000000
_cell_angle_gamma   90.00000000
_symmetry_Int_Tables_number   1
_chemical_formula_structural   AlS2NCl4
_chemical_formula_sum   'Al4 S8 N4 Cl16'
_cell_volume   952.49599053
_cell_formula_units_Z   4
loop_
 _symmetry_equiv_pos_site_id
 _symmetry_equiv_pos_as_xyz
  1  'x, y, z'
loop_
 _atom_site_type_symbol
 _atom_site_label
 _atom_site_symmetry_multiplicity
 _atom_site_fract_x
 _atom_site_fract_y
 _atom_site_fract_z
 _atom_site_occupancy
  Al  Al0  1  0.25000000  0.60719088  0.20072895  1
  Al  Al1  1  0.75000000  0.89280912  0.70072895  1
  Al  Al2  1  0.75000000  0.39280912  0.79927105  1
  Al  Al3  1  0.25000000  0.10719088  0.29927105  1
  S  S4  1  0.75000000  0.37283195  0.16104256  1
  S  S5  1  0.75000000  0.33701115  0.43273662  1
  S  S6  1  0.25000000  0.66298885  0.56726338  1
  S  S7  1  0.25000000  0.16298885  0.93273662  1
  S  S8  1  0.75000000  0.87283195  0.33895744  1
  S  S9  1  0.25000000  0.12716805  0.66104256  1
  S  S10  1  0.75000000  0.83701115  0.06726338  1
  S  S11  1  0.25000000  0.62716805  0.83895744  1
  N  N12  1  0.25000000  0.14599731  0.79658631  1
  N  N13  1  0.75000000  0.35400269  0.29658631  1
  N  N14  1  0.75000000  0.85400269  0.20341369  1
  N  N15  1  0.25000000  0.64599731  0.70341369  1
  Cl  Cl16  1  0.97983675  0.39261219  0.68296816  1
  Cl  Cl17  1  0.75000000  0.04231272  0.58068135  1
  Cl  Cl18  1  0.75000000  0.23783985  0.91175683  1
  Cl  Cl19  1  0.47983675  0.10738781  0.18296816  1
  Cl  Cl20  1  0.25000000  0.76216015  0.08824317  1
  Cl  Cl21  1  0.47983675  0.60738781  0.31703184  1
  Cl  Cl22  1  0.75000000  0.73783985  0.58824317  1
  Cl  Cl23  1  0.75000000  0.54231272  0.91931865  1
  Cl  Cl24  1  0.25000000  0.95768728  0.41931865  1
  Cl  Cl25  1  0.97983675  0.89261219  0.81703184  1
  Cl  Cl26  1  0.52016325  0.89261219  0.81703184  1
  Cl  Cl27  1  0.25000000  0.45768728  0.08068135  1
  Cl  Cl28  1  0.02016325  0.60738781  0.31703184  1
  Cl  Cl29  1  0.25000000  0.26216015  0.41175683  1
  Cl  Cl30  1  0.52016325  0.39261219  0.68296816  1
  Cl  Cl31  1  0.02016325  0.10738781  0.18296816  1
