# generated using pymatgen
data_V5O9
_symmetry_space_group_name_H-M   'P 1'
_cell_length_a   7.11783698
_cell_length_b   8.53146354
_cell_length_c   11.21787473
_cell_angle_alpha   93.31496943
_cell_angle_beta   108.65727191
_cell_angle_gamma   109.47905126
_symmetry_Int_Tables_number   1
_chemical_formula_structural   V5O9
_chemical_formula_sum   'V20 O36'
_cell_volume   598.06436760
_cell_formula_units_Z   4
loop_
 _symmetry_equiv_pos_site_id
 _symmetry_equiv_pos_as_xyz
  1  'x, y, z'
loop_
 _atom_site_type_symbol
 _atom_site_label
 _atom_site_symmetry_multiplicity
 _atom_site_fract_x
 _atom_site_fract_y
 _atom_site_fract_z
 _atom_site_occupancy
  V  V0  1  0.06256622  0.42147803  0.38859081  1
  V  V1  1  0.56623861  0.42629441  0.88376133  1
  V  V2  1  0.43376139  0.57370559  0.11623867  1
  V  V3  1  0.07639479  0.78710757  0.42865489  1
  V  V4  1  0.43418972  0.58496728  0.60988606  1
  V  V5  1  0.91084427  0.20379218  0.07941271  1
  V  V6  1  0.06622869  0.42215319  0.88988112  1
  V  V7  1  0.40798525  0.19672060  0.56926259  1
  V  V8  1  0.93377131  0.57784681  0.11011888  1
  V  V9  1  0.58237194  0.79061902  0.93162654  1
  V  V10  1  0.41762806  0.20938098  0.06837346  1
  V  V11  1  0.56581028  0.41503272  0.39011394  1
  V  V12  1  0.93743378  0.57852197  0.61140919  1
  V  V13  1  0.75399735  0.00497653  0.75438693  1
  V  V14  1  0.25295758  0.00136545  0.74886627  1
  V  V15  1  0.59201475  0.80327940  0.43073741  1
  V  V16  1  0.92360521  0.21289243  0.57134511  1
  V  V17  1  0.74704242  0.99863455  0.25113373  1
  V  V18  1  0.24600265  0.99502347  0.24561307  1
  V  V19  1  0.08915573  0.79620782  0.92058729  1
  O  O20  1  0.86829840  0.54080052  0.40789793  1
  O  O21  1  0.16455912  0.13720816  0.62554313  1
  O  O22  1  0.04811954  0.75224728  0.23625119  1
  O  O23  1  0.31105321  0.67991578  0.45720585  1
  O  O24  1  0.48960637  0.91806617  0.29413223  1
  O  O25  1  0.48136856  0.57842283  0.28199417  1
  O  O26  1  0.12243369  0.80661495  0.61061005  1
  O  O27  1  0.55067996  0.75915874  0.73746448  1
  O  O28  1  0.28637869  0.02378575  0.43650057  1
  O  O29  1  0.82498192  0.36812764  0.95784234  1
  O  O30  1  0.99226385  0.59008503  0.79415352  1
  O  O31  1  0.13170160  0.45919948  0.59210207  1
  O  O32  1  0.68894679  0.32008422  0.54279415  1
  O  O33  1  0.44932004  0.24084126  0.26253552  1
  O  O34  1  0.51863144  0.42157717  0.71800583  1
  O  O35  1  0.20621157  0.96881057  0.05996397  1
  O  O36  1  0.00773615  0.40991497  0.20584648  1
  O  O37  1  0.80258601  0.67321950  0.95488394  1
  O  O38  1  0.62769090  0.46149716  0.09170624  1
  O  O39  1  0.17501808  0.63187236  0.04215766  1
  O  O40  1  0.95188046  0.24775272  0.76374881  1
  O  O41  1  0.79378843  0.03118943  0.94003603  1
  O  O42  1  0.34654884  0.87324735  0.87564869  1
  O  O43  1  0.66733597  0.63268420  0.53918797  1
  O  O44  1  0.19741399  0.32678050  0.04511606  1
  O  O45  1  0.38402463  0.20590091  0.88900863  1
  O  O46  1  0.33266403  0.36731580  0.46081203  1
  O  O47  1  0.00558450  0.07621794  0.20700557  1
  O  O48  1  0.37230910  0.53850284  0.90829376  1
  O  O49  1  0.83544088  0.86279184  0.37445687  1
  O  O50  1  0.71362131  0.97621425  0.56349943  1
  O  O51  1  0.61597537  0.79409909  0.11099137  1
  O  O52  1  0.87756631  0.19338505  0.38938995  1
  O  O53  1  0.65345116  0.12675265  0.12435131  1
  O  O54  1  0.99441550  0.92378206  0.79299443  1
  O  O55  1  0.51039363  0.08193383  0.70586777  1
