# generated using pymatgen
data_SiO2
_symmetry_space_group_name_H-M   'P 1'
_cell_length_a   14.07355399
_cell_length_b   14.07355374
_cell_length_c   14.07355403
_cell_angle_alpha   95.60556281
_cell_angle_beta   114.98069012
_cell_angle_gamma   118.68590395
_symmetry_Int_Tables_number   1
_chemical_formula_structural   SiO2
_chemical_formula_sum   'Si36 O72'
_cell_volume   2052.35075532
_cell_formula_units_Z   36
loop_
 _symmetry_equiv_pos_site_id
 _symmetry_equiv_pos_as_xyz
  1  'x, y, z'
loop_
 _atom_site_type_symbol
 _atom_site_label
 _atom_site_symmetry_multiplicity
 _atom_site_fract_x
 _atom_site_fract_y
 _atom_site_fract_z
 _atom_site_occupancy
  Si  Si0  1  0.63735334  0.86934955  0.93489303  1
  Si  Si1  1  0.70770159  0.87389405  0.17967281  1
  Si  Si2  1  0.80577876  0.47197122  0.67967281  1
  Si  Si3  1  0.29229841  0.47197122  0.16619246  1
  Si  Si4  1  0.03931533  0.10198829  0.77263321  1
  Si  Si5  1  0.50000000  0.73113272  0.23113272  1
  Si  Si6  1  0.82935508  0.10198829  0.56267296  1
  Si  Si7  1  0.36264666  0.13065045  0.06510697  1
  Si  Si8  1  0.96068467  0.73331788  0.06267296  1
  Si  Si9  1  0.56554348  0.29753969  0.43489303  1
  Si  Si10  1  0.63187595  0.13523411  0.79655998  1
  Si  Si11  1  0.83867413  0.83531597  0.70344002  1
  Si  Si12  1  0.29229841  0.12610595  0.82032719  1
  Si  Si13  1  0.00000000  0.73113272  0.73113272  1
  Si  Si14  1  0.43445652  0.86934955  0.73199620  1
  Si  Si15  1  0.43445652  0.70246031  0.56510697  1
  Si  Si16  1  0.03931533  0.26668212  0.93732704  1
  Si  Si17  1  0.80577876  0.12610595  0.33380754  1
  Si  Si18  1  0.19422124  0.52802878  0.32032719  1
  Si  Si19  1  0.36812405  0.16468403  0.50335817  1
  Si  Si20  1  0.70770159  0.52802878  0.83380754  1
  Si  Si21  1  0.56554348  0.13065045  0.26800380  1
  Si  Si22  1  0.96068467  0.89801171  0.22736679  1
  Si  Si23  1  0.16132587  0.86476589  0.99664183  1
  Si  Si24  1  0.36812405  0.86476589  0.20344002  1
  Si  Si25  1  0.50000000  0.26886728  0.76886728  1
  Si  Si26  1  0.83867413  0.13523411  0.00335817  1
  Si  Si27  1  0.63735334  0.70246031  0.76800380  1
  Si  Si28  1  0.16132587  0.16468403  0.29655998  1
  Si  Si29  1  1.00000000  0.26886728  0.26886728  1
  Si  Si30  1  0.19422124  0.87389405  0.66619246  1
  Si  Si31  1  0.17064492  0.89801171  0.43732704  1
  Si  Si32  1  0.17064492  0.73331788  0.27263321  1
  Si  Si33  1  0.36264666  0.29753969  0.23199620  1
  Si  Si34  1  0.63187595  0.83531597  0.49664183  1
  Si  Si35  1  0.82935508  0.26668212  0.72736679  1
  O  O36  1  0.51054290  0.65543204  0.64488914  1
  O  O37  1  0.51054290  0.86565377  0.85511086  1
  O  O38  1  0.30329325  0.84858489  0.71292428  1
  O  O39  1  0.73948622  0.16341043  0.92392421  1
  O  O40  1  0.52438104  0.79628268  0.52940820  1
  O  O41  1  0.69829038  0.97258148  0.51424607  1
  O  O42  1  0.39013154  0.59189617  0.16079120  1
  O  O43  1  0.23312551  0.00502716  0.02940820  1
  O  O44  1  0.63566061  0.84858489  0.04529164  1
  O  O45  1  0.95291169  0.10964977  0.65673808  1
  O  O46  1  0.36433939  0.40963103  0.21292428  1
  O  O47  1  0.84989551  0.38889075  0.72219564  1
  O  O48  1  0.08154243  0.19892026  0.88262217  1
  O  O49  1  0.39013154  0.22934034  0.79823537  1
  O  O50  1  0.63566061  0.59036897  0.78707572  1
  O  O51  1  0.74947160  0.50000000  0.74947160  1
  O  O52  1  0.93110497  0.59189617  0.70176463  1
  O  O53  1  0.93110497  0.22934034  0.33920880  1
  O  O54  1  0.47561896  0.20371732  0.47059180  1
  O  O55  1  0.60986846  0.77065966  0.20176463  1
  O  O56  1  0.16669510  0.38889075  0.03899524  1
  O  O57  1  0.36433939  0.15141511  0.95470836  1
  O  O58  1  0.69670675  0.15141511  0.28707572  1
  O  O59  1  0.15010449  0.61110925  0.27780436  1
  O  O60  1  0.95833541  0.97258148  0.77429109  1
  O  O61  1  0.04708831  0.70382638  0.15673808  1
  O  O62  1  0.83330490  0.87230014  0.22219564  1
  O  O63  1  0.36556293  0.23352251  0.13204042  1
  O  O64  1  0.43675169  0.24333447  0.63421910  1
  O  O65  1  0.15010449  0.87230014  0.53899524  1
  O  O66  1  0.04166459  0.02741852  0.22570891  1
  O  O67  1  0.04166459  0.81595569  0.01424607  1
  O  O68  1  0.73948622  0.81556200  0.57607579  1
  O  O69  1  0.43675169  0.80253259  0.19341722  1
  O  O70  1  0.30329325  0.59036897  0.45470836  1
  O  O71  1  0.04708831  0.89035023  0.34326192  1
  O  O72  1  0.47561896  0.00502716  0.27190164  1
  O  O73  1  0.56324831  0.19746741  0.80658278  1
  O  O74  1  0.76687449  0.79628268  0.77190164  1
  O  O75  1  0.95833541  0.18404431  0.98575393  1
  O  O76  1  0.89088463  0.19746741  0.13421910  1
  O  O77  1  0.69670675  0.40963103  0.54529164  1
  O  O78  1  0.76687449  0.99497284  0.97059180  1
  O  O79  1  0.56324831  0.75666553  0.36578090  1
  O  O80  1  0.84989551  0.12769986  0.46100476  1
  O  O81  1  0.10911537  0.24333447  0.30658278  1
  O  O82  1  0.06889503  0.40810383  0.29823537  1
  O  O83  1  0.26051378  0.18443800  0.42392421  1
  O  O84  1  0.30170962  0.81595569  0.27429109  1
  O  O85  1  0.81629808  0.19892026  0.61737783  1
  O  O86  1  0.69829038  0.18404431  0.72570891  1
  O  O87  1  0.10911537  0.80253259  0.86578090  1
  O  O88  1  0.48945710  0.13434623  0.14488914  1
  O  O89  1  0.06889503  0.77065966  0.66079120  1
  O  O90  1  0.74947160  0.00000000  0.24947160  1
  O  O91  1  0.89088463  0.75666553  0.69341722  1
  O  O92  1  0.23312551  0.20371732  0.22809836  1
  O  O93  1  0.18370192  0.80107974  0.38262217  1
  O  O94  1  0.25052840  0.50000000  0.25052840  1
  O  O95  1  0.39851791  0.76647749  0.63204042  1
  O  O96  1  0.16669510  0.12769986  0.77780436  1
  O  O97  1  0.95291169  0.29617362  0.84326192  1
  O  O98  1  0.91845757  0.80107974  0.11737783  1
  O  O99  1  0.83330490  0.61110925  0.96100476  1
  O  O100  1  0.52438104  0.99497284  0.72809836  1
  O  O101  1  0.48945710  0.34456796  0.35511086  1
  O  O102  1  0.25052840  1.00000000  0.75052840  1
  O  O103  1  0.63443707  0.76647749  0.86795958  1
  O  O104  1  0.26051378  0.83658957  0.07607579  1
  O  O105  1  0.30170962  0.02741852  0.48575393  1
  O  O106  1  0.60986846  0.40810383  0.83920880  1
  O  O107  1  0.60148209  0.23352251  0.36795958  1
