# generated using pymatgen
data_LiP3PbO9
_symmetry_space_group_name_H-M   'P 1'
_cell_length_a   6.86788238
_cell_length_b   7.36161144
_cell_length_c   7.53035958
_cell_angle_alpha   83.63987502
_cell_angle_beta   79.48063261
_cell_angle_gamma   82.00517839
_symmetry_Int_Tables_number   1
_chemical_formula_structural   LiP3PbO9
_chemical_formula_sum   'Li2 P6 Pb2 O18'
_cell_volume   369.25990099
_cell_formula_units_Z   2
loop_
 _symmetry_equiv_pos_site_id
 _symmetry_equiv_pos_as_xyz
  1  'x, y, z'
loop_
 _atom_site_type_symbol
 _atom_site_label
 _atom_site_symmetry_multiplicity
 _atom_site_fract_x
 _atom_site_fract_y
 _atom_site_fract_z
 _atom_site_occupancy
  Li  Li0  1  0.45795176  0.82726926  0.83038110  1
  Li  Li1  1  0.54204824  0.17273074  0.16961890  1
  P  P2  1  0.41471881  0.38499680  0.78179238  1
  P  P3  1  0.84878643  0.28205300  0.77110391  1
  P  P4  1  0.23271373  0.15725824  0.56006739  1
  P  P5  1  0.58528119  0.61500320  0.21820762  1
  P  P6  1  0.76728627  0.84274176  0.43993261  1
  P  P7  1  0.15121357  0.71794700  0.22889609  1
  Pb  Pb8  1  0.97456224  0.76908475  0.84849201  1
  Pb  Pb9  1  0.02543776  0.23091525  0.15150799  1
  O  O10  1  0.35808652  0.58750743  0.79473185  1
  O  O11  1  0.67801325  0.67012110  0.38447613  1
  O  O12  1  0.00790717  0.77291669  0.41643741  1
  O  O13  1  0.37489857  0.25221456  0.94838083  1
  O  O14  1  0.99209283  0.22708331  0.58356259  1
  O  O15  1  0.17516602  0.88424040  0.09296929  1
  O  O16  1  0.62510143  0.74778544  0.05161917  1
  O  O17  1  0.70669114  0.85046807  0.64136786  1
  O  O18  1  0.35026968  0.64940851  0.30921635  1
  O  O19  1  0.32198675  0.32987890  0.61552387  1
  O  O20  1  0.64973032  0.35059149  0.69078365  1
  O  O21  1  0.73528340  0.01005503  0.31155676  1
  O  O22  1  0.26471660  0.98994497  0.68844324  1
  O  O23  1  0.93041067  0.43541517  0.84011452  1
  O  O24  1  0.64191348  0.41249257  0.20526815  1
  O  O25  1  0.82483398  0.11575960  0.90703071  1
  O  O26  1  0.06958933  0.56458483  0.15988548  1
  O  O27  1  0.29330886  0.14953193  0.35863214  1
