# generated using pymatgen
data_NaMg4(PO4)3
_symmetry_space_group_name_H-M   'P 1'
_cell_length_a   6.39378726
_cell_length_b   9.92278839
_cell_length_c   15.52961255
_cell_angle_alpha   90.00000000
_cell_angle_beta   90.00000000
_cell_angle_gamma   90.00000000
_symmetry_Int_Tables_number   1
_chemical_formula_structural   NaMg4(PO4)3
_chemical_formula_sum   'Na4 Mg16 P12 O48'
_cell_volume   985.26381336
_cell_formula_units_Z   4
loop_
 _symmetry_equiv_pos_site_id
 _symmetry_equiv_pos_as_xyz
  1  'x, y, z'
loop_
 _atom_site_type_symbol
 _atom_site_label
 _atom_site_symmetry_multiplicity
 _atom_site_fract_x
 _atom_site_fract_y
 _atom_site_fract_z
 _atom_site_occupancy
  Na  Na0  1  0.25000000  0.24954154  0.21338915  1
  Na  Na1  1  0.75000000  0.25045846  0.71338915  1
  Na  Na2  1  0.75000000  0.75045846  0.78661085  1
  Na  Na3  1  0.25000000  0.74954154  0.28661085  1
  Mg  Mg4  1  0.49929336  0.24711834  0.94505815  1
  Mg  Mg5  1  0.50070664  0.25288166  0.44505815  1
  Mg  Mg6  1  0.00070664  0.74711834  0.55494185  1
  Mg  Mg7  1  0.25000000  0.04516412  0.62997765  1
  Mg  Mg8  1  0.75000000  0.06632072  0.12836670  1
  Mg  Mg9  1  0.25000000  0.43367928  0.62836670  1
  Mg  Mg10  1  0.25000000  0.54516412  0.87002235  1
  Mg  Mg11  1  0.00070664  0.24711834  0.94505815  1
  Mg  Mg12  1  0.99929336  0.25288166  0.44505815  1
  Mg  Mg13  1  0.99929336  0.75288166  0.05494185  1
  Mg  Mg14  1  0.75000000  0.95483588  0.37002235  1
  Mg  Mg15  1  0.75000000  0.56632072  0.37163330  1
  Mg  Mg16  1  0.75000000  0.45483588  0.12997765  1
  Mg  Mg17  1  0.25000000  0.93367928  0.87163330  1
  Mg  Mg18  1  0.50070664  0.75288166  0.05494185  1
  Mg  Mg19  1  0.49929336  0.74711834  0.55494185  1
  P  P20  1  0.75000000  0.79486583  0.22738660  1
  P  P21  1  0.25000000  0.70513417  0.72738660  1
  P  P22  1  0.75000000  0.45611239  0.55636532  1
  P  P23  1  0.75000000  0.29486583  0.27261340  1
  P  P24  1  0.25000000  0.47087985  0.06150073  1
  P  P25  1  0.25000000  0.97087985  0.43849927  1
  P  P26  1  0.25000000  0.04388761  0.05636532  1
  P  P27  1  0.25000000  0.20513417  0.77261340  1
  P  P28  1  0.25000000  0.54388761  0.44363468  1
  P  P29  1  0.75000000  0.95611239  0.94363468  1
  P  P30  1  0.75000000  0.52912015  0.93849927  1
  P  P31  1  0.75000000  0.02912015  0.56150073  1
  O  O32  1  0.55501066  0.06256841  0.61303609  1
  O  O33  1  0.55022987  0.24352404  0.31884201  1
  O  O34  1  0.25000000  0.38668176  0.45466890  1
  O  O35  1  0.75000000  0.89514349  0.03873895  1
  O  O36  1  0.55022987  0.74352404  0.18115799  1
  O  O37  1  0.75000000  0.25247801  0.17680742  1
  O  O38  1  0.94582492  0.40425036  0.60147802  1
  O  O39  1  0.75000000  0.61331824  0.54533110  1
  O  O40  1  0.25000000  0.38544686  0.97404532  1
  O  O41  1  0.25000000  0.88668176  0.04533110  1
  O  O42  1  0.75000000  0.75247801  0.32319258  1
  O  O43  1  0.25000000  0.60485651  0.53873895  1
  O  O44  1  0.55501066  0.56256841  0.88696391  1
  O  O45  1  0.25000000  0.12339862  0.46832342  1
  O  O46  1  0.05022987  0.25647596  0.81884201  1
  O  O47  1  0.94977013  0.74352404  0.18115799  1
  O  O48  1  0.55417508  0.40425036  0.60147802  1
  O  O49  1  0.55417508  0.90425036  0.89852198  1
  O  O50  1  0.25000000  0.04737510  0.76617352  1
  O  O51  1  0.05417508  0.59574964  0.39852198  1
  O  O52  1  0.94582492  0.90425036  0.89852198  1
  O  O53  1  0.44977013  0.75647596  0.68115799  1
  O  O54  1  0.75000000  0.87660138  0.53167658  1
  O  O55  1  0.44582492  0.09574964  0.10147802  1
  O  O56  1  0.75000000  0.37660138  0.96832342  1
  O  O57  1  0.05022987  0.75647596  0.68115799  1
  O  O58  1  0.05501066  0.93743159  0.38696391  1
  O  O59  1  0.25000000  0.74752199  0.82319258  1
  O  O60  1  0.25000000  0.88544686  0.52595468  1
  O  O61  1  0.25000000  0.24752199  0.67680742  1
  O  O62  1  0.44977013  0.25647596  0.81884201  1
  O  O63  1  0.44498934  0.43743159  0.11303609  1
  O  O64  1  0.05501066  0.43743159  0.11303609  1
  O  O65  1  0.25000000  0.54737510  0.73382648  1
  O  O66  1  0.05417508  0.09574964  0.10147802  1
  O  O67  1  0.44498934  0.93743159  0.38696391  1
  O  O68  1  0.75000000  0.11455314  0.47404532  1
  O  O69  1  0.75000000  0.45262490  0.26617352  1
  O  O70  1  0.94977013  0.24352404  0.31884201  1
  O  O71  1  0.75000000  0.11331824  0.95466890  1
  O  O72  1  0.75000000  0.95262490  0.23382648  1
  O  O73  1  0.25000000  0.62339862  0.03167658  1
  O  O74  1  0.44582492  0.59574964  0.39852198  1
  O  O75  1  0.94498934  0.56256841  0.88696391  1
  O  O76  1  0.75000000  0.61455314  0.02595468  1
  O  O77  1  0.94498934  0.06256841  0.61303609  1
  O  O78  1  0.75000000  0.39514349  0.46126105  1
  O  O79  1  0.25000000  0.10485651  0.96126105  1
