# generated using pymatgen
data_SiO2
_symmetry_space_group_name_H-M   'P 1'
_cell_length_a   8.64761635
_cell_length_b   12.74227673
_cell_length_c   12.74227610
_cell_angle_alpha   109.46535614
_cell_angle_beta   90.00000000
_cell_angle_gamma   90.00000000
_symmetry_Int_Tables_number   1
_chemical_formula_structural   SiO2
_chemical_formula_sum   'Si24 O48'
_cell_volume   1323.82296277
_cell_formula_units_Z   24
loop_
 _symmetry_equiv_pos_site_id
 _symmetry_equiv_pos_as_xyz
  1  'x, y, z'
loop_
 _atom_site_type_symbol
 _atom_site_label
 _atom_site_symmetry_multiplicity
 _atom_site_fract_x
 _atom_site_fract_y
 _atom_site_fract_z
 _atom_site_occupancy
  Si  Si0  1  0.06354024  0.37960595  0.23983087  1
  Si  Si1  1  0.43645976  0.76016913  0.62039405  1
  Si  Si2  1  0.93688230  0.38202411  0.00521282  1
  Si  Si3  1  0.93688230  0.99478718  0.61797589  1
  Si  Si4  1  0.93645976  0.23983087  0.37960595  1
  Si  Si5  1  0.06311770  0.61797589  0.99478718  1
  Si  Si6  1  0.56354024  0.62039405  0.76016913  1
  Si  Si7  1  0.06311770  0.00521282  0.38202411  1
  Si  Si8  1  0.43664841  0.37718029  0.62281971  1
  Si  Si9  1  0.43743651  0.22778367  0.77221633  1
  Si  Si10  1  0.56335159  0.62281971  0.37718029  1
  Si  Si11  1  0.56256349  0.77221633  0.22778367  1
  Si  Si12  1  0.56311770  0.38202411  0.00521282  1
  Si  Si13  1  0.43688230  0.00521282  0.38202411  1
  Si  Si14  1  0.93664841  0.62281971  0.37718029  1
  Si  Si15  1  0.06354024  0.76016913  0.62039405  1
  Si  Si16  1  0.93743651  0.77221633  0.22778367  1
  Si  Si17  1  0.56311770  0.99478718  0.61797589  1
  Si  Si18  1  0.43688230  0.61797589  0.99478718  1
  Si  Si19  1  0.56354024  0.23983087  0.37960595  1
  Si  Si20  1  0.06335159  0.37718029  0.62281971  1
  Si  Si21  1  0.06256349  0.22778367  0.77221633  1
  Si  Si22  1  0.93645976  0.62039405  0.76016913  1
  Si  Si23  1  0.43645976  0.37960595  0.23983087  1
  O  O24  1  0.99613661  0.11445459  0.36001148  1
  O  O25  1  1.00053994  0.49706854  0.32477818  1
  O  O26  1  1.00564945  0.30261296  0.69738704  1
  O  O27  1  0.50053994  0.50293146  0.67522182  1
  O  O28  1  0.50567901  0.10291724  0.71930381  1
  O  O29  1  0.50000000  0.00000000  0.50000000  1
  O  O30  1  0.50386339  0.11445459  0.36001148  1
  O  O31  1  0.50567901  0.28069619  0.89708276  1
  O  O32  1  0.49435055  0.30261296  0.69738704  1
  O  O33  1  0.99432099  0.10291724  0.71930381  1
  O  O34  1  0.25000000  0.38077109  0.24221472  1
  O  O35  1  0.99432099  0.28069619  0.89708276  1
  O  O36  1  0.00000000  0.27813436  0.27813436  1
  O  O37  1  0.50386339  0.63998852  0.88554541  1
  O  O38  1  0.00000000  0.72186564  0.72186564  1
  O  O39  1  -0.00053994  0.50293146  0.67522182  1
  O  O40  1  0.25000000  0.01043483  0.38560568  1
  O  O41  1  0.25000000  0.61439432  0.98956517  1
  O  O42  1  0.50000000  0.72186564  0.72186564  1
  O  O43  1  -0.00564945  0.69738704  0.30261296  1
  O  O44  1  0.25000000  0.22409740  0.77590260  1
  O  O45  1  0.49432099  0.89708276  0.28069619  1
  O  O46  1  0.00386339  0.36001148  0.11445459  1
  O  O47  1  0.49946006  0.49706854  0.32477818  1
  O  O48  1  0.75000000  0.61922891  0.75778528  1
  O  O49  1  0.75000000  0.62072324  0.37927676  1
  O  O50  1  0.00567901  0.89708276  0.28069619  1
  O  O51  1  0.75000000  0.24221472  0.38077109  1
  O  O52  1  0.50564945  0.69738704  0.30261296  1
  O  O53  1  0.75000000  0.98956517  0.61439432  1
  O  O54  1  0.75000000  0.38560568  0.01043483  1
  O  O55  1  0.49613661  0.88554541  0.63998852  1
  O  O56  1  1.00053994  0.67522182  0.50293146  1
  O  O57  1  0.75000000  0.77590260  0.22409740  1
  O  O58  1  0.50000000  0.50000000  0.00000000  1
  O  O59  1  0.25000000  0.37927676  0.62072324  1
  O  O60  1  0.50000000  0.27813436  0.27813436  1
  O  O61  1  0.50053994  0.32477818  0.49706854  1
  O  O62  1  0.00000000  0.00000000  0.50000000  1
  O  O63  1  0.25000000  0.75778528  0.61922891  1
  O  O64  1  0.00567901  0.71930381  0.10291724  1
  O  O65  1  -0.00053994  0.32477818  0.49706854  1
  O  O66  1  0.00386339  0.88554541  0.63998852  1
  O  O67  1  0.49613661  0.36001148  0.11445459  1
  O  O68  1  0.49946006  0.67522182  0.50293146  1
  O  O69  1  0.99613661  0.63998852  0.88554541  1
  O  O70  1  0.49432099  0.71930381  0.10291724  1
  O  O71  1  0.00000000  0.50000000  0.00000000  1
