# generated using pymatgen
data_Bi5BrO7
_symmetry_space_group_name_H-M   'P 1'
_cell_length_a   5.44268757
_cell_length_b   8.67560410
_cell_length_c   23.77379138
_cell_angle_alpha   90.00000000
_cell_angle_beta   90.00000000
_cell_angle_gamma   108.28100786
_symmetry_Int_Tables_number   1
_chemical_formula_structural   Bi5BrO7
_chemical_formula_sum   'Bi20 Br4 O28'
_cell_volume   1065.90878744
_cell_formula_units_Z   4
loop_
 _symmetry_equiv_pos_site_id
 _symmetry_equiv_pos_as_xyz
  1  'x, y, z'
loop_
 _atom_site_type_symbol
 _atom_site_label
 _atom_site_symmetry_multiplicity
 _atom_site_fract_x
 _atom_site_fract_y
 _atom_site_fract_z
 _atom_site_occupancy
  Bi  Bi0  1  0.61423112  0.65682140  0.06082933  1
  Bi  Bi1  1  0.71584953  0.00000000  0.20169443  1
  Bi  Bi2  1  0.21584953  0.00000000  0.29830557  1
  Bi  Bi3  1  0.01483085  0.64913096  0.19073628  1
  Bi  Bi4  1  0.98516915  0.35086904  0.80926372  1
  Bi  Bi5  1  0.86569989  0.35086904  0.30926372  1
  Bi  Bi6  1  0.48516915  0.35086904  0.69073628  1
  Bi  Bi7  1  0.11423112  0.65682140  0.43917067  1
  Bi  Bi8  1  0.88576888  0.34317860  0.56082933  1
  Bi  Bi9  1  0.36569989  0.35086904  0.19073628  1
  Bi  Bi10  1  0.13430011  0.64913096  0.69073628  1
  Bi  Bi11  1  0.38576888  0.34317860  0.93917067  1
  Bi  Bi12  1  0.78415047  0.00000000  0.70169443  1
  Bi  Bi13  1  0.54259028  0.65682140  0.56082933  1
  Bi  Bi14  1  0.04259028  0.65682140  0.93917067  1
  Bi  Bi15  1  0.95740972  0.34317860  0.06082933  1
  Bi  Bi16  1  0.45740972  0.34317860  0.43917067  1
  Bi  Bi17  1  0.63430011  0.64913096  0.80926372  1
  Bi  Bi18  1  0.28415047  0.00000000  0.79830557  1
  Bi  Bi19  1  0.51483085  0.64913096  0.30926372  1
  Br  Br20  1  0.68112052  0.00000000  0.39478373  1
  Br  Br21  1  0.18112052  0.00000000  0.10521627  1
  Br  Br22  1  0.31887948  0.00000000  0.60521627  1
  Br  Br23  1  0.81887948  0.00000000  0.89478373  1
  O  O24  1  0.00715953  0.61866068  0.85023463  1
  O  O25  1  0.72988524  0.50000000  0.25000000  1
  O  O26  1  0.38849885  0.38133932  0.85023463  1
  O  O27  1  0.27011476  0.50000000  0.75000000  1
  O  O28  1  0.44602254  0.83688229  0.74696251  1
  O  O29  1  0.60914025  0.16311771  0.74696251  1
  O  O30  1  0.88849885  0.38133932  0.64976537  1
  O  O31  1  0.37007045  0.40887476  0.04996591  1
  O  O32  1  0.50715953  0.61866068  0.64976537  1
  O  O33  1  0.46119569  0.59112524  0.45003409  1
  O  O34  1  0.62992955  0.59112524  0.95003409  1
  O  O35  1  0.22988524  0.50000000  0.25000000  1
  O  O36  1  0.39085975  0.83688229  0.25303749  1
  O  O37  1  0.94602254  0.83688229  0.75303749  1
  O  O38  1  0.96119569  0.59112524  0.04996591  1
  O  O39  1  0.49284047  0.38133932  0.35023463  1
  O  O40  1  0.03880431  0.40887476  0.95003409  1
  O  O41  1  0.89085975  0.83688229  0.24696251  1
  O  O42  1  0.05397746  0.16311771  0.24696251  1
  O  O43  1  0.77011476  0.50000000  0.75000000  1
  O  O44  1  0.61150115  0.61866068  0.14976537  1
  O  O45  1  0.10914025  0.16311771  0.75303749  1
  O  O46  1  0.99284047  0.38133932  0.14976537  1
  O  O47  1  0.55397746  0.16311771  0.25303749  1
  O  O48  1  0.11150115  0.61866068  0.35023463  1
  O  O49  1  0.87007045  0.40887476  0.45003409  1
  O  O50  1  0.12992955  0.59112524  0.54996591  1
  O  O51  1  0.53880431  0.40887476  0.54996591  1
