# generated using pymatgen
data_CsNd(PO3)4
_symmetry_space_group_name_H-M   'P 1'
_cell_length_a   9.15407722
_cell_length_b   10.62608951
_cell_length_c   11.38045040
_cell_angle_alpha   106.61459403
_cell_angle_beta   90.00000000
_cell_angle_gamma   90.00000000
_symmetry_Int_Tables_number   1
_chemical_formula_structural   CsNd(PO3)4
_chemical_formula_sum   'Cs4 Nd4 P16 O48'
_cell_volume   1060.78218585
_cell_formula_units_Z   4
loop_
 _symmetry_equiv_pos_site_id
 _symmetry_equiv_pos_as_xyz
  1  'x, y, z'
loop_
 _atom_site_type_symbol
 _atom_site_label
 _atom_site_symmetry_multiplicity
 _atom_site_fract_x
 _atom_site_fract_y
 _atom_site_fract_z
 _atom_site_occupancy
  Cs  Cs0  1  0.56570613  0.68557689  0.46082526  1
  Cs  Cs1  1  0.06570613  0.81442311  0.03917474  1
  Cs  Cs2  1  0.43429387  0.31442311  0.53917474  1
  Cs  Cs3  1  0.93429387  0.18557689  0.96082526  1
  Nd  Nd4  1  0.72598961  0.50190834  0.81859233  1
  Nd  Nd5  1  0.77401039  0.00190834  0.31859233  1
  Nd  Nd6  1  0.22598961  0.99809166  0.68140767  1
  Nd  Nd7  1  0.27401039  0.49809166  0.18140767  1
  P  P8  1  0.82494116  0.96093687  0.63609718  1
  P  P9  1  0.53024204  0.24792937  0.21495059  1
  P  P10  1  0.17505884  0.03906313  0.36390282  1
  P  P11  1  0.89611525  0.32529715  0.52543381  1
  P  P12  1  0.46975796  0.75207063  0.78504941  1
  P  P13  1  0.59293756  0.14440563  0.75866298  1
  P  P14  1  0.10388475  0.67470285  0.47456619  1
  P  P15  1  0.40706244  0.85559437  0.24133702  1
  P  P16  1  0.09293756  0.35559437  0.74133702  1
  P  P17  1  0.67505884  0.46093687  0.13609718  1
  P  P18  1  0.90706244  0.64440563  0.25866298  1
  P  P19  1  0.60388475  0.82529715  0.02543381  1
  P  P20  1  0.39611525  0.17470285  0.97456619  1
  P  P21  1  0.96975796  0.74792937  0.71495059  1
  P  P22  1  0.03024204  0.25207063  0.28504941  1
  P  P23  1  0.32494116  0.53906313  0.86390282  1
  O  O24  1  0.96312350  0.40086469  0.82301872  1
  O  O25  1  0.96447383  0.03652134  0.66916094  1
  O  O26  1  0.45068911  0.83367375  0.09967815  1
  O  O27  1  0.29342305  0.06860646  0.90640736  1
  O  O28  1  0.03687650  0.59913531  0.17698128  1
  O  O29  1  0.09777494  0.32835179  0.20697921  1
  O  O30  1  0.53915626  0.85835769  0.90460270  1
  O  O31  1  0.54931089  0.16632625  0.90032185  1
  O  O32  1  0.08025041  0.85135303  0.77519511  1
  O  O33  1  0.17639060  0.23818755  0.75221204  1
  O  O34  1  0.91974959  0.14864697  0.22480489  1
  O  O35  1  0.46312350  0.09913531  0.67698128  1
  O  O36  1  0.84010432  0.81549609  0.65575327  1
  O  O37  1  0.75553121  0.94079758  0.51290742  1
  O  O38  1  0.70657695  0.93139354  0.09359264  1
  O  O39  1  0.79342305  0.43139354  0.59359264  1
  O  O40  1  0.41974959  0.35135303  0.27519511  1
  O  O41  1  0.20630718  0.47734258  0.75592753  1
  O  O42  1  0.96084374  0.35835769  0.40460270  1
  O  O43  1  0.74446879  0.44079758  0.01290742  1
  O  O44  1  0.67639060  0.26181245  0.74778796  1
  O  O45  1  0.46084374  0.14164231  0.09539730  1
  O  O46  1  0.24446879  0.05920242  0.48709258  1
  O  O47  1  0.15943820  0.81312195  0.51351408  1
  O  O48  1  0.84056180  0.18687805  0.48648592  1
  O  O49  1  0.20657695  0.56860646  0.40640736  1
  O  O50  1  0.29369282  0.97734258  0.25592753  1
  O  O51  1  0.34010432  0.68450391  0.84424673  1
  O  O52  1  0.15989568  0.18450391  0.34424673  1
  O  O53  1  0.79369282  0.52265742  0.24407247  1
  O  O54  1  0.34056180  0.31312195  0.01351408  1
  O  O55  1  0.40222506  0.82835179  0.70697921  1
  O  O56  1  0.65943820  0.68687805  0.98648592  1
  O  O57  1  0.32360940  0.73818755  0.25221204  1
  O  O58  1  0.59777494  0.17164821  0.29302079  1
  O  O59  1  0.65989568  0.31549609  0.15575327  1
  O  O60  1  0.25553121  0.55920242  0.98709258  1
  O  O61  1  0.53687650  0.90086469  0.32301872  1
  O  O62  1  0.70630718  0.02265742  0.74407247  1
  O  O63  1  0.90222506  0.67164821  0.79302079  1
  O  O64  1  0.53552617  0.53652134  0.16916094  1
  O  O65  1  0.04931089  0.33367375  0.59967815  1
  O  O66  1  0.03552617  0.96347866  0.33083906  1
  O  O67  1  0.95068911  0.66632625  0.40032185  1
  O  O68  1  0.82360940  0.76181245  0.24778796  1
  O  O69  1  0.58025041  0.64864697  0.72480489  1
  O  O70  1  0.46447383  0.46347866  0.83083906  1
  O  O71  1  0.03915626  0.64164231  0.59539730  1
