# generated using pymatgen
data_SiO2
_symmetry_space_group_name_H-M   'P 1'
_cell_length_a   7.59835978
_cell_length_b   11.92173489
_cell_length_c   11.92173484
_cell_angle_alpha   105.53898986
_cell_angle_beta   90.00000000
_cell_angle_gamma   90.00000000
_symmetry_Int_Tables_number   1
_chemical_formula_structural   SiO2
_chemical_formula_sum   'Si18 O36'
_cell_volume   1040.46438656
_cell_formula_units_Z   18
loop_
 _symmetry_equiv_pos_site_id
 _symmetry_equiv_pos_as_xyz
  1  'x, y, z'
loop_
 _atom_site_type_symbol
 _atom_site_label
 _atom_site_symmetry_multiplicity
 _atom_site_fract_x
 _atom_site_fract_y
 _atom_site_fract_z
 _atom_site_occupancy
  Si  Si0  1  0.70625688  0.11651550  0.28109889  1
  Si  Si1  1  0.29374312  0.11651550  0.28109889  1
  Si  Si2  1  0.70499233  0.85092402  0.14907598  1
  Si  Si3  1  0.70625688  0.28109889  0.11651550  1
  Si  Si4  1  0.00000000  0.26838065  0.73161935  1
  Si  Si5  1  0.00000000  0.73161935  0.26838065  1
  Si  Si6  1  0.29374312  0.28109889  0.11651550  1
  Si  Si7  1  0.00000000  0.52913333  0.87487350  1
  Si  Si8  1  0.70625688  0.71890111  0.88348450  1
  Si  Si9  1  0.29500767  0.14907598  0.85092402  1
  Si  Si10  1  0.70625688  0.88348450  0.71890111  1
  Si  Si11  1  0.00000000  0.47086667  0.12512650  1
  Si  Si12  1  0.70499233  0.14907598  0.85092402  1
  Si  Si13  1  0.29374312  0.88348450  0.71890111  1
  Si  Si14  1  0.00000000  0.87487350  0.52913333  1
  Si  Si15  1  0.00000000  0.12512650  0.47086667  1
  Si  Si16  1  0.29374312  0.71890111  0.88348450  1
  Si  Si17  1  0.29500767  0.85092402  0.14907598  1
  O  O18  1  0.74787853  0.01055734  0.80763557  1
  O  O19  1  0.75460081  0.21603001  0.21603001  1
  O  O20  1  0.17596867  0.86273034  0.60215580  1
  O  O21  1  0.82403133  0.13726966  0.39784420  1
  O  O22  1  0.74787853  0.98944266  0.19236443  1
  O  O23  1  0.50000000  0.87512075  0.68086257  1
  O  O24  1  0.25212147  0.98944266  0.19236443  1
  O  O25  1  0.17596867  0.39784420  0.13726966  1
  O  O26  1  0.82458205  0.21950591  0.78049409  1
  O  O27  1  0.17596867  0.13726966  0.39784420  1
  O  O28  1  0.50000000  0.31913743  0.12487925  1
  O  O29  1  0.50000000  0.82611748  0.17388252  1
  O  O30  1  0.24539919  0.21603001  0.21603001  1
  O  O31  1  0.50000000  0.12487925  0.31913743  1
  O  O32  1  0.25212147  0.01055734  0.80763557  1
  O  O33  1  0.74787853  0.80763557  0.01055734  1
  O  O34  1  0.00000000  0.77129015  0.40933296  1
  O  O35  1  0.25212147  0.19236443  0.98944266  1
  O  O36  1  0.50000000  0.17388252  0.82611748  1
  O  O37  1  0.17541795  0.78049409  0.21950591  1
  O  O38  1  0.00000000  0.50000000  0.00000000  1
  O  O39  1  0.50000000  0.68086257  0.87512075  1
  O  O40  1  0.82403133  0.39784420  0.13726966  1
  O  O41  1  0.00000000  0.40933296  0.77129015  1
  O  O42  1  0.17541795  0.21950591  0.78049409  1
  O  O43  1  0.82458205  0.78049409  0.21950591  1
  O  O44  1  0.00000000  0.59066704  0.22870985  1
  O  O45  1  0.24539919  0.78396999  0.78396999  1
  O  O46  1  0.82403133  0.60215580  0.86273034  1
  O  O47  1  0.75460081  0.78396999  0.78396999  1
  O  O48  1  0.00000000  0.00000000  0.50000000  1
  O  O49  1  0.25212147  0.80763557  0.01055734  1
  O  O50  1  0.00000000  0.22870985  0.59066704  1
  O  O51  1  0.82403133  0.86273034  0.60215580  1
  O  O52  1  0.17596867  0.60215580  0.86273034  1
  O  O53  1  0.74787853  0.19236443  0.98944266  1
