# generated using pymatgen
data_P2O5
_symmetry_space_group_name_H-M   'P 1'
_cell_length_a   7.75465563
_cell_length_b   7.75465563
_cell_length_c   7.75465554
_cell_angle_alpha   87.78002984
_cell_angle_beta   87.78002984
_cell_angle_gamma   87.78003865
_symmetry_Int_Tables_number   1
_chemical_formula_structural   P2O5
_chemical_formula_sum   'P8 O20'
_cell_volume   465.30017567
_cell_formula_units_Z   4
loop_
 _symmetry_equiv_pos_site_id
 _symmetry_equiv_pos_as_xyz
  1  'x, y, z'
loop_
 _atom_site_type_symbol
 _atom_site_label
 _atom_site_symmetry_multiplicity
 _atom_site_fract_x
 _atom_site_fract_y
 _atom_site_fract_z
 _atom_site_occupancy
  P  P0  1  0.87464528  0.87464528  0.87464528  1
  P  P1  1  0.37464528  0.37464528  0.37464528  1
  P  P2  1  0.55658696  0.68450151  0.38094669  1
  P  P3  1  0.68450151  0.38094669  0.55658696  1
  P  P4  1  0.38094669  0.55658696  0.68450151  1
  P  P5  1  0.05658696  0.88094669  0.18450151  1
  P  P6  1  0.88094669  0.18450151  0.05658696  1
  P  P7  1  0.18450151  0.05658696  0.88094669  1
  O  O8  1  0.77067785  0.77067785  0.77067785  1
  O  O9  1  0.27067785  0.27067785  0.27067785  1
  O  O10  1  0.05200078  0.94125704  0.78180355  1
  O  O11  1  0.94125704  0.78180355  0.05200078  1
  O  O12  1  0.78180355  0.05200078  0.94125704  1
  O  O13  1  0.55200078  0.28180355  0.44125704  1
  O  O14  1  0.28180355  0.44125704  0.55200078  1
  O  O15  1  0.44125704  0.55200078  0.28180355  1
  O  O16  1  0.44451563  0.71421867  0.55834005  1
  O  O17  1  0.71421867  0.55834005  0.44451563  1
  O  O18  1  0.55834005  0.44451563  0.71421867  1
  O  O19  1  0.94451563  0.05834005  0.21421867  1
  O  O20  1  0.05834005  0.21421867  0.94451563  1
  O  O21  1  0.21421867  0.94451563  0.05834005  1
  O  O22  1  0.60499866  0.84056171  0.28554561  1
  O  O23  1  0.84056171  0.28554561  0.60499866  1
  O  O24  1  0.28554561  0.60499866  0.84056171  1
  O  O25  1  0.10499866  0.78554561  0.34056171  1
  O  O26  1  0.78554561  0.34056171  0.10499866  1
  O  O27  1  0.34056171  0.10499866  0.78554561  1
