# generated using pymatgen
data_BaTb2Mn2O7
_symmetry_space_group_name_H-M   'P 1'
_cell_length_a   5.60331770
_cell_length_b   5.66920828
_cell_length_c   10.35681516
_cell_angle_alpha   74.11498443
_cell_angle_beta   90.00111349
_cell_angle_gamma   90.00625231
_symmetry_Int_Tables_number   1
_chemical_formula_structural   BaTb2Mn2O7
_chemical_formula_sum   'Ba2 Tb4 Mn4 O14'
_cell_volume   316.43498400
_cell_formula_units_Z   2
loop_
 _symmetry_equiv_pos_site_id
 _symmetry_equiv_pos_as_xyz
  1  'x, y, z'
loop_
 _atom_site_type_symbol
 _atom_site_label
 _atom_site_symmetry_multiplicity
 _atom_site_fract_x
 _atom_site_fract_y
 _atom_site_fract_z
 _atom_site_occupancy
  Tb  Tb0  1  0.27309196  0.90596516  0.63349023  1
  Tb  Tb1  1  0.72690804  0.09403484  0.36650977  1
  Tb  Tb2  1  0.72697501  0.46071325  0.63346085  1
  Tb  Tb3  1  0.27302499  0.53928675  0.36653915  1
  Ba  Ba4  1  0.25410052  0.74122876  0.00002446  1
  Ba  Ba5  1  0.74589948  0.25877124  0.99997554  1
  Mn  Mn6  1  0.24465331  0.14093727  0.20825431  1
  Mn  Mn7  1  0.75525281  0.65058462  0.20832199  1
  Mn  Mn8  1  0.75534669  0.85906273  0.79174569  1
  Mn  Mn9  1  0.24474719  0.34941538  0.79167801  1
  O  O10  1  0.50003990  0.11832987  0.76347543  1
  O  O11  1  0.50006519  0.40000537  0.19996666  1
  O  O12  1  0.28350892  0.53544815  0.57899039  1
  O  O13  1  0.71649108  0.46455185  0.42100961  1
  O  O14  1  1.00007352  0.12774251  0.74488258  1
  O  O15  1  -0.00007352  0.87225749  0.25511742  1
  O  O16  1  0.49993481  0.59999463  0.80003334  1
  O  O17  1  0.71647535  0.88562340  0.57892288  1
  O  O18  1  0.23557341  0.22006228  0.99985036  1
  O  O19  1  0.28352465  0.11437660  0.42107712  1
  O  O20  1  -0.00001031  0.39143202  0.21704741  1
  O  O21  1  1.00001031  0.60856798  0.78295259  1
  O  O22  1  0.76442659  0.77993772  0.00014964  1
  O  O23  1  0.49996010  0.88167013  0.23652457  1
