# generated using pymatgen
data_Ba3(PS4)2
_symmetry_space_group_name_H-M   'P 1'
_cell_length_a   6.73312316
_cell_length_b   6.73312375
_cell_length_c   8.78790284
_cell_angle_alpha   89.93729585
_cell_angle_beta   90.06270416
_cell_angle_gamma   119.97111023
_symmetry_Int_Tables_number   1
_chemical_formula_structural   Ba3(PS4)2
_chemical_formula_sum   'Ba3 P2 S8'
_cell_volume   345.12390528
_cell_formula_units_Z   1
loop_
 _symmetry_equiv_pos_site_id
 _symmetry_equiv_pos_as_xyz
  1  'x, y, z'
loop_
 _atom_site_type_symbol
 _atom_site_label
 _atom_site_symmetry_multiplicity
 _atom_site_fract_x
 _atom_site_fract_y
 _atom_site_fract_z
 _atom_site_occupancy
  Ba  Ba0  1  0.33314132  0.66685868  0.36485441  1
  Ba  Ba1  1  0.66685868  0.33314132  0.63514559  1
  Ba  Ba2  1  0.00000000  0.00000000  0.00000000  1
  P  P3  1  0.66630399  0.33369601  0.21846259  1
  P  P4  1  0.33369601  0.66630399  0.78153741  1
  S  S5  1  0.82936358  0.65918796  0.30822287  1
  S  S6  1  0.17063642  0.34081204  0.69177713  1
  S  S7  1  0.65918796  0.82936358  0.69177713  1
  S  S8  1  0.33503751  0.66496249  0.01145862  1
  S  S9  1  0.66496249  0.33503751  0.98854138  1
  S  S10  1  0.34081204  0.17063642  0.30822287  1
  S  S11  1  0.82933060  0.17066940  0.30807888  1
  S  S12  1  0.17066940  0.82933060  0.69192112  1
