# generated using pymatgen
data_Ca(PO3)2
_symmetry_space_group_name_H-M   'P 1'
_cell_length_a   6.84599887
_cell_length_b   12.30034920
_cell_length_c   12.30034878
_cell_angle_alpha   111.31238577
_cell_angle_beta   92.65716313
_cell_angle_gamma   92.65716027
_symmetry_Int_Tables_number   1
_chemical_formula_structural   Ca(PO3)2
_chemical_formula_sum   'Ca8 P16 O48'
_cell_volume   961.69149239
_cell_formula_units_Z   8
loop_
 _symmetry_equiv_pos_site_id
 _symmetry_equiv_pos_as_xyz
  1  'x, y, z'
loop_
 _atom_site_type_symbol
 _atom_site_label
 _atom_site_symmetry_multiplicity
 _atom_site_fract_x
 _atom_site_fract_y
 _atom_site_fract_z
 _atom_site_occupancy
  Ca  Ca0  1  0.31523515  0.13991785  0.52048689  1
  Ca  Ca1  1  0.80429612  0.64092332  0.52937024  1
  Ca  Ca2  1  0.81085806  0.15161353  0.02065250  1
  Ca  Ca3  1  0.29946714  0.64768158  0.02922934  1
  Ca  Ca4  1  0.79946714  0.02922934  0.64768158  1
  Ca  Ca5  1  0.31085806  0.02065250  0.15161353  1
  Ca  Ca6  1  0.30429612  0.52937024  0.64092332  1
  Ca  Ca7  1  0.81523515  0.52048689  0.13991785  1
  P  P8  1  0.49510913  0.45729470  0.34874440  1
  P  P9  1  0.97755653  0.95579520  0.35771146  1
  P  P10  1  0.43298346  1.00001436  0.86297186  1
  P  P11  1  0.17709529  0.82127840  0.68158071  1
  P  P12  1  0.46185605  0.83956674  0.49940545  1
  P  P13  1  0.64060292  0.32731539  0.71084911  1
  P  P14  1  0.93298346  0.86297186  1.00001436  1
  P  P15  1  0.63529211  0.21530221  0.32600971  1
  P  P16  1  0.16454574  0.17939593  0.82729435  1
  P  P17  1  0.67709529  0.68158071  0.82127840  1
  P  P18  1  0.13529211  0.32600971  0.21530221  1
  P  P19  1  0.66454574  0.82729435  0.17939593  1
  P  P20  1  0.47755653  0.35771146  0.95579520  1
  P  P21  1  0.14060292  0.71084911  0.32731539  1
  P  P22  1  0.99510913  0.34874440  0.45729470  1
  P  P23  1  0.96185605  0.49940545  0.83956674  1
  O  O24  1  0.59696895  0.28788736  0.00829863  1
  O  O25  1  0.53001438  0.67127750  0.90328075  1
  O  O26  1  0.53385740  0.39915428  0.65549447  1
  O  O27  1  0.55562953  0.34768130  0.83384725  1
  O  O28  1  0.60393241  0.66843572  0.69917171  1
  O  O29  1  0.45068326  0.84814983  0.16673176  1
  O  O30  1  0.86752938  0.37502036  0.74876048  1
  O  O31  1  0.13958402  0.64044893  0.19813394  1
  O  O32  1  0.05562953  0.83384725  0.34768130  1
  O  O33  1  0.53269276  0.33641448  0.36371133  1
  O  O34  1  0.36752938  0.74876048  0.37502036  1
  O  O35  1  0.63958402  0.19813394  0.64044893  1
  O  O36  1  0.58907027  0.01420723  0.78699973  1
  O  O37  1  0.99480637  0.35097213  0.13075741  1
  O  O38  1  0.31959709  0.42210913  0.24810331  1
  O  O39  1  0.03385740  0.65549447  0.39915428  1
  O  O40  1  0.95068326  0.16673176  0.84814983  1
  O  O41  1  0.50060148  0.01277721  0.98575038  1
  O  O42  1  0.81959709  0.24810331  0.42210913  1
  O  O43  1  0.25429164  0.30449540  0.92035854  1
  O  O44  1  0.97439151  0.03096116  0.48532767  1
  O  O45  1  0.17020815  0.51460380  0.81052819  1
  O  O46  1  0.26997850  0.09193101  0.87676465  1
  O  O47  1  0.80762803  0.80468120  0.87603170  1
  O  O48  1  0.09696895  0.00829863  0.28788736  1
  O  O49  1  0.10393241  0.69917171  0.66843572  1
  O  O50  1  0.76997850  0.87676465  0.09193101  1
  O  O51  1  0.00060148  0.98575038  0.01277721  1
  O  O52  1  0.75429164  0.92035854  0.30449540  1
  O  O53  1  0.03269276  0.36371133  0.33641448  1
  O  O54  1  0.21197243  0.16444145  0.70575010  1
  O  O55  1  0.34022078  0.80349091  0.58924488  1
  O  O56  1  0.70160103  0.17807702  0.20464759  1
  O  O57  1  0.66882042  0.50569835  0.30653182  1
  O  O58  1  0.67020815  0.81052819  0.51460380  1
  O  O59  1  0.84022078  0.58924488  0.80349091  1
  O  O60  1  0.16882042  0.30653182  0.50569835  1
  O  O61  1  0.20160103  0.20464759  0.17807702  1
  O  O62  1  0.30762803  0.87603170  0.80468120  1
  O  O63  1  0.43456613  0.53548816  0.46623942  1
  O  O64  1  0.93456613  0.46623942  0.53548816  1
  O  O65  1  0.08907027  0.78699973  0.01420723  1
  O  O66  1  0.47439151  0.48532767  0.03096116  1
  O  O67  1  0.49480637  0.13075741  0.35097213  1
  O  O68  1  0.43930641  0.96438543  0.51267966  1
  O  O69  1  0.71197243  0.70575010  0.16444145  1
  O  O70  1  0.03001438  0.90328075  0.67127750  1
  O  O71  1  0.93930641  0.51267966  0.96438543  1
