# generated using pymatgen
data_CrAg3ClO4
_symmetry_space_group_name_H-M   'P 1'
_cell_length_a   5.37069704
_cell_length_b   7.47500311
_cell_length_c   7.47626473
_cell_angle_alpha   90.00005242
_cell_angle_beta   89.99997073
_cell_angle_gamma   89.99999132
_symmetry_Int_Tables_number   1
_chemical_formula_structural   CrAg3ClO4
_chemical_formula_sum   'Cr2 Ag6 Cl2 O8'
_cell_volume   300.14195247
_cell_formula_units_Z   2
loop_
 _symmetry_equiv_pos_site_id
 _symmetry_equiv_pos_as_xyz
  1  'x, y, z'
loop_
 _atom_site_type_symbol
 _atom_site_label
 _atom_site_symmetry_multiplicity
 _atom_site_fract_x
 _atom_site_fract_y
 _atom_site_fract_z
 _atom_site_occupancy
  Cr  Cr0  1  0.99999076  0.75000816  0.24998496  1
  Cr  Cr1  1  0.00000226  0.24997263  0.74996199  1
  Ag  Ag2  1  0.10389109  0.25000192  0.25000421  1
  Ag  Ag3  1  0.49999993  0.50000064  0.50000303  1
  Ag  Ag4  1  0.49999992  0.00000199  0.50000334  1
  Ag  Ag5  1  0.89611058  0.75000151  0.75000344  1
  Ag  Ag6  1  0.50000207  0.00000070  0.00000276  1
  Ag  Ag7  1  0.50000105  0.50000224  0.00000387  1
  Cl  Cl8  1  0.37239176  0.75000126  0.75000345  1
  Cl  Cl9  1  0.62761186  0.25000249  0.25000158  1
  O  O10  1  0.18625081  0.56876626  0.25000148  1
  O  O11  1  0.18625112  0.25000040  0.93123382  1
  O  O12  1  0.18624964  0.93123493  0.25000229  1
  O  O13  1  0.18624496  0.25000012  0.56877850  1
  O  O14  1  0.81375646  0.75000161  0.43122703  1
  O  O15  1  0.81374292  0.43124185  0.75000241  1
  O  O16  1  0.81374369  0.06876095  0.75000234  1
  O  O17  1  0.81375914  0.75000035  0.06877951  1
