# generated using pymatgen
data_LuH9C5(NO4)2
_symmetry_space_group_name_H-M   'P 1'
_cell_length_a   6.53715107
_cell_length_b   6.64745555
_cell_length_c   6.64745555
_cell_angle_alpha   65.70955022
_cell_angle_beta   74.35938902
_cell_angle_gamma   74.35938902
_symmetry_Int_Tables_number   1
_chemical_formula_structural   LuH9C5(NO4)2
_chemical_formula_sum   'Lu1 H9 C5 N2 O8'
_cell_volume   249.36688715
_cell_formula_units_Z   1
loop_
 _symmetry_equiv_pos_site_id
 _symmetry_equiv_pos_as_xyz
  1  'x, y, z'
loop_
 _atom_site_type_symbol
 _atom_site_label
 _atom_site_symmetry_multiplicity
 _atom_site_fract_x
 _atom_site_fract_y
 _atom_site_fract_z
 _atom_site_occupancy
  Lu  Lu0  1  0.00000000  0.18266185  0.81733815  1
  H  H1  1  0.41416213  0.98917176  0.45669627  1
  H  H2  1  0.58583787  0.54330373  0.01082824  1
  H  H3  1  0.53604216  0.69985786  0.55459121  1
  H  H4  1  0.46395784  0.44540879  0.30014214  1
  H  H5  1  0.82283272  0.73802012  0.27558979  1
  H  H6  1  0.17716728  0.72441021  0.26197988  1
  H  H7  1  0.87331725  0.34238591  0.28614393  1
  H  H8  1  0.12668275  0.71385607  0.65761409  1
  H  H9  1  0.50000000  0.09623177  0.90376823  1
  C  C10  1  0.70894723  0.89311044  0.27934754  1
  C  C11  1  0.29105277  0.72065246  0.10688956  1
  C  C12  1  0.03570781  0.23503668  0.29106963  1
  C  C13  1  0.96429219  0.70893037  0.76496332  1
  C  C14  1  0.50000000  0.24851868  0.75148132  1
  N  N15  1  0.54069899  0.86076598  0.44473610  1
  N  N16  1  0.45930101  0.55526390  0.13923402  1
  O  O17  1  0.74216923  0.08133804  0.13528631  1
  O  O18  1  0.25783077  0.86471369  0.91866196  1
  O  O19  1  0.32928615  0.32741637  0.66588238  1
  O  O20  1  0.67071385  0.33411762  0.67258363  1
  O  O21  1  0.11786214  0.18843057  0.46288287  1
  O  O22  1  0.88213786  0.53711713  0.81156943  1
  O  O23  1  0.12644696  0.16785036  0.13177035  1
  O  O24  1  0.87355304  0.86822965  0.83214964  1
