# generated using pymatgen
data_Ag2PS3
_symmetry_space_group_name_H-M   'P 1'
_cell_length_a   6.33797491
_cell_length_b   11.23478064
_cell_length_c   14.38294675
_cell_angle_alpha   90.00000000
_cell_angle_beta   90.00000000
_cell_angle_gamma   90.00000000
_symmetry_Int_Tables_number   1
_chemical_formula_structural   Ag2PS3
_chemical_formula_sum   'Ag16 P8 S24'
_cell_volume   1024.14862296
_cell_formula_units_Z   8
loop_
 _symmetry_equiv_pos_site_id
 _symmetry_equiv_pos_as_xyz
  1  'x, y, z'
loop_
 _atom_site_type_symbol
 _atom_site_label
 _atom_site_symmetry_multiplicity
 _atom_site_fract_x
 _atom_site_fract_y
 _atom_site_fract_z
 _atom_site_occupancy
  Ag  Ag0  1  0.34091489  0.12376722  0.37811376  1
  Ag  Ag1  1  0.65810597  0.11016387  0.86269321  1
  Ag  Ag2  1  0.43844886  0.04574988  0.12443649  1
  Ag  Ag3  1  0.06155114  0.54574988  0.87556351  1
  Ag  Ag4  1  0.15908511  0.62376722  0.62188624  1
  Ag  Ag5  1  0.26261107  0.93818110  0.86912538  1
  Ag  Ag6  1  0.76261107  0.06181890  0.63087462  1
  Ag  Ag7  1  0.34189403  0.38983613  0.36269321  1
  Ag  Ag8  1  0.15810597  0.88983613  0.63730679  1
  Ag  Ag9  1  0.56155114  0.45425012  0.62443649  1
  Ag  Ag10  1  0.65908511  0.37623278  0.87811376  1
  Ag  Ag11  1  0.93844886  0.95425012  0.37556351  1
  Ag  Ag12  1  0.73738893  0.56181890  0.36912538  1
  Ag  Ag13  1  0.84189403  0.61016387  0.13730679  1
  Ag  Ag14  1  0.84091489  0.87623278  0.12188624  1
  Ag  Ag15  1  0.23738893  0.43818110  0.13087462  1
  P  P16  1  0.62828202  0.77581849  0.54911069  1
  P  P17  1  0.82165771  0.24928419  0.29217374  1
  P  P18  1  0.12828202  0.22418151  0.95088931  1
  P  P19  1  0.32165771  0.75071581  0.20782626  1
  P  P20  1  0.37171798  0.72418151  0.04911069  1
  P  P21  1  0.17834229  0.25071581  0.79217374  1
  P  P22  1  0.87171798  0.27581849  0.45088931  1
  P  P23  1  0.67834229  0.74928419  0.70782626  1
  S  S24  1  0.16519975  0.91313530  0.21938440  1
  S  S25  1  0.45664767  0.62979835  0.50514220  1
  S  S26  1  0.95664767  0.37020165  0.99485780  1
  S  S27  1  0.66519975  0.08686470  0.28061560  1
  S  S28  1  0.52517785  0.56488219  0.03608459  1
  S  S29  1  0.64607829  0.39112919  0.24732466  1
  S  S30  1  0.91697153  0.77530755  0.48706599  1
  S  S31  1  0.83480025  0.58686470  0.71938440  1
  S  S32  1  0.88989042  0.25862387  0.73268326  1
  S  S33  1  0.02517785  0.43511781  0.46391541  1
  S  S34  1  0.33480025  0.41313530  0.78061560  1
  S  S35  1  0.47482215  0.93511781  0.53608459  1
  S  S36  1  0.14607829  0.60887081  0.25267534  1
  S  S37  1  0.41697153  0.22469245  0.01293401  1
  S  S38  1  0.38989042  0.74137613  0.76731674  1
  S  S39  1  0.11010958  0.24137613  0.23268326  1
  S  S40  1  0.54335233  0.87020165  0.00514220  1
  S  S41  1  0.04335233  0.12979835  0.49485780  1
  S  S42  1  0.08302847  0.72469245  0.98706599  1
  S  S43  1  0.61010958  0.75862387  0.26731674  1
  S  S44  1  0.85392171  0.89112919  0.75267534  1
  S  S45  1  0.97482215  0.06488219  0.96391541  1
  S  S46  1  0.58302847  0.27530755  0.51293401  1
  S  S47  1  0.35392171  0.10887081  0.74732466  1
