# generated using pymatgen
data_YMoClO4
_symmetry_space_group_name_H-M   'P 1'
_cell_length_a   6.33738381
_cell_length_b   6.33738321
_cell_length_c   6.95026626
_cell_angle_alpha   75.95139611
_cell_angle_beta   75.95139736
_cell_angle_gamma   70.87796612
_symmetry_Int_Tables_number   1
_chemical_formula_structural   YMoClO4
_chemical_formula_sum   'Y2 Mo2 Cl2 O8'
_cell_volume   251.75942910
_cell_formula_units_Z   2
loop_
 _symmetry_equiv_pos_site_id
 _symmetry_equiv_pos_as_xyz
  1  'x, y, z'
loop_
 _atom_site_type_symbol
 _atom_site_label
 _atom_site_symmetry_multiplicity
 _atom_site_fract_x
 _atom_site_fract_y
 _atom_site_fract_z
 _atom_site_occupancy
  Y  Y0  1  0.77841177  0.77841177  0.11383938  1
  Y  Y1  1  0.22158823  0.22158823  0.88616062  1
  Mo  Mo2  1  0.36205121  0.36205121  0.26852205  1
  Mo  Mo3  1  0.63794879  0.63794879  0.73147795  1
  Cl  Cl4  1  0.98906955  0.98906955  0.76808199  1
  Cl  Cl5  1  0.01093045  0.01093045  0.23191801  1
  O  O6  1  0.88995275  0.50888053  0.84648347  1
  O  O7  1  0.11004725  0.49111947  0.15351653  1
  O  O8  1  0.45750365  0.45750365  0.79800259  1
  O  O9  1  0.29347399  0.29347399  0.53419397  1
  O  O10  1  0.54249635  0.54249635  0.20199741  1
  O  O11  1  0.70652601  0.70652601  0.46580603  1
  O  O12  1  0.49111947  0.11004725  0.15351653  1
  O  O13  1  0.50888053  0.88995275  0.84648347  1
