# generated using pymatgen
data_K2Th(MoO4)3
_symmetry_space_group_name_H-M   'P 1'
_cell_length_a   5.46564384
_cell_length_b   10.96486265
_cell_length_c   10.96486295
_cell_angle_alpha   68.60768422
_cell_angle_beta   77.67134007
_cell_angle_gamma   77.67133719
_symmetry_Int_Tables_number   1
_chemical_formula_structural   K2Th(MoO4)3
_chemical_formula_sum   'K4 Th2 Mo6 O24'
_cell_volume   591.05924067
_cell_formula_units_Z   2
loop_
 _symmetry_equiv_pos_site_id
 _symmetry_equiv_pos_as_xyz
  1  'x, y, z'
loop_
 _atom_site_type_symbol
 _atom_site_label
 _atom_site_symmetry_multiplicity
 _atom_site_fract_x
 _atom_site_fract_y
 _atom_site_fract_z
 _atom_site_occupancy
  K  K0  1  0.41221959  0.95606944  0.70970119  1
  K  K1  1  0.58778041  0.04393056  0.29029781  1
  K  K2  1  0.91221959  0.70970119  0.95606944  1
  K  K3  1  0.08778041  0.29029781  0.04393056  1
  Th  Th4  1  0.25000000  0.37204189  0.62795811  1
  Th  Th5  1  0.75000000  0.62795811  0.37204189  1
  Mo  Mo6  1  0.61047760  0.54279109  0.76357574  1
  Mo  Mo7  1  0.11047760  0.76357574  0.54279109  1
  Mo  Mo8  1  0.38952240  0.45720891  0.23642426  1
  Mo  Mo9  1  0.88952240  0.23642426  0.45720891  1
  Mo  Mo10  1  0.25000000  0.85596413  0.14403587  1
  Mo  Mo11  1  0.75000000  0.14403587  0.85596413  1
  O  O12  1  0.07286220  0.01193862  0.13594781  1
  O  O13  1  0.96562902  0.26831116  0.81167874  1
  O  O14  1  0.14453481  0.46952620  0.38700963  1
  O  O15  1  0.03437098  0.73168884  0.18832126  1
  O  O16  1  0.91228343  0.74587719  0.69559994  1
  O  O17  1  0.10290990  0.20855047  0.57647036  1
  O  O18  1  0.57286220  0.13594781  0.01193862  1
  O  O19  1  0.24713753  0.50008574  0.09514286  1
  O  O20  1  0.42713780  0.86405219  0.98806138  1
  O  O21  1  0.46562902  0.81167874  0.26831116  1
  O  O22  1  0.58771657  0.30440006  0.25412281  1
  O  O23  1  0.64453481  0.38700963  0.46952620  1
  O  O24  1  0.39709010  0.42352964  0.79144953  1
  O  O25  1  0.75286247  0.49991426  0.90485714  1
  O  O26  1  0.60290990  0.57647036  0.20855047  1
  O  O27  1  0.74713753  0.09514286  0.50008574  1
  O  O28  1  0.25286247  0.90485714  0.49991426  1
  O  O29  1  0.41228343  0.69559994  0.74587719  1
  O  O30  1  0.08771657  0.25412281  0.30440006  1
  O  O31  1  0.92713780  0.98806138  0.86405219  1
  O  O32  1  0.89709010  0.79144953  0.42352964  1
  O  O33  1  0.53437098  0.18832126  0.73168884  1
  O  O34  1  0.35546519  0.61299037  0.53047380  1
  O  O35  1  0.85546519  0.53047380  0.61299037  1
