# generated using pymatgen
data_MgO
_symmetry_space_group_name_H-M   'P 1'
_cell_length_a   4.18840887
_cell_length_b   9.66811903
_cell_length_c   9.66811903
_cell_angle_alpha   119.99999991
_cell_angle_beta   90.00000000
_cell_angle_gamma   90.00000000
_symmetry_Int_Tables_number   1
_chemical_formula_structural   MgO
_chemical_formula_sum   'Mg12 O12'
_cell_volume   339.04994612
_cell_formula_units_Z   12
loop_
 _symmetry_equiv_pos_site_id
 _symmetry_equiv_pos_as_xyz
  1  'x, y, z'
loop_
 _atom_site_type_symbol
 _atom_site_label
 _atom_site_symmetry_multiplicity
 _atom_site_fract_x
 _atom_site_fract_y
 _atom_site_fract_z
 _atom_site_occupancy
  Mg  Mg0  1  0.50000000  0.87756929  0.54596749  1
  Mg  Mg1  1  0.50000000  0.66839819  0.12243071  1
  Mg  Mg2  1  0.50000000  0.45403251  0.33160181  1
  Mg  Mg3  1  -0.00000000  0.33160181  0.45403251  1
  Mg  Mg4  1  -0.00000000  0.54596749  0.87756929  1
  Mg  Mg5  1  0.00000000  0.12243071  0.66839819  1
  Mg  Mg6  1  0.50000000  0.12243071  0.45403251  1
  Mg  Mg7  1  0.50000000  0.33160181  0.87756929  1
  Mg  Mg8  1  0.50000000  0.54596749  0.66839819  1
  Mg  Mg9  1  0.00000000  0.66839819  0.54596749  1
  Mg  Mg10  1  0.00000000  0.45403251  0.12243071  1
  Mg  Mg11  1  -0.00000000  0.87756929  0.33160181  1
  O  O12  1  -0.00000000  0.87751224  0.54866153  1
  O  O13  1  0.00000000  0.67114929  0.12248776  1
  O  O14  1  -0.00000000  0.45133847  0.32885071  1
  O  O15  1  0.50000000  0.32885071  0.45133847  1
  O  O16  1  0.50000000  0.54866153  0.87751224  1
  O  O17  1  0.50000000  0.12248776  0.67114929  1
  O  O18  1  0.00000000  0.12248776  0.45133847  1
  O  O19  1  -0.00000000  0.32885071  0.87751224  1
  O  O20  1  0.00000000  0.54866153  0.67114929  1
  O  O21  1  0.50000000  0.67114929  0.54866153  1
  O  O22  1  0.50000000  0.45133847  0.12248776  1
  O  O23  1  0.50000000  0.87751224  0.32885071  1
