# generated using pymatgen
data_V2ZnPbO7
_symmetry_space_group_name_H-M   'P 1'
_cell_length_a   7.02697545
_cell_length_b   11.56438105
_cell_length_c   15.07179957
_cell_angle_alpha   90.00000000
_cell_angle_beta   90.00000000
_cell_angle_gamma   99.66646385
_symmetry_Int_Tables_number   1
_chemical_formula_structural   V2ZnPbO7
_chemical_formula_sum   'V16 Zn8 Pb8 O56'
_cell_volume   1207.38450831
_cell_formula_units_Z   8
loop_
 _symmetry_equiv_pos_site_id
 _symmetry_equiv_pos_as_xyz
  1  'x, y, z'
loop_
 _atom_site_type_symbol
 _atom_site_label
 _atom_site_symmetry_multiplicity
 _atom_site_fract_x
 _atom_site_fract_y
 _atom_site_fract_z
 _atom_site_occupancy
  V  V0  1  0.52380839  0.80056005  0.70358110  1
  V  V1  1  0.59208166  0.32268733  0.98636144  1
  V  V2  1  0.86634557  0.98254382  0.36106972  1
  V  V3  1  0.84875984  0.47764005  0.63800039  1
  V  V4  1  0.15124016  0.52235995  0.36199961  1
  V  V5  1  0.47619161  0.19943995  0.29641890  1
  V  V6  1  0.84875984  0.97764005  0.86199961  1
  V  V7  1  0.52380839  0.30056005  0.79641890  1
  V  V8  1  0.40791834  0.67731267  0.01363856  1
  V  V9  1  0.40791834  0.17731267  0.48636144  1
  V  V10  1  0.47619161  0.69943995  0.20358110  1
  V  V11  1  0.15124016  0.02235995  0.13800039  1
  V  V12  1  0.13365443  0.01745618  0.63893028  1
  V  V13  1  0.86634557  0.48254382  0.13893028  1
  V  V14  1  0.13365443  0.51745618  0.86106972  1
  V  V15  1  0.59208166  0.82268733  0.51363856  1
  Zn  Zn16  1  0.01144399  0.24684152  0.75422500  1
  Zn  Zn17  1  0.35068701  0.92140347  0.32853598  1
  Zn  Zn18  1  0.64931299  0.57859653  0.82853598  1
  Zn  Zn19  1  0.98855601  0.75315848  0.24577500  1
  Zn  Zn20  1  0.01144399  0.74684152  0.74577500  1
  Zn  Zn21  1  0.98855601  0.25315848  0.25422500  1
  Zn  Zn22  1  0.64931299  0.07859653  0.67146402  1
  Zn  Zn23  1  0.35068701  0.42140347  0.17146402  1
  Pb  Pb24  1  0.07975274  0.73596933  0.51361227  1
  Pb  Pb25  1  0.92024726  0.26403067  0.48638773  1
  Pb  Pb26  1  0.65849663  0.53267894  0.37106894  1
  Pb  Pb27  1  0.65849663  0.03267894  0.12893106  1
  Pb  Pb28  1  0.34150337  0.46732106  0.62893106  1
  Pb  Pb29  1  0.92024726  0.76403067  0.01361227  1
  Pb  Pb30  1  0.07975274  0.23596933  0.98638773  1
  Pb  Pb31  1  0.34150337  0.96732106  0.87106894  1
  O  O32  1  0.43600524  0.72122166  0.60419863  1
  O  O33  1  0.56399476  0.77877834  0.10419863  1
  O  O34  1  0.32397533  0.54342365  0.78867707  1
  O  O35  1  0.00179124  0.37363015  0.65328316  1
  O  O36  1  0.76174848  0.45516330  0.53291657  1
  O  O37  1  0.00612178  0.38312334  0.35613399  1
  O  O38  1  0.03750012  0.36750438  0.85822115  1
  O  O39  1  0.59261608  0.16885861  0.55884027  1
  O  O40  1  0.99820876  0.12636985  0.15328316  1
  O  O41  1  0.34710540  0.04497061  0.21473958  1
  O  O42  1  0.22717812  0.54994488  0.96858059  1
  O  O43  1  0.23825152  0.54483670  0.46708343  1
  O  O44  1  0.31855733  0.79485311  0.76641077  1
  O  O45  1  0.03750012  0.86750438  0.64177885  1
  O  O46  1  0.68976097  0.22024785  0.75278162  1
  O  O47  1  0.03930296  0.39197199  0.16427456  1
  O  O48  1  0.68144267  0.20514689  0.23358923  1
  O  O49  1  0.31023903  0.27975215  0.25278162  1
  O  O50  1  0.23825152  0.04483670  0.03291657  1
  O  O51  1  0.96069704  0.60802801  0.83572544  1
  O  O52  1  0.28124573  0.78525890  0.98366391  1
  O  O53  1  0.38599042  0.08397874  0.38001643  1
  O  O54  1  0.00179124  0.87363015  0.84671684  1
  O  O55  1  0.67602467  0.95657635  0.28867707  1
  O  O56  1  0.43600524  0.22122166  0.89580137  1
  O  O57  1  0.99387822  0.61687666  0.64386601  1
  O  O58  1  0.71875427  0.21474110  0.01633609  1
  O  O59  1  0.22717812  0.04994488  0.53141941  1
  O  O60  1  0.59261608  0.66885861  0.94115973  1
  O  O61  1  0.03930296  0.89197199  0.33572544  1
  O  O62  1  0.61400958  0.91602126  0.61998357  1
  O  O63  1  0.96249988  0.13249562  0.35822115  1
  O  O64  1  0.31023903  0.77975215  0.24721838  1
  O  O65  1  0.67602467  0.45657635  0.21132293  1
  O  O66  1  0.68976097  0.72024785  0.74721838  1
  O  O67  1  0.71875427  0.71474110  0.48366391  1
  O  O68  1  0.77282188  0.95005512  0.46858059  1
  O  O69  1  0.61400958  0.41602126  0.88001643  1
  O  O70  1  0.68144267  0.70514689  0.26641077  1
  O  O71  1  0.28124573  0.28525890  0.51633609  1
  O  O72  1  0.76174848  0.95516330  0.96708343  1
  O  O73  1  0.56399476  0.27877834  0.39580137  1
  O  O74  1  0.99387822  0.11687666  0.85613399  1
  O  O75  1  0.96249988  0.63249562  0.14177885  1
  O  O76  1  0.34710540  0.54497061  0.28526042  1
  O  O77  1  0.65289460  0.95502939  0.78526042  1
  O  O78  1  0.31855733  0.29485311  0.73358923  1
  O  O79  1  0.96069704  0.10802801  0.66427456  1
  O  O80  1  0.40738392  0.33114139  0.05884027  1
  O  O81  1  0.32397533  0.04342365  0.71132293  1
  O  O82  1  0.65289460  0.45502939  0.71473958  1
  O  O83  1  0.99820876  0.62636985  0.34671684  1
  O  O84  1  0.77282188  0.45005512  0.03141941  1
  O  O85  1  0.00612178  0.88312334  0.14386601  1
  O  O86  1  0.40738392  0.83114139  0.44115973  1
  O  O87  1  0.38599042  0.58397874  0.11998357  1
