# generated using pymatgen
data_NaLiV2O6
_symmetry_space_group_name_H-M   'P 1'
_cell_length_a   5.91184592
_cell_length_b   6.95553993
_cell_length_c   6.95554011
_cell_angle_alpha   83.22738407
_cell_angle_beta   75.30011726
_cell_angle_gamma   75.30011716
_symmetry_Int_Tables_number   1
_chemical_formula_structural   NaLiV2O6
_chemical_formula_sum   'Na2 Li2 V4 O12'
_cell_volume   267.15697434
_cell_formula_units_Z   2
loop_
 _symmetry_equiv_pos_site_id
 _symmetry_equiv_pos_as_xyz
  1  'x, y, z'
loop_
 _atom_site_type_symbol
 _atom_site_label
 _atom_site_symmetry_multiplicity
 _atom_site_fract_x
 _atom_site_fract_y
 _atom_site_fract_z
 _atom_site_occupancy
  Na  Na0  1  0.75000000  0.71353239  0.28646761  1
  Na  Na1  1  0.25000000  0.28646761  0.71353239  1
  Li  Li2  1  0.75000000  0.08795948  0.91204052  1
  Li  Li3  1  0.25000000  0.91204052  0.08795948  1
  V  V4  1  0.25566065  0.38004740  0.19605600  1
  V  V5  1  0.24433935  0.80394400  0.61995260  1
  V  V6  1  0.75566065  0.19605600  0.38004740  1
  V  V7  1  0.74433935  0.61995260  0.80394400  1
  O  O8  1  0.64420029  0.78971447  0.97864466  1
  O  O9  1  0.53482851  0.64594903  0.64414024  1
  O  O10  1  0.70310298  0.09261078  0.61192574  1
  O  O11  1  0.85579971  0.02135534  0.21028553  1
  O  O12  1  0.79689702  0.38807426  0.90738922  1
  O  O13  1  0.03482851  0.64414024  0.64594903  1
  O  O14  1  0.35579971  0.21028553  0.02135534  1
  O  O15  1  0.46517149  0.35405097  0.35585976  1
  O  O16  1  0.29689702  0.90738922  0.38807426  1
  O  O17  1  0.14420029  0.97864466  0.78971447  1
  O  O18  1  0.20310298  0.61192574  0.09261078  1
  O  O19  1  0.96517149  0.35585976  0.35405097  1
