# generated using pymatgen
data_Rb2In3
_symmetry_space_group_name_H-M   'P 1'
_cell_length_a   7.01401928
_cell_length_b   7.01401949
_cell_length_c   9.47583759
_cell_angle_alpha   111.72179755
_cell_angle_beta   111.72179823
_cell_angle_gamma   89.99999668
_symmetry_Int_Tables_number   1
_chemical_formula_structural   Rb2In3
_chemical_formula_sum   'Rb4 In6'
_cell_volume   397.22383428
_cell_formula_units_Z   2
loop_
 _symmetry_equiv_pos_site_id
 _symmetry_equiv_pos_as_xyz
  1  'x, y, z'
loop_
 _atom_site_type_symbol
 _atom_site_label
 _atom_site_symmetry_multiplicity
 _atom_site_fract_x
 _atom_site_fract_y
 _atom_site_fract_z
 _atom_site_occupancy
  Rb  Rb0  1  0.61001201  0.61001201  0.22002401  1
  Rb  Rb1  1  0.38998799  0.38998799  0.77997599  1
  Rb  Rb2  1  0.75000000  0.25000000  0.50000000  1
  Rb  Rb3  1  0.25000000  0.75000000  0.50000000  1
  In  In4  1  1.00000000  0.70446546  1.00000000  1
  In  In5  1  0.85275466  0.85275466  0.70550932  1
  In  In6  1  0.14724534  0.14724534  0.29449068  1
  In  In7  1  0.70446546  1.00000000  1.00000000  1
  In  In8  1  0.00000000  0.29553454  0.00000000  1
  In  In9  1  0.29553454  0.00000000  0.00000000  1
