# generated using pymatgen
data_Cs2Li3Br5
_symmetry_space_group_name_H-M   'P 1'
_cell_length_a   4.42307215
_cell_length_b   8.23044361
_cell_length_c   10.20684126
_cell_angle_alpha   66.56768566
_cell_angle_beta   77.48636483
_cell_angle_gamma   74.41296039
_symmetry_Int_Tables_number   1
_chemical_formula_structural   Cs2Li3Br5
_chemical_formula_sum   'Cs2 Li3 Br5'
_cell_volume   325.84208305
_cell_formula_units_Z   1
loop_
 _symmetry_equiv_pos_site_id
 _symmetry_equiv_pos_as_xyz
  1  'x, y, z'
loop_
 _atom_site_type_symbol
 _atom_site_label
 _atom_site_symmetry_multiplicity
 _atom_site_fract_x
 _atom_site_fract_y
 _atom_site_fract_z
 _atom_site_occupancy
  Cs  Cs0  1  0.81318392  0.64358526  0.73004691  1
  Cs  Cs1  1  0.18681608  0.35641474  0.26995309  1
  Li  Li2  1  0.54916544  0.19345029  0.70821883  1
  Li  Li3  1  0.45083456  0.80654971  0.29178117  1
  Li  Li4  1  0.00000000  0.00000000  0.00000000  1
  Br  Br5  1  0.40387934  0.25469514  0.93754619  1
  Br  Br6  1  0.59612066  0.74530486  0.06245381  1
  Br  Br7  1  0.86841651  0.96984015  0.29332683  1
  Br  Br8  1  0.50000000  0.50000000  0.50000000  1
  Br  Br9  1  0.13158349  0.03015985  0.70667317  1
