# generated using pymatgen
data_Ag2Hg7(P4Br3)2
_symmetry_space_group_name_H-M   'P 1'
_cell_length_a   8.27716763
_cell_length_b   8.59608146
_cell_length_c   8.59608105
_cell_angle_alpha   80.52406308
_cell_angle_beta   81.26864601
_cell_angle_gamma   81.26864422
_symmetry_Int_Tables_number   1
_chemical_formula_structural   Ag2Hg7(P4Br3)2
_chemical_formula_sum   'Ag2 Hg7 P8 Br6'
_cell_volume   591.21878908
_cell_formula_units_Z   1
loop_
 _symmetry_equiv_pos_site_id
 _symmetry_equiv_pos_as_xyz
  1  'x, y, z'
loop_
 _atom_site_type_symbol
 _atom_site_label
 _atom_site_symmetry_multiplicity
 _atom_site_fract_x
 _atom_site_fract_y
 _atom_site_fract_z
 _atom_site_occupancy
  Ag  Ag0  1  0.50000000  0.00000000  0.50000000  1
  Ag  Ag1  1  0.50000000  0.50000000  0.00000000  1
  Hg  Hg2  1  0.23534786  0.73282825  0.36702097  1
  Hg  Hg3  1  0.13329332  0.27359830  0.27359830  1
  Hg  Hg4  1  0.23534786  0.36702097  0.73282825  1
  Hg  Hg5  1  0.76465214  0.26717175  0.63297903  1
  Hg  Hg6  1  0.00000000  0.00000000  0.00000000  1
  Hg  Hg7  1  0.86670668  0.72640170  0.72640170  1
  Hg  Hg8  1  0.76465214  0.63297903  0.26717175  1
  P  P9  1  0.57521638  0.76260185  0.07571389  1
  P  P10  1  0.74409628  0.91343860  0.91343860  1
  P  P11  1  0.06779177  0.56261813  0.56261813  1
  P  P12  1  0.42478362  0.23739815  0.92428611  1
  P  P13  1  0.25590372  0.08656140  0.08656140  1
  P  P14  1  0.57521638  0.07571389  0.76260185  1
  P  P15  1  0.42478362  0.92428611  0.23739815  1
  P  P16  1  0.93220823  0.43738187  0.43738187  1
  Br  Br17  1  0.14681984  0.63815438  0.04986005  1
  Br  Br18  1  0.45695229  0.35471623  0.35471623  1
  Br  Br19  1  0.54304771  0.64528377  0.64528377  1
  Br  Br20  1  0.14681984  0.04986005  0.63815438  1
  Br  Br21  1  0.85318016  0.95013995  0.36184562  1
  Br  Br22  1  0.85318016  0.36184562  0.95013995  1
