# generated using pymatgen
data_BaP4(W2O7)8
_symmetry_space_group_name_H-M   'P 1'
_cell_length_a   7.70569835
_cell_length_b   9.50592568
_cell_length_c   17.06504368
_cell_angle_alpha   81.68347969
_cell_angle_beta   76.95413732
_cell_angle_gamma   66.06286737
_symmetry_Int_Tables_number   1
_chemical_formula_structural   BaP4(W2O7)8
_chemical_formula_sum   'Ba1 P4 W16 O56'
_cell_volume   1111.03318675
_cell_formula_units_Z   1
loop_
 _symmetry_equiv_pos_site_id
 _symmetry_equiv_pos_as_xyz
  1  'x, y, z'
loop_
 _atom_site_type_symbol
 _atom_site_label
 _atom_site_symmetry_multiplicity
 _atom_site_fract_x
 _atom_site_fract_y
 _atom_site_fract_z
 _atom_site_occupancy
  Ba  Ba0  1  0.00000000  0.50000000  0.50000000  1
  P  P1  1  0.47006603  0.22284932  0.43542794  1
  P  P2  1  0.52993397  0.77715068  0.56457206  1
  P  P3  1  0.13155208  0.77487934  0.56396068  1
  P  P4  1  0.86844792  0.22512066  0.43603932  1
  W  W5  1  0.87856740  0.69091540  0.05252879  1
  W  W6  1  0.10989848  0.53966628  0.74167414  1
  W  W7  1  0.89010152  0.46033372  0.25832586  1
  W  W8  1  0.62180310  0.31022108  0.94671755  1
  W  W9  1  0.14524915  0.85355302  0.35872326  1
  W  W10  1  0.13453677  0.07956976  0.15095337  1
  W  W11  1  0.37819690  0.68977892  0.05328245  1
  W  W12  1  0.86546323  0.92043024  0.84904663  1
  W  W13  1  0.36591531  0.91759997  0.84884176  1
  W  W14  1  0.61074274  0.53512461  0.73995128  1
  W  W15  1  0.12143260  0.30908560  0.94747121  1
  W  W16  1  0.38925726  0.46487539  0.26004872  1
  W  W17  1  0.35526103  0.15115795  0.64244726  1
  W  W18  1  0.85475085  0.14644698  0.64127674  1
  W  W19  1  0.64473897  0.84884205  0.35755274  1
  W  W20  1  0.63408469  0.08240003  0.15115824  1
  O  O21  1  0.10351430  0.16733902  0.63773843  1
  O  O22  1  0.65848338  0.75165295  0.48015005  1
  O  O23  1  0.84397820  0.04312208  0.73935609  1
  O  O24  1  0.88548507  0.24951885  0.52110398  1
  O  O25  1  0.50000000  0.50000000  0.00000000  1
  O  O26  1  0.45414383  0.94143271  0.58766063  1
  O  O27  1  0.39616073  0.57473157  0.16329925  1
  O  O28  1  0.37200480  0.04427596  0.73934123  1
  O  O29  1  0.87780147  0.08134014  0.16559829  1
  O  O30  1  0.11451493  0.75048115  0.47889602  1
  O  O31  1  0.12219853  0.91865986  0.83440171  1
  O  O32  1  0.62799520  0.95572404  0.26065977  1
  O  O33  1  0.64662960  0.65411957  0.62161362  1
  O  O34  1  0.86564531  0.57454225  0.16259676  1
  O  O35  1  0.35337040  0.34588043  0.37838638  1
  O  O36  1  0.35501177  0.73086324  0.56105039  1
  O  O37  1  0.74648736  0.64888233  0.32235112  1
  O  O38  1  0.61741014  0.91886585  0.84827492  1
  O  O39  1  0.24153460  0.11058680  0.89514115  1
  O  O40  1  0.38258986  0.08113415  0.15172508  1
  O  O41  1  0.87730998  0.31644032  0.93975732  1
  O  O42  1  0.91846249  0.34906684  0.37935006  1
  O  O43  1  0.50188612  0.73162156  0.78473991  1
  O  O44  1  0.87255413  0.52470226  0.73467362  1
  O  O45  1  0.36219299  0.80435786  0.94578507  1
  O  O46  1  0.12269002  0.68355968  0.06024268  1
  O  O47  1  0.24850235  0.88734462  0.10404951  1
  O  O48  1  0.01942858  0.26757887  0.21468631  1
  O  O49  1  0.34151662  0.24834705  0.51984995  1
  O  O50  1  0.28155639  0.64335249  0.32328680  1
  O  O51  1  0.08153751  0.65093316  0.62064994  1
  O  O52  1  0.75846540  0.88941320  0.10485885  1
  O  O53  1  0.25351264  0.35111767  0.67764988  1
  O  O54  1  0.13435469  0.42545775  0.83740324  1
  O  O55  1  0.54585617  0.05856729  0.41233937  1
  O  O56  1  0.63780701  0.19564214  0.05421393  1
  O  O57  1  0.89648570  0.83266098  0.36226157  1
  O  O58  1  0.38700370  0.85979595  0.38193729  1
  O  O59  1  0.11300456  0.19542172  0.05312957  1
  O  O60  1  0.61299630  0.14020405  0.61806271  1
  O  O61  1  0.71844361  0.35664751  0.67671320  1
  O  O62  1  0.88699544  0.80457828  0.94687043  1
  O  O63  1  0.98057142  0.73242113  0.78531369  1
  O  O64  1  0.60383927  0.42526843  0.83670075  1
  O  O65  1  0.63014422  0.69932060  0.05083575  1
  O  O66  1  0.15602180  0.95687792  0.26064391  1
  O  O67  1  0.64593965  0.43751314  0.27391200  1
  O  O68  1  0.49811388  0.26837844  0.21526009  1
  O  O69  1  0.01658645  0.93860548  0.58662157  1
  O  O70  1  0.75149765  0.11265538  0.89595049  1
  O  O71  1  0.12744587  0.47529774  0.26532638  1
  O  O72  1  0.64498823  0.26913676  0.43894961  1
  O  O73  1  0.35406035  0.56248686  0.72608800  1
  O  O74  1  0.98341355  0.06139452  0.41337843  1
  O  O75  1  0.00000000  0.50000000  0.00000000  1
  O  O76  1  0.36985578  0.30067940  0.94916425  1
