# generated using pymatgen
data_Mg5Tl2
_symmetry_space_group_name_H-M   'P 1'
_cell_length_a   6.23664140
_cell_length_b   7.45565548
_cell_length_c   8.68255530
_cell_angle_alpha   115.41713239
_cell_angle_beta   110.97866697
_cell_angle_gamma   90.07824497
_symmetry_Int_Tables_number   1
_chemical_formula_structural   Mg5Tl2
_chemical_formula_sum   'Mg10 Tl4'
_cell_volume   334.67270186
_cell_formula_units_Z   2
loop_
 _symmetry_equiv_pos_site_id
 _symmetry_equiv_pos_as_xyz
  1  'x, y, z'
loop_
 _atom_site_type_symbol
 _atom_site_label
 _atom_site_symmetry_multiplicity
 _atom_site_fract_x
 _atom_site_fract_y
 _atom_site_fract_z
 _atom_site_occupancy
  Mg  Mg0  1  0.41524580  0.07501539  0.83106098  1
  Mg  Mg1  1  0.48430619  0.73415307  0.46850260  1
  Mg  Mg2  1  0.25002308  0.50000005  0.00000774  1
  Mg  Mg3  1  0.08416758  0.24403165  0.16908860  1
  Mg  Mg4  1  0.58475420  0.92498461  0.16893902  1
  Mg  Mg5  1  0.51569381  0.26584693  0.53149740  1
  Mg  Mg6  1  0.01553296  0.26550315  0.53089897  1
  Mg  Mg7  1  0.98446704  0.73449685  0.46910103  1
  Mg  Mg8  1  0.91583242  0.75596835  0.83091140  1
  Mg  Mg9  1  0.74997692  0.49999995  0.99999226  1
  Tl  Tl10  1  0.62293774  0.35718378  0.24596667  1
  Tl  Tl11  1  0.87689740  0.11124901  0.75405768  1
  Tl  Tl12  1  0.12310260  0.88875099  0.24594232  1
  Tl  Tl13  1  0.37706226  0.64281622  0.75403333  1
