# generated using pymatgen
data_Rb3P(W3O10)4
_symmetry_space_group_name_H-M   'P 1'
_cell_length_a   12.10129476
_cell_length_b   12.10129476
_cell_length_c   12.10129476
_cell_angle_alpha   90.00000000
_cell_angle_beta   90.00000000
_cell_angle_gamma   90.00000000
_symmetry_Int_Tables_number   1
_chemical_formula_structural   Rb3P(W3O10)4
_chemical_formula_sum   'Rb6 P2 W24 O80'
_cell_volume   1772.12975829
_cell_formula_units_Z   2
loop_
 _symmetry_equiv_pos_site_id
 _symmetry_equiv_pos_as_xyz
  1  'x, y, z'
loop_
 _atom_site_type_symbol
 _atom_site_label
 _atom_site_symmetry_multiplicity
 _atom_site_fract_x
 _atom_site_fract_y
 _atom_site_fract_z
 _atom_site_occupancy
  Rb  Rb0  1  0.75000000  0.75000000  0.25000000  1
  Rb  Rb1  1  0.75000000  0.25000000  0.25000000  1
  Rb  Rb2  1  0.75000000  0.25000000  0.75000000  1
  Rb  Rb3  1  0.25000000  0.75000000  0.75000000  1
  Rb  Rb4  1  0.25000000  0.75000000  0.25000000  1
  Rb  Rb5  1  0.25000000  0.25000000  0.75000000  1
  P  P6  1  0.75000000  0.75000000  0.75000000  1
  P  P7  1  0.25000000  0.25000000  0.25000000  1
  W  W8  1  0.24232081  0.46221494  0.03778506  1
  W  W9  1  0.53778506  0.74232081  0.53778506  1
  W  W10  1  0.75767919  0.53778506  0.96221494  1
  W  W11  1  0.46221494  0.03778506  0.24232081  1
  W  W12  1  0.03778506  0.03778506  0.25767919  1
  W  W13  1  0.53778506  0.96221494  0.75767919  1
  W  W14  1  0.74232081  0.53778506  0.53778506  1
  W  W15  1  0.46221494  0.25767919  0.46221494  1
  W  W16  1  0.46221494  0.24232081  0.03778506  1
  W  W17  1  0.25767919  0.46221494  0.46221494  1
  W  W18  1  0.53778506  0.75767919  0.96221494  1
  W  W19  1  0.46221494  0.46221494  0.25767919  1
  W  W20  1  0.03778506  0.25767919  0.03778506  1
  W  W21  1  0.53778506  0.53778506  0.74232081  1
  W  W22  1  0.74232081  0.96221494  0.96221494  1
  W  W23  1  0.96221494  0.75767919  0.53778506  1
  W  W24  1  0.24232081  0.03778506  0.46221494  1
  W  W25  1  0.96221494  0.53778506  0.75767919  1
  W  W26  1  0.03778506  0.24232081  0.46221494  1
  W  W27  1  0.25767919  0.03778506  0.03778506  1
  W  W28  1  0.75767919  0.96221494  0.53778506  1
  W  W29  1  0.03778506  0.46221494  0.24232081  1
  W  W30  1  0.96221494  0.96221494  0.74232081  1
  W  W31  1  0.96221494  0.74232081  0.96221494  1
  O  O32  1  0.96883087  0.37276640  0.12723360  1
  O  O33  1  0.37276640  0.37276640  0.53116913  1
  O  O34  1  0.03116913  0.62723360  0.87276640  1
  O  O35  1  0.84704139  0.49786693  0.65295861  1
  O  O36  1  0.67616929  0.67616929  0.67616929  1
  O  O37  1  0.43751653  0.43751653  0.76553895  1
  O  O38  1  0.56248347  0.23446105  0.56248347  1
  O  O39  1  0.84704139  0.84704139  0.00213307  1
  O  O40  1  0.87276640  0.03116913  0.62723360  1
  O  O41  1  0.34704139  0.50213307  0.15295861  1
  O  O42  1  0.43751653  0.73446105  0.06248347  1
  O  O43  1  0.62723360  0.46883087  0.62723360  1
  O  O44  1  0.56248347  0.26553895  0.93751653  1
  O  O45  1  0.87276640  0.87276640  0.46883087  1
  O  O46  1  0.32383071  0.17616929  0.17616929  1
  O  O47  1  0.99786693  0.15295861  0.15295861  1
  O  O48  1  0.93751653  0.56248347  0.26553895  1
  O  O49  1  0.37276640  0.12723360  0.96883087  1
  O  O50  1  0.99786693  0.34704139  0.34704139  1
  O  O51  1  0.65295861  0.84704139  0.49786693  1
  O  O52  1  0.26553895  0.93751653  0.56248347  1
  O  O53  1  0.12723360  0.37276640  0.96883087  1
  O  O54  1  0.50213307  0.15295861  0.34704139  1
  O  O55  1  0.15295861  0.34704139  0.50213307  1
  O  O56  1  0.34704139  0.15295861  0.50213307  1
  O  O57  1  0.62723360  0.62723360  0.46883087  1
  O  O58  1  0.46883087  0.62723360  0.62723360  1
  O  O59  1  0.50213307  0.34704139  0.15295861  1
  O  O60  1  0.49786693  0.65295861  0.84704139  1
  O  O61  1  0.93751653  0.93751653  0.23446105  1
  O  O62  1  0.49786693  0.84704139  0.65295861  1
  O  O63  1  0.62723360  0.87276640  0.03116913  1
  O  O64  1  0.56248347  0.56248347  0.23446105  1
  O  O65  1  0.76553895  0.06248347  0.06248347  1
  O  O66  1  0.93751653  0.26553895  0.56248347  1
  O  O67  1  0.84704139  0.00213307  0.84704139  1
  O  O68  1  0.34704139  0.34704139  0.99786693  1
  O  O69  1  0.00213307  0.65295861  0.65295861  1
  O  O70  1  0.73446105  0.43751653  0.06248347  1
  O  O71  1  0.06248347  0.43751653  0.73446105  1
  O  O72  1  0.12723360  0.12723360  0.53116913  1
  O  O73  1  0.96883087  0.12723360  0.37276640  1
  O  O74  1  0.34704139  0.99786693  0.34704139  1
  O  O75  1  0.06248347  0.06248347  0.76553895  1
  O  O76  1  0.67616929  0.82383071  0.82383071  1
  O  O77  1  0.06248347  0.73446105  0.43751653  1
  O  O78  1  0.73446105  0.06248347  0.43751653  1
  O  O79  1  0.17616929  0.32383071  0.17616929  1
  O  O80  1  0.23446105  0.93751653  0.93751653  1
  O  O81  1  0.43751653  0.06248347  0.73446105  1
  O  O82  1  0.87276640  0.46883087  0.87276640  1
  O  O83  1  0.12723360  0.53116913  0.12723360  1
  O  O84  1  0.65295861  0.65295861  0.00213307  1
  O  O85  1  0.37276640  0.96883087  0.12723360  1
  O  O86  1  0.65295861  0.49786693  0.84704139  1
  O  O87  1  0.23446105  0.56248347  0.56248347  1
  O  O88  1  0.15295861  0.99786693  0.15295861  1
  O  O89  1  0.87276640  0.62723360  0.03116913  1
  O  O90  1  0.15295861  0.50213307  0.34704139  1
  O  O91  1  0.26553895  0.56248347  0.93751653  1
  O  O92  1  0.12723360  0.96883087  0.37276640  1
  O  O93  1  0.37276640  0.53116913  0.37276640  1
  O  O94  1  0.76553895  0.43751653  0.43751653  1
  O  O95  1  0.84704139  0.65295861  0.49786693  1
  O  O96  1  0.93751653  0.23446105  0.93751653  1
  O  O97  1  0.53116913  0.37276640  0.37276640  1
  O  O98  1  0.56248347  0.93751653  0.26553895  1
  O  O99  1  0.43751653  0.76553895  0.43751653  1
  O  O100  1  0.17616929  0.17616929  0.32383071  1
  O  O101  1  0.06248347  0.76553895  0.06248347  1
  O  O102  1  0.62723360  0.03116913  0.87276640  1
  O  O103  1  0.32383071  0.32383071  0.32383071  1
  O  O104  1  0.65295861  0.00213307  0.65295861  1
  O  O105  1  0.00213307  0.84704139  0.84704139  1
  O  O106  1  0.82383071  0.67616929  0.82383071  1
  O  O107  1  0.46883087  0.87276640  0.87276640  1
  O  O108  1  0.53116913  0.12723360  0.12723360  1
  O  O109  1  0.82383071  0.82383071  0.67616929  1
  O  O110  1  0.15295861  0.15295861  0.99786693  1
  O  O111  1  0.03116913  0.87276640  0.62723360  1
