# generated using pymatgen
data_YH9C5(NO4)2
_symmetry_space_group_name_H-M   'P 1'
_cell_length_a   6.66366087
_cell_length_b   6.75639021
_cell_length_c   6.75639021
_cell_angle_alpha   65.76169780
_cell_angle_beta   74.83561769
_cell_angle_gamma   74.83561769
_symmetry_Int_Tables_number   1
_chemical_formula_structural   YH9C5(NO4)2
_chemical_formula_sum   'Y1 H9 C5 N2 O8'
_cell_volume   263.57334087
_cell_formula_units_Z   1
loop_
 _symmetry_equiv_pos_site_id
 _symmetry_equiv_pos_as_xyz
  1  'x, y, z'
loop_
 _atom_site_type_symbol
 _atom_site_label
 _atom_site_symmetry_multiplicity
 _atom_site_fract_x
 _atom_site_fract_y
 _atom_site_fract_z
 _atom_site_occupancy
  Y  Y0  1  0.00000000  0.94750180  0.05249820  1
  H  H1  1  0.42035142  0.58416080  0.85762321  1
  H  H2  1  0.57964858  0.14237679  0.41583920  1
  H  H3  1  0.53596807  0.68268988  0.57342594  1
  H  H4  1  0.46403193  0.42657406  0.31731012  1
  H  H5  1  0.12515107  0.79149455  0.58414967  1
  H  H6  1  0.87484893  0.41585033  0.20850545  1
  H  H7  1  0.81779523  0.41249907  0.61025667  1
  H  H8  1  0.18220477  0.38974333  0.58750093  1
  H  H9  1  0.50000000  0.03146133  0.96853867  1
  C  C10  1  0.96531812  0.89410618  0.57920678  1
  C  C11  1  0.03468188  0.42079322  0.10589382  1
  C  C12  1  0.70652468  0.41224797  0.76307499  1
  C  C13  1  0.29347532  0.23692501  0.58775203  1
  C  C14  1  0.50000000  0.88132050  0.11867950  1
  N  N15  1  0.54185862  0.57353041  0.73100337  1
  N  N16  1  0.45814138  0.26899663  0.42646959  1
  O  O17  1  0.33316405  0.79636639  0.19555443  1
  O  O18  1  0.66683595  0.80444557  0.20363361  1
  O  O19  1  0.88348150  0.93722939  0.41160765  1
  O  O20  1  0.11651850  0.58839235  0.06277061  1
  O  O21  1  0.73785548  0.26933060  0.94826583  1
  O  O22  1  0.26214452  0.05173417  0.73066940  1
  O  O23  1  0.87681795  0.95950605  0.73587640  1
  O  O24  1  0.12318205  0.26412360  0.04049395  1
