# generated using pymatgen
data_Fe3SiP5O19
_symmetry_space_group_name_H-M   'P 1'
_cell_length_a   14.58153125
_cell_length_b   14.58153107
_cell_length_c   7.64100716
_cell_angle_alpha   90.00000000
_cell_angle_beta   90.00000000
_cell_angle_gamma   119.99999817
_symmetry_Int_Tables_number   1
_chemical_formula_structural   Fe3SiP5O19
_chemical_formula_sum   'Fe12 Si4 P20 O76'
_cell_volume   1406.97864833
_cell_formula_units_Z   4
loop_
 _symmetry_equiv_pos_site_id
 _symmetry_equiv_pos_as_xyz
  1  'x, y, z'
loop_
 _atom_site_type_symbol
 _atom_site_label
 _atom_site_symmetry_multiplicity
 _atom_site_fract_x
 _atom_site_fract_y
 _atom_site_fract_z
 _atom_site_occupancy
  Fe  Fe0  1  0.65730617  0.97659413  0.28846566  1
  Fe  Fe1  1  0.68071204  0.65730617  0.78846566  1
  Fe  Fe2  1  0.32548807  0.33720044  0.69164809  1
  Fe  Fe3  1  0.02340587  0.68071204  0.28846566  1
  Fe  Fe4  1  0.33720044  0.01171236  0.19164809  1
  Fe  Fe5  1  0.67451193  0.66279956  0.19164809  1
  Fe  Fe6  1  0.97659413  0.31928796  0.78846566  1
  Fe  Fe7  1  0.66279956  0.98828764  0.69164809  1
  Fe  Fe8  1  0.31928796  0.34269383  0.28846566  1
  Fe  Fe9  1  0.98828764  0.32548807  0.19164809  1
  Fe  Fe10  1  0.01171236  0.67451193  0.69164809  1
  Fe  Fe11  1  0.34269383  0.02340587  0.78846566  1
  Si  Si12  1  0.66666700  0.33333300  0.95243186  1
  Si  Si13  1  0.66666700  0.33333300  0.53517404  1
  Si  Si14  1  0.33333300  0.66666700  0.03517404  1
  Si  Si15  1  0.33333300  0.66666700  0.45243186  1
  P  P16  1  0.57734268  0.09452394  0.99683859  1
  P  P17  1  0.77892080  0.56800564  0.48489193  1
  P  P18  1  0.21091515  0.77892080  0.98489193  1
  P  P19  1  0.09452394  0.51718027  0.49683859  1
  P  P20  1  0.08567647  0.23200461  0.48962580  1
  P  P21  1  0.51718027  0.42265732  0.99683859  1
  P  P22  1  0.85367186  0.08567647  0.98962580  1
  P  P23  1  0.90547606  0.48281973  0.99683859  1
  P  P24  1  0.00000000  0.00000000  0.93209830  1
  P  P25  1  0.22107920  0.43199436  0.98489193  1
  P  P26  1  0.76799539  0.85367186  0.48962580  1
  P  P27  1  0.91432353  0.76799539  0.98962580  1
  P  P28  1  0.42265732  0.90547606  0.49683859  1
  P  P29  1  0.78908485  0.22107920  0.48489193  1
  P  P30  1  0.00000000  0.00000000  0.43209830  1
  P  P31  1  0.43199436  0.21091515  0.48489193  1
  P  P32  1  0.23200461  0.14632814  0.98962580  1
  P  P33  1  0.56800564  0.78908485  0.98489193  1
  P  P34  1  0.14632814  0.91432353  0.48962580  1
  P  P35  1  0.48281973  0.57734268  0.49683859  1
  O  O36  1  0.45699762  0.38470317  0.82409028  1
  O  O37  1  0.36255033  0.26402631  0.48545949  1
  O  O38  1  0.60130230  0.54230705  0.99051513  1
  O  O39  1  0.42182003  0.64056252  0.52800579  1
  O  O40  1  0.55060721  0.30595956  0.46240640  1
  O  O41  1  0.94976034  0.55109472  0.15896020  1
  O  O42  1  0.78869544  0.03339048  0.15295330  1
  O  O43  1  0.55109472  0.60133438  0.65896020  1
  O  O44  1  0.33333300  0.66666700  0.24390183  1
  O  O45  1  0.14115180  0.72965862  0.82519598  1
  O  O46  1  0.00000000  0.00000000  0.24302305  1
  O  O47  1  0.66666700  0.33333300  0.74390183  1
  O  O48  1  0.54230705  0.94100475  0.49051513  1
  O  O49  1  0.73309305  0.57564736  0.66052051  1
  O  O50  1  0.58850582  0.85884820  0.82519598  1
  O  O51  1  0.69404044  0.24464765  0.46240640  1
  O  O52  1  0.27034138  0.41149418  0.82519598  1
  O  O53  1  0.84255531  0.26690695  0.66052051  1
  O  O54  1  0.03339048  0.24469504  0.65295330  1
  O  O55  1  0.44890528  0.39866562  0.15896020  1
  O  O56  1  0.95666160  0.07381214  0.00050529  1
  O  O57  1  0.24172430  0.20306878  0.81744385  1
  O  O58  1  0.72965862  0.58850582  0.32519598  1
  O  O59  1  0.24469504  0.21130456  0.15295330  1
  O  O60  1  0.45769295  0.05899525  0.99051513  1
  O  O61  1  0.30595956  0.75535235  0.96240740  1
  O  O62  1  0.96660952  0.75530496  0.15295330  1
  O  O63  1  0.09852402  0.36255033  0.98545949  1
  O  O64  1  0.69533105  0.90328121  0.49189702  1
  O  O65  1  0.21874350  0.57817997  0.52800579  1
  O  O66  1  0.79204884  0.69533105  0.99189702  1
  O  O67  1  0.63744967  0.73597369  0.98545949  1
  O  O68  1  0.78125650  0.42182003  0.02800579  1
  O  O69  1  0.26402631  0.90147598  0.98545949  1
  O  O70  1  0.92770555  0.54300238  0.82409028  1
  O  O71  1  0.73597369  0.09852402  0.48545949  1
  O  O72  1  0.61529683  0.07229445  0.82409028  1
  O  O73  1  0.00000000  0.00000000  0.74302305  1
  O  O74  1  0.20795116  0.30466895  0.49189702  1
  O  O75  1  0.75535235  0.44939279  0.46240640  1
  O  O76  1  0.35943748  0.78125650  0.52800579  1
  O  O77  1  0.03865452  0.24172430  0.31744385  1
  O  O78  1  0.42435264  0.15744469  0.66052051  1
  O  O79  1  0.38470317  0.92770555  0.32409028  1
  O  O80  1  0.26690695  0.42435264  0.16052051  1
  O  O81  1  0.54300238  0.61529683  0.32409028  1
  O  O82  1  0.90328121  0.20795116  0.99189702  1
  O  O83  1  0.39866562  0.94976034  0.65896020  1
  O  O84  1  0.07229445  0.45699762  0.32409028  1
  O  O85  1  0.60133438  0.05023966  0.15896020  1
  O  O86  1  0.92618786  0.88284946  0.00050529  1
  O  O87  1  0.90147598  0.63744967  0.48545949  1
  O  O88  1  0.96134548  0.75827570  0.81744385  1
  O  O89  1  0.30466895  0.09671879  0.99189702  1
  O  O90  1  0.64056252  0.21874350  0.02800579  1
  O  O91  1  0.15744469  0.73309305  0.16052051  1
  O  O92  1  0.44939279  0.69404044  0.96240740  1
  O  O93  1  0.20306878  0.96134548  0.31744385  1
  O  O94  1  0.79693122  0.03865452  0.81744385  1
  O  O95  1  0.57817997  0.35943748  0.02800579  1
  O  O96  1  0.39869770  0.45769295  0.49051513  1
  O  O97  1  0.21130456  0.96660952  0.65295330  1
  O  O98  1  0.75827570  0.79693122  0.31744385  1
  O  O99  1  0.09671879  0.79204884  0.49189702  1
  O  O100  1  0.41149418  0.14115180  0.32519598  1
  O  O101  1  0.07381214  0.11715054  0.50050529  1
  O  O102  1  0.75530496  0.78869544  0.65295330  1
  O  O103  1  0.85884820  0.27034138  0.32519598  1
  O  O104  1  0.05023966  0.44890528  0.65896020  1
  O  O105  1  0.57564736  0.84255531  0.16052051  1
  O  O106  1  0.94100475  0.39869770  0.99051513  1
  O  O107  1  0.11715054  0.04333840  0.00050529  1
  O  O108  1  0.88284946  0.95666160  0.50050529  1
  O  O109  1  0.05899525  0.60130230  0.49051513  1
  O  O110  1  0.04333840  0.92618786  0.50050529  1
  O  O111  1  0.24464765  0.55060721  0.96240740  1
