# generated using pymatgen
data_K2V3P4O17
_symmetry_space_group_name_H-M   'P 1'
_cell_length_a   7.38296926
_cell_length_b   11.65079165
_cell_length_c   17.72623299
_cell_angle_alpha   90.00000000
_cell_angle_beta   90.00000000
_cell_angle_gamma   90.00000000
_symmetry_Int_Tables_number   1
_chemical_formula_structural   K2V3P4O17
_chemical_formula_sum   'K8 V12 P16 O68'
_cell_volume   1524.76512249
_cell_formula_units_Z   4
loop_
 _symmetry_equiv_pos_site_id
 _symmetry_equiv_pos_as_xyz
  1  'x, y, z'
loop_
 _atom_site_type_symbol
 _atom_site_label
 _atom_site_symmetry_multiplicity
 _atom_site_fract_x
 _atom_site_fract_y
 _atom_site_fract_z
 _atom_site_occupancy
  K  K0  1  0.25631974  0.04313145  0.35460386  1
  K  K1  1  0.25631974  0.45686855  0.85460386  1
  K  K2  1  0.73588784  0.36916280  0.67131888  1
  K  K3  1  0.23588784  0.86916280  0.82868112  1
  K  K4  1  0.75631974  0.95686855  0.64539614  1
  K  K5  1  0.75631974  0.54313145  0.14539614  1
  K  K6  1  0.23588784  0.63083720  0.32868112  1
  K  K7  1  0.73588784  0.13083720  0.17131888  1
  V  V8  1  0.24326865  0.16146987  0.68900700  1
  V  V9  1  0.73810511  0.16128520  0.39826483  1
  V  V10  1  0.74326865  0.66146987  0.81099300  1
  V  V11  1  0.23810511  0.83871480  0.60173517  1
  V  V12  1  0.74326865  0.83853013  0.31099300  1
  V  V13  1  0.96544975  0.99811395  0.00075741  1
  V  V14  1  0.23810511  0.66128520  0.10173517  1
  V  V15  1  0.24326865  0.33853013  0.18900700  1
  V  V16  1  0.73810511  0.33871480  0.89826483  1
  V  V17  1  0.46544975  0.00188605  0.99924259  1
  V  V18  1  0.46544975  0.49811395  0.49924259  1
  V  V19  1  0.96544975  0.50188605  0.50075741  1
  P  P20  1  0.43719861  0.20968178  0.52592438  1
  P  P21  1  0.54202620  0.11095399  0.82591653  1
  P  P22  1  0.54202620  0.38904601  0.32591653  1
  P  P23  1  0.53185384  0.71186447  0.96992981  1
  P  P24  1  0.44446492  0.88834034  0.17091537  1
  P  P25  1  0.53185384  0.78813553  0.46992981  1
  P  P26  1  0.94446492  0.38834034  0.32908463  1
  P  P27  1  0.04202620  0.88904601  0.17408347  1
  P  P28  1  0.43719861  0.29031822  0.02592438  1
  P  P29  1  0.94446492  0.11165966  0.82908463  1
  P  P30  1  0.03185384  0.28813553  0.03007019  1
  P  P31  1  0.93719861  0.70968178  0.97407562  1
  P  P32  1  0.93719861  0.79031822  0.47407562  1
  P  P33  1  0.44446492  0.61165966  0.67091537  1
  P  P34  1  0.03185384  0.21186447  0.53007019  1
  P  P35  1  0.04202620  0.61095399  0.67408347  1
  O  O36  1  0.96685633  0.53294351  0.61281080  1
  O  O37  1  0.46685633  0.46705649  0.38718920  1
  O  O38  1  0.73231667  0.70812509  0.00854561  1
  O  O39  1  0.46322151  0.83463418  0.96896932  1
  O  O40  1  0.04304608  0.62916403  0.02629938  1
  O  O41  1  0.74436127  0.06696511  0.80502795  1
  O  O42  1  0.41505377  0.86689255  0.51915765  1
  O  O43  1  0.42730277  0.76244329  0.14671332  1
  O  O44  1  0.91505377  0.13310745  0.48084235  1
  O  O45  1  0.51427575  0.96764755  0.10909855  1
  O  O46  1  0.24436127  0.93303489  0.19497205  1
  O  O47  1  0.51186430  0.33150527  0.52435207  1
  O  O48  1  0.96685633  0.96705649  0.11281080  1
  O  O49  1  0.54304608  0.12916403  0.47370062  1
  O  O50  1  0.23231667  0.20812509  0.49145439  1
  O  O51  1  0.55296516  0.59316791  0.74267380  1
  O  O52  1  0.74002257  0.04606660  0.34463721  1
  O  O53  1  0.44159918  0.40816475  0.25216380  1
  O  O54  1  0.24002257  0.54606660  0.15536279  1
  O  O55  1  0.94159918  0.59183525  0.74783620  1
  O  O56  1  0.74002257  0.45393340  0.84463721  1
  O  O57  1  0.74703518  0.79384363  0.78011587  1
  O  O58  1  0.54543171  0.66266178  0.88986151  1
  O  O59  1  0.23732081  0.00821240  0.00907314  1
  O  O60  1  0.01186430  0.83150527  0.97564793  1
  O  O61  1  0.96322151  0.33463418  0.53103068  1
  O  O62  1  0.55607110  0.26252502  0.34919504  1
  O  O63  1  0.05607110  0.76252502  0.15080496  1
  O  O64  1  0.96322151  0.16536582  0.03103068  1
  O  O65  1  0.73732081  0.50821240  0.49092686  1
  O  O66  1  0.05296516  0.40683209  0.25732620  1
  O  O67  1  0.54543171  0.83733822  0.38986151  1
  O  O68  1  0.04304608  0.87083597  0.52629938  1
  O  O69  1  0.24703518  0.20615637  0.21988413  1
  O  O70  1  0.04543171  0.16266178  0.61013849  1
  O  O71  1  0.01427575  0.46764755  0.39090145  1
  O  O72  1  0.43135017  0.16197886  0.60638462  1
  O  O73  1  0.74703518  0.70615637  0.28011587  1
  O  O74  1  0.24436127  0.56696511  0.69497205  1
  O  O75  1  0.04543171  0.33733822  0.11013849  1
  O  O76  1  0.55607110  0.23747498  0.84919504  1
  O  O77  1  0.46685633  0.03294351  0.88718920  1
  O  O78  1  0.01186430  0.66849473  0.47564793  1
  O  O79  1  0.42730277  0.73755671  0.64671332  1
  O  O80  1  0.93135017  0.83802114  0.39361538  1
  O  O81  1  0.05296516  0.09316791  0.75732620  1
  O  O82  1  0.54304608  0.37083597  0.97370062  1
  O  O83  1  0.46322151  0.66536582  0.46896932  1
  O  O84  1  0.74436127  0.43303489  0.30502795  1
  O  O85  1  0.44159918  0.09183525  0.75216380  1
  O  O86  1  0.43135017  0.33802114  0.10638462  1
  O  O87  1  0.55296516  0.90683209  0.24267380  1
  O  O88  1  0.92730277  0.26244329  0.35328668  1
  O  O89  1  0.91505377  0.36689255  0.98084235  1
  O  O90  1  0.94159918  0.90816475  0.24783620  1
  O  O91  1  0.23231667  0.29187491  0.99145439  1
  O  O92  1  0.23732081  0.49178760  0.50907314  1
  O  O93  1  0.24703518  0.29384363  0.71988413  1
  O  O94  1  0.51427575  0.53235245  0.60909855  1
  O  O95  1  0.73732081  0.99178760  0.99092686  1
  O  O96  1  0.51186430  0.16849473  0.02435207  1
  O  O97  1  0.24002257  0.95393340  0.65536279  1
  O  O98  1  0.73231667  0.79187491  0.50854561  1
  O  O99  1  0.05607110  0.73747498  0.65080496  1
  O  O100  1  0.92730277  0.23755671  0.85328668  1
  O  O101  1  0.93135017  0.66197886  0.89361538  1
  O  O102  1  0.41505377  0.63310745  0.01915765  1
  O  O103  1  0.01427575  0.03235245  0.89090145  1
