# generated using pymatgen
data_BaV4As4O19
_symmetry_space_group_name_H-M   'P 1'
_cell_length_a   7.78455116
_cell_length_b   11.29341158
_cell_length_c   17.78606497
_cell_angle_alpha   90.00000000
_cell_angle_beta   90.00000000
_cell_angle_gamma   90.00000000
_symmetry_Int_Tables_number   1
_chemical_formula_structural   BaV4As4O19
_chemical_formula_sum   'Ba4 V16 As16 O76'
_cell_volume   1563.64660965
_cell_formula_units_Z   4
loop_
 _symmetry_equiv_pos_site_id
 _symmetry_equiv_pos_as_xyz
  1  'x, y, z'
loop_
 _atom_site_type_symbol
 _atom_site_label
 _atom_site_symmetry_multiplicity
 _atom_site_fract_x
 _atom_site_fract_y
 _atom_site_fract_z
 _atom_site_occupancy
  Ba  Ba0  1  0.75000000  0.87259246  0.26323853  1
  Ba  Ba1  1  0.25000000  0.37259246  0.23676147  1
  Ba  Ba2  1  0.75000000  0.62740754  0.76323853  1
  Ba  Ba3  1  0.25000000  0.12740754  0.73676147  1
  V  V4  1  0.55195324  0.89645386  0.87889755  1
  V  V5  1  0.54878140  0.14231804  0.38411914  1
  V  V6  1  0.94804676  0.89645386  0.87889755  1
  V  V7  1  0.04878140  0.85768196  0.61588086  1
  V  V8  1  0.44804676  0.39645386  0.62110245  1
  V  V9  1  0.94804676  0.60354614  0.37889755  1
  V  V10  1  0.05195324  0.39645386  0.62110245  1
  V  V11  1  0.55195324  0.60354614  0.37889755  1
  V  V12  1  0.95121860  0.35768196  0.88411914  1
  V  V13  1  0.95121860  0.14231804  0.38411914  1
  V  V14  1  0.04878140  0.64231804  0.11588086  1
  V  V15  1  0.44804676  0.10354614  0.12110245  1
  V  V16  1  0.45121860  0.64231804  0.11588086  1
  V  V17  1  0.05195324  0.10354614  0.12110245  1
  V  V18  1  0.45121860  0.85768196  0.61588086  1
  V  V19  1  0.54878140  0.35768196  0.88411914  1
  As  As20  1  0.25000000  0.76382560  0.77570313  1
  As  As21  1  0.75000000  0.62544452  0.96904136  1
  As  As22  1  0.25000000  0.37455548  0.03095864  1
  As  As23  1  0.75000000  0.12615206  0.98027133  1
  As  As24  1  0.75000000  0.99102578  0.72047416  1
  As  As25  1  0.25000000  0.00897422  0.27952584  1
  As  As26  1  0.75000000  0.26382560  0.72429687  1
  As  As27  1  0.25000000  0.49102578  0.77952584  1
  As  As28  1  0.25000000  0.12544452  0.53095864  1
  As  As29  1  0.25000000  0.73617440  0.27570313  1
  As  As30  1  0.75000000  0.87455548  0.46904136  1
  As  As31  1  0.75000000  0.23617440  0.22429687  1
  As  As32  1  0.25000000  0.87384794  0.01972867  1
  As  As33  1  0.75000000  0.50897422  0.22047416  1
  As  As34  1  0.25000000  0.62615206  0.51972867  1
  As  As35  1  0.75000000  0.37384794  0.48027133  1
  O  O36  1  0.25000000  0.00076442  0.58967359  1
  O  O37  1  0.43471002  0.73963696  0.32670545  1
  O  O38  1  0.94346382  0.74712615  0.16003929  1
  O  O39  1  0.05632588  0.00211258  0.83723697  1
  O  O40  1  0.94367412  0.99788742  0.16276303  1
  O  O41  1  0.55653618  0.74712615  0.16003929  1
  O  O42  1  0.44367412  0.00211258  0.83723697  1
  O  O43  1  0.93471002  0.26036304  0.67329455  1
  O  O44  1  0.75000000  0.88692931  0.79314468  1
  O  O45  1  0.25000000  0.49673363  0.57400397  1
  O  O46  1  0.93454794  0.99460197  0.66969280  1
  O  O47  1  0.93611445  0.62362757  0.01930258  1
  O  O48  1  0.75000000  0.25669449  0.92807225  1
  O  O49  1  0.56545206  0.99460197  0.66969280  1
  O  O50  1  0.56388555  0.62362757  0.01930258  1
  O  O51  1  0.05653618  0.24712615  0.33996071  1
  O  O52  1  0.93471002  0.23963696  0.17329455  1
  O  O53  1  0.25000000  0.63319197  0.20327735  1
  O  O54  1  0.44346382  0.24712615  0.33996071  1
  O  O55  1  0.93611445  0.87637243  0.51930258  1
  O  O56  1  0.55632588  0.99788742  0.16276303  1
  O  O57  1  0.55653618  0.75287385  0.66003929  1
  O  O58  1  0.25000000  0.00326637  0.07400397  1
  O  O59  1  0.25000000  0.74330551  0.07192775  1
  O  O60  1  0.43471002  0.76036304  0.82670545  1
  O  O61  1  0.55826562  0.37322477  0.52498139  1
  O  O62  1  0.25000000  0.38692931  0.70685532  1
  O  O63  1  0.44367412  0.49788742  0.33723697  1
  O  O64  1  0.43454794  0.00539803  0.33030720  1
  O  O65  1  0.94367412  0.50211258  0.66276303  1
  O  O66  1  0.94173438  0.37322477  0.52498139  1
  O  O67  1  0.93454794  0.50539803  0.16969280  1
  O  O68  1  0.44173438  0.87322477  0.97501861  1
  O  O69  1  0.25000000  0.62571678  0.72802050  1
  O  O70  1  0.75000000  0.50076442  0.91032641  1
  O  O71  1  0.25000000  0.25095972  0.09098806  1
  O  O72  1  0.94173438  0.12677523  0.02498139  1
  O  O73  1  0.75000000  0.36680803  0.79672265  1
  O  O74  1  0.75000000  0.37428322  0.27197950  1
  O  O75  1  0.06545206  0.00539803  0.33030720  1
  O  O76  1  0.75000000  0.24330551  0.42807225  1
  O  O77  1  0.75000000  0.50326637  0.42599603  1
  O  O78  1  0.43611445  0.37637243  0.98069742  1
  O  O79  1  0.56528998  0.23963696  0.17329455  1
  O  O80  1  0.75000000  0.61307069  0.29314468  1
  O  O81  1  0.56388555  0.87637243  0.51930258  1
  O  O82  1  0.94346382  0.75287385  0.66003929  1
  O  O83  1  0.55826562  0.12677523  0.02498139  1
  O  O84  1  0.06388555  0.12362757  0.48069742  1
  O  O85  1  0.06388555  0.37637243  0.98069742  1
  O  O86  1  0.25000000  0.87428322  0.22802050  1
  O  O87  1  0.25000000  0.86680803  0.70327735  1
  O  O88  1  0.75000000  0.99673363  0.92599603  1
  O  O89  1  0.06528998  0.73963696  0.32670545  1
  O  O90  1  0.25000000  0.49923558  0.08967359  1
  O  O91  1  0.05826562  0.87322477  0.97501861  1
  O  O92  1  0.05632588  0.49788742  0.33723697  1
  O  O93  1  0.43454794  0.49460197  0.83030720  1
  O  O94  1  0.56528998  0.26036304  0.67329455  1
  O  O95  1  0.25000000  0.11307069  0.20685532  1
  O  O96  1  0.06528998  0.76036304  0.82670545  1
  O  O97  1  0.06545206  0.49460197  0.83030720  1
  O  O98  1  0.56545206  0.50539803  0.16969280  1
  O  O99  1  0.25000000  0.75669449  0.57192775  1
  O  O100  1  0.05653618  0.25287385  0.83996071  1
  O  O101  1  0.75000000  0.12571678  0.77197950  1
  O  O102  1  0.75000000  0.13319197  0.29672265  1
  O  O103  1  0.75000000  0.99923558  0.41032641  1
  O  O104  1  0.25000000  0.24904028  0.59098806  1
  O  O105  1  0.44173438  0.62677523  0.47501861  1
  O  O106  1  0.44346382  0.25287385  0.83996071  1
  O  O107  1  0.05826562  0.62677523  0.47501861  1
  O  O108  1  0.55632588  0.50211258  0.66276303  1
  O  O109  1  0.75000000  0.74904028  0.90901194  1
  O  O110  1  0.43611445  0.12362757  0.48069742  1
  O  O111  1  0.75000000  0.75095972  0.40901194  1
