# generated using pymatgen
data_Ce(Ni5P2)2
_symmetry_space_group_name_H-M   'P 1'
_cell_length_a   3.63959830
_cell_length_b   9.21739593
_cell_length_c   21.95631390
_cell_angle_alpha   90.00000000
_cell_angle_beta   90.00000000
_cell_angle_gamma   90.00000000
_symmetry_Int_Tables_number   1
_chemical_formula_structural   Ce(Ni5P2)2
_chemical_formula_sum   'Ce4 Ni40 P16'
_cell_volume   736.58204364
_cell_formula_units_Z   4
loop_
 _symmetry_equiv_pos_site_id
 _symmetry_equiv_pos_as_xyz
  1  'x, y, z'
loop_
 _atom_site_type_symbol
 _atom_site_label
 _atom_site_symmetry_multiplicity
 _atom_site_fract_x
 _atom_site_fract_y
 _atom_site_fract_z
 _atom_site_occupancy
  Ce  Ce0  1  0.75000000  0.29878969  0.39243329  1
  Ce  Ce1  1  0.25000000  0.70121031  0.60756671  1
  Ce  Ce2  1  0.75000000  0.79878969  0.10756671  1
  Ce  Ce3  1  0.25000000  0.20121031  0.89243329  1
  Ni  Ni4  1  0.25000000  0.58325991  0.03149060  1
  Ni  Ni5  1  0.25000000  0.54980480  0.91742068  1
  Ni  Ni6  1  0.75000000  0.67302220  0.40273857  1
  Ni  Ni7  1  0.75000000  0.70557680  0.82923328  1
  Ni  Ni8  1  0.25000000  0.79442320  0.32923328  1
  Ni  Ni9  1  0.75000000  0.09835958  0.20254330  1
  Ni  Ni10  1  0.25000000  0.08325991  0.46850940  1
  Ni  Ni11  1  0.25000000  0.42312781  0.27878067  1
  Ni  Ni12  1  0.25000000  0.29442320  0.17076672  1
  Ni  Ni13  1  0.25000000  0.16017900  0.28438890  1
  Ni  Ni14  1  0.25000000  0.82697780  0.90273857  1
  Ni  Ni15  1  0.75000000  0.45019520  0.08257932  1
  Ni  Ni16  1  0.75000000  0.46422327  0.53807272  1
  Ni  Ni17  1  0.25000000  0.90164042  0.79745670  1
  Ni  Ni18  1  0.75000000  0.07687219  0.77878067  1
  Ni  Ni19  1  0.75000000  0.20557680  0.67076672  1
  Ni  Ni20  1  0.75000000  0.59835958  0.29745670  1
  Ni  Ni21  1  0.25000000  0.40164042  0.70254330  1
  Ni  Ni22  1  0.25000000  0.51912933  0.80635434  1
  Ni  Ni23  1  0.75000000  0.69230093  0.96805958  1
  Ni  Ni24  1  0.25000000  0.80769907  0.46805958  1
  Ni  Ni25  1  0.75000000  0.91674009  0.53149060  1
  Ni  Ni26  1  0.75000000  0.17302220  0.09726143  1
  Ni  Ni27  1  0.25000000  0.03577673  0.03807272  1
  Ni  Ni28  1  0.25000000  0.66017900  0.21561110  1
  Ni  Ni29  1  0.75000000  0.19230093  0.53194042  1
  Ni  Ni30  1  0.25000000  0.92312781  0.22121933  1
  Ni  Ni31  1  0.75000000  0.95019520  0.41742068  1
  Ni  Ni32  1  0.75000000  0.98087067  0.30635434  1
  Ni  Ni33  1  0.25000000  0.30769907  0.03194042  1
  Ni  Ni34  1  0.75000000  0.96422327  0.96192728  1
  Ni  Ni35  1  0.25000000  0.32697780  0.59726143  1
  Ni  Ni36  1  0.25000000  0.53577673  0.46192728  1
  Ni  Ni37  1  0.75000000  0.57687219  0.72121933  1
  Ni  Ni38  1  0.75000000  0.33982100  0.78438890  1
  Ni  Ni39  1  0.75000000  0.83982100  0.71561110  1
  Ni  Ni40  1  0.25000000  0.04980480  0.58257932  1
  Ni  Ni41  1  0.75000000  0.41674009  0.96850940  1
  Ni  Ni42  1  0.75000000  0.48087067  0.19364566  1
  Ni  Ni43  1  0.25000000  0.01912933  0.69364566  1
  P  P44  1  0.25000000  0.56195781  0.36086139  1
  P  P45  1  0.25000000  0.70489249  0.74320919  1
  P  P46  1  0.75000000  0.93804219  0.86086139  1
  P  P47  1  0.75000000  0.47483359  0.86849505  1
  P  P48  1  0.25000000  0.81453063  1.00101376  1
  P  P49  1  0.75000000  0.18546937  -0.00101376  1
  P  P50  1  0.75000000  0.79510751  0.24320919  1
  P  P51  1  0.25000000  0.02516641  0.36849505  1
  P  P52  1  0.25000000  0.06195781  0.13913861  1
  P  P53  1  0.75000000  0.29510751  0.25679081  1
  P  P54  1  0.75000000  0.43804219  0.63913861  1
  P  P55  1  0.75000000  0.68546937  0.50101376  1
  P  P56  1  0.25000000  0.31453063  0.49898624  1
  P  P57  1  0.25000000  0.20489249  0.75679081  1
  P  P58  1  0.25000000  0.52516641  0.13150495  1
  P  P59  1  0.75000000  0.97483359  0.63150495  1
