# generated using pymatgen
data_Pr6Fe13Pb
_symmetry_space_group_name_H-M   'P 1'
_cell_length_a   8.09128728
_cell_length_b   8.09128795
_cell_length_c   13.25873169
_cell_angle_alpha   107.76601832
_cell_angle_beta   107.76601997
_cell_angle_gamma   89.99999976
_symmetry_Int_Tables_number   1
_chemical_formula_structural   Pr6Fe13Pb
_chemical_formula_sum   'Pr12 Fe26 Pb2'
_cell_volume   783.05743133
_cell_formula_units_Z   2
loop_
 _symmetry_equiv_pos_site_id
 _symmetry_equiv_pos_as_xyz
  1  'x, y, z'
loop_
 _atom_site_type_symbol
 _atom_site_label
 _atom_site_symmetry_multiplicity
 _atom_site_fract_x
 _atom_site_fract_y
 _atom_site_fract_z
 _atom_site_occupancy
  Pr  Pr0  1  0.01987920  0.51987920  0.36562164  1
  Pr  Pr1  1  0.98012080  0.48012080  0.63437836  1
  Pr  Pr2  1  0.89699442  0.89699442  0.79398885  1
  Pr  Pr3  1  0.65425755  0.15425755  0.63437836  1
  Pr  Pr4  1  0.60300558  0.60300558  0.20601115  1
  Pr  Pr5  1  0.10300558  0.10300558  0.20601115  1
  Pr  Pr6  1  0.48012080  0.65425755  0.63437836  1
  Pr  Pr7  1  0.84574245  0.01987920  0.36562164  1
  Pr  Pr8  1  0.39699442  0.39699442  0.79398885  1
  Pr  Pr9  1  0.15425755  0.98012080  0.63437836  1
  Pr  Pr10  1  0.51987920  0.34574245  0.36562164  1
  Pr  Pr11  1  0.34574245  0.84574245  0.36562164  1
  Fe  Fe12  1  0.23585408  0.73585408  0.11428893  1
  Fe  Fe13  1  0.93351977  0.79021682  1.00000000  1
  Fe  Fe14  1  0.79560809  0.52187236  0.81748046  1
  Fe  Fe15  1  0.97812764  0.70439191  0.18251954  1
  Fe  Fe16  1  0.87843485  0.37843485  0.11428893  1
  Fe  Fe17  1  0.73585408  0.87843485  0.11428893  1
  Fe  Fe18  1  0.62156515  0.76414592  0.88571107  1
  Fe  Fe19  1  0.06648023  0.20978318  0.00000000  1
  Fe  Fe20  1  0.26414592  0.12156515  0.88571107  1
  Fe  Fe21  1  0.20978318  0.93351977  1.00000000  1
  Fe  Fe22  1  0.76414592  0.26414592  0.88571107  1
  Fe  Fe23  1  0.56648023  0.29021682  0.00000000  1
  Fe  Fe24  1  0.52187236  0.02187236  0.81748046  1
  Fe  Fe25  1  0.37843485  0.23585408  0.11428893  1
  Fe  Fe26  1  0.20439191  0.47812764  0.18251954  1
  Fe  Fe27  1  0.50000000  0.00000000  0.00000000  1
  Fe  Fe28  1  0.70978318  0.56648023  1.00000000  1
  Fe  Fe29  1  0.29560809  0.79560809  0.81748046  1
  Fe  Fe30  1  0.47812764  0.97812764  0.18251954  1
  Fe  Fe31  1  0.70439191  0.20439191  0.18251954  1
  Fe  Fe32  1  0.79021682  0.06648023  0.00000000  1
  Fe  Fe33  1  0.29021682  0.43351977  0.00000000  1
  Fe  Fe34  1  0.00000000  0.50000000  0.00000000  1
  Fe  Fe35  1  0.12156515  0.62156515  0.88571107  1
  Fe  Fe36  1  0.02187236  0.29560809  0.81748046  1
  Fe  Fe37  1  0.43351977  0.70978318  1.00000000  1
  Pb  Pb38  1  0.75000000  0.75000000  0.50000000  1
  Pb  Pb39  1  0.25000000  0.25000000  0.50000000  1
