# generated using pymatgen
data_La3FeCoS7
_symmetry_space_group_name_H-M   'P 1'
_cell_length_a   5.87567159
_cell_length_b   10.17523480
_cell_length_c   10.17524463
_cell_angle_alpha   119.99818648
_cell_angle_beta   90.00000000
_cell_angle_gamma   90.00000000
_symmetry_Int_Tables_number   1
_chemical_formula_structural   La3FeCoS7
_chemical_formula_sum   'La6 Fe2 Co2 S14'
_cell_volume   526.84805403
_cell_formula_units_Z   2
loop_
 _symmetry_equiv_pos_site_id
 _symmetry_equiv_pos_as_xyz
  1  'x, y, z'
loop_
 _atom_site_type_symbol
 _atom_site_label
 _atom_site_symmetry_multiplicity
 _atom_site_fract_x
 _atom_site_fract_y
 _atom_site_fract_z
 _atom_site_occupancy
  La  La0  1  0.24967805  0.23037081  0.37182275  1
  La  La1  1  0.24974020  0.62816775  0.85856125  1
  La  La2  1  0.24975212  0.14154819  0.76967140  1
  La  La3  1  0.74967805  0.76962919  0.62817725  1
  La  La4  1  0.74974020  0.37183225  0.14143875  1
  La  La5  1  0.74975212  0.85845181  0.23032860  1
  Fe  Fe6  1  0.83738786  0.33335827  0.66669756  1
  Fe  Fe7  1  0.33738786  0.66664173  0.33330244  1
  Co  Co8  1  0.47173809  0.99998590  0.99998010  1
  Co  Co9  1  0.97173809  0.00001410  0.00001990  1
  S  S10  1  0.71828830  0.13626699  0.22020274  1
  S  S11  1  0.71825500  0.77949885  0.91597246  1
  S  S12  1  0.71827065  0.08401064  0.86354511  1
  S  S13  1  0.21828830  0.86373301  0.77979726  1
  S  S14  1  0.21825500  0.22050115  0.08402754  1
  S  S15  1  0.21827065  0.91598936  0.13645489  1
  S  S16  1  0.97190478  0.09726041  0.51697465  1
  S  S17  1  0.97191749  0.48302703  0.58023216  1
  S  S18  1  0.97197712  0.41978806  0.90280279  1
  S  S19  1  0.47190478  0.90273959  0.48302535  1
  S  S20  1  0.47191749  0.51697297  0.41976784  1
  S  S21  1  0.47197712  0.58021194  0.09719721  1
  S  S22  1  0.46009036  0.33334572  0.66665131  1
  S  S23  1  0.96009036  0.66665428  0.33334869  1
