# generated using pymatgen
data_Y13Cd58
_symmetry_space_group_name_H-M   'P 1'
_cell_length_a   15.79073189
_cell_length_b   15.79073194
_cell_length_c   15.56765380
_cell_angle_alpha   90.00000000
_cell_angle_beta   90.00000000
_cell_angle_gamma   119.99999991
_symmetry_Int_Tables_number   1
_chemical_formula_structural   Y13Cd58
_chemical_formula_sum   'Y26 Cd116'
_cell_volume   3361.69507622
_cell_formula_units_Z   2
loop_
 _symmetry_equiv_pos_site_id
 _symmetry_equiv_pos_as_xyz
  1  'x, y, z'
loop_
 _atom_site_type_symbol
 _atom_site_label
 _atom_site_symmetry_multiplicity
 _atom_site_fract_x
 _atom_site_fract_y
 _atom_site_fract_z
 _atom_site_occupancy
  Y  Y0  1  0.41214838  0.20607419  0.55280939  1
  Y  Y1  1  0.87133807  0.74267614  0.25000000  1
  Y  Y2  1  0.20607419  0.41214838  0.05280939  1
  Y  Y3  1  0.08883410  0.54441705  0.75000000  1
  Y  Y4  1  0.79392581  0.58785162  0.94719061  1
  Y  Y5  1  0.79392581  0.20607419  0.55280939  1
  Y  Y6  1  0.91116590  0.45558295  0.25000000  1
  Y  Y7  1  0.79392581  0.20607419  0.94719061  1
  Y  Y8  1  0.79392581  0.58785162  0.55280939  1
  Y  Y9  1  0.45558295  0.91116590  0.75000000  1
  Y  Y10  1  0.12866193  0.87133807  0.75000000  1
  Y  Y11  1  0.87133807  0.12866193  0.25000000  1
  Y  Y12  1  0.58785162  0.79392581  0.05280939  1
  Y  Y13  1  0.58785162  0.79392581  0.44719061  1
  Y  Y14  1  0.20607419  0.79392581  0.44719061  1
  Y  Y15  1  0.00000000  0.00000000  0.00000000  1
  Y  Y16  1  0.45558295  0.54441705  0.75000000  1
  Y  Y17  1  0.54441705  0.08883410  0.25000000  1
  Y  Y18  1  0.12866193  0.25732386  0.75000000  1
  Y  Y19  1  0.74267614  0.87133807  0.75000000  1
  Y  Y20  1  0.20607419  0.41214838  0.44719061  1
  Y  Y21  1  0.41214838  0.20607419  0.94719061  1
  Y  Y22  1  0.00000000  0.00000000  0.50000000  1
  Y  Y23  1  0.25732386  0.12866193  0.25000000  1
  Y  Y24  1  0.20607419  0.79392581  0.05280939  1
  Y  Y25  1  0.54441705  0.45558295  0.25000000  1
  Cd  Cd26  1  0.90785748  0.09214252  0.65576853  1
  Cd  Cd27  1  1.00000000  0.19746561  0.00000000  1
  Cd  Cd28  1  0.63544424  0.96411806  0.60153671  1
  Cd  Cd29  1  0.36455576  0.32867381  0.39846329  1
  Cd  Cd30  1  0.67132619  0.63544424  0.10153671  1
  Cd  Cd31  1  0.60031810  0.39968190  0.05147657  1
  Cd  Cd32  1  0.63544424  0.67132619  0.89846329  1
  Cd  Cd33  1  0.96411806  0.63544424  0.10153671  1
  Cd  Cd34  1  0.20063621  0.60031810  0.94852343  1
  Cd  Cd35  1  0.09214252  0.90785748  0.34423147  1
  Cd  Cd36  1  0.55967417  0.11934834  0.64741808  1
  Cd  Cd37  1  0.81571497  0.90785748  0.34423147  1
  Cd  Cd38  1  0.73372512  0.26627488  0.75000000  1
  Cd  Cd39  1  0.44032583  0.88065166  0.35258192  1
  Cd  Cd40  1  0.32867381  0.36455576  0.89846329  1
  Cd  Cd41  1  0.03588194  0.67132619  0.89846329  1
  Cd  Cd42  1  0.53174037  0.76587018  0.84145955  1
  Cd  Cd43  1  0.80253439  0.80253439  0.00000000  1
  Cd  Cd44  1  0.36455576  0.03588194  0.39846329  1
  Cd  Cd45  1  1.00000000  0.19746561  0.50000000  1
  Cd  Cd46  1  0.92013243  0.64495034  0.75000000  1
  Cd  Cd47  1  0.19746561  0.19746561  0.50000000  1
  Cd  Cd48  1  0.67132619  0.03588194  0.10153671  1
  Cd  Cd49  1  0.60031810  0.39968190  0.44852343  1
  Cd  Cd50  1  0.76587018  0.53174037  0.34145955  1
  Cd  Cd51  1  0.76587018  0.53174037  0.15854045  1
  Cd  Cd52  1  0.96411806  0.32867381  0.10153671  1
  Cd  Cd53  1  0.66666700  0.33333300  0.59672105  1
  Cd  Cd54  1  0.27518209  0.92013243  0.25000000  1
  Cd  Cd55  1  0.46825963  0.23412982  0.34145955  1
  Cd  Cd56  1  0.03588194  0.36455576  0.60153671  1
  Cd  Cd57  1  0.33333300  0.66666700  0.75000000  1
  Cd  Cd58  1  0.72481791  0.07986757  0.75000000  1
  Cd  Cd59  1  0.03588194  0.36455576  0.89846329  1
  Cd  Cd60  1  0.80253439  0.00000000  0.50000000  1
  Cd  Cd61  1  0.60031810  0.20063621  0.44852343  1
  Cd  Cd62  1  0.67132619  0.03588194  0.39846329  1
  Cd  Cd63  1  0.35504966  0.07986757  0.75000000  1
  Cd  Cd64  1  0.92013243  0.27518209  0.75000000  1
  Cd  Cd65  1  0.00000000  0.80253439  0.00000000  1
  Cd  Cd66  1  0.44032583  0.55967417  0.14741808  1
  Cd  Cd67  1  0.11934834  0.55967417  0.35258192  1
  Cd  Cd68  1  0.50000000  0.00000000  0.50000000  1
  Cd  Cd69  1  0.90785748  0.81571497  0.84423147  1
  Cd  Cd70  1  0.09214252  0.18428503  0.15576853  1
  Cd  Cd71  1  0.03588194  0.67132619  0.60153671  1
  Cd  Cd72  1  0.32867381  0.36455576  0.60153671  1
  Cd  Cd73  1  0.55967417  0.11934834  0.85258192  1
  Cd  Cd74  1  0.20063621  0.60031810  0.55147657  1
  Cd  Cd75  1  0.63544424  0.67132619  0.60153671  1
  Cd  Cd76  1  0.44032583  0.55967417  0.35258192  1
  Cd  Cd77  1  0.00000000  0.00000000  0.25000000  1
  Cd  Cd78  1  0.60031810  0.20063621  0.05147657  1
  Cd  Cd79  1  0.79936379  0.39968190  0.44852343  1
  Cd  Cd80  1  0.73372512  0.46745024  0.75000000  1
  Cd  Cd81  1  0.39968190  0.79936379  0.94852343  1
  Cd  Cd82  1  0.66666700  0.33333300  0.90327895  1
  Cd  Cd83  1  0.23412982  0.46825963  0.84145955  1
  Cd  Cd84  1  0.76587018  0.23412982  0.15854045  1
  Cd  Cd85  1  0.27518209  0.35504966  0.25000000  1
  Cd  Cd86  1  0.39968190  0.60031810  0.55147657  1
  Cd  Cd87  1  0.36455576  0.03588194  0.10153671  1
  Cd  Cd88  1  0.76587018  0.23412982  0.34145955  1
  Cd  Cd89  1  0.81571497  0.90785748  0.15576853  1
  Cd  Cd90  1  0.32867381  0.96411806  0.89846329  1
  Cd  Cd91  1  0.88065166  0.44032583  0.85258192  1
  Cd  Cd92  1  0.90785748  0.81571497  0.65576853  1
  Cd  Cd93  1  0.11934834  0.55967417  0.14741808  1
  Cd  Cd94  1  0.96411806  0.32867381  0.39846329  1
  Cd  Cd95  1  0.64495034  0.72481791  0.25000000  1
  Cd  Cd96  1  0.55967417  0.44032583  0.85258192  1
  Cd  Cd97  1  0.46825963  0.23412982  0.15854045  1
  Cd  Cd98  1  0.80253439  0.80253439  0.50000000  1
  Cd  Cd99  1  0.00000000  0.00000000  0.75000000  1
  Cd  Cd100  1  0.18428503  0.09214252  0.65576853  1
  Cd  Cd101  1  0.19746561  0.19746561  0.00000000  1
  Cd  Cd102  1  0.19746561  0.00000000  0.50000000  1
  Cd  Cd103  1  0.07986757  0.35504966  0.25000000  1
  Cd  Cd104  1  0.67132619  0.63544424  0.39846329  1
  Cd  Cd105  1  0.53174037  0.76587018  0.65854045  1
  Cd  Cd106  1  0.79936379  0.39968190  0.05147657  1
  Cd  Cd107  1  0.36455576  0.32867381  0.10153671  1
  Cd  Cd108  1  0.23412982  0.76587018  0.84145955  1
  Cd  Cd109  1  0.66666700  0.33333300  0.25000000  1
  Cd  Cd110  1  0.44032583  0.88065166  0.14741808  1
  Cd  Cd111  1  0.50000000  0.50000000  0.00000000  1
  Cd  Cd112  1  0.00000000  0.50000000  0.50000000  1
  Cd  Cd113  1  0.23412982  0.76587018  0.65854045  1
  Cd  Cd114  1  0.33333300  0.66666700  0.40327895  1
  Cd  Cd115  1  0.19746561  0.00000000  0.00000000  1
  Cd  Cd116  1  0.07986757  0.72481791  0.25000000  1
  Cd  Cd117  1  0.00000000  0.80253439  0.50000000  1
  Cd  Cd118  1  0.63544424  0.96411806  0.89846329  1
  Cd  Cd119  1  0.50000000  0.50000000  0.50000000  1
  Cd  Cd120  1  0.18428503  0.09214252  0.84423147  1
  Cd  Cd121  1  0.53254976  0.26627488  0.75000000  1
  Cd  Cd122  1  0.09214252  0.90785748  0.15576853  1
  Cd  Cd123  1  0.90785748  0.09214252  0.84423147  1
  Cd  Cd124  1  0.55967417  0.44032583  0.64741808  1
  Cd  Cd125  1  0.35504966  0.27518209  0.75000000  1
  Cd  Cd126  1  0.26627488  0.73372512  0.25000000  1
  Cd  Cd127  1  0.96411806  0.63544424  0.39846329  1
  Cd  Cd128  1  0.33333300  0.66666700  0.09672105  1
  Cd  Cd129  1  0.26627488  0.53254976  0.25000000  1
  Cd  Cd130  1  0.80253439  0.00000000  0.00000000  1
  Cd  Cd131  1  0.64495034  0.92013243  0.25000000  1
  Cd  Cd132  1  0.50000000  0.00000000  0.00000000  1
  Cd  Cd133  1  0.88065166  0.44032583  0.64741808  1
  Cd  Cd134  1  0.32867381  0.96411806  0.60153671  1
  Cd  Cd135  1  0.00000000  0.50000000  0.00000000  1
  Cd  Cd136  1  0.09214252  0.18428503  0.34423147  1
  Cd  Cd137  1  0.39968190  0.60031810  0.94852343  1
  Cd  Cd138  1  0.23412982  0.46825963  0.65854045  1
  Cd  Cd139  1  0.72481791  0.64495034  0.75000000  1
  Cd  Cd140  1  0.39968190  0.79936379  0.55147657  1
  Cd  Cd141  1  0.46745024  0.73372512  0.25000000  1
