# generated using pymatgen
data_K2Zn2(SO4)3
_symmetry_space_group_name_H-M   'P 1'
_cell_length_a   10.08748156
_cell_length_b   10.08748156
_cell_length_c   10.08748156
_cell_angle_alpha   90.00000000
_cell_angle_beta   90.00000000
_cell_angle_gamma   90.00000000
_symmetry_Int_Tables_number   1
_chemical_formula_structural   K2Zn2(SO4)3
_chemical_formula_sum   'K8 Zn8 S12 O48'
_cell_volume   1026.47472820
_cell_formula_units_Z   4
loop_
 _symmetry_equiv_pos_site_id
 _symmetry_equiv_pos_as_xyz
  1  'x, y, z'
loop_
 _atom_site_type_symbol
 _atom_site_label
 _atom_site_symmetry_multiplicity
 _atom_site_fract_x
 _atom_site_fract_y
 _atom_site_fract_z
 _atom_site_occupancy
  O  O0  1  0.25019640  0.59413177  0.65959328  1
  O  O1  1  0.75019640  0.90586823  0.34040672  1
  O  O2  1  0.74980360  0.09413177  0.84040672  1
  O  O3  1  0.90586823  0.34040672  0.75019640  1
  O  O4  1  0.84040672  0.74980360  0.09413177  1
  O  O5  1  0.34040672  0.75019640  0.90586823  1
  O  O6  1  0.59413177  0.65959328  0.25019640  1
  O  O7  1  0.65959328  0.25019640  0.59413177  1
  O  O8  1  0.09413177  0.84040672  0.74980360  1
  O  O9  1  0.40586823  0.15959328  0.24980360  1
  O  O10  1  0.15959328  0.24980360  0.40586823  1
  O  O11  1  0.24980360  0.40586823  0.15959328  1
  O  O12  1  0.25998033  0.49938053  0.44134679  1
  O  O13  1  0.75998033  0.00061947  0.55865321  1
  O  O14  1  0.74001967  0.99938053  0.05865321  1
  O  O15  1  0.00061947  0.55865321  0.75998033  1
  O  O16  1  0.05865321  0.74001967  0.99938053  1
  O  O17  1  0.55865321  0.75998033  0.00061947  1
  O  O18  1  0.99479758  0.57960366  0.17200264  1
  O  O19  1  0.49938053  0.44134679  0.25998033  1
  O  O20  1  0.99938053  0.05865321  0.74001967  1
  O  O21  1  0.50061947  0.94134679  0.24001967  1
  O  O22  1  0.94134679  0.24001967  0.50061947  1
  O  O23  1  0.24001967  0.50061947  0.94134679  1
  O  O24  1  0.42039634  0.67200264  0.50520242  1
  O  O25  1  0.92039634  0.82799736  0.49479758  1
  O  O26  1  0.57960366  0.17200264  0.99479758  1
  O  O27  1  0.82799736  0.49479758  0.92039634  1
  O  O28  1  0.30971153  0.27501151  0.96233625  1
  O  O29  1  0.96233625  0.30971153  0.27501151  1
  O  O30  1  0.27501151  0.96233625  0.30971153  1
  O  O31  1  0.22498849  0.03766375  0.80971153  1
  O  O32  1  0.46233625  0.19028847  0.72498849  1
  O  O33  1  0.72498849  0.46233625  0.19028847  1
  O  O34  1  0.53766375  0.69028847  0.77501151  1
  O  O35  1  0.03766375  0.80971153  0.22498849  1
  O  O36  1  0.77501151  0.53766375  0.69028847  1
  O  O37  1  0.80971153  0.22498849  0.03766375  1
  O  O38  1  0.69028847  0.77501151  0.53766375  1
  O  O39  1  0.19028847  0.72498849  0.46233625  1
  O  O40  1  0.07960366  0.32799736  0.00520242  1
  O  O41  1  0.00520242  0.07960366  0.32799736  1
  O  O42  1  0.32799736  0.00520242  0.07960366  1
  O  O43  1  0.17200264  0.99479758  0.57960366  1
  O  O44  1  0.50520242  0.42039634  0.67200264  1
  O  O45  1  0.67200264  0.50520242  0.42039634  1
  O  O46  1  0.49479758  0.92039634  0.82799736  1
  O  O47  1  0.44134679  0.25998033  0.49938053  1
  S  S48  1  0.28049958  0.62349302  0.51884871  1
  S  S49  1  0.78049958  0.87650698  0.48115129  1
  S  S50  1  0.71950042  0.12349302  0.98115129  1
  S  S51  1  0.87650698  0.48115129  0.78049958  1
  S  S52  1  0.98115129  0.71950042  0.12349302  1
  S  S53  1  0.48115129  0.78049958  0.87650698  1
  S  S54  1  0.62349302  0.51884871  0.28049958  1
  S  S55  1  0.51884871  0.28049958  0.62349302  1
  S  S56  1  0.12349302  0.98115129  0.71950042  1
  S  S57  1  0.21950042  0.37650698  0.01884871  1
  S  S58  1  0.01884871  0.21950042  0.37650698  1
  S  S59  1  0.37650698  0.01884871  0.21950042  1
  K  K60  1  0.68511775  0.18511775  0.31488225  1
  K  K61  1  0.31488225  0.68511775  0.18511775  1
  K  K62  1  0.94942284  0.55057716  0.44942284  1
  K  K63  1  0.18511775  0.31488225  0.68511775  1
  K  K64  1  0.05057716  0.05057716  0.05057716  1
  K  K65  1  0.44942284  0.94942284  0.55057716  1
  K  K66  1  0.55057716  0.44942284  0.94942284  1
  K  K67  1  0.81488225  0.81488225  0.81488225  1
  Zn  Zn68  1  0.33448291  0.33448291  0.33448291  1
  Zn  Zn69  1  0.16551709  0.66551709  0.83448291  1
  Zn  Zn70  1  0.83448291  0.16551709  0.66551709  1
  Zn  Zn71  1  0.66551709  0.83448291  0.16551709  1
  Zn  Zn72  1  0.59119544  0.59119544  0.59119544  1
  Zn  Zn73  1  0.09119544  0.90880456  0.40880456  1
  Zn  Zn74  1  0.40880456  0.09119544  0.90880456  1
  Zn  Zn75  1  0.90880456  0.40880456  0.09119544  1
