# generated using pymatgen
data_BaFe2(P2O7)2
_symmetry_space_group_name_H-M   'P 1'
_cell_length_a   7.55462788
_cell_length_b   7.55462784
_cell_length_c   9.85307112
_cell_angle_alpha   80.63620940
_cell_angle_beta   80.63620949
_cell_angle_gamma   89.39470767
_symmetry_Int_Tables_number   1
_chemical_formula_structural   BaFe2(P2O7)2
_chemical_formula_sum   'Ba2 Fe4 P8 O28'
_cell_volume   547.37907299
_cell_formula_units_Z   2
loop_
 _symmetry_equiv_pos_site_id
 _symmetry_equiv_pos_as_xyz
  1  'x, y, z'
loop_
 _atom_site_type_symbol
 _atom_site_label
 _atom_site_symmetry_multiplicity
 _atom_site_fract_x
 _atom_site_fract_y
 _atom_site_fract_z
 _atom_site_occupancy
  Ba  Ba0  1  0.50000000  0.00000000  0.50000000  1
  Ba  Ba1  1  0.00000000  0.50000000  0.00000000  1
  Fe  Fe2  1  0.04690763  0.95309237  0.25000000  1
  Fe  Fe3  1  0.95309237  0.04690763  0.75000000  1
  Fe  Fe4  1  0.50000000  0.50000000  0.00000000  1
  Fe  Fe5  1  0.50000000  0.50000000  0.50000000  1
  P  P6  1  0.32363723  0.23771578  0.79848517  1
  P  P7  1  0.67636277  0.76228422  0.20151483  1
  P  P8  1  0.76228422  0.67636277  0.70151483  1
  P  P9  1  0.74972361  0.12917210  0.05565281  1
  P  P10  1  0.23771578  0.32363723  0.29848517  1
  P  P11  1  0.87082790  0.25027639  0.44434719  1
  P  P12  1  0.12917210  0.74972361  0.55565281  1
  P  P13  1  0.25027639  0.87082790  0.94434719  1
  O  O14  1  0.45280142  0.28970415  0.66146137  1
  O  O15  1  0.28970415  0.45280142  0.16146137  1
  O  O16  1  0.86642495  0.06802474  0.39290154  1
  O  O17  1  0.76213575  0.87598865  0.71380912  1
  O  O18  1  0.76856971  0.10146374  0.90473840  1
  O  O19  1  0.37462833  0.02849976  0.84378145  1
  O  O20  1  0.06802474  0.86642495  0.89290154  1
  O  O21  1  0.30121807  0.64980149  0.58116821  1
  O  O22  1  0.23143029  0.89853626  0.09526160  1
  O  O23  1  0.71029585  0.54719858  0.83853863  1
  O  O24  1  0.13357505  0.93197526  0.60709846  1
  O  O25  1  0.64749560  0.65718776  0.08740907  1
  O  O26  1  0.62537167  0.97150024  0.15621855  1
  O  O27  1  0.87598865  0.76213575  0.21380912  1
  O  O28  1  0.10146374  0.76856971  0.40473840  1
  O  O29  1  0.02849976  0.37462833  0.34378145  1
  O  O30  1  0.69878193  0.35019851  0.41883179  1
  O  O31  1  0.93197526  0.13357505  0.10709846  1
  O  O32  1  0.35019851  0.69878193  0.91883179  1
  O  O33  1  0.65718776  0.64749560  0.58740907  1
  O  O34  1  0.23786425  0.12401135  0.28619088  1
  O  O35  1  0.89853626  0.23143029  0.59526160  1
  O  O36  1  0.34281224  0.35250440  0.41259093  1
  O  O37  1  0.54719858  0.71029585  0.33853863  1
  O  O38  1  0.97150024  0.62537167  0.65621855  1
  O  O39  1  0.64980149  0.30121807  0.08116821  1
  O  O40  1  0.12401135  0.23786425  0.78619088  1
  O  O41  1  0.35250440  0.34281224  0.91259093  1
