# generated using pymatgen
data_SnP4H8N2O13
_symmetry_space_group_name_H-M   'P 1'
_cell_length_a   5.22221343
_cell_length_b   8.13985966
_cell_length_c   15.19954487
_cell_angle_alpha   83.61523026
_cell_angle_beta   82.31818295
_cell_angle_gamma   80.19618424
_symmetry_Int_Tables_number   1
_chemical_formula_structural   SnP4H8N2O13
_chemical_formula_sum   'Sn2 P8 H16 N4 O26'
_cell_volume   628.36152213
_cell_formula_units_Z   2
loop_
 _symmetry_equiv_pos_site_id
 _symmetry_equiv_pos_as_xyz
  1  'x, y, z'
loop_
 _atom_site_type_symbol
 _atom_site_label
 _atom_site_symmetry_multiplicity
 _atom_site_fract_x
 _atom_site_fract_y
 _atom_site_fract_z
 _atom_site_occupancy
  Sn  Sn0  1  0.03865599  0.94601503  0.23943215  1
  Sn  Sn1  1  0.96134401  0.05398497  0.76056785  1
  P  P2  1  0.19139666  0.40699302  0.69080732  1
  P  P3  1  0.82530027  0.66908906  0.78993389  1
  P  P4  1  0.80860334  0.59300698  0.30919268  1
  P  P5  1  0.61885995  0.78316035  0.14112337  1
  P  P6  1  0.38114005  0.21683965  0.85887663  1
  P  P7  1  0.17469973  0.33091094  0.21006611  1
  P  P8  1  0.54623078  0.89848446  0.65529680  1
  P  P9  1  0.45376922  0.10151554  0.34470320  1
  H  H10  1  0.22155323  0.72245568  0.43554308  1
  H  H11  1  0.77844677  0.27754432  0.56445692  1
  H  H12  1  0.68276546  0.43871248  0.06965691  1
  H  H13  1  0.78430028  0.39121015  0.96479257  1
  H  H14  1  0.24024452  0.60930577  0.53472427  1
  H  H15  1  0.05917870  0.71325272  0.95125646  1
  H  H16  1  0.31723454  0.56128752  0.93034309  1
  H  H17  1  0.28642790  0.80752323  0.52302335  1
  H  H18  1  0.02453093  0.23440842  0.47819920  1
  H  H19  1  0.36709919  0.74291263  0.96266710  1
  H  H20  1  0.94082130  0.28674728  0.04874354  1
  H  H21  1  0.71357210  0.19247677  0.47697665  1
  H  H22  1  0.63290081  0.25708737  0.03733290  1
  H  H23  1  0.75975548  0.39069423  0.46527573  1
  H  H24  1  0.21569972  0.60878985  0.03520743  1
  H  H25  1  0.97546907  0.76559158  0.52180080  1
  N  N26  1  0.23961631  0.65842006  0.96922111  1
  N  N27  1  0.82405094  0.27255788  0.49690617  1
  N  N28  1  0.76038369  0.34157994  0.03077889  1
  N  N29  1  0.17594906  0.72744212  0.50309383  1
  O  O30  1  0.74801375  0.54363130  0.86276276  1
  O  O31  1  0.96667165  0.40988670  0.28811255  1
  O  O32  1  0.36374482  0.35393028  0.77112774  1
  O  O33  1  0.35503853  0.17567875  0.43076142  1
  O  O34  1  0.68902098  0.04017637  0.67589268  1
  O  O35  1  0.98525404  0.29089150  0.69648008  1
  O  O36  1  0.67787950  0.14989790  0.85681746  1
  O  O37  1  0.35645305  0.43074378  0.60471788  1
  O  O38  1  0.41861871  0.24749452  0.26082959  1
  O  O39  1  0.64496147  0.82432125  0.56923858  1
  O  O40  1  0.27721434  0.30436053  0.94043135  1
  O  O41  1  0.72278566  0.69563947  0.05956865  1
  O  O42  1  0.32212050  0.85010210  0.14318254  1
  O  O43  1  0.76092240  0.92753736  0.15839124  1
  O  O44  1  0.03332835  0.59011330  0.71188745  1
  O  O45  1  0.05573524  0.18830211  0.18008607  1
  O  O46  1  0.64354695  0.56925622  0.39528212  1
  O  O47  1  0.01474596  0.70910850  0.30351992  1
  O  O48  1  0.94426476  0.81169789  0.81991393  1
  O  O49  1  0.31097902  0.95982363  0.32410732  1
  O  O50  1  0.58138129  0.75250548  0.73917041  1
  O  O51  1  0.63625518  0.64606972  0.22887226  1
  O  O52  1  0.24754547  0.95711788  0.66341468  1
  O  O53  1  0.25198625  0.45636870  0.13723724  1
  O  O54  1  0.75245453  0.04288212  0.33658532  1
  O  O55  1  0.23907760  0.07246264  0.84160876  1
