# generated using pymatgen
data_Ge3Rh5
_symmetry_space_group_name_H-M   'P 1'
_cell_length_a   4.04134511
_cell_length_b   5.49922166
_cell_length_c   10.49367749
_cell_angle_alpha   90.00115209
_cell_angle_beta   89.99999949
_cell_angle_gamma   90.00024794
_symmetry_Int_Tables_number   1
_chemical_formula_structural   Ge3Rh5
_chemical_formula_sum   'Ge6 Rh10'
_cell_volume   233.21413884
_cell_formula_units_Z   2
loop_
 _symmetry_equiv_pos_site_id
 _symmetry_equiv_pos_as_xyz
  1  'x, y, z'
loop_
 _atom_site_type_symbol
 _atom_site_label
 _atom_site_symmetry_multiplicity
 _atom_site_fract_x
 _atom_site_fract_y
 _atom_site_fract_z
 _atom_site_occupancy
  Ge  Ge0  1  0.49999997  0.89202213  0.34863623  1
  Ge  Ge1  1  0.99999690  0.49999331  0.50000831  1
  Ge  Ge2  1  0.50000076  0.39202367  0.15135770  1
  Ge  Ge3  1  0.49999924  0.10800699  0.65138247  1
  Ge  Ge4  1  0.49999980  0.60801565  0.84862431  1
  Ge  Ge5  1  0.99999859  -0.00000689  -0.00000870  1
  Rh  Rh6  1  0.00000173  0.34982013  0.71780034  1
  Rh  Rh7  1  0.00000021  0.15016915  0.21778458  1
  Rh  Rh8  1  0.00000400  0.84982092  0.78223082  1
  Rh  Rh9  1  0.49999895  0.82882442  0.10671035  1
  Rh  Rh10  1  0.49999938  0.17117059  0.89337375  1
  Rh  Rh11  1  0.50000070  0.67113237  0.60663370  1
  Rh  Rh12  1  0.00000357  -0.00001001  0.49995211  1
  Rh  Rh13  1  0.50000031  0.32885999  0.39328450  1
  Rh  Rh14  1  -0.00000281  0.49999052  0.00005029  1
  Rh  Rh15  1  -0.00000129  0.65016707  0.28217923  1
