# generated using pymatgen
data_ScTl(MoO4)2
_symmetry_space_group_name_H-M   'P 1'
_cell_length_a   5.91537014
_cell_length_b   9.03398880
_cell_length_c   15.32932226
_cell_angle_alpha   90.00000000
_cell_angle_beta   90.00000000
_cell_angle_gamma   90.00000000
_symmetry_Int_Tables_number   1
_chemical_formula_structural   ScTl(MoO4)2
_chemical_formula_sum   'Sc4 Tl4 Mo8 O32'
_cell_volume   819.18959378
_cell_formula_units_Z   4
loop_
 _symmetry_equiv_pos_site_id
 _symmetry_equiv_pos_as_xyz
  1  'x, y, z'
loop_
 _atom_site_type_symbol
 _atom_site_label
 _atom_site_symmetry_multiplicity
 _atom_site_fract_x
 _atom_site_fract_y
 _atom_site_fract_z
 _atom_site_occupancy
  Sc  Sc0  1  0.25000000  0.30658821  0.61296814  1
  Sc  Sc1  1  0.25000000  0.19341179  0.11296814  1
  Sc  Sc2  1  0.75000000  0.80658821  0.88703186  1
  Sc  Sc3  1  0.75000000  0.69341179  0.38703186  1
  Tl  Tl4  1  0.75000000  0.56137218  0.12560976  1
  Tl  Tl5  1  0.25000000  0.43862782  0.87439024  1
  Tl  Tl6  1  0.75000000  0.93862782  0.62560976  1
  Tl  Tl7  1  0.25000000  0.06137218  0.37439024  1
  Mo  Mo8  1  0.75000000  0.50222584  0.71729331  1
  Mo  Mo9  1  0.75000000  0.29005689  0.46409379  1
  Mo  Mo10  1  0.25000000  0.70994311  0.53590621  1
  Mo  Mo11  1  0.25000000  0.79005689  0.03590621  1
  Mo  Mo12  1  0.75000000  0.99777416  0.21729331  1
  Mo  Mo13  1  0.25000000  0.49777416  0.28270669  1
  Mo  Mo14  1  0.75000000  0.20994311  0.96409379  1
  Mo  Mo15  1  0.25000000  0.00222584  0.78270669  1
  O  O16  1  0.75000000  0.20135917  0.36225408  1
  O  O17  1  0.99675403  0.22849266  0.52556328  1
  O  O18  1  0.99509101  0.60670130  0.29934970  1
  O  O19  1  0.75000000  0.01279945  0.95014844  1
  O  O20  1  0.25000000  0.70135917  0.13774592  1
  O  O21  1  0.75000000  0.48720055  0.45014844  1
  O  O22  1  0.25000000  0.51279945  0.54985156  1
  O  O23  1  0.50324597  0.27150734  0.02556328  1
  O  O24  1  0.00324597  0.77150734  0.47443672  1
  O  O25  1  0.49509101  0.10670130  0.20065030  1
  O  O26  1  0.25000000  0.39637543  0.17986409  1
  O  O27  1  0.00490899  0.10670130  0.20065030  1
  O  O28  1  0.75000000  0.60362457  0.82013591  1
  O  O29  1  0.50490899  0.89329870  0.79934970  1
  O  O30  1  0.50324597  0.22849266  0.52556328  1
  O  O31  1  0.25000000  0.79864083  0.63774592  1
  O  O32  1  0.75000000  0.63744051  0.63607707  1
  O  O33  1  0.75000000  0.29864083  0.86225408  1
  O  O34  1  0.25000000  0.10362457  0.67986409  1
  O  O35  1  0.49675403  0.72849266  0.97443672  1
  O  O36  1  0.49509101  0.39329870  0.70065030  1
  O  O37  1  0.25000000  0.98720055  0.04985156  1
  O  O38  1  0.75000000  0.89637543  0.32013591  1
  O  O39  1  0.75000000  0.86255949  0.13607707  1
  O  O40  1  0.50490899  0.60670130  0.29934970  1
  O  O41  1  0.49675403  0.77150734  0.47443672  1
  O  O42  1  0.99509101  0.89329870  0.79934970  1
  O  O43  1  0.00490899  0.39329870  0.70065030  1
  O  O44  1  0.25000000  0.13744051  0.86392293  1
  O  O45  1  0.25000000  0.36255949  0.36392293  1
  O  O46  1  0.00324597  0.72849266  0.97443672  1
  O  O47  1  0.99675403  0.27150734  0.02556328  1
