# generated using pymatgen
data_Ce3Si2Rh3
_symmetry_space_group_name_H-M   'P 1'
_cell_length_a   5.65599715
_cell_length_b   7.72691813
_cell_length_c   14.88003376
_cell_angle_alpha   90.00000000
_cell_angle_beta   90.00000000
_cell_angle_gamma   90.00000000
_symmetry_Int_Tables_number   1
_chemical_formula_structural   Ce3Si2Rh3
_chemical_formula_sum   'Ce12 Si8 Rh12'
_cell_volume   650.30846802
_cell_formula_units_Z   4
loop_
 _symmetry_equiv_pos_site_id
 _symmetry_equiv_pos_as_xyz
  1  'x, y, z'
loop_
 _atom_site_type_symbol
 _atom_site_label
 _atom_site_symmetry_multiplicity
 _atom_site_fract_x
 _atom_site_fract_y
 _atom_site_fract_z
 _atom_site_occupancy
  Ce  Ce0  1  0.88174637  0.83743243  0.75000000  1
  Ce  Ce1  1  0.85630525  0.52711350  0.39215388  1
  Ce  Ce2  1  0.35630525  0.97288650  0.60784612  1
  Ce  Ce3  1  0.14369475  0.47288650  0.89215388  1
  Ce  Ce4  1  0.64369475  0.02711350  0.10784612  1
  Ce  Ce5  1  0.11825363  0.16256757  0.25000000  1
  Ce  Ce6  1  0.14369475  0.47288650  0.60784612  1
  Ce  Ce7  1  0.64369475  0.02711350  0.39215388  1
  Ce  Ce8  1  0.38174637  0.66256757  0.25000000  1
  Ce  Ce9  1  0.35630525  0.97288650  0.89215388  1
  Ce  Ce10  1  0.61825363  0.33743243  0.75000000  1
  Ce  Ce11  1  0.85630525  0.52711350  0.10784612  1
  Si  Si12  1  0.64415194  0.62568217  0.89882050  1
  Si  Si13  1  0.85584806  0.12568217  0.60117950  1
  Si  Si14  1  0.14415194  0.87431783  0.10117950  1
  Si  Si15  1  0.14415194  0.87431783  0.39882050  1
  Si  Si16  1  0.64415194  0.62568217  0.60117950  1
  Si  Si17  1  0.85584806  0.12568217  0.89882050  1
  Si  Si18  1  0.35584806  0.37431783  0.10117950  1
  Si  Si19  1  0.35584806  0.37431783  0.39882050  1
  Rh  Rh20  1  0.59511613  0.33707756  0.96365660  1
  Rh  Rh21  1  0.09511613  0.16292244  0.46365660  1
  Rh  Rh22  1  0.09511613  0.16292244  0.03634340  1
  Rh  Rh23  1  0.41879464  0.68870054  0.75000000  1
  Rh  Rh24  1  0.90488387  0.83707756  0.96365660  1
  Rh  Rh25  1  0.58120536  0.31129946  0.25000000  1
  Rh  Rh26  1  0.90488387  0.83707756  0.53634340  1
  Rh  Rh27  1  0.91879464  0.81129946  0.25000000  1
  Rh  Rh28  1  0.59511613  0.33707756  0.53634340  1
  Rh  Rh29  1  0.40488387  0.66292244  0.46365660  1
  Rh  Rh30  1  0.08120536  0.18870054  0.75000000  1
  Rh  Rh31  1  0.40488387  0.66292244  0.03634340  1
