# generated using pymatgen
data_Nd(In2Au)2
_symmetry_space_group_name_H-M   'P 1'
_cell_length_a   4.71055827
_cell_length_b   7.53938915
_cell_length_c   18.93338954
_cell_angle_alpha   90.05456673
_cell_angle_beta   90.05833722
_cell_angle_gamma   89.96252646
_symmetry_Int_Tables_number   1
_chemical_formula_structural   Nd(In2Au)2
_chemical_formula_sum   'Nd4 In16 Au8'
_cell_volume   672.41345735
_cell_formula_units_Z   4
loop_
 _symmetry_equiv_pos_site_id
 _symmetry_equiv_pos_as_xyz
  1  'x, y, z'
loop_
 _atom_site_type_symbol
 _atom_site_label
 _atom_site_symmetry_multiplicity
 _atom_site_fract_x
 _atom_site_fract_y
 _atom_site_fract_z
 _atom_site_occupancy
  Nd  Nd0  1  0.75015272  0.47382552  0.64215961  1
  Nd  Nd1  1  0.25033108  0.97343877  0.85786552  1
  Nd  Nd2  1  0.75023466  0.02583358  0.14191178  1
  Nd  Nd3  1  0.25037226  0.52570161  0.35791316  1
  In  In4  1  0.24971950  0.73617404  0.18812334  1
  In  In5  1  0.24994524  0.98854683  0.43212261  1
  In  In6  1  0.24920705  0.51154604  0.93200926  1
  In  In7  1  0.25012240  0.32631459  0.18499483  1
  In  In8  1  0.24994403  0.17368847  0.68491462  1
  In  In9  1  0.24953368  0.76424860  0.68808816  1
  In  In10  1  0.24981398  0.64511967  0.53556926  1
  In  In11  1  0.74962268  0.48863546  0.06806693  1
  In  In12  1  0.75033676  0.67341543  0.81483713  1
  In  In13  1  0.24989377  0.85515302  0.03559454  1
  In  In14  1  0.74998154  0.35504113  0.46460429  1
  In  In15  1  0.75006997  0.14472277  0.96437393  1
  In  In16  1  0.75025942  0.26433968  0.81178605  1
  In  In17  1  0.75024687  0.01149920  0.56810076  1
  In  In18  1  0.75004575  0.82680366  0.31500748  1
  In  In19  1  0.75048939  0.23572472  0.31179351  1
  Au  Au20  1  0.25012915  0.46568922  0.78137709  1
  Au  Au21  1  0.75005418  0.53464409  0.21863949  1
  Au  Au22  1  0.24998539  0.03464879  0.28149338  1
  Au  Au23  1  0.25023311  0.25606768  0.53922327  1
  Au  Au24  1  0.25036188  0.24381673  0.03923192  1
  Au  Au25  1  0.74950431  0.74383823  0.46080506  1
  Au  Au26  1  0.74950877  0.75604068  0.96078295  1
  Au  Au27  1  0.74990042  0.96548178  0.71861008  1
