# generated using pymatgen
data_Ce2S4O17
_symmetry_space_group_name_H-M   'P 1'
_cell_length_a   5.39458888
_cell_length_b   6.91190872
_cell_length_c   9.16141436
_cell_angle_alpha   99.29549358
_cell_angle_beta   90.00000000
_cell_angle_gamma   90.00000000
_symmetry_Int_Tables_number   1
_chemical_formula_structural   Ce2S4O17
_chemical_formula_sum   'Ce2 S4 O17'
_cell_volume   337.11503870
_cell_formula_units_Z   1
loop_
 _symmetry_equiv_pos_site_id
 _symmetry_equiv_pos_as_xyz
  1  'x, y, z'
loop_
 _atom_site_type_symbol
 _atom_site_label
 _atom_site_symmetry_multiplicity
 _atom_site_fract_x
 _atom_site_fract_y
 _atom_site_fract_z
 _atom_site_occupancy
  Ce  Ce0  1  0.50000000  0.20646656  0.06298863  1
  Ce  Ce1  1  0.00000000  0.81662636  0.52053527  1
  S  S2  1  0.50000000  0.73696559  0.23136496  1
  S  S3  1  0.00000000  0.19873735  0.86939268  1
  S  S4  1  0.00000000  0.28547282  0.35238953  1
  S  S5  1  0.50000000  0.83079829  0.71115289  1
  O  O6  1  0.50000000  0.56479946  0.11352457  1
  O  O7  1  0.77171528  0.32207890  0.88791746  1
  O  O8  1  0.22828472  0.32207890  0.88791746  1
  O  O9  1  0.50000000  0.91846768  0.16435219  1
  O  O10  1  0.50000000  0.94965383  0.86127007  1
  O  O11  1  0.22546681  0.28625981  0.25889511  1
  O  O12  1  0.77453319  0.28625981  0.25889511  1
  O  O13  1  -0.00000000  0.07737618  0.99031196  1
  O  O14  1  0.00000000  0.45882734  0.46909432  1
  O  O15  1  0.27550619  0.73458376  0.32532365  1
  O  O16  1  0.72449381  0.73458376  0.32532365  1
  O  O17  1  0.27286748  0.70596070  0.69304212  1
  O  O18  1  0.72713252  0.70596070  0.69304212  1
  O  O19  1  -0.00000000  0.07842531  0.72024884  1
  O  O20  1  -0.00000000  0.10521867  0.42061238  1
  O  O21  1  0.50000000  0.95351824  0.59206591  1
  O  O22  1  0.00000000  0.69977999  0.98013913  1
