# generated using pymatgen
data_SiO2
_symmetry_space_group_name_H-M   'P 1'
_cell_length_a   9.76883368
_cell_length_b   12.32280845
_cell_length_c   23.00046973
_cell_angle_alpha   90.00000000
_cell_angle_beta   90.00000000
_cell_angle_gamma   90.00000000
_symmetry_Int_Tables_number   1
_chemical_formula_structural   SiO2
_chemical_formula_sum   'Si48 O96'
_cell_volume   2768.78426887
_cell_formula_units_Z   48
loop_
 _symmetry_equiv_pos_site_id
 _symmetry_equiv_pos_as_xyz
  1  'x, y, z'
loop_
 _atom_site_type_symbol
 _atom_site_label
 _atom_site_symmetry_multiplicity
 _atom_site_fract_x
 _atom_site_fract_y
 _atom_site_fract_z
 _atom_site_occupancy
  Si  Si0  1  0.33420764  0.87631780  0.86292428  1
  Si  Si1  1  0.83420764  0.62368220  0.63707572  1
  Si  Si2  1  0.66579236  0.37631780  0.13707572  1
  Si  Si3  1  0.16579236  0.12368220  0.36292428  1
  Si  Si4  1  0.66579236  0.12368220  0.13707572  1
  Si  Si5  1  0.16579236  0.37631780  0.36292428  1
  Si  Si6  1  0.33420764  0.62368220  0.86292428  1
  Si  Si7  1  0.83420764  0.87631780  0.63707572  1
  Si  Si8  1  0.65217570  0.87699469  0.52793128  1
  Si  Si9  1  0.15217570  0.62300531  0.97206872  1
  Si  Si10  1  0.34782430  0.37699469  0.47206872  1
  Si  Si11  1  0.84782430  0.12300531  0.02793128  1
  Si  Si12  1  0.34782430  0.12300531  0.47206872  1
  Si  Si13  1  0.84782430  0.37699469  0.02793128  1
  Si  Si14  1  0.65217570  0.62300531  0.52793128  1
  Si  Si15  1  0.15217570  0.87699469  0.97206872  1
  Si  Si16  1  0.88338093  0.52772887  0.92227826  1
  Si  Si17  1  0.38338093  0.97227113  0.57772174  1
  Si  Si18  1  0.11661907  0.02772887  0.07772174  1
  Si  Si19  1  0.61661907  0.47227113  0.42227826  1
  Si  Si20  1  0.11661907  0.47227113  0.07772174  1
  Si  Si21  1  0.61661907  0.02772887  0.42227826  1
  Si  Si22  1  0.88338093  0.97227113  0.92227826  1
  Si  Si23  1  0.38338093  0.52772887  0.57772174  1
  Si  Si24  1  0.14576794  0.87389884  0.65473378  1
  Si  Si25  1  0.64576794  0.62610116  0.84526622  1
  Si  Si26  1  0.85423206  0.37389884  0.34526622  1
  Si  Si27  1  0.35423206  0.12610116  0.15473378  1
  Si  Si28  1  0.85423206  0.12610116  0.34526622  1
  Si  Si29  1  0.35423206  0.37389884  0.15473378  1
  Si  Si30  1  0.14576794  0.62610116  0.65473378  1
  Si  Si31  1  0.64576794  0.87389884  0.84526622  1
  Si  Si32  1  0.97432144  0.12546416  0.81839565  1
  Si  Si33  1  0.47432144  0.37453584  0.68160435  1
  Si  Si34  1  0.02567856  0.62546416  0.18160435  1
  Si  Si35  1  0.52567856  0.87453584  0.31839565  1
  Si  Si36  1  0.02567856  0.87453584  0.18160435  1
  Si  Si37  1  0.52567856  0.62546416  0.31839565  1
  Si  Si38  1  0.97432144  0.37453584  0.81839565  1
  Si  Si39  1  0.47432144  0.12546416  0.68160435  1
  Si  Si40  1  0.23261021  0.47091025  0.75808813  1
  Si  Si41  1  0.73261021  0.02908975  0.74191187  1
  Si  Si42  1  0.76738979  0.97091025  0.24191187  1
  Si  Si43  1  0.26738979  0.52908975  0.25808813  1
  Si  Si44  1  0.76738979  0.52908975  0.24191187  1
  Si  Si45  1  0.26738979  0.97091025  0.25808813  1
  Si  Si46  1  0.23261021  0.02908975  0.75808813  1
  Si  Si47  1  0.73261021  0.47091025  0.74191187  1
  O  O48  1  0.29459180  0.75000000  0.84964828  1
  O  O49  1  0.79459180  0.75000000  0.65035172  1
  O  O50  1  0.70540820  0.25000000  0.15035172  1
  O  O51  1  0.20540820  0.25000000  0.34964828  1
  O  O52  1  0.24923162  0.91913025  0.91908499  1
  O  O53  1  0.74923162  0.58086975  0.58091501  1
  O  O54  1  0.75076838  0.41913025  0.08091501  1
  O  O55  1  0.25076838  0.08086975  0.41908499  1
  O  O56  1  0.75076838  0.08086975  0.08091501  1
  O  O57  1  0.25076838  0.41913025  0.41908499  1
  O  O58  1  0.24923162  0.58086975  0.91908499  1
  O  O59  1  0.74923162  0.91913025  0.58091501  1
  O  O60  1  0.49728386  0.88635286  0.87679751  1
  O  O61  1  0.99728386  0.61364714  0.62320249  1
  O  O62  1  0.50271614  0.38635286  0.12320249  1
  O  O63  1  0.00271614  0.11364714  0.37679751  1
  O  O64  1  0.50271614  0.11364714  0.12320249  1
  O  O65  1  0.00271614  0.38635286  0.37679751  1
  O  O66  1  0.49728386  0.61364714  0.87679751  1
  O  O67  1  0.99728386  0.88635286  0.62320249  1
  O  O68  1  0.29688121  0.94886823  0.80681069  1
  O  O69  1  0.79688121  0.55113177  0.69318931  1
  O  O70  1  0.70311879  0.44886823  0.19318931  1
  O  O71  1  0.20311879  0.05113177  0.30681069  1
  O  O72  1  0.70311879  0.05113177  0.19318931  1
  O  O73  1  0.20311879  0.44886823  0.30681069  1
  O  O74  1  0.29688121  0.55113177  0.80681069  1
  O  O75  1  0.79688121  0.94886823  0.69318931  1
  O  O76  1  0.68316763  0.75000000  0.51443739  1
  O  O77  1  0.18316763  0.75000000  0.98556261  1
  O  O78  1  0.31683237  0.25000000  0.48556261  1
  O  O79  1  0.81683237  0.25000000  0.01443739  1
  O  O80  1  0.68623896  0.94777551  0.47019654  1
  O  O81  1  0.18623896  0.55222449  0.02980346  1
  O  O82  1  0.31376104  0.44777551  0.52980346  1
  O  O83  1  0.81376104  0.05222449  0.97019654  1
  O  O84  1  0.31376104  0.05222449  0.52980346  1
  O  O85  1  0.81376104  0.44777551  0.97019654  1
  O  O86  1  0.68623896  0.55222449  0.47019654  1
  O  O87  1  0.18623896  0.94777551  0.02980346  1
  O  O88  1  0.49167336  0.89157944  0.54583737  1
  O  O89  1  0.99167336  0.60842056  0.95416263  1
  O  O90  1  0.50832664  0.39157944  0.45416263  1
  O  O91  1  0.00832664  0.10842056  0.04583737  1
  O  O92  1  0.50832664  0.10842056  0.45416263  1
  O  O93  1  0.00832664  0.39157944  0.04583737  1
  O  O94  1  0.49167336  0.60842056  0.54583737  1
  O  O95  1  0.99167336  0.89157944  0.95416263  1
  O  O96  1  0.96326091  0.45620362  0.87353052  1
  O  O97  1  0.46326091  0.04379638  0.62646948  1
  O  O98  1  0.03673909  0.95620362  0.12646948  1
  O  O99  1  0.53673909  0.54379638  0.37353052  1
  O  O100  1  0.03673909  0.54379638  0.12646948  1
  O  O101  1  0.53673909  0.95620362  0.37353052  1
  O  O102  1  0.96326091  0.04379638  0.87353052  1
  O  O103  1  0.46326091  0.45620362  0.62646948  1
  O  O104  1  0.76519127  0.60069197  0.89219399  1
  O  O105  1  0.26519127  0.89930803  0.60780601  1
  O  O106  1  0.23480873  0.10069197  0.10780601  1
  O  O107  1  0.73480873  0.39930803  0.39219399  1
  O  O108  1  0.23480873  0.39930803  0.10780601  1
  O  O109  1  0.73480873  0.10069197  0.39219399  1
  O  O110  1  0.76519127  0.89930803  0.89219399  1
  O  O111  1  0.26519127  0.60069197  0.60780601  1
  O  O112  1  0.16357792  0.75000000  0.67873943  1
  O  O113  1  0.66357792  0.75000000  0.82126057  1
  O  O114  1  0.83642208  0.25000000  0.32126057  1
  O  O115  1  0.33642208  0.25000000  0.17873943  1
  O  O116  1  0.15418669  0.54266187  0.70896707  1
  O  O117  1  0.65418669  0.95733813  0.79103293  1
  O  O118  1  0.84581331  0.04266187  0.29103293  1
  O  O119  1  0.34581331  0.45733813  0.20896707  1
  O  O120  1  0.84581331  0.45733813  0.29103293  1
  O  O121  1  0.34581331  0.04266187  0.20896707  1
  O  O122  1  0.15418669  0.95733813  0.70896707  1
  O  O123  1  0.65418669  0.54266187  0.79103293  1
  O  O124  1  0.95859814  0.25000000  0.84101764  1
  O  O125  1  0.45859814  0.25000000  0.65898236  1
  O  O126  1  0.04140186  0.75000000  0.15898236  1
  O  O127  1  0.54140186  0.75000000  0.34101764  1
  O  O128  1  0.35399352  0.40064636  0.72840676  1
  O  O129  1  0.85399352  0.09935364  0.77159324  1
  O  O130  1  0.64600648  0.90064636  0.27159324  1
  O  O131  1  0.14600648  0.59935364  0.22840676  1
  O  O132  1  0.64600648  0.59935364  0.27159324  1
  O  O133  1  0.14600648  0.90064636  0.22840676  1
  O  O134  1  0.35399352  0.09935364  0.72840676  1
  O  O135  1  0.85399352  0.40064636  0.77159324  1
  O  O136  1  0.12357661  0.38870776  0.78797928  1
  O  O137  1  0.62357661  0.11129224  0.71202072  1
  O  O138  1  0.87642339  0.88870776  0.21202072  1
  O  O139  1  0.37642339  0.61129224  0.28797928  1
  O  O140  1  0.87642339  0.61129224  0.21202072  1
  O  O141  1  0.37642339  0.88870776  0.28797928  1
  O  O142  1  0.12357661  0.11129224  0.78797928  1
  O  O143  1  0.62357661  0.38870776  0.71202072  1
