# generated using pymatgen
data_BaZn(SeO3)2
_symmetry_space_group_name_H-M   'P 1'
_cell_length_a   5.93992466
_cell_length_b   8.76549025
_cell_length_c   13.72921096
_cell_angle_alpha   90.00000000
_cell_angle_beta   90.00000000
_cell_angle_gamma   95.94322714
_symmetry_Int_Tables_number   1
_chemical_formula_structural   BaZn(SeO3)2
_chemical_formula_sum   'Ba4 Zn4 Se8 O24'
_cell_volume   710.98770171
_cell_formula_units_Z   4
loop_
 _symmetry_equiv_pos_site_id
 _symmetry_equiv_pos_as_xyz
  1  'x, y, z'
loop_
 _atom_site_type_symbol
 _atom_site_label
 _atom_site_symmetry_multiplicity
 _atom_site_fract_x
 _atom_site_fract_y
 _atom_site_fract_z
 _atom_site_occupancy
  Ba  Ba0  1  0.72434599  0.76758397  0.29729486  1
  Ba  Ba1  1  0.72434599  0.26758397  0.20270514  1
  Ba  Ba2  1  0.27565401  0.23241603  0.70270514  1
  Ba  Ba3  1  0.27565401  0.73241603  0.79729486  1
  Zn  Zn4  1  0.82901623  0.54192331  0.63602963  1
  Zn  Zn5  1  0.17098377  0.45807669  0.36397037  1
  Zn  Zn6  1  0.17098377  0.95807669  0.13602963  1
  Zn  Zn7  1  0.82901623  0.04192331  0.86397037  1
  Se  Se8  1  0.77365743  0.25392287  0.49061835  1
  Se  Se9  1  0.22634257  0.24607713  0.99061835  1
  Se  Se10  1  0.26600603  0.08917407  0.35656245  1
  Se  Se11  1  0.77365743  0.75392287  0.00938165  1
  Se  Se12  1  0.73399397  0.91082593  0.64343755  1
  Se  Se13  1  0.73399397  0.41082593  0.85656245  1
  Se  Se14  1  0.22634257  0.74607713  0.50938165  1
  Se  Se15  1  0.26600603  0.58917407  0.14343755  1
  O  O16  1  0.66018371  0.71744754  0.66845424  1
  O  O17  1  0.49823771  0.47795497  0.80775807  1
  O  O18  1  0.50176229  0.52204503  0.19224193  1
  O  O19  1  0.64715222  0.37004962  0.57411832  1
  O  O20  1  0.35284778  0.62995038  0.42588168  1
  O  O21  1  0.35284778  0.12995038  0.07411832  1
  O  O22  1  0.33981629  0.28255246  0.33154576  1
  O  O23  1  0.85244270  0.37474372  0.39185522  1
  O  O24  1  0.64715222  0.87004962  0.92588168  1
  O  O25  1  0.02766508  0.73193123  0.95885518  1
  O  O26  1  0.14755730  0.62525628  0.60814478  1
  O  O27  1  0.49823771  0.97795497  0.69224193  1
  O  O28  1  0.02766508  0.23193123  0.54114482  1
  O  O29  1  0.94309166  0.46288262  0.76816598  1
  O  O30  1  0.66018371  0.21744754  0.83154576  1
  O  O31  1  0.97233492  0.26806877  0.04114482  1
  O  O32  1  0.50176229  0.02204503  0.30775807  1
  O  O33  1  0.14755730  0.12525628  0.89185522  1
  O  O34  1  0.94309166  0.96288262  0.73183402  1
  O  O35  1  0.05690834  0.53711738  0.23183402  1
  O  O36  1  0.05690834  0.03711738  0.26816598  1
  O  O37  1  0.97233492  0.76806877  0.45885518  1
  O  O38  1  0.85244270  0.87474372  0.10814478  1
  O  O39  1  0.33981629  0.78255246  0.16845424  1
