# generated using pymatgen
data_PH3O4
_symmetry_space_group_name_H-M   'P 1'
_cell_length_a   5.89602025
_cell_length_b   4.95982088
_cell_length_c   11.10336874
_cell_angle_alpha   90.00000000
_cell_angle_beta   96.64239320
_cell_angle_gamma   90.00000000
_symmetry_Int_Tables_number   1
_chemical_formula_structural   PH3O4
_chemical_formula_sum   'P4 H12 O16'
_cell_volume   322.51852970
_cell_formula_units_Z   4
loop_
 _symmetry_equiv_pos_site_id
 _symmetry_equiv_pos_as_xyz
  1  'x, y, z'
loop_
 _atom_site_type_symbol
 _atom_site_label
 _atom_site_symmetry_multiplicity
 _atom_site_fract_x
 _atom_site_fract_y
 _atom_site_fract_z
 _atom_site_occupancy
  P  P0  1  0.20364640  0.21420879  0.64057263  1
  P  P1  1  0.79635360  0.71420879  0.85942737  1
  P  P2  1  0.79635360  0.78579121  0.35942737  1
  P  P3  1  0.20364640  0.28579121  0.14057263  1
  H  H4  1  0.23728013  0.54515967  0.51028110  1
  H  H5  1  0.76271987  0.04515967  0.98971890  1
  H  H6  1  0.76271987  0.45484033  0.48971890  1
  H  H7  1  0.23728013  0.95484033  0.01028110  1
  H  H8  1  0.85831478  0.05548301  0.67342712  1
  H  H9  1  0.14168522  0.55548301  0.82657288  1
  H  H10  1  0.14168522  0.94451699  0.32657288  1
  H  H11  1  0.85831478  0.44451699  0.17342712  1
  H  H12  1  0.46625727  0.89704467  0.68191230  1
  H  H13  1  0.53374273  0.39704467  0.81808770  1
  H  H14  1  0.53374273  0.10295533  0.31808770  1
  H  H15  1  0.46625727  0.60295533  0.18191230  1
  O  O16  1  0.27114847  0.35195013  0.52202398  1
  O  O17  1  0.72885153  0.85195013  0.97797602  1
  O  O18  1  0.72885153  0.64804987  0.47797602  1
  O  O19  1  0.27114847  0.14804987  0.02202398  1
  O  O20  1  0.93779754  0.18653699  0.61967162  1
  O  O21  1  0.06220246  0.68653699  0.88032838  1
  O  O22  1  0.06220246  0.81346301  0.38032838  1
  O  O23  1  0.93779754  0.31346301  0.11967162  1
  O  O24  1  0.28708570  0.36699732  0.75562000  1
  O  O25  1  0.71291430  0.86699732  0.74438000  1
  O  O26  1  0.71291430  0.63300268  0.24438000  1
  O  O27  1  0.28708570  0.13300268  0.25562000  1
  O  O28  1  0.30625710  0.92467415  0.63657585  1
  O  O29  1  0.69374290  0.42467415  0.86342415  1
  O  O30  1  0.69374290  0.07532585  0.36342415  1
  O  O31  1  0.30625710  0.57532585  0.13657585  1
