# generated using pymatgen
data_SrH4(ClO)2
_symmetry_space_group_name_H-M   'P 1'
_cell_length_a   6.74891222
_cell_length_b   6.74891222
_cell_length_c   6.72261581
_cell_angle_alpha   76.43090714
_cell_angle_beta   103.56909286
_cell_angle_gamma   122.77950786
_symmetry_Int_Tables_number   1
_chemical_formula_structural   SrH4(ClO)2
_chemical_formula_sum   'Sr2 H8 Cl4 O4'
_cell_volume   248.07737134
_cell_formula_units_Z   2
loop_
 _symmetry_equiv_pos_site_id
 _symmetry_equiv_pos_as_xyz
  1  'x, y, z'
loop_
 _atom_site_type_symbol
 _atom_site_label
 _atom_site_symmetry_multiplicity
 _atom_site_fract_x
 _atom_site_fract_y
 _atom_site_fract_z
 _atom_site_occupancy
  Sr  Sr0  1  0.74318569  0.74318569  0.75000000  1
  Sr  Sr1  1  0.25681431  0.25681431  0.25000000  1
  H  H2  1  0.42580142  0.18350447  0.88013158  1
  H  H3  1  0.18350447  0.42580142  0.61986842  1
  H  H4  1  0.57419858  0.81649553  0.11986842  1
  H  H5  1  0.81649553  0.57419858  0.38013158  1
  H  H6  1  0.64883649  0.26882897  0.04963180  1
  H  H7  1  0.26882897  0.64883649  0.45036820  1
  H  H8  1  0.35116351  0.73117103  0.95036820  1
  H  H9  1  0.73117103  0.35116351  0.54963180  1
  Cl  Cl10  1  0.05227909  0.76020910  0.15334361  1
  Cl  Cl11  1  0.76020910  0.05227909  0.34665639  1
  Cl  Cl12  1  0.94772091  0.23979090  0.84665639  1
  Cl  Cl13  1  0.23979090  0.94772091  0.65334361  1
  O  O14  1  0.52772928  0.30912614  0.97368879  1
  O  O15  1  0.30912614  0.52772928  0.52631121  1
  O  O16  1  0.47227072  0.69087386  0.02631121  1
  O  O17  1  0.69087386  0.47227072  0.47368879  1
