# generated using pymatgen
data_Nb2Co4O9
_symmetry_space_group_name_H-M   'P 1'
_cell_length_a   5.22172795
_cell_length_b   5.22172796
_cell_length_c   14.29696524
_cell_angle_alpha   90.00000000
_cell_angle_beta   90.00000000
_cell_angle_gamma   120.00000003
_symmetry_Int_Tables_number   1
_chemical_formula_structural   Nb2Co4O9
_chemical_formula_sum   'Nb4 Co8 O18'
_cell_volume   337.60041851
_cell_formula_units_Z   2
loop_
 _symmetry_equiv_pos_site_id
 _symmetry_equiv_pos_as_xyz
  1  'x, y, z'
loop_
 _atom_site_type_symbol
 _atom_site_label
 _atom_site_symmetry_multiplicity
 _atom_site_fract_x
 _atom_site_fract_y
 _atom_site_fract_z
 _atom_site_occupancy
  O  O0  1  0.32146959  0.97754864  0.58372897  1
  O  O1  1  0.02245136  0.34392095  0.58372897  1
  O  O2  1  0.65607905  0.67853041  0.58372897  1
  O  O3  1  0.34392095  0.02245136  0.91627103  1
  O  O4  1  0.67853041  0.65607905  0.91627103  1
  O  O5  1  0.97754864  0.32146959  0.91627103  1
  O  O6  1  0.67853041  0.02245136  0.41627103  1
  O  O7  1  0.97754864  0.65607905  0.41627103  1
  O  O8  1  0.34392095  0.32146959  0.41627103  1
  O  O9  1  0.65607905  0.97754864  0.08372897  1
  O  O10  1  0.32146959  0.34392095  0.08372897  1
  O  O11  1  0.02245136  0.67853041  0.08372897  1
  O  O12  1  0.00000000  0.29011055  0.25000000  1
  O  O13  1  0.70988945  0.70988945  0.25000000  1
  O  O14  1  0.29011055  0.00000000  0.25000000  1
  O  O15  1  0.00000000  0.70988945  0.75000000  1
  O  O16  1  0.29011055  0.29011055  0.75000000  1
  O  O17  1  0.70988945  0.00000000  0.75000000  1
  Co  Co18  1  0.33333333  0.66666667  0.48499743  1
  Co  Co19  1  0.66666667  0.33333333  0.01500257  1
  Co  Co20  1  0.66666667  0.33333333  0.51500257  1
  Co  Co21  1  0.33333333  0.66666667  0.98499743  1
  Co  Co22  1  0.33333333  0.66666667  0.69369217  1
  Co  Co23  1  0.66666667  0.33333333  0.80630783  1
  Co  Co24  1  0.66666667  0.33333333  0.30630783  1
  Co  Co25  1  0.33333333  0.66666667  0.19369217  1
  Nb  Nb26  1  0.00000000  0.00000000  0.64165883  1
  Nb  Nb27  1  0.00000000  0.00000000  0.85834117  1
  Nb  Nb28  1  0.00000000  0.00000000  0.35834117  1
  Nb  Nb29  1  0.00000000  0.00000000  0.14165883  1
