# generated using pymatgen
data_Nd2Mn3Cu9P7
_symmetry_space_group_name_H-M   'P 1'
_cell_length_a   3.82661369
_cell_length_b   9.55514010
_cell_length_c   9.48891709
_cell_angle_alpha   119.61811936
_cell_angle_beta   90.00000000
_cell_angle_gamma   90.00000000
_symmetry_Int_Tables_number   1
_chemical_formula_structural   Nd2Mn3Cu9P7
_chemical_formula_sum   'Nd2 Mn3 Cu9 P7'
_cell_volume   301.61805524
_cell_formula_units_Z   1
loop_
 _symmetry_equiv_pos_site_id
 _symmetry_equiv_pos_as_xyz
  1  'x, y, z'
loop_
 _atom_site_type_symbol
 _atom_site_label
 _atom_site_symmetry_multiplicity
 _atom_site_fract_x
 _atom_site_fract_y
 _atom_site_fract_z
 _atom_site_occupancy
  Nd  Nd0  1  -0.00000000  0.66337737  0.33181205  1
  Nd  Nd1  1  0.50000000  0.33478597  0.66553988  1
  Mn  Mn2  1  0.50000000  0.12503859  0.91236225  1
  Mn  Mn3  1  0.50000000  0.08380652  0.21656329  1
  Mn  Mn4  1  0.50000000  0.78991661  0.87546076  1
  Cu  Cu5  1  -0.00000000  0.38230670  0.95178117  1
  Cu  Cu6  1  -0.00000000  0.05157151  0.43127956  1
  Cu  Cu7  1  -0.00000000  0.57269249  0.61993031  1
  Cu  Cu8  1  0.00000000  0.88378029  0.72100299  1
  Cu  Cu9  1  -0.00000000  0.27467614  0.15706332  1
  Cu  Cu10  1  -0.00000000  0.84017862  0.12163673  1
  Cu  Cu11  1  0.50000000  0.95978705  0.57492308  1
  Cu  Cu12  1  0.50000000  0.42361874  0.38041501  1
  Cu  Cu13  1  0.50000000  0.61631396  0.04097302  1
  P  P14  1  -0.00000000  0.12562473  0.71495450  1
  P  P15  1  -0.00000000  0.28522272  0.40688400  1
  P  P16  1  -0.00000000  0.59209591  0.87848448  1
  P  P17  1  0.50000000  0.70593528  0.58873184  1
  P  P18  1  0.50000000  0.40695775  0.11351524  1
  P  P19  1  0.50000000  0.88272997  0.29525594  1
  P  P20  1  -0.00000000  0.99958310  0.00143058  1
