# generated using pymatgen
data_FeHO2
_symmetry_space_group_name_H-M   'P 1'
_cell_length_a   3.98962011
_cell_length_b   6.46588091
_cell_length_c   6.46588091
_cell_angle_alpha   152.20136150
_cell_angle_beta   90.00000000
_cell_angle_gamma   90.00000000
_symmetry_Int_Tables_number   1
_chemical_formula_structural   FeHO2
_chemical_formula_sum   'Fe2 H2 O4'
_cell_volume   77.78815562
_cell_formula_units_Z   2
loop_
 _symmetry_equiv_pos_site_id
 _symmetry_equiv_pos_as_xyz
  1  'x, y, z'
loop_
 _atom_site_type_symbol
 _atom_site_label
 _atom_site_symmetry_multiplicity
 _atom_site_fract_x
 _atom_site_fract_y
 _atom_site_fract_z
 _atom_site_occupancy
  Fe  Fe0  1  0.24978880  0.67806372  0.32193628  1
  Fe  Fe1  1  0.74978880  0.32193628  0.67806372  1
  H  H2  1  0.43886436  0.01930030  0.98069970  1
  H  H3  1  0.93886436  0.98069970  0.01930030  1
  O  O4  1  0.25017462  0.28947372  0.71052628  1
  O  O5  1  0.75017462  0.71052628  0.28947372  1
  O  O6  1  0.24666923  0.07168917  0.92831083  1
  O  O7  1  0.74666923  0.92831083  0.07168917  1
