# generated using pymatgen
data_Cr3GeN
_symmetry_space_group_name_H-M   'P 1'
_cell_length_a   4.01024300
_cell_length_b   5.33038975
_cell_length_c   5.33158779
_cell_angle_alpha   89.94755073
_cell_angle_beta   89.96349724
_cell_angle_gamma   89.83914911
_symmetry_Int_Tables_number   1
_chemical_formula_structural   Cr3GeN
_chemical_formula_sum   'Cr6 Ge2 N2'
_cell_volume   113.96834401
_cell_formula_units_Z   2
loop_
 _symmetry_equiv_pos_site_id
 _symmetry_equiv_pos_as_xyz
  1  'x, y, z'
loop_
 _atom_site_type_symbol
 _atom_site_label
 _atom_site_symmetry_multiplicity
 _atom_site_fract_x
 _atom_site_fract_y
 _atom_site_fract_z
 _atom_site_occupancy
  Cr  Cr0  1  0.92293190  0.70871679  0.79123690  1
  Cr  Cr1  1  0.92231039  0.29075602  0.20862232  1
  Cr  Cr2  1  0.49945469  0.99981621  0.00046660  1
  Cr  Cr3  1  0.07859659  0.79160326  0.29129385  1
  Cr  Cr4  1  0.07804453  0.20929320  0.70924921  1
  Cr  Cr5  1  0.49966788  0.50003161  0.50032326  1
  Ge  Ge6  1  0.44617368  0.49981905  0.99929784  1
  Ge  Ge7  1  0.55508338  -0.00005785  0.50055347  1
  N  N8  1  0.99907697  0.50016477  0.49932920  1
  N  N9  1  0.99865998  0.99985695  0.99962735  1
