# generated using pymatgen
data_Sr11In7
_symmetry_space_group_name_H-M   'P 1'
_cell_length_a   12.64285623
_cell_length_b   12.64274804
_cell_length_c   12.64282281
_cell_angle_alpha   59.99988635
_cell_angle_beta   59.99980716
_cell_angle_gamma   60.00009375
_symmetry_Int_Tables_number   1
_chemical_formula_structural   Sr11In7
_chemical_formula_sum   'Sr22 In14'
_cell_volume   1428.94343461
_cell_formula_units_Z   2
loop_
 _symmetry_equiv_pos_site_id
 _symmetry_equiv_pos_as_xyz
  1  'x, y, z'
loop_
 _atom_site_type_symbol
 _atom_site_label
 _atom_site_symmetry_multiplicity
 _atom_site_fract_x
 _atom_site_fract_y
 _atom_site_fract_z
 _atom_site_occupancy
  Sr  Sr0  1  0.83346501  0.49999880  0.49999893  1
  Sr  Sr1  1  0.83346095  0.16653561  0.50000302  1
  Sr  Sr2  1  0.38757677  0.87080861  0.87080884  1
  Sr  Sr3  1  0.50000092  0.50000174  0.16653413  1
  Sr  Sr4  1  0.49999995  0.49999884  0.83346408  1
  Sr  Sr5  1  0.12918955  0.61242192  0.12919446  1
  Sr  Sr6  1  0.50000303  0.16653672  0.49999808  1
  Sr  Sr7  1  0.87080866  0.87080508  0.38757884  1
  Sr  Sr8  1  0.50000008  0.16653386  0.83346368  1
  Sr  Sr9  1  0.87080625  0.87080580  0.87080716  1
  Sr  Sr10  1  0.49999860  0.83346576  0.16653987  1
  Sr  Sr11  1  0.16653716  0.83346640  0.49999763  1
  Sr  Sr12  1  0.49999849  0.83346417  0.50000283  1
  Sr  Sr13  1  0.83346482  0.50000229  0.16653577  1
  Sr  Sr14  1  0.99999975  0.99999995  -0.00000164  1
  Sr  Sr15  1  0.12919237  0.12919302  0.12919546  1
  Sr  Sr16  1  0.12919366  0.12919536  0.61241662  1
  Sr  Sr17  1  0.16653667  0.50000183  0.50000360  1
  Sr  Sr18  1  0.16653588  0.49999733  0.83346640  1
  Sr  Sr19  1  0.87080436  0.38758086  0.87080542  1
  Sr  Sr20  1  0.50000071  0.49999985  0.49999934  1
  Sr  Sr21  1  0.61242236  0.12918906  0.12919244  1
  In  In22  1  0.21812258  0.78187680  0.78187713  1
  In  In23  1  0.78187688  0.21812358  0.21812344  1
  In  In24  1  0.68929599  0.68929634  0.68929645  1
  In  In25  1  0.78187536  0.78187551  0.21812478  1
  In  In26  1  0.06789182  0.31070145  0.31070233  1
  In  In27  1  0.21812414  0.21812518  0.78187409  1
  In  In28  1  0.31070360  0.06789014  0.31070258  1
  In  In29  1  0.31070453  0.31070192  0.31070248  1
  In  In30  1  0.93211003  0.68929658  0.68929749  1
  In  In31  1  0.68929797  0.93210987  0.68929564  1
  In  In32  1  0.78187514  0.21812527  0.78187517  1
  In  In33  1  0.31070384  0.31070203  0.06789006  1
  In  In34  1  0.21812455  0.78187655  0.21812312  1
  In  In35  1  0.68929761  0.68929591  0.93211029  1
