# generated using pymatgen
data_Fe2TeO5
_symmetry_space_group_name_H-M   'P 1'
_cell_length_a   5.04208732
_cell_length_b   7.77699216
_cell_length_c   10.95442882
_cell_angle_alpha   102.99421557
_cell_angle_beta   90.00000000
_cell_angle_gamma   90.00000000
_symmetry_Int_Tables_number   1
_chemical_formula_structural   Fe2TeO5
_chemical_formula_sum   'Fe8 Te4 O20'
_cell_volume   418.54852370
_cell_formula_units_Z   4
loop_
 _symmetry_equiv_pos_site_id
 _symmetry_equiv_pos_as_xyz
  1  'x, y, z'
loop_
 _atom_site_type_symbol
 _atom_site_label
 _atom_site_symmetry_multiplicity
 _atom_site_fract_x
 _atom_site_fract_y
 _atom_site_fract_z
 _atom_site_occupancy
  Fe  Fe0  1  0.04758064  0.81492635  0.90801135  1
  Fe  Fe1  1  0.95241936  0.18507365  0.09198865  1
  Fe  Fe2  1  0.54758064  0.18507365  0.59198865  1
  Fe  Fe3  1  0.42839491  0.96975094  0.13109871  1
  Fe  Fe4  1  0.57160509  0.03024906  0.86890129  1
  Fe  Fe5  1  0.07160509  0.96975094  0.63109871  1
  Fe  Fe6  1  0.45241936  0.81492635  0.40801135  1
  Fe  Fe7  1  0.92839491  0.03024906  0.36890129  1
  Te  Te8  1  0.06089739  0.35624486  0.83325896  1
  Te  Te9  1  0.93910261  0.64375514  0.16674104  1
  Te  Te10  1  0.56089739  0.64375514  0.66674104  1
  Te  Te11  1  0.43910261  0.35624486  0.33325896  1
  O  O12  1  0.87333098  0.89957935  0.76714894  1
  O  O13  1  0.70255597  0.25859946  0.43435344  1
  O  O14  1  0.25005561  0.05102874  0.48450590  1
  O  O15  1  0.20255597  0.74140054  0.06564656  1
  O  O16  1  0.87996164  0.57617848  0.83964039  1
  O  O17  1  0.37996164  0.42382152  0.66035961  1
  O  O18  1  0.75005561  0.94897126  0.01549410  1
  O  O19  1  0.12003836  0.42382152  0.16035961  1
  O  O20  1  0.12666902  0.10042065  0.23285106  1
  O  O21  1  0.60108842  0.23098486  0.18249609  1
  O  O22  1  0.24994439  0.05102874  0.98450590  1
  O  O23  1  0.79744403  0.25859946  0.93435344  1
  O  O24  1  0.89891158  0.23098486  0.68249609  1
  O  O25  1  0.10108842  0.76901514  0.31750391  1
  O  O26  1  0.62003836  0.57617848  0.33964039  1
  O  O27  1  0.37333098  0.10042065  0.73285106  1
  O  O28  1  0.29744403  0.74140054  0.56564656  1
  O  O29  1  0.74994439  0.94897126  0.51549410  1
  O  O30  1  0.39891158  0.76901514  0.81750391  1
  O  O31  1  0.62666902  0.89957935  0.26714894  1
