# generated using pymatgen
data_PNCl2
_symmetry_space_group_name_H-M   'P 1'
_cell_length_a   6.06702639
_cell_length_b   15.50838857
_cell_length_c   15.50838857
_cell_angle_alpha   90.00000000
_cell_angle_beta   90.00000000
_cell_angle_gamma   90.00000000
_symmetry_Int_Tables_number   1
_chemical_formula_structural   PNCl2
_chemical_formula_sum   'P16 N16 Cl32'
_cell_volume   1459.18122107
_cell_formula_units_Z   16
loop_
 _symmetry_equiv_pos_site_id
 _symmetry_equiv_pos_as_xyz
  1  'x, y, z'
loop_
 _atom_site_type_symbol
 _atom_site_label
 _atom_site_symmetry_multiplicity
 _atom_site_fract_x
 _atom_site_fract_y
 _atom_site_fract_z
 _atom_site_occupancy
  P  P0  1  0.85695706  0.10866207  0.06251850  1
  P  P1  1  0.98576012  0.93504112  0.11177749  1
  P  P2  1  0.35695706  0.93748150  0.60866207  1
  P  P3  1  0.48576012  0.88822251  0.43504112  1
  P  P4  1  0.98576012  0.56495888  0.38822251  1
  P  P5  1  0.51423988  0.11177749  0.56495888  1
  P  P6  1  0.85695706  0.39133793  0.43748150  1
  P  P7  1  0.48576012  0.61177749  0.06495888  1
  P  P8  1  0.01423988  0.06495888  0.88822251  1
  P  P9  1  0.64304294  0.06251850  0.39133793  1
  P  P10  1  0.64304294  0.43748150  0.10866207  1
  P  P11  1  0.14304294  0.89133793  0.93748150  1
  P  P12  1  0.35695706  0.56251850  0.89133793  1
  P  P13  1  0.51423988  0.38822251  0.93504112  1
  P  P14  1  0.01423988  0.43504112  0.61177749  1
  P  P15  1  0.14304294  0.60866207  0.56251850  1
  N  N16  1  0.34213932  0.88697640  0.52045876  1
  N  N17  1  0.84213932  0.02045876  0.11302360  1
  N  N18  1  0.98916980  0.11720284  0.97490736  1
  N  N19  1  0.84213932  0.47954124  0.38697640  1
  N  N20  1  0.01083020  0.88279716  0.02509264  1
  N  N21  1  0.01083020  0.61720284  0.47490736  1
  N  N22  1  0.48916980  0.47490736  0.88279716  1
  N  N23  1  0.48916980  0.02509264  0.61720284  1
  N  N24  1  0.51083020  0.97490736  0.38279716  1
  N  N25  1  0.51083020  0.52509264  0.11720284  1
  N  N26  1  0.65786068  0.38697640  0.02045876  1
  N  N27  1  0.15786068  0.52045876  0.61302360  1
  N  N28  1  0.15786068  0.97954124  0.88697640  1
  N  N29  1  0.34213932  0.61302360  0.97954124  1
  N  N30  1  0.65786068  0.11302360  0.47954124  1
  N  N31  1  0.98916980  0.38279716  0.52509264  1
  Cl  Cl32  1  0.51211975  0.14065238  0.30024608  1
  Cl  Cl33  1  0.01211975  0.80024608  0.85934762  1
  Cl  Cl34  1  0.16049550  0.14483033  0.80358675  1
  Cl  Cl35  1  0.28577905  0.95687813  0.16539370  1
  Cl  Cl36  1  0.51211975  0.35934762  0.19975392  1
  Cl  Cl37  1  0.83950450  0.64483033  0.30358675  1
  Cl  Cl38  1  0.21422095  0.33460630  0.95687813  1
  Cl  Cl39  1  0.66049550  0.19641325  0.64483033  1
  Cl  Cl40  1  0.33950450  0.80358675  0.35516967  1
  Cl  Cl41  1  0.48788025  0.85934762  0.69975392  1
  Cl  Cl42  1  0.45775481  0.85164945  0.95226821  1
  Cl  Cl43  1  0.33950450  0.69641325  0.14483033  1
  Cl  Cl44  1  0.78577905  0.83460630  0.45687813  1
  Cl  Cl45  1  0.83950450  0.85516967  0.19641325  1
  Cl  Cl46  1  0.21422095  0.16539370  0.54312187  1
  Cl  Cl47  1  0.48788025  0.64065238  0.80024608  1
  Cl  Cl48  1  0.71422095  0.45687813  0.66539370  1
  Cl  Cl49  1  0.95775481  0.04773179  0.35164945  1
  Cl  Cl50  1  0.28577905  0.54312187  0.33460630  1
  Cl  Cl51  1  0.45775481  0.64835055  0.54773179  1
  Cl  Cl52  1  0.54224519  0.14835055  0.04773179  1
  Cl  Cl53  1  0.16049550  0.35516967  0.69641325  1
  Cl  Cl54  1  0.04224519  0.95226821  0.64835055  1
  Cl  Cl55  1  0.95775481  0.45226821  0.14835055  1
  Cl  Cl56  1  0.98788025  0.30024608  0.35934762  1
  Cl  Cl57  1  0.01211975  0.69975392  0.64065238  1
  Cl  Cl58  1  0.54224519  0.35164945  0.45226821  1
  Cl  Cl59  1  0.71422095  0.04312187  0.83460630  1
  Cl  Cl60  1  0.04224519  0.54773179  0.85164945  1
  Cl  Cl61  1  0.98788025  0.19975392  0.14065238  1
  Cl  Cl62  1  0.66049550  0.30358675  0.85516967  1
  Cl  Cl63  1  0.78577905  0.66539370  0.04312187  1
