# generated using pymatgen
data_CaZrGeO5
_symmetry_space_group_name_H-M   'P 1'
_cell_length_a   7.54473901
_cell_length_b   5.81924395
_cell_length_c   5.67178399
_cell_angle_alpha   107.20266017
_cell_angle_beta   102.02406369
_cell_angle_gamma   104.12938355
_symmetry_Int_Tables_number   1
_chemical_formula_structural   CaZrGeO5
_chemical_formula_sum   'Ca2 Zr2 Ge2 O10'
_cell_volume   219.85059900
_cell_formula_units_Z   2
loop_
 _symmetry_equiv_pos_site_id
 _symmetry_equiv_pos_as_xyz
  1  'x, y, z'
loop_
 _atom_site_type_symbol
 _atom_site_label
 _atom_site_symmetry_multiplicity
 _atom_site_fract_x
 _atom_site_fract_y
 _atom_site_fract_z
 _atom_site_occupancy
  Ca  Ca0  1  0.77817627  0.82326653  0.15759670  1
  Ca  Ca1  1  0.22182373  0.17673347  0.84240330  1
  Zr  Zr2  1  0.50000000  0.50000000  0.50000000  1
  Zr  Zr3  1  0.00000000  0.50000000  0.50000000  1
  Ge  Ge4  1  0.25052518  0.82450998  0.18370250  1
  Ge  Ge5  1  0.74947482  0.17549002  0.81629750  1
  O  O6  1  0.25029268  0.42417498  0.59814400  1
  O  O7  1  0.74970732  0.57582502  0.40185600  1
  O  O8  1  0.06584754  0.75371066  0.89305145  1
  O  O9  1  0.93415246  0.24628934  0.10694855  1
  O  O10  1  0.40431250  0.12336130  0.22072526  1
  O  O11  1  0.59568750  0.87663870  0.77927474  1
  O  O12  1  0.62197024  0.39330518  0.81495589  1
  O  O13  1  0.37802976  0.60669482  0.18504411  1
  O  O14  1  0.87288138  0.16542809  0.57918176  1
  O  O15  1  0.12711862  0.83457191  0.42081824  1
