# generated using pymatgen
data_Ba3Li2V2Cl4O7
_symmetry_space_group_name_H-M   'P 1'
_cell_length_a   5.88206468
_cell_length_b   8.68413116
_cell_length_c   14.60865325
_cell_angle_alpha   90.49022465
_cell_angle_beta   90.00000000
_cell_angle_gamma   109.79570720
_symmetry_Int_Tables_number   1
_chemical_formula_structural   Ba3Li2V2Cl4O7
_chemical_formula_sum   'Ba6 Li4 V4 Cl8 O14'
_cell_volume   702.09309160
_cell_formula_units_Z   2
loop_
 _symmetry_equiv_pos_site_id
 _symmetry_equiv_pos_as_xyz
  1  'x, y, z'
loop_
 _atom_site_type_symbol
 _atom_site_label
 _atom_site_symmetry_multiplicity
 _atom_site_fract_x
 _atom_site_fract_y
 _atom_site_fract_z
 _atom_site_occupancy
  Ba  Ba0  1  0.86415058  0.72830115  0.27400365  1
  Ba  Ba1  1  0.13412552  0.26825103  0.28023310  1
  Ba  Ba2  1  0.13584942  0.27169885  0.72599635  1
  Ba  Ba3  1  0.50000000  0.00000000  0.50000000  1
  Ba  Ba4  1  0.86587448  0.73174897  0.71976690  1
  Ba  Ba5  1  0.50000000  0.00000000  0.00000000  1
  Li  Li6  1  0.50000000  0.50000000  0.50000000  1
  Li  Li7  1  0.69799966  0.39599933  0.88332084  1
  Li  Li8  1  0.30200034  0.60400067  0.11667916  1
  Li  Li9  1  0.00000000  0.50000000  0.50000000  1
  V  V10  1  0.49618141  0.99236281  0.25167632  1
  V  V11  1  0.31126209  0.62252419  0.87278244  1
  V  V12  1  0.50381859  0.00763719  0.74832368  1
  V  V13  1  0.68873791  0.37747581  0.12721756  1
  Cl  Cl14  1  0.00178195  0.00356390  0.11577586  1
  Cl  Cl15  1  0.68528016  0.37056032  0.38018891  1
  Cl  Cl16  1  0.88281607  0.76563214  0.49870446  1
  Cl  Cl17  1  0.99821805  0.99643610  0.88422414  1
  Cl  Cl18  1  0.11718393  0.23436786  0.50129554  1
  Cl  Cl19  1  0.68928540  0.37857080  0.62038984  1
  Cl  Cl20  1  0.31071460  0.62142920  0.37961016  1
  Cl  Cl21  1  0.31471984  0.62943968  0.61981109  1
  O  O22  1  0.73041770  0.99465543  0.32278770  1
  O  O23  1  0.26423773  0.99465543  0.32278770  1
  O  O24  1  0.58713217  0.17426434  0.17879253  1
  O  O25  1  0.41159197  0.82318394  0.18190018  1
  O  O26  1  0.26958230  0.00534457  0.67721230  1
  O  O27  1  0.02265643  0.51688728  0.83432449  1
  O  O28  1  0.50576915  0.48311272  0.16567551  1
  O  O29  1  0.41286783  0.82573566  0.82120747  1
  O  O30  1  0.58840803  0.17681606  0.81809982  1
  O  O31  1  0.97734357  0.48311272  0.16567551  1
  O  O32  1  0.33053605  0.66107209  0.98750204  1
  O  O33  1  0.73576227  0.00534457  0.67721230  1
  O  O34  1  0.66946395  0.33892791  0.01249796  1
  O  O35  1  0.49423085  0.51688728  0.83432449  1
