# generated using pymatgen
data_GaBr2
_symmetry_space_group_name_H-M   'P 1'
_cell_length_a   12.98451522
_cell_length_b   12.98451627
_cell_length_c   12.98451566
_cell_angle_alpha   115.04511780
_cell_angle_beta   115.04512000
_cell_angle_gamma   115.04511519
_symmetry_Int_Tables_number   1
_chemical_formula_structural   GaBr2
_chemical_formula_sum   'Ga12 Br24'
_cell_volume   1220.12982146
_cell_formula_units_Z   12
loop_
 _symmetry_equiv_pos_site_id
 _symmetry_equiv_pos_as_xyz
  1  'x, y, z'
loop_
 _atom_site_type_symbol
 _atom_site_label
 _atom_site_symmetry_multiplicity
 _atom_site_fract_x
 _atom_site_fract_y
 _atom_site_fract_z
 _atom_site_occupancy
  Ga  Ga0  1  0.60378125  0.38355882  0.80171486  1
  Ga  Ga1  1  0.63071174  0.80196137  0.41458651  1
  Ga  Ga2  1  0.80171486  0.60378125  0.38355882  1
  Ga  Ga3  1  0.88355882  0.10378125  0.30171486  1
  Ga  Ga4  1  0.38355882  0.80171486  0.60378125  1
  Ga  Ga5  1  0.91458651  0.30196137  0.13071174  1
  Ga  Ga6  1  0.13071174  0.91458651  0.30196137  1
  Ga  Ga7  1  0.30171486  0.88355882  0.10378125  1
  Ga  Ga8  1  0.10378125  0.30171486  0.88355882  1
  Ga  Ga9  1  0.41458651  0.63071174  0.80196137  1
  Ga  Ga10  1  0.80196137  0.41458651  0.63071174  1
  Ga  Ga11  1  0.30196137  0.13071174  0.91458651  1
  Br  Br12  1  0.54364826  0.57840710  0.37878985  1
  Br  Br13  1  0.57840710  0.37878985  0.54364826  1
  Br  Br14  1  0.97265257  0.43398266  0.37062208  1
  Br  Br15  1  0.87062208  0.93398266  0.47265257  1
  Br  Br16  1  0.07840710  0.04364826  0.87878985  1
  Br  Br17  1  0.64337222  0.69808341  0.99961548  1
  Br  Br18  1  0.41841795  0.70534835  0.16644553  1
  Br  Br19  1  0.14337222  0.49961548  0.19808341  1
  Br  Br20  1  0.66644553  0.20534835  0.91841795  1
  Br  Br21  1  0.93398266  0.47265257  0.87062208  1
  Br  Br22  1  0.37878985  0.54364826  0.57840710  1
  Br  Br23  1  0.99961548  0.64337222  0.69808341  1
  Br  Br24  1  0.70534835  0.16644553  0.41841795  1
  Br  Br25  1  0.43398266  0.37062208  0.97265257  1
  Br  Br26  1  0.47265257  0.87062208  0.93398266  1
  Br  Br27  1  0.20534835  0.91841795  0.66644553  1
  Br  Br28  1  0.49961548  0.19808341  0.14337222  1
  Br  Br29  1  0.87878985  0.07840710  0.04364826  1
  Br  Br30  1  0.91841795  0.66644553  0.20534835  1
  Br  Br31  1  0.16644553  0.41841795  0.70534835  1
  Br  Br32  1  0.04364826  0.87878985  0.07840710  1
  Br  Br33  1  0.37062208  0.97265257  0.43398266  1
  Br  Br34  1  0.69808341  0.99961548  0.64337222  1
  Br  Br35  1  0.19808341  0.14337222  0.49961548  1
