# generated using pymatgen
data_Rb5LiSi2NiO8
_symmetry_space_group_name_H-M   'P 1'
_cell_length_a   6.80816866
_cell_length_b   6.80816806
_cell_length_c   13.94309578
_cell_angle_alpha   97.33636255
_cell_angle_beta   97.33636193
_cell_angle_gamma   99.87261726
_symmetry_Int_Tables_number   1
_chemical_formula_structural   Rb5LiSi2NiO8
_chemical_formula_sum   'Rb10 Li2 Si4 Ni2 O16'
_cell_volume   624.05185681
_cell_formula_units_Z   2
loop_
 _symmetry_equiv_pos_site_id
 _symmetry_equiv_pos_as_xyz
  1  'x, y, z'
loop_
 _atom_site_type_symbol
 _atom_site_label
 _atom_site_symmetry_multiplicity
 _atom_site_fract_x
 _atom_site_fract_y
 _atom_site_fract_z
 _atom_site_occupancy
  Rb  Rb0  1  0.36644009  0.63355991  0.25000000  1
  Rb  Rb1  1  0.53986263  0.90636446  0.85043535  1
  Rb  Rb2  1  0.63355991  0.36644009  0.75000000  1
  Rb  Rb3  1  0.46013737  0.09363554  0.14956465  1
  Rb  Rb4  1  0.25632361  0.95876152  0.57219787  1
  Rb  Rb5  1  0.90636446  0.53986263  0.35043535  1
  Rb  Rb6  1  0.04123848  0.74367639  0.92780213  1
  Rb  Rb7  1  0.95876152  0.25632361  0.07219787  1
  Rb  Rb8  1  0.09363554  0.46013737  0.64956465  1
  Rb  Rb9  1  0.74367639  0.04123848  0.42780213  1
  Li  Li10  1  0.96010951  0.03989049  0.75000000  1
  Li  Li11  1  0.03989049  0.96010951  0.25000000  1
  Si  Si12  1  0.78113397  0.72060029  0.12982621  1
  Si  Si13  1  0.27939971  0.21886603  0.37017379  1
  Si  Si14  1  0.21886603  0.27939971  0.87017379  1
  Si  Si15  1  0.72060029  0.78113397  0.62982621  1
  Ni  Ni16  1  0.50000000  0.50000000  0.00000000  1
  Ni  Ni17  1  0.50000000  0.50000000  0.50000000  1
  O  O18  1  0.66138330  0.48012172  0.12050747  1
  O  O19  1  0.14054504  0.25461050  0.27087063  1
  O  O20  1  0.25461050  0.14054504  0.77087063  1
  O  O21  1  0.34093289  0.22938798  0.97395817  1
  O  O22  1  0.65906711  0.77061202  0.02604183  1
  O  O23  1  0.74538950  0.85945496  0.22912937  1
  O  O24  1  0.48012172  0.66138330  0.62050747  1
  O  O25  1  0.97354910  0.24984408  0.86781808  1
  O  O26  1  0.75015592  0.02645090  0.63218192  1
  O  O27  1  0.33861670  0.51987828  0.87949253  1
  O  O28  1  0.85945496  0.74538950  0.72912937  1
  O  O29  1  0.24984408  0.97354910  0.36781808  1
  O  O30  1  0.22938798  0.34093289  0.47395817  1
  O  O31  1  0.02645090  0.75015592  0.13218192  1
  O  O32  1  0.51987828  0.33861670  0.37949253  1
  O  O33  1  0.77061202  0.65906711  0.52604183  1
