# generated using pymatgen
data_Ni7Te6(ClO9)2
_symmetry_space_group_name_H-M   'P 1'
_cell_length_a   7.94917182
_cell_length_b   7.94917212
_cell_length_c   7.94917180
_cell_angle_alpha   90.59977621
_cell_angle_beta   90.59977635
_cell_angle_gamma   90.59977519
_symmetry_Int_Tables_number   1
_chemical_formula_structural   Ni7Te6(ClO9)2
_chemical_formula_sum   'Ni7 Te6 Cl2 O18'
_cell_volume   502.21973623
_cell_formula_units_Z   1
loop_
 _symmetry_equiv_pos_site_id
 _symmetry_equiv_pos_as_xyz
  1  'x, y, z'
loop_
 _atom_site_type_symbol
 _atom_site_label
 _atom_site_symmetry_multiplicity
 _atom_site_fract_x
 _atom_site_fract_y
 _atom_site_fract_z
 _atom_site_occupancy
  Ni  Ni0  1  0.13099748  0.45901240  0.38004886  1
  Ni  Ni1  1  0.45901240  0.38004886  0.13099748  1
  Ni  Ni2  1  0.61995114  0.86900252  0.54098760  1
  Ni  Ni3  1  0.38004886  0.13099748  0.45901240  1
  Ni  Ni4  1  0.50000000  0.50000000  0.50000000  1
  Ni  Ni5  1  0.54098760  0.61995114  0.86900252  1
  Ni  Ni6  1  0.86900252  0.54098760  0.61995114  1
  Te  Te7  1  0.30626129  0.79398032  0.20502425  1
  Te  Te8  1  0.20502425  0.30626129  0.79398032  1
  Te  Te9  1  0.79497575  0.69373871  0.20601968  1
  Te  Te10  1  0.79398032  0.20502425  0.30626129  1
  Te  Te11  1  0.20601968  0.79497575  0.69373871  1
  Te  Te12  1  0.69373871  0.20601968  0.79497575  1
  Cl  Cl13  1  0.79548883  0.79548883  0.79548883  1
  Cl  Cl14  1  0.20451117  0.20451117  0.20451117  1
  O  O15  1  0.53312061  0.08278488  0.66118959  1
  O  O16  1  0.00572239  0.42745149  0.80114114  1
  O  O17  1  0.57254851  0.19885886  0.99427761  1
  O  O18  1  0.91721512  0.33881041  0.46687939  1
  O  O19  1  0.43352601  0.71103856  0.64521116  1
  O  O20  1  0.42745149  0.80114114  0.00572239  1
  O  O21  1  0.80114114  0.00572239  0.42745149  1
  O  O22  1  0.33881041  0.46687939  0.91721512  1
  O  O23  1  0.71103856  0.64521116  0.43352601  1
  O  O24  1  0.56647399  0.28896144  0.35478884  1
  O  O25  1  0.08278488  0.66118959  0.53312061  1
  O  O26  1  0.99427761  0.57254851  0.19885886  1
  O  O27  1  0.28896144  0.35478884  0.56647399  1
  O  O28  1  0.66118959  0.53312061  0.08278488  1
  O  O29  1  0.46687939  0.91721512  0.33881041  1
  O  O30  1  0.19885886  0.99427761  0.57254851  1
  O  O31  1  0.64521116  0.43352601  0.71103856  1
  O  O32  1  0.35478884  0.56647399  0.28896144  1
