# generated using pymatgen
data_La3BeBiS7
_symmetry_space_group_name_H-M   'P 1'
_cell_length_a   6.28034089
_cell_length_b   10.31169714
_cell_length_c   10.31166269
_cell_angle_alpha   119.99951683
_cell_angle_beta   90.00000000
_cell_angle_gamma   90.00000000
_symmetry_Int_Tables_number   1
_chemical_formula_structural   La3BeBiS7
_chemical_formula_sum   'La6 Be2 Bi2 S14'
_cell_volume   578.32878725
_cell_formula_units_Z   2
loop_
 _symmetry_equiv_pos_site_id
 _symmetry_equiv_pos_as_xyz
  1  'x, y, z'
loop_
 _atom_site_type_symbol
 _atom_site_label
 _atom_site_symmetry_multiplicity
 _atom_site_fract_x
 _atom_site_fract_y
 _atom_site_fract_z
 _atom_site_occupancy
  La  La0  1  0.25260372  0.26142667  0.39776210  1
  La  La1  1  0.25260107  0.60224995  0.86368069  1
  La  La2  1  0.25260307  0.13632858  0.73856157  1
  La  La3  1  0.75260372  0.73857333  0.60223790  1
  La  La4  1  0.75260107  0.39775005  0.13631931  1
  La  La5  1  0.75260307  0.86367142  0.26143843  1
  Be  Be6  1  0.84030005  0.33334455  0.66667104  1
  Be  Be7  1  0.34030005  0.66665545  0.33332896  1
  Bi  Bi8  1  0.48997237  0.00000423  0.00000066  1
  Bi  Bi9  1  0.98997237  0.99999577  -0.00000066  1
  S  S10  1  0.72343552  0.16786590  0.25490285  1
  S  S11  1  0.72342968  0.74510010  0.91296956  1
  S  S12  1  0.72342995  0.08703379  0.83212734  1
  S  S13  1  0.22343552  0.83213410  0.74509715  1
  S  S14  1  0.22342968  0.25489990  0.08703044  1
  S  S15  1  0.22342995  0.91296621  0.16787266  1
  S  S16  1  0.97235584  0.11732424  0.52059757  1
  S  S17  1  0.97236794  0.47942406  0.59673478  1
  S  S18  1  0.97236422  0.40328083  0.88268738  1
  S  S19  1  0.47235584  0.88267576  0.47940243  1
  S  S20  1  0.47236794  0.52057594  0.40326522  1
  S  S21  1  0.47236422  0.59671917  0.11731262  1
  S  S22  1  0.49253657  0.33332967  0.66666307  1
  S  S23  1  0.99253657  0.66667033  0.33333693  1
