# generated using pymatgen
data_SiO2
_symmetry_space_group_name_H-M   'P 1'
_cell_length_a   8.43751246
_cell_length_b   12.52024864
_cell_length_c   29.05548060
_cell_angle_alpha   90.00000000
_cell_angle_beta   90.00000000
_cell_angle_gamma   90.00000000
_symmetry_Int_Tables_number   1
_chemical_formula_structural   SiO2
_chemical_formula_sum   'Si56 O112'
_cell_volume   3069.41382010
_cell_formula_units_Z   56
loop_
 _symmetry_equiv_pos_site_id
 _symmetry_equiv_pos_as_xyz
  1  'x, y, z'
loop_
 _atom_site_type_symbol
 _atom_site_label
 _atom_site_symmetry_multiplicity
 _atom_site_fract_x
 _atom_site_fract_y
 _atom_site_fract_z
 _atom_site_occupancy
  Si  Si0  1  0.43496232  0.21618350  0.04146518  1
  Si  Si1  1  0.93575091  0.26755328  0.70144652  1
  Si  Si2  1  0.43140047  0.04949560  0.39340071  1
  Si  Si3  1  0.56016113  0.54495477  0.54932580  1
  Si  Si4  1  0.43694572  0.15637611  0.55649192  1
  Si  Si5  1  0.43612052  0.63318699  0.11489524  1
  Si  Si6  1  0.06859953  0.04949560  0.39340071  1
  Si  Si7  1  0.56305428  0.84362389  0.44350808  1
  Si  Si8  1  0.43140047  0.95050440  0.89340071  1
  Si  Si9  1  0.43575091  0.73244672  0.29855348  1
  Si  Si10  1  0.56859953  0.95050440  0.60659929  1
  Si  Si11  1  0.06016113  0.54495477  0.95067420  1
  Si  Si12  1  0.06503768  0.21618350  0.04146518  1
  Si  Si13  1  0.93694572  0.15637611  0.94350808  1
  Si  Si14  1  0.93140047  0.04949560  0.10659929  1
  Si  Si15  1  0.56387948  0.36681301  0.88510476  1
  Si  Si16  1  0.56305428  0.15637611  0.94350808  1
  Si  Si17  1  0.56503768  0.21618350  0.45853482  1
  Si  Si18  1  0.06859953  0.95050440  0.89340071  1
  Si  Si19  1  0.06387948  0.36681301  0.61489524  1
  Si  Si20  1  0.06016113  0.45504523  0.45067420  1
  Si  Si21  1  0.06424909  0.26755328  0.79855348  1
  Si  Si22  1  0.06387948  0.63318699  0.11489524  1
  Si  Si23  1  0.43575091  0.26755328  0.79855348  1
  Si  Si24  1  0.56387948  0.63318699  0.38510476  1
  Si  Si25  1  0.06327490  0.96531428  0.19867483  1
  Si  Si26  1  0.93496232  0.78381650  0.95853482  1
  Si  Si27  1  0.56859953  0.04949560  0.10659929  1
  Si  Si28  1  0.43496232  0.78381650  0.54146518  1
  Si  Si29  1  0.06503768  0.78381650  0.54146518  1
  Si  Si30  1  0.06327490  0.03468572  0.69867483  1
  Si  Si31  1  0.56327490  0.03468572  0.80132517  1
  Si  Si32  1  0.43983887  0.45504523  0.45067420  1
  Si  Si33  1  0.43694572  0.84362389  0.05649192  1
  Si  Si34  1  0.93672510  0.96531428  0.30132517  1
  Si  Si35  1  0.93496232  0.21618350  0.45853482  1
  Si  Si36  1  0.56503768  0.78381650  0.95853482  1
  Si  Si37  1  0.06305428  0.15637611  0.55649192  1
  Si  Si38  1  0.56016113  0.45504523  0.04932580  1
  Si  Si39  1  0.56327490  0.96531428  0.30132517  1
  Si  Si40  1  0.06305428  0.84362389  0.05649192  1
  Si  Si41  1  0.56424909  0.26755328  0.70144652  1
  Si  Si42  1  0.93983887  0.45504523  0.04932580  1
  Si  Si43  1  0.93612052  0.63318699  0.38510476  1
  Si  Si44  1  0.93140047  0.95050440  0.60659929  1
  Si  Si45  1  0.56424909  0.73244672  0.20144652  1
  Si  Si46  1  0.43612052  0.36681301  0.61489524  1
  Si  Si47  1  0.06424909  0.73244672  0.29855348  1
  Si  Si48  1  0.93983887  0.54495477  0.54932580  1
  Si  Si49  1  0.43983887  0.54495477  0.95067420  1
  Si  Si50  1  0.93694572  0.84362389  0.44350808  1
  Si  Si51  1  0.43672510  0.03468572  0.69867483  1
  Si  Si52  1  0.93575091  0.73244672  0.20144652  1
  Si  Si53  1  0.93612052  0.36681301  0.88510476  1
  Si  Si54  1  0.93672510  0.03468572  0.80132517  1
  Si  Si55  1  0.43672510  0.96531428  0.19867483  1
  O  O56  1  0.25000000  0.13077658  0.56480493  1
  O  O57  1  0.01714536  0.27099391  0.57940810  1
  O  O58  1  0.50000000  0.68387270  0.25000000  1
  O  O59  1  0.75000000  0.90989989  0.59868731  1
  O  O60  1  0.53850711  0.83798440  0.31214529  1
  O  O61  1  0.01789701  0.67060700  0.94626255  1
  O  O62  1  0.04339309  0.35695737  0.83870502  1
  O  O63  1  0.97317721  0.83957469  0.49832263  1
  O  O64  1  0.51714536  0.27099391  0.92059190  1
  O  O65  1  0.03850711  0.83798440  0.18785471  1
  O  O66  1  0.03660045  0.03481305  0.33856098  1
  O  O67  1  0.45660691  0.64304263  0.33870502  1
  O  O68  1  0.50000000  0.99298652  0.25000000  1
  O  O69  1  0.51789701  0.32939300  0.05373745  1
  O  O70  1  0.75000000  0.99425063  0.30554390  1
  O  O71  1  0.47083136  0.51900307  0.09062555  1
  O  O72  1  0.75000000  0.09010011  0.09868731  1
  O  O73  1  0.55342956  0.13801950  0.41395286  1
  O  O74  1  0.98285464  0.27099391  0.92059190  1
  O  O75  1  0.25000000  0.23457952  0.02812182  1
  O  O76  1  0.75000000  0.23466253  0.70650448  1
  O  O77  1  0.46339955  0.03481305  0.33856098  1
  O  O78  1  0.25000000  0.76542048  0.52812182  1
  O  O79  1  0.50000000  0.00701348  0.75000000  1
  O  O80  1  0.52916864  0.51900307  0.40937445  1
  O  O81  1  0.25000000  0.00574937  0.69445610  1
  O  O82  1  0.75000000  0.35842630  0.87108928  1
  O  O83  1  0.75000000  0.00574937  0.80554390  1
  O  O84  1  0.25000000  0.35842630  0.62891072  1
  O  O85  1  0.75000000  0.76542048  0.97187818  1
  O  O86  1  0.25000000  0.99425063  0.19445610  1
  O  O87  1  0.75000000  0.47178664  0.05410434  1
  O  O88  1  0.25000000  0.23466253  0.79349552  1
  O  O89  1  0.04339309  0.64304263  0.33870502  1
  O  O90  1  0.95660691  0.64304263  0.16129498  1
  O  O91  1  0.02916864  0.51900307  0.09062555  1
  O  O92  1  0.97083136  0.51900307  0.40937445  1
  O  O93  1  0.48210299  0.32939300  0.44626255  1
  O  O94  1  0.05342956  0.86198050  0.58604714  1
  O  O95  1  0.94657044  0.86198050  0.91395286  1
  O  O96  1  0.98210299  0.32939300  0.05373745  1
  O  O97  1  0.96339955  0.96518695  0.66143902  1
  O  O98  1  0.54339309  0.64304263  0.16129498  1
  O  O99  1  0.45664091  0.06398740  0.92000156  1
  O  O100  1  0.47083136  0.48099693  0.59062555  1
  O  O101  1  0.52682279  0.16042531  0.99832263  1
  O  O102  1  0.45660691  0.35695737  0.83870502  1
  O  O103  1  0.53850711  0.16201560  0.81214529  1
  O  O104  1  0.75000000  0.23457952  0.47187818  1
  O  O105  1  0.98285464  0.72900609  0.42059190  1
  O  O106  1  0.01789701  0.32939300  0.44626255  1
  O  O107  1  0.51714536  0.72900609  0.42059190  1
  O  O108  1  0.25000000  0.47178664  0.44589566  1
  O  O109  1  0.25000000  0.90989989  0.90131269  1
  O  O110  1  0.53660045  0.03481305  0.16143902  1
  O  O111  1  0.00000000  0.50000000  0.00000000  1
  O  O112  1  0.75000000  0.13077658  0.93519507  1
  O  O113  1  0.48285464  0.72900609  0.07940810  1
  O  O114  1  0.96149289  0.83798440  0.31214529  1
  O  O115  1  0.00000000  0.50000000  0.50000000  1
  O  O116  1  0.46149289  0.83798440  0.18785471  1
  O  O117  1  0.48210299  0.67060700  0.94626255  1
  O  O118  1  0.96339955  0.03481305  0.16143902  1
  O  O119  1  0.51789701  0.67060700  0.55373745  1
  O  O120  1  0.25000000  0.76533747  0.29349552  1
  O  O121  1  0.53660045  0.96518695  0.66143902  1
  O  O122  1  0.02682279  0.83957469  0.00167737  1
  O  O123  1  0.03850711  0.16201560  0.68785471  1
  O  O124  1  0.02916864  0.48099693  0.59062555  1
  O  O125  1  0.54339309  0.35695737  0.66129498  1
  O  O126  1  0.46339955  0.96518695  0.83856098  1
  O  O127  1  0.00000000  0.31612730  0.75000000  1
  O  O128  1  0.94657044  0.13801950  0.41395286  1
  O  O129  1  0.75000000  0.64157370  0.37108928  1
  O  O130  1  0.47317721  0.83957469  0.00167737  1
  O  O131  1  0.95664091  0.06398740  0.57999844  1
  O  O132  1  0.48285464  0.27099391  0.57940810  1
  O  O133  1  0.96149289  0.16201560  0.81214529  1
  O  O134  1  0.00000000  0.68387270  0.25000000  1
  O  O135  1  0.01714536  0.72900609  0.07940810  1
  O  O136  1  0.45664091  0.93601260  0.42000156  1
  O  O137  1  0.00000000  0.99298652  0.25000000  1
  O  O138  1  0.50000000  0.50000000  0.50000000  1
  O  O139  1  0.25000000  0.09010011  0.40131269  1
  O  O140  1  0.55342956  0.86198050  0.91395286  1
  O  O141  1  0.47317721  0.16042531  0.50167737  1
  O  O142  1  0.75000000  0.52821336  0.55410434  1
  O  O143  1  0.03660045  0.96518695  0.83856098  1
  O  O144  1  0.02682279  0.16042531  0.50167737  1
  O  O145  1  0.50000000  0.50000000  0.00000000  1
  O  O146  1  0.50000000  0.31612730  0.75000000  1
  O  O147  1  0.54335909  0.06398740  0.57999844  1
  O  O148  1  0.25000000  0.52821336  0.94589566  1
  O  O149  1  0.75000000  0.76533747  0.20650448  1
  O  O150  1  0.95664091  0.93601260  0.07999844  1
  O  O151  1  0.44657044  0.13801950  0.08604714  1
  O  O152  1  0.05342956  0.13801950  0.08604714  1
  O  O153  1  0.04335909  0.93601260  0.42000156  1
  O  O154  1  0.04335909  0.06398740  0.92000156  1
  O  O155  1  0.44657044  0.86198050  0.58604714  1
  O  O156  1  0.52916864  0.48099693  0.90937445  1
  O  O157  1  0.97083136  0.48099693  0.90937445  1
  O  O158  1  0.25000000  0.86922342  0.06480493  1
  O  O159  1  0.25000000  0.64157370  0.12891072  1
  O  O160  1  0.97317721  0.16042531  0.99832263  1
  O  O161  1  0.52682279  0.83957469  0.49832263  1
  O  O162  1  0.00000000  0.00701348  0.75000000  1
  O  O163  1  0.75000000  0.86922342  0.43519507  1
  O  O164  1  0.95660691  0.35695737  0.66129498  1
  O  O165  1  0.46149289  0.16201560  0.68785471  1
  O  O166  1  0.98210299  0.67060700  0.55373745  1
  O  O167  1  0.54335909  0.93601260  0.07999844  1
