# generated using pymatgen
data_KZn4(BO3)3
_symmetry_space_group_name_H-M   'P 1'
_cell_length_a   5.05523881
_cell_length_b   7.05019656
_cell_length_c   12.77338576
_cell_angle_alpha   94.02036487
_cell_angle_beta   90.00000000
_cell_angle_gamma   90.00000000
_symmetry_Int_Tables_number   1
_chemical_formula_structural   KZn4(BO3)3
_chemical_formula_sum   'K2 Zn8 B6 O18'
_cell_volume   454.12864646
_cell_formula_units_Z   2
loop_
 _symmetry_equiv_pos_site_id
 _symmetry_equiv_pos_as_xyz
  1  'x, y, z'
loop_
 _atom_site_type_symbol
 _atom_site_label
 _atom_site_symmetry_multiplicity
 _atom_site_fract_x
 _atom_site_fract_y
 _atom_site_fract_z
 _atom_site_occupancy
  B  B0  1  0.85285220  0.18550448  0.95126341  1
  B  B1  1  0.85285220  0.81449552  0.54873659  1
  B  B2  1  0.14714780  0.81449552  0.04873659  1
  B  B3  1  0.14714780  0.18550448  0.45126341  1
  B  B4  1  0.34704108  0.50000000  0.25000000  1
  B  B5  1  0.65295892  0.50000000  0.75000000  1
  O  O6  1  0.10817188  0.26006780  0.93325886  1
  O  O7  1  0.10817188  0.73993220  0.56674114  1
  O  O8  1  0.23759846  0.96742568  0.10816941  1
  O  O9  1  0.23759846  0.03257432  0.39183059  1
  O  O10  1  0.79010306  0.40889565  0.66738025  1
  O  O11  1  0.79010306  0.59110435  0.83261975  1
  O  O12  1  0.20989694  0.59110435  0.33261975  1
  O  O13  1  0.20989694  0.40889565  0.16738025  1
  O  O14  1  0.37763746  0.50000000  0.75000000  1
  O  O15  1  0.62236254  0.50000000  0.25000000  1
  O  O16  1  0.29345199  0.27507005  0.53347443  1
  O  O17  1  0.29345199  0.72492995  0.96652557  1
  O  O18  1  0.70654801  0.72492995  0.46652557  1
  O  O19  1  0.70654801  0.27507005  0.03347443  1
  O  O20  1  0.89182812  0.26006780  0.43325886  1
  O  O21  1  0.89182812  0.73993220  0.06674114  1
  O  O22  1  0.76240154  0.96742568  0.60816941  1
  O  O23  1  0.76240154  0.03257432  0.89183059  1
  K  K24  1  0.80943207  0.00000000  0.25000000  1
  K  K25  1  0.19056793  0.00000000  0.75000000  1
  Zn  Zn26  1  0.85119929  0.48884038  0.12331626  1
  Zn  Zn27  1  0.85119929  0.51115962  0.37668374  1
  Zn  Zn28  1  0.14880071  0.51115962  0.87668374  1
  Zn  Zn29  1  0.14880071  0.48884038  0.62331626  1
  Zn  Zn30  1  0.33795713  0.20927433  0.05854203  1
  Zn  Zn31  1  0.33795713  0.79072567  0.44145797  1
  Zn  Zn32  1  0.66204287  0.79072567  0.94145797  1
  Zn  Zn33  1  0.66204287  0.20927433  0.55854203  1
