# generated using pymatgen
data_SiO2
_symmetry_space_group_name_H-M   'P 1'
_cell_length_a   8.49975258
_cell_length_b   13.23969822
_cell_length_c   29.16831535
_cell_angle_alpha   90.00000000
_cell_angle_beta   90.00000000
_cell_angle_gamma   108.72310600
_symmetry_Int_Tables_number   1
_chemical_formula_structural   SiO2
_chemical_formula_sum   'Si56 O112'
_cell_volume   3108.72851995
_cell_formula_units_Z   56
loop_
 _symmetry_equiv_pos_site_id
 _symmetry_equiv_pos_as_xyz
  1  'x, y, z'
loop_
 _atom_site_type_symbol
 _atom_site_label
 _atom_site_symmetry_multiplicity
 _atom_site_fract_x
 _atom_site_fract_y
 _atom_site_fract_z
 _atom_site_occupancy
  Si  Si0  1  0.40931355  0.45280104  0.39202906  1
  Si  Si1  1  0.82876094  0.28676617  0.46081532  1
  Si  Si2  1  0.50959608  0.65409089  0.05829257  1
  Si  Si3  1  0.90931355  0.45280104  0.10797094  1
  Si  Si4  1  0.91805719  0.45585063  0.80035133  1
  Si  Si5  1  0.96220656  0.54414937  0.30035133  1
  Si  Si6  1  0.54348750  0.45280104  0.10797094  1
  Si  Si7  1  0.61401542  0.85972260  0.39229263  1
  Si  Si8  1  0.91591759  0.21181601  0.69977022  1
  Si  Si9  1  0.04348750  0.45280104  0.39202906  1
  Si  Si10  1  0.74570718  0.85972260  0.10770737  1
  Si  Si11  1  0.53779344  0.45585063  0.80035133  1
  Si  Si12  1  0.67123906  0.71323383  0.96081532  1
  Si  Si13  1  0.08194281  0.54414937  0.19964867  1
  Si  Si14  1  0.75429282  0.14027740  0.60770737  1
  Si  Si15  1  0.20410158  0.78818399  0.19977022  1
  Si  Si16  1  0.11401542  0.85972260  0.10770737  1
  Si  Si17  1  0.70240290  0.04894686  0.05143038  1
  Si  Si18  1  0.14449482  0.65409089  0.05829257  1
  Si  Si19  1  0.99040392  0.34590911  0.55829257  1
  Si  Si20  1  0.45800523  0.28676617  0.46081532  1
  Si  Si21  1  0.24570718  0.85972260  0.39229263  1
  Si  Si22  1  0.45651250  0.54719896  0.89202906  1
  Si  Si23  1  0.38598458  0.14027740  0.60770737  1
  Si  Si24  1  0.46220656  0.54414937  0.19964867  1
  Si  Si25  1  0.95651250  0.54719896  0.60797094  1
  Si  Si26  1  0.41591759  0.21181601  0.80022978  1
  Si  Si27  1  0.64449482  0.65409089  0.44170743  1
  Si  Si28  1  0.58194281  0.54414937  0.30035133  1
  Si  Si29  1  0.20240290  0.04894686  0.44856962  1
  Si  Si30  1  0.32876094  0.28676617  0.03918468  1
  Si  Si31  1  0.17123906  0.71323383  0.53918468  1
  Si  Si32  1  0.29759710  0.95105314  0.94856962  1
  Si  Si33  1  0.85550518  0.34590911  0.94170743  1
  Si  Si34  1  0.95800523  0.28676617  0.03918468  1
  Si  Si35  1  0.09068645  0.54719896  0.89202906  1
  Si  Si36  1  0.58408241  0.78818399  0.19977022  1
  Si  Si37  1  0.34654396  0.04894686  0.05143038  1
  Si  Si38  1  0.84654396  0.04894686  0.44856962  1
  Si  Si39  1  0.00959608  0.65409089  0.44170743  1
  Si  Si40  1  0.49040392  0.34590911  0.94170743  1
  Si  Si41  1  0.59068645  0.54719896  0.60797094  1
  Si  Si42  1  0.08408241  0.78818399  0.30022978  1
  Si  Si43  1  0.54199477  0.71323383  0.53918468  1
  Si  Si44  1  0.35550518  0.34590911  0.55829257  1
  Si  Si45  1  0.79589842  0.21181601  0.80022978  1
  Si  Si46  1  0.04199477  0.71323383  0.96081532  1
  Si  Si47  1  0.79759710  0.95105314  0.55143038  1
  Si  Si48  1  0.88598458  0.14027740  0.89229263  1
  Si  Si49  1  0.25429282  0.14027740  0.89229263  1
  Si  Si50  1  0.70410158  0.78818399  0.30022978  1
  Si  Si51  1  0.15345604  0.95105314  0.55143038  1
  Si  Si52  1  0.41805719  0.45585063  0.69964867  1
  Si  Si53  1  0.29589842  0.21181601  0.69977022  1
  Si  Si54  1  0.65345604  0.95105314  0.94856962  1
  Si  Si55  1  0.03779344  0.45585063  0.69964867  1
  O  O56  1  0.41762356  0.33376758  0.81035096  1
  O  O57  1  0.53154177  0.53457633  0.66137773  1
  O  O58  1  0.82432760  0.23016665  0.91790708  1
  O  O59  1  0.19866569  0.97497539  0.08371412  1
  O  O60  1  0.90583905  0.23016665  0.58209292  1
  O  O61  1  0.82642460  0.00000000  0.50000000  1
  O  O62  1  0.08661535  0.17323069  0.89601361  1
  O  O63  1  0.51432282  0.43351894  0.58148007  1
  O  O64  1  0.67357540  0.00000000  0.00000000  1
  O  O65  1  0.02556917  0.05113834  0.42750418  1
  O  O66  1  0.50319344  0.50638689  0.25000000  1
  O  O67  1  0.32432760  0.23016665  0.58209292  1
  O  O68  1  0.95067184  0.33811238  0.50378337  1
  O  O69  1  0.11086814  0.63717991  0.58380584  1
  O  O70  1  0.54932816  0.66188762  0.00378337  1
  O  O71  1  0.47368823  0.36282009  0.41619416  1
  O  O72  1  0.50303455  0.53457633  0.83862227  1
  O  O73  1  0.58237644  0.66623242  0.18964904  1
  O  O74  1  0.80884017  0.61768033  0.43416942  1
  O  O75  1  0.97443083  0.94886166  0.57249582  1
  O  O76  1  0.40583905  0.23016665  0.91790708  1
  O  O77  1  0.91338465  0.82676931  0.10398639  1
  O  O78  1  0.13958312  0.27916623  0.02616047  1
  O  O79  1  0.58385598  0.66623242  0.31035096  1
  O  O80  1  0.61086814  0.63717991  0.91619416  1
  O  O81  1  0.98567718  0.56648106  0.08148007  1
  O  O82  1  0.19115983  0.38231967  0.56583058  1
  O  O83  1  0.00303455  0.53457633  0.66137773  1
  O  O84  1  0.73036433  0.46072867  0.80251682  1
  O  O85  1  0.36041688  0.72083377  0.52616047  1
  O  O86  1  0.19807840  0.86724735  0.33851138  1
  O  O87  1  0.91614402  0.33376758  0.81035096  1
  O  O88  1  0.46845823  0.46542367  0.33862227  1
  O  O89  1  0.48567718  0.56648106  0.41851993  1
  O  O90  1  0.69115983  0.38231967  0.93416942  1
  O  O91  1  0.61255946  0.66188762  0.49621663  1
  O  O92  1  0.08237644  0.66623242  0.31035096  1
  O  O93  1  0.66311089  0.82622179  0.25000000  1
  O  O94  1  0.33083105  0.13275265  0.66148862  1
  O  O95  1  0.83688911  0.17377821  0.75000000  1
  O  O96  1  0.72369031  0.02502461  0.58371412  1
  O  O97  1  0.58080388  0.56648106  0.08148007  1
  O  O98  1  0.30192160  0.13275265  0.83851138  1
  O  O99  1  0.41614402  0.33376758  0.68964904  1
  O  O100  1  0.32642460  0.00000000  0.00000000  1
  O  O101  1  0.26963567  0.53927133  0.19748318  1
  O  O102  1  0.01432282  0.43351894  0.91851993  1
  O  O103  1  0.23036433  0.46072867  0.69748318  1
  O  O104  1  0.33657999  0.16858540  0.05031635  1
  O  O105  1  0.10337266  0.20674533  0.69753131  1
  O  O106  1  0.63958312  0.27916623  0.47383953  1
  O  O107  1  0.66916895  0.86724735  0.33851138  1
  O  O108  1  0.70779922  0.41559844  0.10569961  1
  O  O109  1  0.38744054  0.33811238  0.50378337  1
  O  O110  1  0.39662734  0.79325467  0.19753131  1
  O  O111  1  0.29220078  0.58440156  0.89430039  1
  O  O112  1  0.96845823  0.46542367  0.16137773  1
  O  O113  1  0.89662734  0.79325467  0.30246869  1
  O  O114  1  0.16916895  0.86724735  0.16148862  1
  O  O115  1  0.16799458  0.83141460  0.94968365  1
  O  O116  1  0.49696545  0.46542367  0.16137773  1
  O  O117  1  0.59416095  0.76983335  0.08209292  1
  O  O118  1  0.60337266  0.20674533  0.80246869  1
  O  O119  1  0.83200542  0.16858540  0.05031635  1
  O  O120  1  0.00319344  0.50638689  0.25000000  1
  O  O121  1  0.66799458  0.83141460  0.55031635  1
  O  O122  1  0.30884017  0.61768033  0.06583058  1
  O  O123  1  0.80133431  0.02502461  0.91628588  1
  O  O124  1  0.77630969  0.97497539  0.08371412  1
  O  O125  1  0.16311089  0.82622179  0.25000000  1
  O  O126  1  0.41338465  0.82676931  0.39601361  1
  O  O127  1  0.79220078  0.58440156  0.60569961  1
  O  O128  1  0.27630969  0.97497539  0.41628588  1
  O  O129  1  0.45067184  0.33811238  0.99621663  1
  O  O130  1  0.33688911  0.17377821  0.75000000  1
  O  O131  1  0.04932816  0.66188762  0.49621663  1
  O  O132  1  0.38913186  0.36282009  0.08380584  1
  O  O133  1  0.88913186  0.36282009  0.41619416  1
  O  O134  1  0.67567240  0.76983335  0.41790708  1
  O  O135  1  0.76963567  0.53927133  0.30251682  1
  O  O136  1  0.49680656  0.49361311  0.75000000  1
  O  O137  1  0.83083105  0.13275265  0.83851138  1
  O  O138  1  0.11255946  0.66188762  0.00378337  1
  O  O139  1  0.08385598  0.66623242  0.18964904  1
  O  O140  1  0.69866569  0.97497539  0.41628588  1
  O  O141  1  0.80192160  0.13275265  0.66148862  1
  O  O142  1  0.97368823  0.36282009  0.08380584  1
  O  O143  1  0.08080388  0.56648106  0.41851993  1
  O  O144  1  0.52556917  0.05113834  0.07249582  1
  O  O145  1  0.86041688  0.72083377  0.97383953  1
  O  O146  1  0.52631177  0.63717991  0.58380584  1
  O  O147  1  0.03154177  0.53457633  0.83862227  1
  O  O148  1  0.22369031  0.02502461  0.91628588  1
  O  O149  1  0.91919612  0.43351894  0.58148007  1
  O  O150  1  0.02631177  0.63717991  0.91619416  1
  O  O151  1  0.30133431  0.02502461  0.58371412  1
  O  O152  1  0.69807840  0.86724735  0.16148862  1
  O  O153  1  0.16342001  0.83141460  0.55031635  1
  O  O154  1  0.09416095  0.76983335  0.41790708  1
  O  O155  1  0.88744054  0.33811238  0.99621663  1
  O  O156  1  0.47443083  0.94886166  0.92750418  1
  O  O157  1  0.83657999  0.16858540  0.44968365  1
  O  O158  1  0.20779922  0.41559844  0.39430039  1
  O  O159  1  0.41919612  0.43351894  0.91851993  1
  O  O160  1  0.17567240  0.76983335  0.08209292  1
  O  O161  1  0.58661535  0.17323069  0.60398639  1
  O  O162  1  0.17357540  0.00000000  0.50000000  1
  O  O163  1  0.91762356  0.33376758  0.68964904  1
  O  O164  1  0.66342001  0.83141460  0.94968365  1
  O  O165  1  0.33200542  0.16858540  0.44968365  1
  O  O166  1  0.99680656  0.49361311  0.75000000  1
  O  O167  1  0.99696545  0.46542367  0.33862227  1
