# generated using pymatgen
data_Ca(La2Se3)4
_symmetry_space_group_name_H-M   'P 1'
_cell_length_a   23.65033883
_cell_length_b   9.10173240
_cell_length_c   9.10531876
_cell_angle_alpha   89.98747166
_cell_angle_beta   54.63829002
_cell_angle_gamma   54.72168155
_symmetry_Int_Tables_number   1
_chemical_formula_structural   Ca(La2Se3)4
_chemical_formula_sum   'Ca2 La16 Se24'
_cell_volume   1128.74330321
_cell_formula_units_Z   2
loop_
 _symmetry_equiv_pos_site_id
 _symmetry_equiv_pos_as_xyz
  1  'x, y, z'
loop_
 _atom_site_type_symbol
 _atom_site_label
 _atom_site_symmetry_multiplicity
 _atom_site_fract_x
 _atom_site_fract_y
 _atom_site_fract_z
 _atom_site_occupancy
  Ca  Ca0  1  0.16636687  0.24721991  0.62344856  1
  Ca  Ca1  1  0.66687815  0.12189504  0.75166057  1
  La  La2  1  0.00139716  0.37480215  0.24730848  1
  La  La3  1  0.08326323  0.62344326  0.37821024  1
  La  La4  1  0.33427126  0.37583390  0.25013663  1
  La  La5  1  0.25116864  0.87507433  0.12231550  1
  La  La6  1  0.16610595  0.75159676  0.87737594  1
  La  La7  1  0.33366172  0.12578161  0.74849140  1
  La  La8  1  0.41546570  0.62957014  0.37582335  1
  La  La9  1  0.50007009  0.25097092  0.62800997  1
  La  La10  1  0.66639470  0.37351398  0.25291237  1
  La  La11  1  0.58325123  0.87803456  0.12198759  1
  La  La12  1  0.50050884  0.74905719  0.87766022  1
  La  La13  1  0.74836646  0.63000012  0.37817684  1
  La  La14  1  0.83486128  0.24555156  0.62512427  1
  La  La15  1  0.91887753  0.87059921  0.12157890  1
  La  La16  1  0.00158357  0.11989853  0.74989033  1
  La  La17  1  0.83476232  0.74729323  0.87593793  1
  Se  Se18  1  0.05121657  0.99787346  0.35167542  1
  Se  Se19  1  0.11848487  0.49793045  0.00108334  1
  Se  Se20  1  0.05060873  0.34757253  0.49621261  1
  Se  Se21  1  0.28472728  0.14921790  0.14641329  1
  Se  Se22  1  0.28241170  0.50213199  0.00288288  1
  Se  Se23  1  0.11847263  0.64361733  0.64990090  1
  Se  Se24  1  0.21676561  0.99898649  0.84848129  1
  Se  Se25  1  0.38152059  0.00348811  0.35046145  1
  Se  Se26  1  0.21744307  0.84973820  0.49755808  1
  Se  Se27  1  0.45256206  0.49520485  0.99640072  1
  Se  Se28  1  0.38383396  0.35185609  0.50002631  1
  Se  Se29  1  0.61919832  0.14676703  0.14419770  1
  Se  Se30  1  0.61824591  0.50015107  0.00117800  1
  Se  Se31  1  0.44936474  0.65175006  0.65007045  1
  Se  Se32  1  0.55098596  0.99697353  0.84701411  1
  Se  Se33  1  0.71621082  0.99941882  0.35226291  1
  Se  Se34  1  0.54979820  0.85179557  0.49737541  1
  Se  Se35  1  0.78427665  0.49838080  0.00302665  1
  Se  Se36  1  0.71629087  0.35054215  0.49986586  1
  Se  Se37  1  0.95069067  0.14900832  0.15157532  1
  Se  Se38  1  0.95284909  0.49628903  0.99439226  1
  Se  Se39  1  0.78567341  0.64215414  0.64839336  1
  Se  Se40  1  0.88404865  0.99827648  0.84828462  1
  Se  Se41  1  0.88292093  0.84832220  0.49839596  1
