# generated using pymatgen
data_Ba2PtAu
_symmetry_space_group_name_H-M   'P 1'
_cell_length_a   13.47430665
_cell_length_b   4.84985737
_cell_length_c   12.07031905
_cell_angle_alpha   90.00000000
_cell_angle_beta   89.97963341
_cell_angle_gamma   90.00000000
_symmetry_Int_Tables_number   1
_chemical_formula_structural   Ba2PtAu
_chemical_formula_sum   'Ba12 Pt6 Au6'
_cell_volume   788.77677727
_cell_formula_units_Z   6
loop_
 _symmetry_equiv_pos_site_id
 _symmetry_equiv_pos_as_xyz
  1  'x, y, z'
loop_
 _atom_site_type_symbol
 _atom_site_label
 _atom_site_symmetry_multiplicity
 _atom_site_fract_x
 _atom_site_fract_y
 _atom_site_fract_z
 _atom_site_occupancy
  Ba  Ba0  1  0.00393191  0.25000000  0.13240271  1
  Ba  Ba1  1  0.17100453  0.75000000  0.35753142  1
  Ba  Ba2  1  0.16207902  0.25000000  0.63247827  1
  Ba  Ba3  1  0.32838259  0.25000000  0.14169620  1
  Ba  Ba4  1  0.33872560  0.75000000  0.86681074  1
  Ba  Ba5  1  0.50085129  0.75000000  0.36397677  1
  Ba  Ba6  1  0.49898627  0.25000000  0.63881540  1
  Ba  Ba7  1  0.66718772  0.25000000  0.13907794  1
  Ba  Ba8  1  0.66615924  0.75000000  0.86379883  1
  Ba  Ba9  1  0.82855517  0.75000000  0.36671072  1
  Ba  Ba10  1  0.83803720  0.25000000  0.64178946  1
  Ba  Ba11  1  0.99588398  0.75000000  0.85765687  1
  Pt  Pt12  1  0.99959278  0.75000000  0.57461897  1
  Pt  Pt13  1  0.16657219  0.75000000  0.07448951  1
  Pt  Pt14  1  0.33206024  0.25000000  0.42444209  1
  Pt  Pt15  1  0.49902729  0.25000000  0.92542096  1
  Pt  Pt16  1  0.66846491  0.25000000  0.42573510  1
  Pt  Pt17  1  0.83518373  0.25000000  0.92453905  1
  Au  Au18  1  0.16769323  0.25000000  0.92336835  1
  Au  Au19  1  0.33340380  0.75000000  0.57425999  1
  Au  Au20  1  0.50094843  0.75000000  0.07659662  1
  Au  Au21  1  0.66518169  0.75000000  0.57642784  1
  Au  Au22  1  0.83232242  0.75000000  0.07423826  1
  Au  Au23  1  0.99976477  0.25000000  0.42311793  1
