# generated using pymatgen
data_Na2LiAlF6
_symmetry_space_group_name_H-M   'P 1'
_cell_length_a   5.33241334
_cell_length_b   5.44490977
_cell_length_c   7.58262991
_cell_angle_alpha   90.00000000
_cell_angle_beta   90.11109326
_cell_angle_gamma   90.00000000
_symmetry_Int_Tables_number   1
_chemical_formula_structural   Na2LiAlF6
_chemical_formula_sum   'Na4 Li2 Al2 F12'
_cell_volume   220.15752644
_cell_formula_units_Z   2
loop_
 _symmetry_equiv_pos_site_id
 _symmetry_equiv_pos_as_xyz
  1  'x, y, z'
loop_
 _atom_site_type_symbol
 _atom_site_label
 _atom_site_symmetry_multiplicity
 _atom_site_fract_x
 _atom_site_fract_y
 _atom_site_fract_z
 _atom_site_occupancy
  Li  Li0  1  0.50000000  0.00000000  0.50000000  1
  Li  Li1  1  0.00000000  0.50000000  0.00000000  1
  F  F2  1  0.42032808  0.02311295  0.76553352  1
  F  F3  1  0.92032808  0.47688705  0.26553352  1
  F  F4  1  0.57967192  0.97688705  0.23446648  1
  F  F5  1  0.07967192  0.52311295  0.73446648  1
  F  F6  1  0.77637469  0.19300900  0.96099823  1
  F  F7  1  0.81115989  0.22489222  0.54371006  1
  F  F8  1  0.22362531  0.80699100  0.03900177  1
  F  F9  1  0.27637469  0.30699100  0.46099823  1
  F  F10  1  0.72362531  0.69300900  0.53900177  1
  F  F11  1  0.18884011  0.77510778  0.45628994  1
  F  F12  1  0.31115989  0.27510778  0.04371006  1
  F  F13  1  0.68884011  0.72489222  0.95628994  1
  Na  Na14  1  0.99025996  0.95611986  0.75031000  1
  Na  Na15  1  0.00974004  0.04388014  0.24969000  1
  Na  Na16  1  0.49025996  0.54388014  0.25031000  1
  Na  Na17  1  0.50974004  0.45611986  0.74969000  1
  Al  Al18  1  0.50000000  0.00000000  0.00000000  1
  Al  Al19  1  0.00000000  0.50000000  0.50000000  1
