# generated using pymatgen
data_La3Fe2S7
_symmetry_space_group_name_H-M   'P 1'
_cell_length_a   5.92031772
_cell_length_b   10.37619490
_cell_length_c   10.37644882
_cell_angle_alpha   119.99938180
_cell_angle_beta   90.00000000
_cell_angle_gamma   90.00000000
_symmetry_Int_Tables_number   1
_chemical_formula_structural   La3Fe2S7
_chemical_formula_sum   'La6 Fe4 S14'
_cell_volume   552.03322904
_cell_formula_units_Z   2
loop_
 _symmetry_equiv_pos_site_id
 _symmetry_equiv_pos_as_xyz
  1  'x, y, z'
loop_
 _atom_site_type_symbol
 _atom_site_label
 _atom_site_symmetry_multiplicity
 _atom_site_fract_x
 _atom_site_fract_y
 _atom_site_fract_z
 _atom_site_occupancy
  La  La0  1  0.25078093  0.24420233  0.37558453  1
  La  La1  1  0.25076435  0.62440541  0.86868177  1
  La  La2  1  0.25074329  0.13135791  0.75574279  1
  La  La3  1  0.75078093  0.75579767  0.62441547  1
  La  La4  1  0.75076435  0.37559459  0.13131823  1
  La  La5  1  0.75074329  0.86864209  0.24425721  1
  Fe  Fe6  1  0.22031145  0.99999234  -0.00000369  1
  Fe  Fe7  1  0.72031145  0.00000766  0.00000369  1
  Fe  Fe8  1  0.83686631  0.33335589  0.66667165  1
  Fe  Fe9  1  0.33686631  0.66664411  0.33332835  1
  S  S10  1  0.73866416  0.16070779  0.24514100  1
  S  S11  1  0.73865200  0.75488056  0.91559047  1
  S  S12  1  0.73866257  0.08443131  0.83928532  1
  S  S13  1  0.23866416  0.83929221  0.75485900  1
  S  S14  1  0.23865200  0.24511944  0.08440953  1
  S  S15  1  0.23866257  0.91556869  0.16071468  1
  S  S16  1  0.98155818  0.10415654  0.51541698  1
  S  S17  1  0.98160986  0.48458949  0.58873767  1
  S  S18  1  0.98161456  0.41129184  0.89585433  1
  S  S19  1  0.48155818  0.89584346  0.48458302  1
  S  S20  1  0.48160986  0.51541051  0.41126233  1
  S  S21  1  0.48161456  0.58870816  0.10414567  1
  S  S22  1  0.46177233  0.33338847  0.66667356  1
  S  S23  1  0.96177233  0.66661153  0.33332644  1
