# generated using pymatgen
data_Yb4MgGe4
_symmetry_space_group_name_H-M   'P 1'
_cell_length_a   7.28089243
_cell_length_b   7.84637426
_cell_length_c   15.23374651
_cell_angle_alpha   90.00004670
_cell_angle_beta   90.00070524
_cell_angle_gamma   90.00040166
_symmetry_Int_Tables_number   1
_chemical_formula_structural   Yb4MgGe4
_chemical_formula_sum   'Yb16 Mg4 Ge16'
_cell_volume   870.28271685
_cell_formula_units_Z   4
loop_
 _symmetry_equiv_pos_site_id
 _symmetry_equiv_pos_as_xyz
  1  'x, y, z'
loop_
 _atom_site_type_symbol
 _atom_site_label
 _atom_site_symmetry_multiplicity
 _atom_site_fract_x
 _atom_site_fract_y
 _atom_site_fract_z
 _atom_site_occupancy
  Yb  Yb0  1  0.32288891  0.82496809  0.87113191  1
  Yb  Yb1  1  0.47581474  0.32677212  0.90383203  1
  Yb  Yb2  1  0.52417387  0.67335070  0.40388375  1
  Yb  Yb3  1  0.67715222  0.17502084  0.37124082  1
  Yb  Yb4  1  0.82289886  0.67509018  0.62881378  1
  Yb  Yb5  1  0.82290725  0.67505476  0.87114226  1
  Yb  Yb6  1  0.97583413  0.17334928  0.59611415  1
  Yb  Yb7  1  0.97579296  0.17327830  0.90382859  1
  Yb  Yb8  1  0.02420934  0.82670283  0.09616463  1
  Yb  Yb9  1  0.02416312  0.82662702  0.40389181  1
  Yb  Yb10  1  0.17713154  0.32497169  0.12880106  1
  Yb  Yb11  1  0.17713717  0.32493398  0.37124248  1
  Yb  Yb12  1  0.32286522  0.82493359  0.62882306  1
  Yb  Yb13  1  0.47585423  0.32670367  0.59610860  1
  Yb  Yb14  1  0.52421187  0.67328271  0.09617563  1
  Yb  Yb15  1  0.67713476  0.17498932  0.12880682  1
  Mg  Mg16  1  0.14661439  0.47006418  0.74993029  1
  Mg  Mg17  1  0.35337845  0.97007620  0.25008845  1
  Mg  Mg18  1  0.64659623  0.02995216  0.74990928  1
  Mg  Mg19  1  0.85338535  0.52986831  0.25006537  1
  Ge  Ge20  1  0.01289462  0.91211671  0.74997895  1
  Ge  Ge21  1  0.34797949  0.04036484  0.03232213  1
  Ge  Ge22  1  0.51291512  0.58794054  0.74997618  1
  Ge  Ge23  1  0.65202301  0.95973782  0.53249531  1
  Ge  Ge24  1  0.76504090  0.36499883  0.74997140  1
  Ge  Ge25  1  0.84798626  0.45965823  0.03234394  1
  Ge  Ge26  1  0.84794175  0.45974560  0.46760033  1
  Ge  Ge27  1  0.15204703  0.54027774  0.53247955  1
  Ge  Ge28  1  0.15200280  0.54036745  -0.03242590  1
  Ge  Ge29  1  0.23494700  0.63497466  0.25003060  1
  Ge  Ge30  1  0.26505010  0.13503444  0.74997089  1
  Ge  Ge31  1  0.34793121  0.04025465  0.46760991  1
  Ge  Ge32  1  0.65198599  0.95962683  -0.03242414  1
  Ge  Ge33  1  0.73495070  0.86496496  0.25002959  1
  Ge  Ge34  1  -0.01291163  0.08799585  0.25002294  1
  Ge  Ge35  1  0.48707103  0.41195088  0.25002355  1
