# generated using pymatgen
data_Li11TiAs5
_symmetry_space_group_name_H-M   'P 1'
_cell_length_a   4.24839197
_cell_length_b   21.72914326
_cell_length_c   11.54043513
_cell_angle_alpha   18.75603777
_cell_angle_beta   56.48216591
_cell_angle_gamma   60.73894322
_symmetry_Int_Tables_number   1
_chemical_formula_structural   Li11TiAs5
_chemical_formula_sum   'Li11 Ti1 As5'
_cell_volume   283.27063475
_cell_formula_units_Z   1
loop_
 _symmetry_equiv_pos_site_id
 _symmetry_equiv_pos_as_xyz
  1  'x, y, z'
loop_
 _atom_site_type_symbol
 _atom_site_label
 _atom_site_symmetry_multiplicity
 _atom_site_fract_x
 _atom_site_fract_y
 _atom_site_fract_z
 _atom_site_occupancy
  Li  Li0  1  0.27544445  0.31962235  0.28366644  1
  Li  Li1  1  0.75385539  0.05147937  0.74496412  1
  Li  Li2  1  0.25917257  0.56392641  0.22067427  1
  Li  Li3  1  0.50663986  0.30488195  0.48743685  1
  Li  Li4  1  0.73356180  0.23540299  0.78528715  1
  Li  Li5  1  0.27976956  0.77998167  0.18018418  1
  Li  Li6  1  0.77605544  0.47413645  0.69240229  1
  Li  Li7  1  0.21420488  0.93559155  0.29787749  1
  Li  Li8  1  0.47484565  0.70614744  0.50652384  1
  Li  Li9  1  0.71847090  0.67049210  0.73686590  1
  Li  Li10  1  0.75995932  0.82485321  0.78527178  1
  Ti  Ti11  1  0.23816550  0.15184062  0.25482197  1
  As  As12  1  0.99211653  0.99323281  0.01653430  1
  As  As13  1  0.96894455  0.19574760  0.02779097  1
  As  As14  1  0.02374824  0.40203123  0.98078245  1
  As  As15  1  0.00747747  0.56496487  0.05340690  1
  As  As16  1  0.01756790  0.82566737  0.94550912  1
