# generated using pymatgen
data_Ag2SnO3
_symmetry_space_group_name_H-M   'P 1'
_cell_length_a   5.74815865
_cell_length_b   12.90303198
_cell_length_c   29.86567856
_cell_angle_alpha   90.00000000
_cell_angle_beta   90.00000000
_cell_angle_gamma   89.99999213
_symmetry_Int_Tables_number   1
_chemical_formula_structural   Ag2SnO3
_chemical_formula_sum   'Ag48 Sn24 O72'
_cell_volume   2215.09780340
_cell_formula_units_Z   24
loop_
 _symmetry_equiv_pos_site_id
 _symmetry_equiv_pos_as_xyz
  1  'x, y, z'
loop_
 _atom_site_type_symbol
 _atom_site_label
 _atom_site_symmetry_multiplicity
 _atom_site_fract_x
 _atom_site_fract_y
 _atom_site_fract_z
 _atom_site_occupancy
  Ag  Ag0  1  0.75000632  0.77530224  0.11109143  1
  Ag  Ag1  1  0.92621418  0.99503049  0.49925497  1
  Ag  Ag2  1  0.75033740  0.19641466  0.55564336  1
  Ag  Ag3  1  0.40899660  0.99559055  0.55421591  1
  Ag  Ag4  1  0.91199876  0.99915990  0.27944123  1
  Ag  Ag5  1  0.24999368  0.72469776  0.61109143  1
  Ag  Ag6  1  0.41497134  0.99553658  0.44643799  1
  Ag  Ag7  1  0.42707006  0.99735332  0.66628285  1
  Ag  Ag8  1  0.90896664  0.99615839  0.38752078  1
  Ag  Ag9  1  0.92684843  0.00260773  0.16716316  1
  Ag  Ag10  1  0.08541997  0.50389828  0.11301964  1
  Ag  Ag11  1  0.08502856  0.49553664  0.55356201  1
  Ag  Ag12  1  0.74966252  0.69641471  0.44435667  1
  Ag  Ag13  1  0.91497144  0.00446336  0.05356201  1
  Ag  Ag14  1  0.24966260  0.30358534  0.05564336  1
  Ag  Ag15  1  0.90899668  0.00440954  0.94578413  1
  Ag  Ag16  1  0.07378582  0.50496951  0.99925497  1
  Ag  Ag17  1  0.74988362  0.27446866  0.22215005  1
  Ag  Ag18  1  0.41084109  0.00080279  0.77948862  1
  Ag  Ag19  1  0.25033748  0.80358529  0.94435667  1
  Ag  Ag20  1  0.58502866  0.50446342  0.94643799  1
  Ag  Ag21  1  0.92707005  0.00264666  0.83371713  1
  Ag  Ag22  1  0.07292995  0.49735334  0.33371713  1
  Ag  Ag23  1  0.58915891  0.49919721  0.27948862  1
  Ag  Ag24  1  0.09100332  0.49559046  0.44578413  1
  Ag  Ag25  1  0.74999351  0.27530242  0.88890854  1
  Ag  Ag26  1  0.58800157  0.49915998  0.72055873  1
  Ag  Ag27  1  0.07315157  0.49739227  0.66716316  1
  Ag  Ag28  1  0.41199843  0.00084002  0.22055873  1
  Ag  Ag29  1  0.42684843  0.99739196  0.33283686  1
  Ag  Ag30  1  0.09103336  0.50384161  0.88752078  1
  Ag  Ag31  1  0.08800124  0.50084010  0.77944123  1
  Ag  Ag32  1  0.40896663  0.00384166  0.11247921  1
  Ag  Ag33  1  0.25011638  0.22553134  0.72215005  1
  Ag  Ag34  1  0.42621405  0.00496948  0.00074503  1
  Ag  Ag35  1  0.57292994  0.50264668  0.16628285  1
  Ag  Ag36  1  0.91084119  0.99919709  0.72051137  1
  Ag  Ag37  1  0.57378595  0.49503052  0.50074503  1
  Ag  Ag38  1  0.41458006  0.00389815  0.88698034  1
  Ag  Ag39  1  0.91458003  0.99610172  0.61301964  1
  Ag  Ag40  1  0.25000649  0.22469758  0.38890854  1
  Ag  Ag41  1  0.57315157  0.50260804  0.83283686  1
  Ag  Ag42  1  0.59103337  0.49615834  0.61247921  1
  Ag  Ag43  1  0.58541994  0.49610185  0.38698034  1
  Ag  Ag44  1  0.75011647  0.77446867  0.77784990  1
  Ag  Ag45  1  0.08915881  0.50080291  0.22051137  1
  Ag  Ag46  1  0.24988353  0.72553133  0.27784990  1
  Ag  Ag47  1  0.59100340  0.50440945  0.05421591  1
  Sn  Sn48  1  0.25116932  0.75180766  0.16668583  1
  Sn  Sn49  1  0.24979011  0.75008905  0.38895758  1
  Sn  Sn50  1  0.74913303  0.25039260  0.66660010  1
  Sn  Sn51  1  0.25074152  0.25156940  0.94447590  1
  Sn  Sn52  1  0.75086736  0.75039257  0.33339988  1
  Sn  Sn53  1  0.74899427  0.75166393  0.22224728  1
  Sn  Sn54  1  0.74979000  0.24991095  0.11104242  1
  Sn  Sn55  1  0.25086697  0.24960740  0.16660010  1
  Sn  Sn56  1  0.75074151  0.74843054  0.55552412  1
  Sn  Sn57  1  0.25100573  0.74833607  0.72224728  1
  Sn  Sn58  1  0.75100585  0.25166383  0.77775276  1
  Sn  Sn59  1  0.74946298  0.25106548  0.00002765  1
  Sn  Sn60  1  0.74883068  0.74819234  0.66668583  1
  Sn  Sn61  1  0.75116914  0.24819232  0.33331418  1
  Sn  Sn62  1  0.24925849  0.75156946  0.05552412  1
  Sn  Sn63  1  0.75020989  0.74991095  0.88895758  1
  Sn  Sn64  1  0.75053716  0.75106539  0.99997236  1
  Sn  Sn65  1  0.25021000  0.25008905  0.61104242  1
  Sn  Sn66  1  0.74925848  0.24843060  0.44447590  1
  Sn  Sn67  1  0.24883086  0.25180768  0.83331418  1
  Sn  Sn68  1  0.24946284  0.74893461  0.49997236  1
  Sn  Sn69  1  0.24899415  0.24833617  0.27775276  1
  Sn  Sn70  1  0.24913264  0.74960743  0.83339988  1
  Sn  Sn71  1  0.25053702  0.24893452  0.50002765  1
  O  O72  1  0.63048111  0.33647624  0.72207945  1
  O  O73  1  0.44077080  0.83508712  0.67471579  1
  O  O74  1  0.36970225  0.16626120  0.88899268  1
  O  O75  1  0.43910686  0.16699692  0.99224620  1
  O  O76  1  0.06089279  0.66699693  0.00775376  1
  O  O77  1  0.05988674  0.66580743  0.88141615  1
  O  O78  1  0.86951915  0.83647614  0.27792058  1
  O  O79  1  0.05936887  0.33359290  0.45209200  1
  O  O80  1  0.44011283  0.16580735  0.11858390  1
  O  O81  1  0.94476565  0.84026929  0.17635131  1
  O  O82  1  0.05086370  0.34117990  0.12198831  1
  O  O83  1  0.94626964  0.84192280  0.04582094  1
  O  O84  1  0.05414939  0.66282813  0.21248947  1
  O  O85  1  0.05175226  0.34217367  0.98932423  1
  O  O86  1  0.56008522  0.66473299  0.84125937  1
  O  O87  1  0.44913702  0.84117985  0.87801166  1
  O  O88  1  0.44627002  0.15807717  0.45417918  1
  O  O89  1  0.55372998  0.34192283  0.95417918  1
  O  O90  1  0.12898938  0.33345892  0.55548154  1
  O  O91  1  0.85238005  0.84207790  0.94421620  1
  O  O92  1  0.63029775  0.33373880  0.38899268  1
  O  O93  1  0.55086298  0.65882015  0.37801166  1
  O  O94  1  0.44572487  0.15970691  0.65691423  1
  O  O95  1  0.44476574  0.15973083  0.32364856  1
  O  O96  1  0.94585061  0.83717187  0.71248947  1
  O  O97  1  0.85806260  0.16120881  0.72256728  1
  O  O98  1  0.05894976  0.33814309  0.78554583  1
  O  O99  1  0.62898937  0.66654109  0.94451850  1
  O  O100  1  0.55936910  0.66640741  0.04790813  1
  O  O101  1  0.36951889  0.16352376  0.22207945  1
  O  O102  1  0.55988717  0.33419265  0.61858390  1
  O  O103  1  0.55523426  0.34026917  0.82364856  1
  O  O104  1  0.56089314  0.33300308  0.49224620  1
  O  O105  1  0.14761995  0.65792210  0.44421620  1
  O  O106  1  0.64193682  0.66120875  0.27743269  1
  O  O107  1  0.05523435  0.65973071  0.67635131  1
  O  O108  1  0.55175246  0.65782635  0.51067583  1
  O  O109  1  0.94063113  0.16640710  0.95209200  1
  O  O110  1  0.14075455  0.34132966  0.88885781  1
  O  O111  1  0.06008507  0.33526696  0.65874060  1
  O  O112  1  0.94105024  0.16185691  0.28554583  1
  O  O113  1  0.94011326  0.83419257  0.38141615  1
  O  O114  1  0.05427506  0.65970692  0.34308573  1
  O  O115  1  0.05373036  0.65807720  0.54582094  1
  O  O116  1  0.93910721  0.83300307  0.50775376  1
  O  O117  1  0.94913630  0.15882010  0.62198831  1
  O  O118  1  0.64075350  0.65867015  0.61114221  1
  O  O119  1  0.35237998  0.15792199  0.55578376  1
  O  O120  1  0.94572494  0.84029308  0.84308573  1
  O  O121  1  0.14193740  0.33879119  0.22256728  1
  O  O122  1  0.55922920  0.66491288  0.17471579  1
  O  O123  1  0.85924545  0.15867034  0.38885781  1
  O  O124  1  0.35924650  0.84132985  0.11114221  1
  O  O125  1  0.93991493  0.16473304  0.15874060  1
  O  O126  1  0.37101063  0.83345891  0.44451850  1
  O  O127  1  0.35806318  0.83879125  0.77743269  1
  O  O128  1  0.05922937  0.33508695  0.32528407  1
  O  O129  1  0.43991478  0.83526701  0.34125937  1
  O  O130  1  0.87101062  0.16654108  0.05548154  1
  O  O131  1  0.55894936  0.66185680  0.71445420  1
  O  O132  1  0.55414916  0.33717153  0.28751071  1
  O  O133  1  0.44585084  0.16282847  0.78751071  1
  O  O134  1  0.55427513  0.34029309  0.15691423  1
  O  O135  1  0.13029727  0.66626098  0.11100721  1
  O  O136  1  0.94824774  0.15782633  0.48932423  1
  O  O137  1  0.13048085  0.66352386  0.77792058  1
  O  O138  1  0.44824754  0.84217365  0.01067583  1
  O  O139  1  0.44105064  0.83814320  0.21445420  1
  O  O140  1  0.86970273  0.83373902  0.61100721  1
  O  O141  1  0.44063090  0.83359259  0.54790813  1
  O  O142  1  0.94077063  0.16491305  0.82528407  1
  O  O143  1  0.64762002  0.34207801  0.05578376  1
