# generated using pymatgen
data_KBaAl3Si5O16
_symmetry_space_group_name_H-M   'P 1'
_cell_length_a   7.30687269
_cell_length_b   7.91166260
_cell_length_c   7.86049294
_cell_angle_alpha   113.51408297
_cell_angle_beta   103.65905019
_cell_angle_gamma   103.87652180
_symmetry_Int_Tables_number   1
_chemical_formula_structural   KBaAl3Si5O16
_chemical_formula_sum   'K1 Ba1 Al3 Si5 O16'
_cell_volume   375.36284520
_cell_formula_units_Z   1
loop_
 _symmetry_equiv_pos_site_id
 _symmetry_equiv_pos_as_xyz
  1  'x, y, z'
loop_
 _atom_site_type_symbol
 _atom_site_label
 _atom_site_symmetry_multiplicity
 _atom_site_fract_x
 _atom_site_fract_y
 _atom_site_fract_z
 _atom_site_occupancy
  K  K0  1  0.12734949  0.27791817  0.28198887  1
  Ba  Ba1  1  0.86224382  0.71530780  0.72742980  1
  Al  Al2  1  0.34900881  0.58347377  0.81845780  1
  Al  Al3  1  0.77753785  0.80872737  0.17815133  1
  Al  Al4  1  0.77888859  0.17828223  0.80822772  1
  Si  Si5  1  0.22529585  0.18884594  0.82337267  1
  Si  Si6  1  0.22773967  0.83207241  0.19297631  1
  Si  Si7  1  0.34611422  0.82138363  0.58601428  1
  Si  Si8  1  0.65468652  0.17764008  0.41342607  1
  Si  Si9  1  0.65299369  0.41278519  0.17581277  1
  O  O10  1  0.00868081  0.13411190  0.85387243  1
  O  O11  1  0.01597124  0.86801629  0.15325931  1
  O  O12  1  0.23263184  0.96840267  0.69146278  1
  O  O13  1  0.22464509  0.69168733  0.97504033  1
  O  O14  1  0.27069681  0.62570998  0.61247591  1
  O  O15  1  0.24872995  0.32268555  0.71449056  1
  O  O16  1  0.25699581  0.73376201  0.34195732  1
  O  O17  1  0.61187053  0.68611974  0.92898505  1
  O  O18  1  0.59142283  0.93370081  0.68105969  1
  O  O19  1  0.40804893  0.05564540  0.31084297  1
  O  O20  1  0.40516410  0.30661672  0.05002356  1
  O  O21  1  0.74074754  0.29112610  0.65694904  1
  O  O22  1  0.73814318  0.65498838  0.29000669  1
  O  O23  1  0.69371635  0.36899613  0.36882714  1
  O  O24  1  0.77571374  0.31987303  0.04257673  1
  O  O25  1  0.77496274  0.04212136  0.32231286  1
