# generated using pymatgen
data_Cs2Bi8Se13
_symmetry_space_group_name_H-M   'P 1'
_cell_length_a   4.22603872
_cell_length_b   14.14728198
_cell_length_c   25.38798044
_cell_angle_alpha   96.97527562
_cell_angle_beta   90.00000000
_cell_angle_gamma   90.00000000
_symmetry_Int_Tables_number   1
_chemical_formula_structural   Cs2Bi8Se13
_chemical_formula_sum   'Cs4 Bi16 Se26'
_cell_volume   1506.63591641
_cell_formula_units_Z   2
loop_
 _symmetry_equiv_pos_site_id
 _symmetry_equiv_pos_as_xyz
  1  'x, y, z'
loop_
 _atom_site_type_symbol
 _atom_site_label
 _atom_site_symmetry_multiplicity
 _atom_site_fract_x
 _atom_site_fract_y
 _atom_site_fract_z
 _atom_site_occupancy
  Cs  Cs0  1  0.25000000  0.41387096  0.87978845  1
  Cs  Cs1  1  0.75000000  0.58612904  0.12021155  1
  Cs  Cs2  1  0.25000000  0.72543659  0.36059163  1
  Cs  Cs3  1  0.75000000  0.27456341  0.63940837  1
  Bi  Bi4  1  0.25000000  0.04424188  0.93115069  1
  Bi  Bi5  1  0.25000000  0.88989966  0.21234655  1
  Bi  Bi6  1  0.75000000  0.27501097  0.03220574  1
  Bi  Bi7  1  0.25000000  0.72498903  0.96779426  1
  Bi  Bi8  1  0.25000000  0.05272870  0.44132105  1
  Bi  Bi9  1  0.25000000  0.19614285  0.16932837  1
  Bi  Bi10  1  0.25000000  0.87728510  0.69133873  1
  Bi  Bi11  1  0.25000000  0.42745803  0.43682635  1
  Bi  Bi12  1  0.25000000  0.56460720  0.73241570  1
  Bi  Bi13  1  0.75000000  0.57254197  0.56317365  1
  Bi  Bi14  1  0.75000000  0.11010034  0.78765345  1
  Bi  Bi15  1  0.75000000  0.94727130  0.55867895  1
  Bi  Bi16  1  0.75000000  0.95575812  0.06884931  1
  Bi  Bi17  1  0.75000000  0.80385715  0.83067163  1
  Bi  Bi18  1  0.75000000  0.12271490  0.30866127  1
  Bi  Bi19  1  0.75000000  0.43539280  0.26758430  1
  Se  Se20  1  0.25000000  0.67435694  0.85448203  1
  Se  Se21  1  0.25000000  0.80855627  0.58378630  1
  Se  Se22  1  0.25000000  0.09395818  0.55168473  1
  Se  Se23  1  0.25000000  0.82088836  0.08724416  1
  Se  Se24  1  0.75000000  0.19144373  0.41621370  1
  Se  Se25  1  0.25000000  0.40139348  0.02179955  1
  Se  Se26  1  0.75000000  0.59860652  0.97820045  1
  Se  Se27  1  0.75000000  0.04555527  0.18117009  1
  Se  Se28  1  0.75000000  0.77196347  0.23491556  1
  Se  Se29  1  0.75000000  0.90604182  0.44831527  1
  Se  Se30  1  0.25000000  0.48996169  0.62707538  1
  Se  Se31  1  0.75000000  0.17911164  0.91275584  1
  Se  Se32  1  0.25000000  0.22803653  0.76508444  1
  Se  Se33  1  0.75000000  0.39085183  0.51259441  1
  Se  Se34  1  0.25000000  0.10420804  0.04813277  1
  Se  Se35  1  0.75000000  0.89579196  0.95186723  1
  Se  Se36  1  0.75000000  0.73751051  0.72071512  1
  Se  Se37  1  0.25000000  0.55095549  0.24048254  1
  Se  Se38  1  0.75000000  0.44904451  0.75951746  1
  Se  Se39  1  0.25000000  0.98326679  0.31951002  1
  Se  Se40  1  0.25000000  0.26248949  0.27928488  1
  Se  Se41  1  0.75000000  0.01673321  0.68048998  1
  Se  Se42  1  0.75000000  0.32564306  0.14551797  1
  Se  Se43  1  0.25000000  0.60914817  0.48740559  1
  Se  Se44  1  0.25000000  0.95444473  0.81882991  1
  Se  Se45  1  0.75000000  0.51003831  0.37292462  1
