# generated using pymatgen
data_Ca5Si2CO11
_symmetry_space_group_name_H-M   'P 1'
_cell_length_a   6.78584880
_cell_length_b   10.57860160
_cell_length_c   14.30533887
_cell_angle_alpha   101.41888526
_cell_angle_beta   90.00000000
_cell_angle_gamma   90.00000000
_symmetry_Int_Tables_number   1
_chemical_formula_structural   Ca5Si2CO11
_chemical_formula_sum   'Ca20 Si8 C4 O44'
_cell_volume   1006.57915906
_cell_formula_units_Z   4
loop_
 _symmetry_equiv_pos_site_id
 _symmetry_equiv_pos_as_xyz
  1  'x, y, z'
loop_
 _atom_site_type_symbol
 _atom_site_label
 _atom_site_symmetry_multiplicity
 _atom_site_fract_x
 _atom_site_fract_y
 _atom_site_fract_z
 _atom_site_occupancy
  C  C0  1  0.30022750  0.18832911  0.27900307  1
  C  C1  1  0.19977250  0.68832911  0.27900307  1
  C  C2  1  0.69977250  0.81167089  0.72099693  1
  C  C3  1  0.80022750  0.31167089  0.72099693  1
  O  O4  1  0.56767900  0.89343622  0.33484066  1
  O  O5  1  0.68817423  0.92846961  0.77253437  1
  O  O6  1  0.81182577  0.42846961  0.77253437  1
  O  O7  1  0.31182577  0.07153039  0.22746563  1
  O  O8  1  0.20005480  0.78615849  0.23573657  1
  O  O9  1  0.70005480  0.71384151  0.76426343  1
  O  O10  1  0.79994520  0.21384151  0.76426343  1
  O  O11  1  0.29994520  0.28615849  0.23573657  1
  O  O12  1  0.83241863  0.60222590  0.47032057  1
  O  O13  1  0.33241863  0.89777410  0.52967943  1
  O  O14  1  0.16758137  0.39777410  0.52967943  1
  O  O15  1  0.66758137  0.10222590  0.47032057  1
  O  O16  1  0.57464689  0.52000458  0.33023653  1
  O  O17  1  0.07464689  0.97999542  0.66976347  1
  O  O18  1  0.83372003  0.76521597  0.11253044  1
  O  O19  1  0.92535311  0.02000458  0.33023653  1
  O  O20  1  0.93232100  0.39343622  0.33484066  1
  O  O21  1  0.43232100  0.10656378  0.66515934  1
  O  O22  1  0.06767900  0.60656378  0.66515934  1
  O  O23  1  0.18817423  0.57153039  0.22746563  1
  O  O24  1  0.65821786  0.38269345  0.46723657  1
  O  O25  1  0.15821786  0.11730655  0.53276343  1
  O  O26  1  0.34178214  0.61730655  0.53276343  1
  O  O27  1  0.84178214  0.88269345  0.46723657  1
  O  O28  1  0.21653244  0.70600479  0.36977067  1
  O  O29  1  0.28346756  0.20600479  0.36977067  1
  O  O30  1  0.78346756  0.29399521  0.63022933  1
  O  O31  1  0.71653244  0.79399521  0.63022933  1
  O  O32  1  0.75957404  0.12840877  0.94137599  1
  O  O33  1  0.25957404  0.37159123  0.05862401  1
  O  O34  1  0.24042596  0.87159123  0.05862401  1
  O  O35  1  0.74042596  0.62840877  0.94137599  1
  O  O36  1  0.00299336  0.13950122  0.09787330  1
  O  O37  1  0.50299336  0.36049878  0.90212670  1
  O  O38  1  0.99700664  0.86049878  0.90212670  1
  O  O39  1  0.49700664  0.63950122  0.09787330  1
  O  O40  1  0.66454197  0.00472900  0.08147146  1
  O  O41  1  0.16454197  0.49527100  0.91852854  1
  O  O42  1  0.33545803  0.99527100  0.91852854  1
  O  O43  1  0.83545803  0.50472900  0.08147146  1
  O  O44  1  0.66627997  0.26521597  0.11253044  1
  O  O45  1  0.16627997  0.23478403  0.88746956  1
  O  O46  1  0.33372003  0.73478403  0.88746956  1
  O  O47  1  0.42535311  0.47999542  0.66976347  1
  Si  Si48  1  0.25027723  0.52661393  0.60403719  1
  Si  Si49  1  0.75027723  0.97338607  0.39596281  1
  Si  Si50  1  0.74972277  0.47338607  0.39596281  1
  Si  Si51  1  0.24972277  0.02661393  0.60403719  1
  Si  Si52  1  0.72406299  0.63384461  0.05734833  1
  Si  Si53  1  0.22406299  0.86615539  0.94265167  1
  Si  Si54  1  0.27593701  0.36615539  0.94265167  1
  Si  Si55  1  0.77593701  0.13384461  0.05734833  1
  Ca  Ca56  1  0.50807742  0.45355081  0.16887296  1
  Ca  Ca57  1  0.50903811  0.86709283  0.17378138  1
  Ca  Ca58  1  0.99096189  0.36709283  0.17378138  1
  Ca  Ca59  1  0.49096189  0.13290717  0.82621862  1
  Ca  Ca60  1  0.49192258  0.54644919  0.83112704  1
  Ca  Ca61  1  0.99192258  0.95355081  0.16887296  1
  Ca  Ca62  1  0.00903811  0.63290717  0.82621862  1
  Ca  Ca63  1  0.00807742  0.04644919  0.83112704  1
  Ca  Ca64  1  0.55739162  0.74011247  0.45647307  1
  Ca  Ca65  1  0.05739162  0.75988753  0.54352693  1
  Ca  Ca66  1  0.44260838  0.25988753  0.54352693  1
  Ca  Ca67  1  0.94260838  0.24011247  0.45647307  1
  Ca  Ca68  1  0.74303410  0.53170406  0.61124179  1
  Ca  Ca69  1  0.24303410  0.96829594  0.38875821  1
  Ca  Ca70  1  0.25696590  0.46829594  0.38875821  1
  Ca  Ca71  1  0.75696590  0.03170406  0.61124179  1
  Ca  Ca72  1  0.16321985  0.64126199  0.07293798  1
  Ca  Ca73  1  0.66321985  0.85873801  0.92706202  1
  Ca  Ca74  1  0.83678015  0.35873801  0.92706202  1
  Ca  Ca75  1  0.33678015  0.14126199  0.07293798  1
