# generated using pymatgen
data_Bi8Se7
_symmetry_space_group_name_H-M   'P 1'
_cell_length_a   4.28749638
_cell_length_b   4.28749487
_cell_length_c   88.64102583
_cell_angle_alpha   90.00025569
_cell_angle_beta   89.99990529
_cell_angle_gamma   119.99991789
_symmetry_Int_Tables_number   1
_chemical_formula_structural   Bi8Se7
_chemical_formula_sum   'Bi24 Se21'
_cell_volume   1411.14988232
_cell_formula_units_Z   3
loop_
 _symmetry_equiv_pos_site_id
 _symmetry_equiv_pos_as_xyz
  1  'x, y, z'
loop_
 _atom_site_type_symbol
 _atom_site_label
 _atom_site_symmetry_multiplicity
 _atom_site_fract_x
 _atom_site_fract_y
 _atom_site_fract_z
 _atom_site_occupancy
  Bi  Bi0  1  -0.00000011  0.99999437  0.40028965  1
  Bi  Bi1  1  -0.00000131  0.99999298  0.33281634  1
  Bi  Bi2  1  0.99999747  0.99999087  0.06822355  1
  Bi  Bi3  1  0.66666679  0.33332710  0.44294693  1
  Bi  Bi4  1  0.33333213  0.66666187  0.35286050  1
  Bi  Bi5  1  0.00000053  0.99999432  0.86426616  1
  Bi  Bi6  1  0.66666788  0.33332489  0.91175478  1
  Bi  Bi7  1  0.99999959  0.99999445  0.13574618  1
  Bi  Bi8  1  0.33333156  0.66665992  0.08827908  1
  Bi  Bi9  1  0.99999904  0.00006071  0.59971310  1
  Bi  Bi10  1  0.33333390  0.66666197  0.82181133  1
  Bi  Bi11  1  0.66666710  0.33333076  0.24322523  1
  Bi  Bi12  1  0.66666739  0.33332776  0.97881085  1
  Bi  Bi13  1  0.33333320  0.66666062  0.02121541  1
  Bi  Bi14  1  0.00000106  0.99999352  0.93176827  1
  Bi  Bi15  1  0.66666099  0.33332594  0.17818528  1
  Bi  Bi16  1  0.66666855  0.33333072  0.50999283  1
  Bi  Bi17  1  0.33333100  0.66667619  0.55705425  1
  Bi  Bi18  1  0.33333620  0.66667046  0.49001955  1
  Bi  Bi19  1  0.00000084  0.00000025  0.66716458  1
  Bi  Bi20  1  0.66666945  0.33333287  0.71416028  1
  Bi  Bi21  1  0.33334006  0.66668138  0.28581324  1
  Bi  Bi22  1  0.33333349  0.66665906  0.75675155  1
  Bi  Bi23  1  0.66666557  0.33333280  0.64713130  1
  Se  Se24  1  0.33333335  0.66666328  0.69664973  1
  Se  Se25  1  -0.00000090  0.00000352  0.53963345  1
  Se  Se26  1  0.66666660  0.33333112  0.77367540  1
  Se  Se27  1  0.66666690  0.33333223  0.03853767  1
  Se  Se28  1  0.33333267  0.66670372  0.61706038  1
  Se  Se29  1  0.33333383  0.66666275  0.96145287  1
  Se  Se30  1  0.33333288  0.66666440  0.42168784  1
  Se  Se31  1  0.99999708  0.99999747  0.19507196  1
  Se  Se32  1  0.00000033  0.99999631  0.80493389  1
  Se  Se33  1  0.33332940  0.66665469  0.22631717  1
  Se  Se34  1  0.66666717  0.33332969  0.11825362  1
  Se  Se35  1  0.66666678  0.33333130  0.84338598  1
  Se  Se36  1  -0.00000014  0.99999856  0.46036604  1
  Se  Se37  1  0.00000104  0.00000006  0.26489685  1
  Se  Se38  1  0.33333293  0.66666486  0.15663256  1
  Se  Se39  1  0.66666659  0.33332948  0.38293379  1
  Se  Se40  1  0.66666957  0.33334064  0.30334534  1
  Se  Se41  1  0.00000025  0.99999813  0.99997250  1
  Se  Se42  1  0.00000006  0.99999866  0.73512163  1
  Se  Se43  1  0.66666746  0.33334777  0.57830874  1
  Se  Se44  1  0.33333376  0.66666562  0.88176239  1
