# generated using pymatgen
data_Ti5P3
_symmetry_space_group_name_H-M   'P 1'
_cell_length_a   6.48758083
_cell_length_b   7.39000271
_cell_length_c   9.83863193
_cell_angle_alpha   90.00000000
_cell_angle_beta   90.00000000
_cell_angle_gamma   90.00000000
_symmetry_Int_Tables_number   1
_chemical_formula_structural   Ti5P3
_chemical_formula_sum   'Ti20 P12'
_cell_volume   471.69589106
_cell_formula_units_Z   4
loop_
 _symmetry_equiv_pos_site_id
 _symmetry_equiv_pos_as_xyz
  1  'x, y, z'
loop_
 _atom_site_type_symbol
 _atom_site_label
 _atom_site_symmetry_multiplicity
 _atom_site_fract_x
 _atom_site_fract_y
 _atom_site_fract_z
 _atom_site_occupancy
  Ti  Ti0  1  0.84303166  0.25000000  0.22340278  1
  Ti  Ti1  1  0.80711297  0.95523559  0.92408291  1
  Ti  Ti2  1  0.14536690  0.25000000  0.79381042  1
  Ti  Ti3  1  0.15696834  0.75000000  0.77659722  1
  Ti  Ti4  1  0.35463310  0.25000000  0.29381042  1
  Ti  Ti5  1  0.69288703  0.95523559  0.42408291  1
  Ti  Ti6  1  0.97120751  0.25000000  0.50033070  1
  Ti  Ti7  1  0.02879249  0.75000000  0.49966930  1
  Ti  Ti8  1  0.19288703  0.04476441  0.07591709  1
  Ti  Ti9  1  0.64536690  0.75000000  0.70618958  1
  Ti  Ti10  1  0.47120751  0.75000000  0.99966930  1
  Ti  Ti11  1  0.69288703  0.54476441  0.42408291  1
  Ti  Ti12  1  0.34303166  0.75000000  0.27659722  1
  Ti  Ti13  1  0.65696834  0.25000000  0.72340278  1
  Ti  Ti14  1  0.30711297  0.04476441  0.57591709  1
  Ti  Ti15  1  0.30711297  0.45523559  0.57591709  1
  Ti  Ti16  1  0.85463310  0.75000000  0.20618958  1
  Ti  Ti17  1  0.19288703  0.45523559  0.07591709  1
  Ti  Ti18  1  0.80711297  0.54476441  0.92408291  1
  Ti  Ti19  1  0.52879249  0.25000000  0.00033070  1
  P  P20  1  0.42371491  0.75000000  0.51241002  1
  P  P21  1  0.93051249  0.99162167  0.67352527  1
  P  P22  1  0.92371491  0.25000000  0.98758998  1
  P  P23  1  0.43051249  0.49162167  0.82647473  1
  P  P24  1  0.07628509  0.75000000  0.01241002  1
  P  P25  1  0.06948751  0.49162167  0.32647473  1
  P  P26  1  0.57628509  0.25000000  0.48758998  1
  P  P27  1  0.56948751  0.50837833  0.17352527  1
  P  P28  1  0.56948751  0.99162167  0.17352527  1
  P  P29  1  0.93051249  0.50837833  0.67352527  1
  P  P30  1  0.06948751  0.00837833  0.32647473  1
  P  P31  1  0.43051249  0.00837833  0.82647473  1
