# generated using pymatgen
data_Ce3Ge5Pd14
_symmetry_space_group_name_H-M   'P 1'
_cell_length_a   9.13331610
_cell_length_b   9.12829182
_cell_length_c   18.37447473
_cell_angle_alpha   90.00000000
_cell_angle_beta   90.00000000
_cell_angle_gamma   90.00000000
_symmetry_Int_Tables_number   1
_chemical_formula_structural   Ce3Ge5Pd14
_chemical_formula_sum   'Ce12 Ge20 Pd56'
_cell_volume   1531.90889152
_cell_formula_units_Z   4
loop_
 _symmetry_equiv_pos_site_id
 _symmetry_equiv_pos_as_xyz
  1  'x, y, z'
loop_
 _atom_site_type_symbol
 _atom_site_label
 _atom_site_symmetry_multiplicity
 _atom_site_fract_x
 _atom_site_fract_y
 _atom_site_fract_z
 _atom_site_occupancy
  Ce  Ce0  1  0.62614904  0.75000000  0.29628073  1
  Ce  Ce1  1  0.37385096  0.25000000  0.70371927  1
  Ce  Ce2  1  0.87385096  0.25000000  0.79628073  1
  Ce  Ce3  1  0.11862366  0.25000000  0.02958076  1
  Ce  Ce4  1  0.62801851  0.25000000  0.04278361  1
  Ce  Ce5  1  0.38137634  0.75000000  0.52958076  1
  Ce  Ce6  1  0.12614904  0.75000000  0.20371927  1
  Ce  Ce7  1  0.88137634  0.75000000  0.97041924  1
  Ce  Ce8  1  0.87198149  0.75000000  0.54278361  1
  Ce  Ce9  1  0.12801851  0.25000000  0.45721639  1
  Ce  Ce10  1  0.37198149  0.75000000  0.95721639  1
  Ce  Ce11  1  0.61862366  0.25000000  0.47041924  1
  Ge  Ge12  1  0.86808634  0.99215461  0.39685404  1
  Ge  Ge13  1  0.63191366  0.00784539  0.89685404  1
  Ge  Ge14  1  0.37597523  0.75000000  0.76453339  1
  Ge  Ge15  1  0.88714900  0.50161915  0.10329308  1
  Ge  Ge16  1  0.61285100  0.49838085  0.60329308  1
  Ge  Ge17  1  0.11285100  0.49838085  0.89670692  1
  Ge  Ge18  1  0.63191366  0.49215461  0.89685404  1
  Ge  Ge19  1  0.62402477  0.25000000  0.23546661  1
  Ge  Ge20  1  0.88714900  0.99838085  0.10329308  1
  Ge  Ge21  1  0.36808634  0.99215461  0.10314596  1
  Ge  Ge22  1  0.86808634  0.50784539  0.39685404  1
  Ge  Ge23  1  0.87597523  0.75000000  0.73546661  1
  Ge  Ge24  1  0.11285100  0.00161915  0.89670692  1
  Ge  Ge25  1  0.61285100  0.00161915  0.60329308  1
  Ge  Ge26  1  0.38714900  0.99838085  0.39670692  1
  Ge  Ge27  1  0.36808634  0.50784539  0.10314596  1
  Ge  Ge28  1  0.38714900  0.50161915  0.39670692  1
  Ge  Ge29  1  0.13191366  0.00784539  0.60314596  1
  Ge  Ge30  1  0.12402477  0.25000000  0.26453339  1
  Ge  Ge31  1  0.13191366  0.49215461  0.60314596  1
  Pd  Pd32  1  0.12780050  0.91902856  0.03244492  1
  Pd  Pd33  1  0.12845206  0.06866980  0.16673182  1
  Pd  Pd34  1  0.21481813  0.25000000  0.85796813  1
  Pd  Pd35  1  0.37219950  0.08097144  0.53244492  1
  Pd  Pd36  1  0.12780050  0.58097144  0.03244492  1
  Pd  Pd37  1  0.12109874  0.58912476  0.47306278  1
  Pd  Pd38  1  0.37219950  0.41902856  0.53244492  1
  Pd  Pd39  1  0.87154794  0.93133020  0.83326818  1
  Pd  Pd40  1  0.71481813  0.25000000  0.64203187  1
  Pd  Pd41  1  0.62780050  0.91902856  0.46755508  1
  Pd  Pd42  1  0.37619718  0.96111842  0.24988355  1
  Pd  Pd43  1  0.12380282  0.03888158  0.74988355  1
  Pd  Pd44  1  0.62380282  0.46111842  0.75011645  1
  Pd  Pd45  1  0.46907025  0.75000000  0.14177529  1
  Pd  Pd46  1  0.62845206  0.06866980  0.33326818  1
  Pd  Pd47  1  0.87890126  0.41087524  0.52693722  1
  Pd  Pd48  1  0.12888491  0.48174888  0.33183326  1
  Pd  Pd49  1  0.37890126  0.41087524  0.97306278  1
  Pd  Pd50  1  0.62888491  0.01825112  0.16816674  1
  Pd  Pd51  1  0.61331273  0.75000000  0.83609823  1
  Pd  Pd52  1  0.37111509  0.98174888  0.83183326  1
  Pd  Pd53  1  0.38668727  0.25000000  0.16390177  1
  Pd  Pd54  1  0.62780050  0.58097144  0.46755508  1
  Pd  Pd55  1  0.37154794  0.93133020  0.66673182  1
  Pd  Pd56  1  0.96907025  0.75000000  0.35822471  1
  Pd  Pd57  1  0.62888491  0.48174888  0.16816674  1
  Pd  Pd58  1  0.37111509  0.51825112  0.83183326  1
  Pd  Pd59  1  0.87219950  0.08097144  0.96755508  1
  Pd  Pd60  1  0.28518187  0.75000000  0.35796813  1
  Pd  Pd61  1  0.87619718  0.53888158  0.25011645  1
  Pd  Pd62  1  0.13420510  0.75000000  0.82832473  1
  Pd  Pd63  1  0.62845206  0.43133020  0.33326818  1
  Pd  Pd64  1  0.86579490  0.25000000  0.17167527  1
  Pd  Pd65  1  0.87890126  0.08912476  0.52693722  1
  Pd  Pd66  1  0.03092975  0.25000000  0.64177529  1
  Pd  Pd67  1  0.78518187  0.75000000  0.14203187  1
  Pd  Pd68  1  0.87154794  0.56866980  0.83326818  1
  Pd  Pd69  1  0.87111509  0.98174888  0.66816674  1
  Pd  Pd70  1  0.37890126  0.08912476  0.97306278  1
  Pd  Pd71  1  0.12888491  0.01825112  0.33183326  1
  Pd  Pd72  1  0.87219950  0.41902856  0.96755508  1
  Pd  Pd73  1  0.37619718  0.53888158  0.24988355  1
  Pd  Pd74  1  0.12109874  0.91087524  0.47306278  1
  Pd  Pd75  1  0.62109874  0.91087524  0.02693722  1
  Pd  Pd76  1  0.87111509  0.51825112  0.66816674  1
  Pd  Pd77  1  0.11331273  0.75000000  0.66390177  1
  Pd  Pd78  1  0.12845206  0.43133020  0.16673182  1
  Pd  Pd79  1  0.36579490  0.25000000  0.32832473  1
  Pd  Pd80  1  0.62380282  0.03888158  0.75011645  1
  Pd  Pd81  1  0.53092975  0.25000000  0.85822471  1
  Pd  Pd82  1  0.88668727  0.25000000  0.33609823  1
  Pd  Pd83  1  0.37154794  0.56866980  0.66673182  1
  Pd  Pd84  1  0.12380282  0.46111842  0.74988355  1
  Pd  Pd85  1  0.63420510  0.75000000  0.67167527  1
  Pd  Pd86  1  0.87619718  0.96111842  0.25011645  1
  Pd  Pd87  1  0.62109874  0.58912476  0.02693722  1
