# generated using pymatgen
data_Nd4MnS7
_symmetry_space_group_name_H-M   'P 1'
_cell_length_a   6.99540012
_cell_length_b   9.85296215
_cell_length_c   9.85297935
_cell_angle_alpha   119.99970703
_cell_angle_beta   90.00000000
_cell_angle_gamma   90.00000000
_symmetry_Int_Tables_number   1
_chemical_formula_structural   Nd4MnS7
_chemical_formula_sum   'Nd8 Mn2 S14'
_cell_volume   588.13748600
_cell_formula_units_Z   2
loop_
 _symmetry_equiv_pos_site_id
 _symmetry_equiv_pos_as_xyz
  1  'x, y, z'
loop_
 _atom_site_type_symbol
 _atom_site_label
 _atom_site_symmetry_multiplicity
 _atom_site_fract_x
 _atom_site_fract_y
 _atom_site_fract_z
 _atom_site_occupancy
  Nd  Nd0  1  0.26744330  0.21348810  0.37764945  1
  Nd  Nd1  1  0.26744662  0.62234635  0.83583880  1
  Nd  Nd2  1  0.26743900  0.16416334  0.78651663  1
  Nd  Nd3  1  0.76744330  0.78651190  0.62235055  1
  Nd  Nd4  1  0.76744662  0.37765365  0.16416120  1
  Nd  Nd5  1  0.76743900  0.83583666  0.21348337  1
  Nd  Nd6  1  0.81401992  0.33332204  0.66667693  1
  Nd  Nd7  1  0.31401992  0.66667796  0.33332307  1
  Mn  Mn8  1  0.49455261  0.00000604  0.99999206  1
  Mn  Mn9  1  0.99455261  0.99999396  0.00000794  1
  S  S10  1  0.66365998  0.13308594  0.24476634  1
  S  S11  1  0.66365468  0.75522919  0.88831093  1
  S  S12  1  0.66365168  0.11169696  0.86690741  1
  S  S13  1  0.16365998  0.86691406  0.75523366  1
  S  S14  1  0.16365468  0.24477081  0.11168907  1
  S  S15  1  0.16365168  0.88830304  0.13309259  1
  S  S16  1  0.03089183  0.07378678  0.51794658  1
  S  S17  1  0.03087607  0.48204876  0.55585394  1
  S  S18  1  0.03089118  0.44415808  0.92621699  1
  S  S19  1  0.53089183  0.92621322  0.48205342  1
  S  S20  1  0.53087607  0.51795124  0.44414606  1
  S  S21  1  0.53089118  0.55584192  0.07378301  1
  S  S22  1  0.43247314  0.33332950  0.66666298  1
  S  S23  1  0.93247314  0.66667050  0.33333702  1
