# generated using pymatgen
data_Nb12I21Br
_symmetry_space_group_name_H-M   'P 1'
_cell_length_a   11.71366016
_cell_length_b   13.86182063
_cell_length_c   15.52193550
_cell_angle_alpha   90.00000000
_cell_angle_beta   90.00000000
_cell_angle_gamma   90.00000000
_symmetry_Int_Tables_number   1
_chemical_formula_structural   Nb12I21Br
_chemical_formula_sum   'Nb24 I42 Br2'
_cell_volume   2520.33789431
_cell_formula_units_Z   2
loop_
 _symmetry_equiv_pos_site_id
 _symmetry_equiv_pos_as_xyz
  1  'x, y, z'
loop_
 _atom_site_type_symbol
 _atom_site_label
 _atom_site_symmetry_multiplicity
 _atom_site_fract_x
 _atom_site_fract_y
 _atom_site_fract_z
 _atom_site_occupancy
  Nb  Nb0  1  0.06851074  0.37901762  0.54881559  1
  Nb  Nb1  1  0.06851074  0.87901762  0.95118441  1
  Nb  Nb2  1  0.10080555  0.47946146  0.39210621  1
  Nb  Nb3  1  0.10080555  0.97946146  0.10789379  1
  Nb  Nb4  1  0.12970659  0.07964874  0.95078467  1
  Nb  Nb5  1  0.12970659  0.57964874  0.54921533  1
  Nb  Nb6  1  0.37029341  0.07964874  0.54921533  1
  Nb  Nb7  1  0.37029341  0.57964874  0.95078467  1
  Nb  Nb8  1  0.39919445  0.97946146  0.39210621  1
  Nb  Nb9  1  0.39919445  0.47946146  0.10789379  1
  Nb  Nb10  1  0.43148926  0.37901762  0.95118441  1
  Nb  Nb11  1  0.43148926  0.87901762  0.54881559  1
  Nb  Nb12  1  0.56548772  0.12228526  0.44642626  1
  Nb  Nb13  1  0.56548772  0.62228526  0.05357374  1
  Nb  Nb14  1  0.59609243  0.52290257  0.89752397  1
  Nb  Nb15  1  0.59609243  0.02290257  0.60247603  1
  Nb  Nb16  1  0.62530742  0.42132743  0.05391369  1
  Nb  Nb17  1  0.62530742  0.92132743  0.44608631  1
  Nb  Nb18  1  0.87469258  0.42132743  0.44608631  1
  Nb  Nb19  1  0.87469258  0.92132743  0.05391369  1
  Nb  Nb20  1  0.90390757  0.02290257  0.89752397  1
  Nb  Nb21  1  0.90390757  0.52290257  0.60247603  1
  Nb  Nb22  1  0.93451228  0.12228526  0.05357374  1
  Nb  Nb23  1  0.93451228  0.62228526  0.44642626  1
  I  I24  1  0.03351923  0.27859126  0.38577764  1
  I  I25  1  0.03351923  0.77859126  0.11422236  1
  I  I26  1  0.09395199  0.47824930  0.71282324  1
  I  I27  1  0.09395199  0.97824930  0.78717676  1
  I  I28  1  0.15668943  0.68140314  0.38631414  1
  I  I29  1  0.15668943  0.18140314  0.11368586  1
  I  I30  1  0.17459777  0.19739993  0.61904318  1
  I  I31  1  0.17459777  0.69739993  0.88095682  1
  I  I32  1  0.20402983  0.93649385  0.50086648  1
  I  I33  1  0.20402983  0.43649385  0.99913352  1
  I  I34  1  0.29597017  0.43649385  0.50086648  1
  I  I35  1  0.29597017  0.93649385  0.99913352  1
  I  I36  1  0.32540223  0.19739993  0.88095682  1
  I  I37  1  0.32540223  0.69739993  0.61904318  1
  I  I38  1  0.34331057  0.18140314  0.38631414  1
  I  I39  1  0.34331057  0.68140314  0.11368586  1
  I  I40  1  0.40604801  0.47824930  0.78717676  1
  I  I41  1  0.40604801  0.97824930  0.71282324  1
  I  I42  1  0.46648077  0.77859126  0.38577764  1
  I  I43  1  0.46648077  0.27859126  0.11422236  1
  I  I44  1  0.52774500  0.72389372  0.89155326  1
  I  I45  1  0.52774500  0.22389372  0.60844674  1
  I  I46  1  0.59061047  0.02309829  0.28258700  1
  I  I47  1  0.59061047  0.52309829  0.21741300  1
  I  I48  1  0.65422493  0.32148094  0.89021445  1
  I  I49  1  0.65422493  0.82148094  0.60978555  1
  I  I50  1  0.67751897  0.30266281  0.37868667  1
  I  I51  1  0.67751897  0.80266281  0.12131333  1
  I  I52  1  0.70758506  0.56363463  0.49391710  1
  I  I53  1  0.70758506  0.06363463  0.00608290  1
  I  I54  1  0.75000000  0.07249178  0.75000000  1
  I  I55  1  0.75000000  0.57249178  0.75000000  1
  I  I56  1  0.79241494  0.56363463  0.00608290  1
  I  I57  1  0.79241494  0.06363463  0.49391710  1
  I  I58  1  0.82248103  0.30266281  0.12131333  1
  I  I59  1  0.82248103  0.80266281  0.37868667  1
  I  I60  1  0.84577507  0.82148094  0.89021445  1
  I  I61  1  0.84577507  0.32148094  0.60978555  1
  I  I62  1  0.90938953  0.02309829  0.21741300  1
  I  I63  1  0.90938953  0.52309829  0.28258700  1
  I  I64  1  0.97225500  0.22389372  0.89155326  1
  I  I65  1  0.97225500  0.72389372  0.60844674  1
  Br  Br66  1  0.25000000  0.44260634  0.25000000  1
  Br  Br67  1  0.25000000  0.94260634  0.25000000  1
