# generated using pymatgen
data_DyZr9Si9PO40
_symmetry_space_group_name_H-M   'P 1'
_cell_length_a   5.64106335
_cell_length_b   5.64106339
_cell_length_c   56.40693103
_cell_angle_alpha   106.60361989
_cell_angle_beta   106.60362002
_cell_angle_gamma   115.37491543
_symmetry_Int_Tables_number   1
_chemical_formula_structural   DyZr9Si9PO40
_chemical_formula_sum   'Dy2 Zr18 Si18 P2 O80'
_cell_volume   1370.60844558
_cell_formula_units_Z   2
loop_
 _symmetry_equiv_pos_site_id
 _symmetry_equiv_pos_as_xyz
  1  'x, y, z'
loop_
 _atom_site_type_symbol
 _atom_site_label
 _atom_site_symmetry_multiplicity
 _atom_site_fract_x
 _atom_site_fract_y
 _atom_site_fract_z
 _atom_site_occupancy
  Dy  Dy0  1  0.12619812  0.87619812  0.92523962  1
  Dy  Dy1  1  0.12380188  0.87380188  0.82476038  1
  Zr  Zr2  1  0.12409971  0.87409971  0.72481994  1
  Zr  Zr3  1  0.12499065  0.87499065  0.62499813  1
  Zr  Zr4  1  0.87919101  0.12919101  0.97583820  1
  Zr  Zr5  1  0.12499820  0.87499820  0.52499964  1
  Zr  Zr6  1  0.87500000  0.12500000  0.87500000  1
  Zr  Zr7  1  0.12499865  0.87499865  0.42499973  1
  Zr  Zr8  1  0.87080899  0.12080899  0.77416180  1
  Zr  Zr9  1  0.12500135  0.87500135  0.32500027  1
  Zr  Zr10  1  0.87501535  0.12501535  0.67500307  1
  Zr  Zr11  1  0.12500180  0.87500180  0.22500036  1
  Zr  Zr12  1  0.87499982  0.12499982  0.57499996  1
  Zr  Zr13  1  0.12500935  0.87500935  0.12500187  1
  Zr  Zr14  1  0.87499825  0.12499825  0.47499965  1
  Zr  Zr15  1  0.12590029  0.87590029  0.02518006  1
  Zr  Zr16  1  0.87500000  0.12500000  0.37500000  1
  Zr  Zr17  1  0.87500175  0.12500175  0.27500035  1
  Zr  Zr18  1  0.87500018  0.12500018  0.17500004  1
  Zr  Zr19  1  0.87498465  0.12498465  0.07499693  1
  Si  Si20  1  0.37933190  0.62933190  0.97586638  1
  Si  Si21  1  0.37500000  0.62500000  0.87500000  1
  Si  Si22  1  0.37066810  0.62066810  0.77413362  1
  Si  Si23  1  0.37475667  0.62475667  0.67495133  1
  Si  Si24  1  0.62513659  0.37513659  0.72502732  1
  Si  Si25  1  0.37499642  0.62499642  0.57499928  1
  Si  Si26  1  0.62501681  0.37501681  0.62500336  1
  Si  Si27  1  0.37499955  0.62499955  0.47499991  1
  Si  Si28  1  0.62499922  0.37499922  0.52499984  1
  Si  Si29  1  0.37500000  0.62500000  0.37500000  1
  Si  Si30  1  0.62499897  0.37499897  0.42499979  1
  Si  Si31  1  0.37500045  0.62500045  0.27500009  1
  Si  Si32  1  0.62500103  0.37500103  0.32500021  1
  Si  Si33  1  0.37500358  0.62500358  0.17500072  1
  Si  Si34  1  0.62500078  0.37500078  0.22500016  1
  Si  Si35  1  0.37524333  0.62524333  0.07504867  1
  Si  Si36  1  0.62498319  0.37498319  0.12499664  1
  Si  Si37  1  0.62486341  0.37486341  0.02497268  1
  P  P38  1  0.62455757  0.37455757  0.92491151  1
  P  P39  1  0.62544243  0.37544243  0.82508849  1
  O  O40  1  0.19667573  0.63410854  0.99401935  1
  O  O41  1  0.38938510  0.81219101  0.95803280  1
  O  O42  1  0.19094291  0.26813699  0.95803280  1
  O  O43  1  0.18948480  0.61707290  0.89277809  1
  O  O44  1  0.74351780  0.80608499  0.99401935  1
  O  O45  1  0.38292710  0.81051520  0.85722191  1
  O  O46  1  0.28611138  0.21615639  0.90695757  1
  O  O47  1  0.18929201  0.26170391  0.85722191  1
  O  O48  1  0.18780899  0.61061490  0.79196720  1
  O  O49  1  0.78313994  0.71376537  0.94308662  1
  O  O50  1  0.73829609  0.81070799  0.89277809  1
  O  O51  1  0.64772627  0.21710084  0.94308662  1
  O  O52  1  0.36589146  0.80332427  0.75598065  1
  O  O53  1  0.28623463  0.21686006  0.80691338  1
  O  O54  1  0.19391501  0.25648220  0.75598065  1
  O  O55  1  0.19513144  0.62765937  0.69323774  1
  O  O56  1  0.78346430  0.35341929  0.90695757  1
  O  O57  1  0.78384361  0.71388862  0.84304243  1
  O  O58  1  0.73186301  0.80905709  0.79196720  1
  O  O59  1  0.64658071  0.21653570  0.84304243  1
  O  O60  1  0.37195557  0.80495796  0.65668741  1
  O  O61  1  0.26276493  0.19568833  0.70671924  1
  O  O62  1  0.19491857  0.26191618  0.65668741  1
  O  O63  1  0.19505026  0.62795734  0.59329031  1
  O  O64  1  0.78289916  0.35227373  0.80691338  1
  O  O65  1  0.80489877  0.73802013  0.74329880  1
  O  O66  1  0.73724596  0.80471802  0.69323774  1
  O  O67  1  0.62808918  0.19496782  0.74329880  1
  O  O68  1  0.37202977  0.80494841  0.55670732  1
  O  O69  1  0.26216839  0.19507081  0.60671084  1
  O  O70  1  0.19504348  0.26212484  0.55670732  1
  O  O71  1  0.19504995  0.62796713  0.49329183  1
  O  O72  1  0.80442749  0.37150408  0.70671924  1
  O  O73  1  0.80496284  0.73790793  0.64329923  1
  O  O74  1  0.73785282  0.80494575  0.59329031  1
  O  O75  1  0.62802950  0.19508441  0.64329923  1
  O  O76  1  0.37203405  0.80494922  0.45670852  1
  O  O77  1  0.26213387  0.19504949  0.50670814  1
  O  O78  1  0.19505117  0.26213600  0.45670852  1
  O  O79  1  0.19505287  0.62796876  0.39329212  1
  O  O80  1  0.80494005  0.37203763  0.60671084  1
  O  O81  1  0.80494881  0.73786697  0.54329163  1
  O  O82  1  0.73786839  0.80495122  0.49329183  1
  O  O83  1  0.62796750  0.19504935  0.54329163  1
  O  O84  1  0.37203124  0.80494713  0.35670788  1
  O  O85  1  0.26213382  0.19505174  0.40670829  1
  O  O86  1  0.19504759  0.26213170  0.35670788  1
  O  O87  1  0.19505078  0.62796595  0.29329148  1
  O  O88  1  0.80494751  0.37203189  0.50670814  1
  O  O89  1  0.80495400  0.73786991  0.44329223  1
  O  O90  1  0.73786830  0.80495241  0.39329212  1
  O  O91  1  0.62796829  0.19505238  0.44329223  1
  O  O92  1  0.37203287  0.80495005  0.25670817  1
  O  O93  1  0.26213009  0.19504600  0.30670777  1
  O  O94  1  0.19504878  0.26213161  0.25670817  1
  O  O95  1  0.19505159  0.62797023  0.19329268  1
  O  O96  1  0.80494909  0.37203117  0.40670829  1
  O  O97  1  0.80494826  0.73786618  0.34329171  1
  O  O98  1  0.73786400  0.80494883  0.29329148  1
  O  O99  1  0.62796883  0.19505091  0.34329171  1
  O  O100  1  0.37204266  0.80494974  0.15670969  1
  O  O101  1  0.26213303  0.19505119  0.20670837  1
  O  O102  1  0.19505425  0.26214718  0.15670969  1
  O  O103  1  0.19504204  0.62804443  0.09331259  1
  O  O104  1  0.80494762  0.37203171  0.30670777  1
  O  O105  1  0.80495051  0.73786613  0.24329186  1
  O  O106  1  0.73787516  0.80495652  0.19329268  1
  O  O107  1  0.62796811  0.19505249  0.24329186  1
  O  O108  1  0.37234063  0.80486856  0.05676226  1
  O  O109  1  0.26209207  0.19503716  0.10670077  1
  O  O110  1  0.19528198  0.26275404  0.05676226  1
  O  O111  1  0.80495065  0.37203250  0.20670837  1
  O  O112  1  0.80492919  0.73783161  0.14328916  1
  O  O113  1  0.73808382  0.80508143  0.09331259  1
  O  O114  1  0.62796237  0.19505995  0.14328916  1
  O  O115  1  0.26197987  0.19510123  0.00670120  1
  O  O116  1  0.80491559  0.37197050  0.10670077  1
  O  O117  1  0.80431167  0.73723507  0.04328076  1
  O  O118  1  0.62849592  0.19557251  0.04328076  1
  O  O119  1  0.80503218  0.37191082  0.00670120  1
