# generated using pymatgen
data_Th2Co7
_symmetry_space_group_name_H-M   'P 1'
_cell_length_a   4.97001310
_cell_length_b   4.96967536
_cell_length_c   24.89805047
_cell_angle_alpha   89.99916659
_cell_angle_beta   90.00100839
_cell_angle_gamma   120.01143050
_symmetry_Int_Tables_number   1
_chemical_formula_structural   Th2Co7
_chemical_formula_sum   'Th8 Co28'
_cell_volume   532.51456850
_cell_formula_units_Z   4
loop_
 _symmetry_equiv_pos_site_id
 _symmetry_equiv_pos_as_xyz
  1  'x, y, z'
loop_
 _atom_site_type_symbol
 _atom_site_label
 _atom_site_symmetry_multiplicity
 _atom_site_fract_x
 _atom_site_fract_y
 _atom_site_fract_z
 _atom_site_occupancy
  Th  Th0  1  0.33333867  0.66667276  0.17538215  1
  Th  Th1  1  0.33333207  0.66665658  0.32421884  1
  Th  Th2  1  0.33333260  0.66668660  0.46884231  1
  Th  Th3  1  0.33330783  0.66670010  0.03139872  1
  Th  Th4  1  0.66669545  0.33332771  0.96903767  1
  Th  Th5  1  0.66666813  0.33334141  0.67562836  1
  Th  Th6  1  0.66666906  0.33328609  0.53180248  1
  Th  Th7  1  0.66666138  0.33334240  0.82417697  1
  Co  Co8  1  0.00005517  0.99998719  0.66886935  1
  Co  Co9  1  0.16565266  0.33128387  0.91165087  1
  Co  Co10  1  0.16562001  0.83433641  0.91166149  1
  Co  Co11  1  0.83419891  0.16578698  0.41164875  1
  Co  Co12  1  0.83315950  0.16684132  0.24965606  1
  Co  Co13  1  0.66868542  0.83430754  0.91165827  1
  Co  Co14  1  0.33155404  0.16578587  0.41163059  1
  Co  Co15  1  0.83419613  0.66842802  0.41163406  1
  Co  Co16  1  0.33134754  0.16565617  0.08841666  1
  Co  Co17  1  0.83436250  0.66868169  0.08842155  1
  Co  Co18  1  0.83432828  0.16567954  0.08840285  1
  Co  Co19  1  0.33328466  0.66667817  0.66806104  1
  Co  Co20  1  0.33339250  0.66664324  0.83198474  1
  Co  Co21  1  0.33367640  0.16683264  0.24965265  1
  Co  Co22  1  0.99992165  0.99996628  0.33121229  1
  Co  Co23  1  0.16679006  0.33359560  0.74992418  1
  Co  Co24  1  0.83316844  0.66632894  0.24964314  1
  Co  Co25  1  0.00002677  0.99994013  0.00005911  1
  Co  Co26  1  0.66872058  0.83435622  0.58861383  1
  Co  Co27  1  0.99997403  0.00015259  0.16850197  1
  Co  Co28  1  0.66640735  0.83321386  0.74992154  1
  Co  Co29  1  0.99993053  0.00004192  0.83126831  1
  Co  Co30  1  0.16566097  0.83436063  0.58860469  1
  Co  Co31  1  0.16679869  0.83320833  0.74993368  1
  Co  Co32  1  0.66673941  0.33336375  0.33191827  1
  Co  Co33  1  0.16566088  0.33130064  0.58861146  1
  Co  Co34  1  0.99999524  0.00001613  0.50014141  1
  Co  Co35  1  0.66668647  0.33321268  0.16780968  1
