# generated using pymatgen
data_Ti9Fe2(B4Ru9)2
_symmetry_space_group_name_H-M   'P 1'
_cell_length_a   2.99699187
_cell_length_b   17.59578322
_cell_length_c   17.59578322
_cell_angle_alpha   90.00000000
_cell_angle_beta   90.00000000
_cell_angle_gamma   90.00000000
_symmetry_Int_Tables_number   1
_chemical_formula_structural   Ti9Fe2(B4Ru9)2
_chemical_formula_sum   'Ti18 Fe4 B16 Ru36'
_cell_volume   927.90340947
_cell_formula_units_Z   2
loop_
 _symmetry_equiv_pos_site_id
 _symmetry_equiv_pos_as_xyz
  1  'x, y, z'
loop_
 _atom_site_type_symbol
 _atom_site_label
 _atom_site_symmetry_multiplicity
 _atom_site_fract_x
 _atom_site_fract_y
 _atom_site_fract_z
 _atom_site_occupancy
  Ti  Ti0  1  0.50000000  0.96423580  0.18801774  1
  Ti  Ti1  1  0.50000000  0.81198226  0.96423580  1
  Ti  Ti2  1  0.50000000  0.30409752  0.80409752  1
  Ti  Ti3  1  0.50000000  0.19590248  0.30409752  1
  Ti  Ti4  1  0.50000000  0.46423580  0.31198226  1
  Ti  Ti5  1  0.50000000  0.18801774  0.03576420  1
  Ti  Ti6  1  0.50000000  0.69590248  0.19590248  1
  Ti  Ti7  1  0.50000000  0.80409752  0.69590248  1
  Ti  Ti8  1  0.50000000  0.00000000  0.00000000  1
  Ti  Ti9  1  0.50000000  0.53576420  0.68801774  1
  Ti  Ti10  1  0.50000000  0.67158911  0.82841089  1
  Ti  Ti11  1  0.50000000  0.82841089  0.32841089  1
  Ti  Ti12  1  0.50000000  0.17158911  0.67158911  1
  Ti  Ti13  1  0.50000000  0.68801774  0.46423580  1
  Ti  Ti14  1  0.50000000  0.03576420  0.81198226  1
  Ti  Ti15  1  0.50000000  0.31198226  0.53576420  1
  Ti  Ti16  1  0.50000000  0.50000000  0.50000000  1
  Ti  Ti17  1  0.50000000  0.32841089  0.17158911  1
  Fe  Fe18  1  0.50000000  0.54811635  0.95188365  1
  Fe  Fe19  1  0.50000000  0.04811635  0.54811635  1
  Fe  Fe20  1  0.50000000  0.45188365  0.04811635  1
  Fe  Fe21  1  0.50000000  0.95188365  0.45188365  1
  B  B22  1  0.50000000  0.03716866  0.33531485  1
  B  B23  1  0.50000000  0.46283134  0.83531485  1
  B  B24  1  0.50000000  0.66951744  0.62103323  1
  B  B25  1  0.50000000  0.96283134  0.66468515  1
  B  B26  1  0.50000000  0.37896677  0.66951744  1
  B  B27  1  0.50000000  0.87896677  0.83048256  1
  B  B28  1  0.50000000  0.33531485  0.96283134  1
  B  B29  1  0.50000000  0.16951744  0.87896677  1
  B  B30  1  0.50000000  0.83048256  0.12103323  1
  B  B31  1  0.50000000  0.33048256  0.37896677  1
  B  B32  1  0.50000000  0.83531485  0.53716866  1
  B  B33  1  0.50000000  0.12103323  0.16951744  1
  B  B34  1  0.50000000  0.16468515  0.46283134  1
  B  B35  1  0.50000000  0.62103323  0.33048256  1
  B  B36  1  0.50000000  0.53716866  0.16468515  1
  B  B37  1  0.50000000  0.66468515  0.03716866  1
  Ru  Ru38  1  0.00000000  0.94842309  0.32987196  1
  Ru  Ru39  1  0.00000000  0.78928698  0.83125708  1
  Ru  Ru40  1  0.00000000  0.40206953  0.43076914  1
  Ru  Ru41  1  0.00000000  0.90206953  0.06923086  1
  Ru  Ru42  1  0.00000000  0.44842309  0.17012804  1
  Ru  Ru43  1  0.00000000  0.05157691  0.67012804  1
  Ru  Ru44  1  0.00000000  0.16874292  0.78928698  1
  Ru  Ru45  1  0.00000000  0.82987196  0.44842309  1
  Ru  Ru46  1  0.00000000  0.75421019  0.58050194  1
  Ru  Ru47  1  0.00000000  0.08050194  0.25421019  1
  Ru  Ru48  1  0.00000000  0.09793047  0.93076914  1
  Ru  Ru49  1  0.00000000  0.93076914  0.90206953  1
  Ru  Ru50  1  0.00000000  0.71071302  0.33125708  1
  Ru  Ru51  1  0.00000000  0.67012804  0.94842309  1
  Ru  Ru52  1  0.00000000  0.08267168  0.41732832  1
  Ru  Ru53  1  0.00000000  0.06923086  0.09793047  1
  Ru  Ru54  1  0.00000000  0.55157691  0.82987196  1
  Ru  Ru55  1  0.00000000  0.17012804  0.55157691  1
  Ru  Ru56  1  0.00000000  0.91949806  0.74578981  1
  Ru  Ru57  1  0.00000000  0.58267168  0.08267168  1
  Ru  Ru58  1  0.00000000  0.74578981  0.08050194  1
  Ru  Ru59  1  0.00000000  0.41732832  0.91732832  1
  Ru  Ru60  1  0.00000000  0.24578981  0.41949806  1
  Ru  Ru61  1  0.00000000  0.41949806  0.75421019  1
  Ru  Ru62  1  0.00000000  0.25421019  0.91949806  1
  Ru  Ru63  1  0.00000000  0.83125708  0.21071302  1
  Ru  Ru64  1  0.00000000  0.33125708  0.28928698  1
  Ru  Ru65  1  0.00000000  0.21071302  0.16874292  1
  Ru  Ru66  1  0.00000000  0.56923086  0.40206953  1
  Ru  Ru67  1  0.00000000  0.66874292  0.71071302  1
  Ru  Ru68  1  0.00000000  0.43076914  0.59793047  1
  Ru  Ru69  1  0.00000000  0.59793047  0.56923086  1
  Ru  Ru70  1  0.00000000  0.58050194  0.24578981  1
  Ru  Ru71  1  0.00000000  0.28928698  0.66874292  1
  Ru  Ru72  1  0.00000000  0.91732832  0.58267168  1
  Ru  Ru73  1  0.00000000  0.32987196  0.05157691  1
