# generated using pymatgen
data_K3P2H(O3F)2
_symmetry_space_group_name_H-M   'P 1'
_cell_length_a   7.12725289
_cell_length_b   7.12725289
_cell_length_c   9.81666870
_cell_angle_alpha   103.67019692
_cell_angle_beta   103.67019692
_cell_angle_gamma   110.29691066
_symmetry_Int_Tables_number   1
_chemical_formula_structural   K3P2H(O3F)2
_chemical_formula_sum   'K6 P4 H2 O12 F4'
_cell_volume   425.83005493
_cell_formula_units_Z   2
loop_
 _symmetry_equiv_pos_site_id
 _symmetry_equiv_pos_as_xyz
  1  'x, y, z'
loop_
 _atom_site_type_symbol
 _atom_site_label
 _atom_site_symmetry_multiplicity
 _atom_site_fract_x
 _atom_site_fract_y
 _atom_site_fract_z
 _atom_site_occupancy
  K  K0  1  0.13857336  0.86112451  0.24575383  1
  K  K1  1  0.86112451  0.13857336  0.74575383  1
  K  K2  1  0.45809876  0.72402769  0.94558052  1
  K  K3  1  0.27725272  0.53879628  0.56195459  1
  K  K4  1  0.53879628  0.27725272  0.06195459  1
  K  K5  1  0.72402769  0.45809876  0.44558052  1
  P  P6  1  0.09276423  0.33104235  0.18387291  1
  P  P7  1  0.67777157  0.90855694  0.32215511  1
  P  P8  1  0.90855694  0.67777157  0.82215511  1
  P  P9  1  0.33104235  0.09276423  0.68387291  1
  H  H10  1  0.98112299  0.01263795  0.00679224  1
  H  H11  1  0.01263795  0.98112299  0.50679224  1
  O  O12  1  0.99644286  0.45927169  0.26346976  1
  O  O13  1  0.55602967  0.01290697  0.24390926  1
  O  O14  1  0.01290697  0.55602967  0.74390926  1
  O  O15  1  0.45927169  0.99644286  0.76346976  1
  O  O16  1  0.91501020  0.12331994  0.05203839  1
  O  O17  1  0.88353395  0.07027451  0.45546883  1
  O  O18  1  0.07027451  0.88353395  0.95546883  1
  O  O19  1  0.12331994  0.91501020  0.55203839  1
  O  O20  1  0.26927778  0.29340227  0.27416820  1
  O  O21  1  0.70398098  0.72652771  0.22530475  1
  O  O22  1  0.72652771  0.70398098  0.72530475  1
  O  O23  1  0.29340227  0.26927778  0.77416820  1
  F  F24  1  0.19941242  0.46699556  0.08676681  1
  F  F25  1  0.52662188  0.79522225  0.41076479  1
  F  F26  1  0.79522225  0.52662188  0.91076479  1
  F  F27  1  0.46699556  0.19941242  0.58676681  1
