# generated using pymatgen
data_LiNbO3
_symmetry_space_group_name_H-M   'P 1'
_cell_length_a   5.58864927
_cell_length_b   5.58154773
_cell_length_c   22.36746905
_cell_angle_alpha   55.80107034
_cell_angle_beta   55.77090041
_cell_angle_gamma   55.85315957
_symmetry_Int_Tables_number   1
_chemical_formula_structural   LiNbO3
_chemical_formula_sum   'Li8 Nb8 O24'
_cell_volume   445.40874413
_cell_formula_units_Z   8
loop_
 _symmetry_equiv_pos_site_id
 _symmetry_equiv_pos_as_xyz
  1  'x, y, z'
loop_
 _atom_site_type_symbol
 _atom_site_label
 _atom_site_symmetry_multiplicity
 _atom_site_fract_x
 _atom_site_fract_y
 _atom_site_fract_z
 _atom_site_occupancy
  Li  Li0  1  0.21956867  0.22156821  0.05830664  1
  Li  Li1  1  0.29327648  0.29233212  0.32441756  1
  Li  Li2  1  0.72071542  0.72024767  0.18074233  1
  Li  Li3  1  0.29679959  0.29502863  0.57235641  1
  Li  Li4  1  0.79444683  0.79682590  0.44784538  1
  Li  Li5  1  0.29508312  0.29478187  0.82304693  1
  Li  Li6  1  0.79481721  0.79632996  0.69763782  1
  Li  Li7  1  0.79124694  0.79054416  0.94798725  1
  Nb  Nb8  1  0.01366832  0.00569078  0.00382424  1
  Nb  Nb9  1  0.01156950  0.00702697  0.25494296  1
  Nb  Nb10  1  0.49798128  0.50448266  0.13157635  1
  Nb  Nb11  1  0.01632581  0.01623397  0.50344177  1
  Nb  Nb12  1  0.51837285  0.51611209  0.37798619  1
  Nb  Nb13  1  0.01598919  0.01664613  0.75304693  1
  Nb  Nb14  1  0.51670836  0.51604768  0.62836325  1
  Nb  Nb15  1  0.51602094  0.51598293  0.87758900  1
  O  O16  1  0.12438965  0.37567918  0.18622093  1
  O  O17  1  0.37329655  0.75926815  0.03052631  1
  O  O18  1  0.75628360  0.12103906  0.09357354  1
  O  O19  1  0.25734003  0.87281405  0.15616795  1
  O  O20  1  0.62543807  0.25989563  0.21846708  1
  O  O21  1  0.12361235  0.37610202  0.43435290  1
  O  O22  1  0.86958609  0.62616743  0.06069058  1
  O  O23  1  0.37451076  0.73481056  0.28138285  1
  O  O24  1  0.73813307  0.12416785  0.34397153  1
  O  O25  1  0.23707644  0.87564612  0.40578262  1
  O  O26  1  0.62514307  0.23512287  0.46856689  1
  O  O27  1  0.12365220  0.37656660  0.68423849  1
  O  O28  1  0.87812849  0.62428341  0.31142109  1
  O  O29  1  0.37526613  0.73756286  0.53096281  1
  O  O30  1  0.73526222  0.12528283  0.59369063  1
  O  O31  1  0.23726660  0.87683130  0.65555132  1
  O  O32  1  0.62490389  0.23575638  0.71849727  1
  O  O33  1  0.12136868  0.37329012  0.93596585  1
  O  O34  1  0.87696412  0.62305131  0.55912563  1
  O  O35  1  0.37578295  0.73470455  0.78064277  1
  O  O36  1  0.73458295  0.12411837  0.84340694  1
  O  O37  1  0.23688042  0.87666746  0.90523072  1
  O  O38  1  0.62074451  0.23724754  0.96792509  1
  O  O39  1  0.87619664  0.62244263  0.80912722  1
