# generated using pymatgen
data_Th2(Al3Ni2)5
_symmetry_space_group_name_H-M   'P 1'
_cell_length_a   3.93566941
_cell_length_b   10.88830484
_cell_length_c   10.88830484
_cell_angle_alpha   61.53674459
_cell_angle_beta   79.58776302
_cell_angle_gamma   79.58776302
_symmetry_Int_Tables_number   1
_chemical_formula_structural   Th2(Al3Ni2)5
_chemical_formula_sum   'Th2 Al15 Ni10'
_cell_volume   401.01716033
_cell_formula_units_Z   1
loop_
 _symmetry_equiv_pos_site_id
 _symmetry_equiv_pos_as_xyz
  1  'x, y, z'
loop_
 _atom_site_type_symbol
 _atom_site_label
 _atom_site_symmetry_multiplicity
 _atom_site_fract_x
 _atom_site_fract_y
 _atom_site_fract_z
 _atom_site_occupancy
  Th  Th0  1  0.72826318  0.27173682  0.27173682  1
  Th  Th1  1  0.27173682  0.72826318  0.72826318  1
  Al  Al2  1  0.70456347  0.99030599  0.60056708  1
  Al  Al3  1  0.29543653  0.00969401  0.39943292  1
  Al  Al4  1  0.29543653  0.39943292  0.00969401  1
  Al  Al5  1  0.70456347  0.60056708  0.99030599  1
  Al  Al6  1  0.50000000  0.50000000  0.50000000  1
  Al  Al7  1  0.10385221  0.02199566  0.77029993  1
  Al  Al8  1  0.89614779  0.97800434  0.22970007  1
  Al  Al9  1  0.89614779  0.22970007  0.97800434  1
  Al  Al10  1  0.10385221  0.77029993  0.02199566  1
  Al  Al11  1  0.50000000  0.11978815  0.88021185  1
  Al  Al12  1  0.50000000  0.88021185  0.11978815  1
  Al  Al13  1  0.58628650  0.24161186  0.58581514  1
  Al  Al14  1  0.41371350  0.75838814  0.41418486  1
  Al  Al15  1  0.41371350  0.41418486  0.75838814  1
  Al  Al16  1  0.58628650  0.58581514  0.24161186  1
  Ni  Ni17  1  0.16447687  0.15432225  0.51672401  1
  Ni  Ni18  1  0.83552313  0.84567775  0.48327599  1
  Ni  Ni19  1  0.83552313  0.48327599  0.84567775  1
  Ni  Ni20  1  0.16447687  0.51672401  0.15432225  1
  Ni  Ni21  1  0.62140943  0.87859057  0.87859057  1
  Ni  Ni22  1  0.37859057  0.12140943  0.12140943  1
  Ni  Ni23  1  0.07976701  0.42023299  0.42023299  1
  Ni  Ni24  1  0.92023299  0.57976701  0.57976701  1
  Ni  Ni25  1  0.00000000  0.27916019  0.72083981  1
  Ni  Ni26  1  -0.00000000  0.72083981  0.27916019  1
