# generated using pymatgen
data_U2Te3
_symmetry_space_group_name_H-M   'P 1'
_cell_length_a   23.94430716
_cell_length_b   9.20513883
_cell_length_c   9.20513840
_cell_angle_alpha   90.00000000
_cell_angle_beta   54.78408243
_cell_angle_gamma   54.78408251
_symmetry_Int_Tables_number   1
_chemical_formula_structural   U2Te3
_chemical_formula_sum   'U16 Te24'
_cell_volume   1174.19093669
_cell_formula_units_Z   8
loop_
 _symmetry_equiv_pos_site_id
 _symmetry_equiv_pos_as_xyz
  1  'x, y, z'
loop_
 _atom_site_type_symbol
 _atom_site_label
 _atom_site_symmetry_multiplicity
 _atom_site_fract_x
 _atom_site_fract_y
 _atom_site_fract_z
 _atom_site_occupancy
  U  U0  1  0.00035687  0.12271026  0.75200364  1
  U  U1  1  0.08067557  0.62898614  0.37898614  1
  U  U2  1  0.16666700  0.25000000  0.62834163  1
  U  U3  1  0.33297613  0.37728974  0.25307425  1
  U  U4  1  0.25265743  0.87101386  0.12101386  1
  U  U5  1  0.16666700  0.75000000  0.87165837  1
  U  U6  1  0.33297613  0.12378087  0.74799636  1
  U  U7  1  0.50035687  0.25200364  0.62271026  1
  U  U8  1  0.66666700  0.37165837  0.25000000  1
  U  U9  1  0.58067557  0.87898614  0.12898614  1
  U  U10  1  0.50035687  0.74692575  0.87621913  1
  U  U11  1  0.66666700  0.12834163  0.75000000  1
  U  U12  1  0.75265743  0.62101386  0.37101386  1
  U  U13  1  0.83297613  0.24799636  0.62378087  1
  U  U14  1  0.00035687  0.37621913  0.24692575  1
  U  U15  1  0.83297613  0.75307425  0.87728974  1
  Te  Te16  1  0.05193997  0.00012101  0.34363786  1
  Te  Te17  1  0.11714567  0.49799936  0.99821752  1
  Te  Te18  1  0.05193997  0.34405808  0.50054123  1
  Te  Te19  1  0.28139303  0.15594192  0.15636214  1
  Te  Te20  1  0.28139303  0.49987899  0.99945877  1
  Te  Te21  1  0.21618733  0.00200064  0.84965552  1
  Te  Te22  1  0.11714567  0.65056264  0.65034448  1
  Te  Te23  1  0.38531405  0.99775516  0.34232064  1
  Te  Te24  1  0.21618733  0.84943736  0.50178248  1
  Te  Te25  1  0.44801995  0.49826178  0.00224484  1
  Te  Te26  1  0.38531405  0.34630370  0.50173822  1
  Te  Te27  1  0.61714567  0.15034448  0.15056264  1
  Te  Te28  1  0.61714567  0.49821752  0.99799936  1
  Te  Te29  1  0.55193997  0.00054123  0.84405808  1
  Te  Te30  1  0.44801995  0.65767936  0.65369630  1
  Te  Te31  1  0.71618733  0.00178248  0.34943736  1
  Te  Te32  1  0.55193997  0.84363786  0.50012101  1
  Te  Te33  1  0.78139303  0.49945877  -0.00012101  1
  Te  Te34  1  0.71618733  0.34965552  0.50200064  1
  Te  Te35  1  0.94801995  0.15369630  0.15767936  1
  Te  Te36  1  0.94801995  0.50224484  0.99826178  1
  Te  Te37  1  0.88531405  0.00173822  0.84630370  1
  Te  Te38  1  0.78139303  0.65636214  0.65594192  1
  Te  Te39  1  0.88531405  0.84232064  0.49775516  1
