# generated using pymatgen
data_Zn(BiO2)4
_symmetry_space_group_name_H-M   'P 1'
_cell_length_a   3.41060257
_cell_length_b   8.80446748
_cell_length_c   8.90937419
_cell_angle_alpha   69.85294668
_cell_angle_beta   78.35562135
_cell_angle_gamma   78.47651835
_symmetry_Int_Tables_number   1
_chemical_formula_structural   Zn(BiO2)4
_chemical_formula_sum   'Zn1 Bi4 O8'
_cell_volume   243.51565173
_cell_formula_units_Z   1
loop_
 _symmetry_equiv_pos_site_id
 _symmetry_equiv_pos_as_xyz
  1  'x, y, z'
loop_
 _atom_site_type_symbol
 _atom_site_label
 _atom_site_symmetry_multiplicity
 _atom_site_fract_x
 _atom_site_fract_y
 _atom_site_fract_z
 _atom_site_occupancy
  Zn  Zn0  1  0.29765228  0.18555746  0.22299468  1
  Bi  Bi1  1  0.64115478  0.15035976  0.57121264  1
  Bi  Bi2  1  0.13325000  0.55417817  0.20255600  1
  Bi  Bi3  1  0.85818391  0.44969972  0.84802287  1
  Bi  Bi4  1  0.35779752  0.80888772  0.48912662  1
  O  O5  1  0.87903318  0.64353101  0.61417389  1
  O  O6  1  0.46057311  0.32595387  0.77563976  1
  O  O7  1  0.53421957  0.68450285  0.26513482  1
  O  O8  1  0.15139020  0.30641844  0.39405154  1
  O  O9  1  0.19469843  0.96632430  0.64785608  1
  O  O10  1  0.80246528  0.30102511  0.09860799  1
  O  O11  1  0.81300832  0.03402500  0.36397865  1
  O  O12  1  0.25473544  0.58017360  0.91543547  1
