# generated using pymatgen
data_AlZnH4O2F5
_symmetry_space_group_name_H-M   'P 1'
_cell_length_a   6.84271904
_cell_length_b   7.45270103
_cell_length_c   7.45270103
_cell_angle_alpha   58.26139866
_cell_angle_beta   62.67247024
_cell_angle_gamma   62.67247024
_symmetry_Int_Tables_number   1
_chemical_formula_structural   AlZnH4O2F5
_chemical_formula_sum   'Al2 Zn2 H8 O4 F10'
_cell_volume   274.98940660
_cell_formula_units_Z   2
loop_
 _symmetry_equiv_pos_site_id
 _symmetry_equiv_pos_as_xyz
  1  'x, y, z'
loop_
 _atom_site_type_symbol
 _atom_site_label
 _atom_site_symmetry_multiplicity
 _atom_site_fract_x
 _atom_site_fract_y
 _atom_site_fract_z
 _atom_site_occupancy
  Al  Al0  1  0.50000000  0.00000000  0.50000000  1
  Al  Al1  1  0.50000000  0.50000000  0.00000000  1
  Zn  Zn2  1  0.50000000  0.00000000  0.00000000  1
  Zn  Zn3  1  -0.00000000  0.50000000  0.50000000  1
  H  H4  1  0.05930383  0.75260169  0.54108118  1
  H  H5  1  0.94069617  0.45891882  0.24739831  1
  H  H6  1  0.14701330  0.25260169  0.04108118  1
  H  H7  1  0.85298670  0.95891882  0.74739831  1
  H  H8  1  0.94069617  0.24739831  0.45891882  1
  H  H9  1  0.05930383  0.54108118  0.75260169  1
  H  H10  1  0.85298670  0.74739831  0.95891882  1
  H  H11  1  0.14701330  0.04108118  0.25260169  1
  O  O12  1  0.15485936  0.59992806  0.59992806  1
  O  O13  1  0.84514064  0.40007194  0.40007194  1
  O  O14  1  0.14528453  0.09992806  0.09992806  1
  O  O15  1  0.85471547  0.90007194  0.90007194  1
  F  F16  1  0.56724083  0.06636143  0.66638766  1
  F  F17  1  0.43275917  0.33361234  0.93363857  1
  F  F18  1  0.20001008  0.56636143  0.16638766  1
  F  F19  1  0.79998992  0.83361234  0.43363857  1
  F  F20  1  0.43275917  0.93363857  0.33361234  1
  F  F21  1  0.56724083  0.66638766  0.06636143  1
  F  F22  1  0.79998992  0.43363857  0.83361234  1
  F  F23  1  0.20001008  0.16638766  0.56636143  1
  F  F24  1  0.42807064  0.75000000  0.75000000  1
  F  F25  1  0.57192936  0.25000000  0.25000000  1
