# generated using pymatgen
data_TlCuHSO5
_symmetry_space_group_name_H-M   'P 1'
_cell_length_a   8.99511587
_cell_length_b   5.93990716
_cell_length_c   4.57483811
_cell_angle_alpha   90.00000000
_cell_angle_beta   96.24055097
_cell_angle_gamma   90.00000000
_symmetry_Int_Tables_number   1
_chemical_formula_structural   TlCuHSO5
_chemical_formula_sum   'Tl2 Cu2 H2 S2 O10'
_cell_volume   242.98585132
_cell_formula_units_Z   2
loop_
 _symmetry_equiv_pos_site_id
 _symmetry_equiv_pos_as_xyz
  1  'x, y, z'
loop_
 _atom_site_type_symbol
 _atom_site_label
 _atom_site_symmetry_multiplicity
 _atom_site_fract_x
 _atom_site_fract_y
 _atom_site_fract_z
 _atom_site_occupancy
  Tl  Tl0  1  0.60615400  0.25000000  0.90219600  1
  Tl  Tl1  1  0.39384600  0.75000000  0.09780400  1
  Cu  Cu2  1  0.00000000  0.50000000  0.00000000  1
  Cu  Cu3  1  0.00000000  0.00000000  0.00000000  1
  H  H4  1  0.88245789  0.25000000  0.60850080  1
  H  H5  1  0.11754211  0.75000000  0.39149920  1
  S  S6  1  0.22472227  0.25000000  0.51335044  1
  S  S7  1  0.77527773  0.75000000  0.48664956  1
  O  O8  1  0.88704943  0.25000000  0.82418586  1
  O  O9  1  0.11295057  0.75000000  0.17581414  1
  O  O10  1  0.21360374  0.45730254  0.68989671  1
  O  O11  1  0.78639626  0.95730254  0.31010329  1
  O  O12  1  0.78639626  0.54269746  0.31010329  1
  O  O13  1  0.21360374  0.04269746  0.68989671  1
  O  O14  1  0.36007915  0.25000000  0.35852251  1
  O  O15  1  0.63992085  0.75000000  0.64147749  1
  O  O16  1  0.08200130  0.25000000  0.28593669  1
  O  O17  1  0.91799870  0.75000000  0.71406331  1
