# generated using pymatgen
data_Na2SrLa2Ti5O15
_symmetry_space_group_name_H-M   'P 1'
_cell_length_a   5.52378448
_cell_length_b   27.60898026
_cell_length_c   25.29605663
_cell_angle_alpha   10.90812267
_cell_angle_beta   57.09625962
_cell_angle_gamma   60.15724149
_symmetry_Int_Tables_number   1
_chemical_formula_structural   Na2SrLa2Ti5O15
_chemical_formula_sum   'Na4 Sr2 La4 Ti10 O30'
_cell_volume   597.16537751
_cell_formula_units_Z   2
loop_
 _symmetry_equiv_pos_site_id
 _symmetry_equiv_pos_as_xyz
  1  'x, y, z'
loop_
 _atom_site_type_symbol
 _atom_site_label
 _atom_site_symmetry_multiplicity
 _atom_site_fract_x
 _atom_site_fract_y
 _atom_site_fract_z
 _atom_site_occupancy
  Na  Na0  1  0.25359057  0.25210485  0.24744342  1
  Na  Na1  1  0.25308098  0.44764065  0.25224626  1
  Na  Na2  1  0.25232143  0.65034026  0.24799328  1
  Na  Na3  1  0.24671605  0.85095042  0.24842027  1
  Sr  Sr4  1  0.25151150  0.05002556  0.24991604  1
  Sr  Sr5  1  0.74976622  0.54904524  0.75049138  1
  La  La6  1  0.74551233  0.14775407  0.75125652  1
  La  La7  1  0.75125624  0.35388123  0.74444958  1
  La  La8  1  0.75276151  0.75170435  0.74917633  1
  La  La9  1  0.75282310  0.94789623  0.75143121  1
  Ti  Ti10  1  0.00113823  0.00059677  0.99722206  1
  Ti  Ti11  1  0.00427465  0.20540334  0.99215096  1
  Ti  Ti12  1  0.00009113  0.39881959  0.00208213  1
  Ti  Ti13  1  0.00587041  0.59840283  0.00100892  1
  Ti  Ti14  1  0.00032476  0.79734089  0.00127997  1
  Ti  Ti15  1  0.50428333  0.09707206  0.50332921  1
  Ti  Ti16  1  0.50028635  0.29639658  0.50270498  1
  Ti  Ti17  1  0.50083906  0.49700135  0.50187524  1
  Ti  Ti18  1  0.50398387  0.70210803  0.49548493  1
  Ti  Ti19  1  0.50107314  0.89980908  0.50115437  1
  O  O20  1  0.27839736  0.17595772  0.21769430  1
  O  O21  1  0.74726087  0.01328230  0.28762377  1
  O  O22  1  0.30166544  0.39682157  0.19325712  1
  O  O23  1  0.77975989  0.13455840  0.26159753  1
  O  O24  1  0.74590781  0.19866069  0.30328084  1
  O  O25  1  0.19152316  0.06448592  0.74683413  1
  O  O26  1  0.30564244  0.59711258  0.19200958  1
  O  O27  1  0.78794153  0.33984381  0.25348699  1
  O  O28  1  0.25757958  0.19492344  0.70491783  1
  O  O29  1  0.74799274  0.39654805  0.30415506  1
  O  O30  1  0.19677776  0.26268974  0.74851882  1
  O  O31  1  0.70309902  0.01480734  0.79405744  1
  O  O32  1  0.30538963  0.79366944  0.19627956  1
  O  O33  1  0.79563467  0.54198677  0.24898389  1
  O  O34  1  0.25910596  0.39468721  0.70469713  1
  O  O35  1  0.74755253  0.59663612  0.30326134  1
  O  O36  1  0.21877274  0.45177533  0.75638742  1
  O  O37  1  0.70972818  0.21630451  0.79159878  1
  O  O38  1  0.30225959  0.98938760  0.20101834  1
  O  O39  1  0.79951392  0.74313861  0.24713021  1
  O  O40  1  0.24847818  0.58091738  0.71989218  1
  O  O41  1  0.75218148  0.79959776  0.29960425  1
  O  O42  1  0.19530298  0.66135600  0.74911588  1
  O  O43  1  0.71858118  0.42176039  0.78361652  1
  O  O44  1  0.78836322  0.95236269  0.23833892  1
  O  O45  1  0.23724947  0.79063347  0.71123172  1
  O  O46  1  0.19344923  0.86439773  0.74638898  1
  O  O47  1  0.70808704  0.62263997  0.78789565  1
  O  O48  1  0.24318902  0.99536073  0.70550300  1
  O  O49  1  0.69946155  0.81546034  0.79525675  1
