# generated using pymatgen
data_BaLa2Mn3O9
_symmetry_space_group_name_H-M   'P 1'
_cell_length_a   16.79125210
_cell_length_b   14.78398789
_cell_length_c   14.78398814
_cell_angle_alpha   21.95083098
_cell_angle_beta   19.21565048
_cell_angle_gamma   19.21565222
_symmetry_Int_Tables_number   1
_chemical_formula_structural   BaLa2Mn3O9
_chemical_formula_sum   'Ba2 La4 Mn6 O18'
_cell_volume   375.17093475
_cell_formula_units_Z   2
loop_
 _symmetry_equiv_pos_site_id
 _symmetry_equiv_pos_as_xyz
  1  'x, y, z'
loop_
 _atom_site_type_symbol
 _atom_site_label
 _atom_site_symmetry_multiplicity
 _atom_site_fract_x
 _atom_site_fract_y
 _atom_site_fract_z
 _atom_site_occupancy
  Ba  Ba0  1  0.41666700  0.25000000  0.25000000  1
  Ba  Ba1  1  0.91666700  0.75000000  0.75000000  1
  La  La2  1  0.08203533  0.25129767  0.25129767  1
  La  La3  1  0.75129767  0.24870233  0.24870233  1
  La  La4  1  0.25129767  0.74870233  0.74870233  1
  La  La5  1  0.58203533  0.75129767  0.75129767  1
  Mn  Mn6  1  0.00005163  -0.00005163  -0.00005163  1
  Mn  Mn7  1  0.33328137  0.00005163  0.00005163  1
  Mn  Mn8  1  0.66666700  0.00000000  0.00000000  1
  Mn  Mn9  1  0.16666700  0.50000000  0.50000000  1
  Mn  Mn10  1  0.50005163  0.49994837  0.49994837  1
  Mn  Mn11  1  0.83328137  0.50005163  0.50005163  1
  O  O12  1  0.24896317  0.18882561  0.30563588  1
  O  O13  1  0.01454644  0.31117439  0.76418751  1
  O  O14  1  0.13135671  0.76418751  0.19436412  1
  O  O15  1  0.58436983  0.19436412  0.31117439  1
  O  O16  1  0.20197629  0.23581249  0.80563588  1
  O  O17  1  0.31878656  0.68882561  0.23581249  1
  O  O18  1  0.39579431  0.27087269  0.75000000  1
  O  O19  1  0.43753969  0.75000000  0.22912731  1
  O  O20  1  0.08436983  0.81117439  0.69436412  1
  O  O21  1  0.91666700  0.22912731  0.27087269  1
  O  O22  1  0.51454644  0.26418751  0.81117439  1
  O  O23  1  0.63135671  0.69436412  0.26418751  1
  O  O24  1  0.70197629  0.30563588  0.73581249  1
  O  O25  1  0.81878656  0.73581249  0.18882561  1
  O  O26  1  0.41666700  0.77087269  0.72912731  1
  O  O27  1  0.89579431  0.25000000  0.77087269  1
  O  O28  1  0.93753969  0.72912731  0.25000000  1
  O  O29  1  0.74896317  0.80563588  0.68882561  1
