# generated using pymatgen
data_Sr3La9Mn10(CuO18)2
_symmetry_space_group_name_H-M   'P 1'
_cell_length_a   5.50073229
_cell_length_b   5.50073275
_cell_length_c   33.01335976
_cell_angle_alpha   60.78586832
_cell_angle_beta   60.78586564
_cell_angle_gamma   60.75510468
_symmetry_Int_Tables_number   1
_chemical_formula_structural   Sr3La9Mn10(CuO18)2
_chemical_formula_sum   'Sr3 La9 Mn10 Cu2 O36'
_cell_volume   718.70192096
_cell_formula_units_Z   1
loop_
 _symmetry_equiv_pos_site_id
 _symmetry_equiv_pos_as_xyz
  1  'x, y, z'
loop_
 _atom_site_type_symbol
 _atom_site_label
 _atom_site_symmetry_multiplicity
 _atom_site_fract_x
 _atom_site_fract_y
 _atom_site_fract_z
 _atom_site_occupancy
  Sr  Sr0  1  0.24559692  0.24792637  0.04326180  1
  Sr  Sr1  1  0.25009250  0.24990750  0.20833300  1
  Sr  Sr2  1  0.25207363  0.25440308  0.37340520  1
  La  La3  1  0.74825487  0.74828658  0.12606573  1
  La  La4  1  0.25301579  0.24966125  0.54081122  1
  La  La5  1  0.75171342  0.75174513  0.29060127  1
  La  La6  1  0.25002337  0.24997663  0.70833300  1
  La  La7  1  0.75240838  0.75192891  0.45713719  1
  La  La8  1  0.25033875  0.24698421  0.87585578  1
  La  La9  1  0.75460872  0.75415517  0.62261066  1
  La  La10  1  0.74584483  0.74539128  0.79405634  1
  La  La11  1  0.74807109  0.74759162  0.95952881  1
  Mn  Mn12  1  0.99880742  0.99727689  0.00093706  1
  Mn  Mn13  1  0.00036339  0.99941842  0.16666741  1
  Mn  Mn14  1  0.00000639  0.00107382  0.33305215  1
  Mn  Mn15  1  0.49892618  0.49999361  0.08361385  1
  Mn  Mn16  1  0.50058158  0.49963661  0.24999959  1
  Mn  Mn17  1  0.00199584  0.99807950  0.66651984  1
  Mn  Mn18  1  0.50272311  0.50119258  0.41572994  1
  Mn  Mn19  1  0.50192050  0.49800416  0.75014716  1
  Mn  Mn20  1  0.99751896  0.00474492  0.49946310  1
  Mn  Mn21  1  0.49525508  0.50248104  0.91720390  1
  Cu  Cu22  1  0.50060870  0.49934751  0.58328018  1
  Cu  Cu23  1  0.00065249  0.99939130  0.83338582  1
  O  O24  1  0.19287070  0.75175205  0.05090852  1
  O  O25  1  0.30461085  0.19418914  0.12506528  1
  O  O26  1  0.24945374  0.71010665  0.13189091  1
  O  O27  1  0.75006949  0.30473383  0.03209142  1
  O  O28  1  0.19561427  0.74959006  0.21742422  1
  O  O29  1  0.70750058  0.79372162  0.04076147  1
  O  O30  1  0.30581086  0.19538915  0.29160172  1
  O  O31  1  0.79059662  0.24974255  0.11848293  1
  O  O32  1  0.25025745  0.70940338  0.29818407  1
  O  O33  1  0.75040994  0.30438573  0.19924278  1
  O  O34  1  0.19526617  0.74993051  0.38457458  1
  O  O35  1  0.70920831  0.79079169  0.20833300  1
  O  O36  1  0.30797494  0.19043299  0.45994567  1
  O  O37  1  0.78989335  0.25054626  0.28477509  1
  O  O38  1  0.24702272  0.69295625  0.46821148  1
  O  O39  1  0.74824795  0.30712930  0.36575848  1
  O  O40  1  0.18311772  0.75935174  0.55006680  1
  O  O41  1  0.70627838  0.79249942  0.37590553  1
  O  O42  1  0.30771294  0.17618841  0.62737857  1
  O  O43  1  0.79485214  0.24980683  0.45075837  1
  O  O44  1  0.23978687  0.69130669  0.63724975  1
  O  O45  1  0.76188572  0.30814518  0.52975736  1
  O  O46  1  0.18291222  0.74943383  0.71974960  1
  O  O47  1  0.69500450  0.81976700  0.54049656  1
  O  O48  1  0.32381159  0.19228706  0.78928843  1
  O  O49  1  0.82182824  0.23847882  0.61580508  1
  O  O50  1  0.26152118  0.67817176  0.80086192  1
  O  O51  1  0.75056617  0.31708778  0.69691740  1
  O  O52  1  0.19185482  0.73811428  0.88690864  1
  O  O53  1  0.68627912  0.81372088  0.70833300  1
  O  O54  1  0.30956701  0.19202506  0.95672033  1
  O  O55  1  0.80869331  0.26021313  0.77941625  1
  O  O56  1  0.25019317  0.70514786  0.96590863  1
  O  O57  1  0.74064826  0.31688228  0.86660020  1
  O  O58  1  0.68023300  0.80499550  0.87617044  1
  O  O59  1  0.80704375  0.25297728  0.94845552  1
