# generated using pymatgen
data_U2CuAs2(HO)24
_symmetry_space_group_name_H-M   'P 1'
_cell_length_a   7.22006145
_cell_length_b   7.22006145
_cell_length_c   21.13694582
_cell_angle_alpha   90.00000000
_cell_angle_beta   90.00000000
_cell_angle_gamma   90.00000000
_symmetry_Int_Tables_number   1
_chemical_formula_structural   U2CuAs2(HO)24
_chemical_formula_sum   'U4 Cu2 As4 H48 O48'
_cell_volume   1101.85392218
_cell_formula_units_Z   2
loop_
 _symmetry_equiv_pos_site_id
 _symmetry_equiv_pos_as_xyz
  1  'x, y, z'
loop_
 _atom_site_type_symbol
 _atom_site_label
 _atom_site_symmetry_multiplicity
 _atom_site_fract_x
 _atom_site_fract_y
 _atom_site_fract_z
 _atom_site_occupancy
  U  U0  1  0.75000000  0.75000000  0.54543875  1
  U  U1  1  0.75000000  0.75000000  0.95456125  1
  U  U2  1  0.25000000  0.25000000  0.45456125  1
  U  U3  1  0.25000000  0.25000000  0.04543875  1
  Cu  Cu4  1  0.75000000  0.75000000  0.75000000  1
  Cu  Cu5  1  0.25000000  0.25000000  0.25000000  1
  As  As6  1  0.25000000  0.75000000  0.50000000  1
  As  As7  1  0.25000000  0.75000000  0.00000000  1
  As  As8  1  0.75000000  0.25000000  0.50000000  1
  As  As9  1  0.75000000  0.25000000  0.00000000  1
  H  H10  1  0.09458943  0.40442515  0.66538597  1
  H  H11  1  0.40541057  0.09557485  0.66538597  1
  H  H12  1  0.40541057  0.40442515  0.83461403  1
  H  H13  1  0.09458943  0.09557485  0.83461403  1
  H  H14  1  0.90541057  0.59557485  0.33461403  1
  H  H15  1  0.59458943  0.90442515  0.33461403  1
  H  H16  1  0.59458943  0.59557485  0.16538597  1
  H  H17  1  0.90541057  0.90442515  0.16538597  1
  H  H18  1  0.40442515  0.09458943  0.83461403  1
  H  H19  1  0.09557485  0.40541057  0.83461403  1
  H  H20  1  0.40442515  0.40541057  0.66538597  1
  H  H21  1  0.09557485  0.09458943  0.66538597  1
  H  H22  1  0.59557485  0.90541057  0.16538597  1
  H  H23  1  0.90442515  0.59458943  0.16538597  1
  H  H24  1  0.59557485  0.59458943  0.33461403  1
  H  H25  1  0.90442515  0.90541057  0.33461403  1
  H  H26  1  0.14603540  0.58065954  0.62570058  1
  H  H27  1  0.35396460  0.91934046  0.62570058  1
  H  H28  1  0.35396460  0.58065954  0.87429942  1
  H  H29  1  0.14603540  0.91934046  0.87429942  1
  H  H30  1  0.85396460  0.41934046  0.37429942  1
  H  H31  1  0.64603540  0.08065954  0.37429942  1
  H  H32  1  0.64603540  0.41934046  0.12570058  1
  H  H33  1  0.85396460  0.08065954  0.12570058  1
  H  H34  1  0.58065954  0.14603540  0.87429942  1
  H  H35  1  0.91934046  0.35396460  0.87429942  1
  H  H36  1  0.58065954  0.35396460  0.62570058  1
  H  H37  1  0.91934046  0.14603540  0.62570058  1
  H  H38  1  0.41934046  0.85396460  0.12570058  1
  H  H39  1  0.08065954  0.64603540  0.12570058  1
  H  H40  1  0.41934046  0.64603540  0.37429942  1
  H  H41  1  0.08065954  0.85396460  0.37429942  1
  H  H42  1  0.09186130  0.66678418  0.72156841  1
  H  H43  1  0.40813870  0.83321582  0.72156841  1
  H  H44  1  0.40813870  0.66678418  0.77843159  1
  H  H45  1  0.09186130  0.83321582  0.77843159  1
  H  H46  1  0.90813870  0.33321582  0.27843159  1
  H  H47  1  0.59186130  0.16678418  0.27843159  1
  H  H48  1  0.59186130  0.33321582  0.22156841  1
  H  H49  1  0.90813870  0.16678418  0.22156841  1
  H  H50  1  0.66678418  0.09186130  0.77843159  1
  H  H51  1  0.83321582  0.40813870  0.77843159  1
  H  H52  1  0.66678418  0.40813870  0.72156841  1
  H  H53  1  0.83321582  0.09186130  0.72156841  1
  H  H54  1  0.33321582  0.90813870  0.22156841  1
  H  H55  1  0.16678418  0.59186130  0.22156841  1
  H  H56  1  0.33321582  0.59186130  0.27843159  1
  H  H57  1  0.16678418  0.90813870  0.27843159  1
  O  O58  1  0.75000000  0.75000000  0.63140334  1
  O  O59  1  0.75000000  0.75000000  0.86859666  1
  O  O60  1  0.25000000  0.25000000  0.36859666  1
  O  O61  1  0.25000000  0.25000000  0.13140334  1
  O  O62  1  0.75000000  0.75000000  0.45945122  1
  O  O63  1  0.75000000  0.75000000  0.04054878  1
  O  O64  1  0.25000000  0.25000000  0.54054878  1
  O  O65  1  0.25000000  0.25000000  0.95945122  1
  O  O66  1  0.01934678  0.75000000  0.75000000  1
  O  O67  1  0.48065322  0.75000000  0.75000000  1
  O  O68  1  0.98065322  0.25000000  0.25000000  1
  O  O69  1  0.51934678  0.25000000  0.25000000  1
  O  O70  1  0.75000000  0.01934678  0.75000000  1
  O  O71  1  0.75000000  0.48065322  0.75000000  1
  O  O72  1  0.25000000  0.98065322  0.25000000  1
  O  O73  1  0.25000000  0.51934678  0.25000000  1
  O  O74  1  0.06689108  0.70638100  0.55010577  1
  O  O75  1  0.43310892  0.79361900  0.55010577  1
  O  O76  1  0.43310892  0.70638100  0.94989423  1
  O  O77  1  0.06689108  0.79361900  0.94989423  1
  O  O78  1  0.93310892  0.29361900  0.44989423  1
  O  O79  1  0.56689108  0.20638100  0.44989423  1
  O  O80  1  0.56689108  0.29361900  0.05010577  1
  O  O81  1  0.93310892  0.20638100  0.05010577  1
  O  O82  1  0.70638100  0.06689108  0.94989423  1
  O  O83  1  0.79361900  0.43310892  0.94989423  1
  O  O84  1  0.70638100  0.43310892  0.55010577  1
  O  O85  1  0.79361900  0.06689108  0.55010577  1
  O  O86  1  0.29361900  0.93310892  0.05010577  1
  O  O87  1  0.20638100  0.56689108  0.05010577  1
  O  O88  1  0.29361900  0.56689108  0.44989423  1
  O  O89  1  0.20638100  0.93310892  0.44989423  1
  O  O90  1  0.17617636  0.51567876  0.66563109  1
  O  O91  1  0.32382364  0.98432124  0.66563109  1
  O  O92  1  0.32382364  0.51567876  0.83436891  1
  O  O93  1  0.17617636  0.98432124  0.83436891  1
  O  O94  1  0.82382364  0.48432124  0.33436891  1
  O  O95  1  0.67617636  0.01567876  0.33436891  1
  O  O96  1  0.67617636  0.48432124  0.16563109  1
  O  O97  1  0.82382364  0.01567876  0.16563109  1
  O  O98  1  0.51567876  0.17617636  0.83436891  1
  O  O99  1  0.98432124  0.32382364  0.83436891  1
  O  O100  1  0.51567876  0.32382364  0.66563109  1
  O  O101  1  0.98432124  0.17617636  0.66563109  1
  O  O102  1  0.48432124  0.82382364  0.16563109  1
  O  O103  1  0.01567876  0.67617636  0.16563109  1
  O  O104  1  0.48432124  0.67617636  0.33436891  1
  O  O105  1  0.01567876  0.82382364  0.33436891  1
