# generated using pymatgen
data_Ga2NiO4
_symmetry_space_group_name_H-M   'P 1'
_cell_length_a   5.91552853
_cell_length_b   5.97109560
_cell_length_c   23.69271088
_cell_angle_alpha   59.73202938
_cell_angle_beta   59.68868904
_cell_angle_gamma   59.68877599
_symmetry_Int_Tables_number   1
_chemical_formula_structural   Ga2NiO4
_chemical_formula_sum   'Ga16 Ni8 O32'
_cell_volume   587.77220234
_cell_formula_units_Z   8
loop_
 _symmetry_equiv_pos_site_id
 _symmetry_equiv_pos_as_xyz
  1  'x, y, z'
loop_
 _atom_site_type_symbol
 _atom_site_label
 _atom_site_symmetry_multiplicity
 _atom_site_fract_x
 _atom_site_fract_y
 _atom_site_fract_z
 _atom_site_occupancy
  Ga  Ga0  1  0.26327979  0.24547455  0.06144278  1
  Ga  Ga1  1  0.62342100  0.11943638  0.15812740  1
  Ga  Ga2  1  0.63033213  0.62867591  0.02807901  1
  Ga  Ga3  1  0.25720515  0.24116589  0.31511577  1
  Ga  Ga4  1  0.62342100  0.62463303  0.15812740  1
  Ga  Ga5  1  0.98736925  0.00538064  0.25046737  1
  Ga  Ga6  1  0.62354199  0.12435859  0.40698572  1
  Ga  Ga7  1  0.25767200  0.24162728  0.56476836  1
  Ga  Ga8  1  0.99380592  0.00977384  0.74666160  1
  Ga  Ga9  1  0.62354199  0.62415656  0.40698572  1
  Ga  Ga10  1  0.62478806  0.12517332  0.65622034  1
  Ga  Ga11  1  0.99079173  0.00776191  0.49842111  1
  Ga  Ga12  1  0.25864252  0.24135620  0.81466127  1
  Ga  Ga13  1  0.62478806  0.62515728  0.65622034  1
  Ga  Ga14  1  0.62933542  0.12440019  0.90467447  1
  Ga  Ga15  1  0.62933542  0.62756650  0.90467447  1
  Ni  Ni16  1  0.99333695  0.00253981  0.00039586  1
  Ni  Ni17  1  0.12085869  0.62387208  0.15784929  1
  Ni  Ni18  1  0.12432004  0.62434874  0.40674562  1
  Ni  Ni19  1  0.62391654  0.62423072  0.28190551  1
  Ni  Ni20  1  0.12527352  0.62524523  0.65605900  1
  Ni  Ni21  1  0.62484972  0.62483124  0.53137195  1
  Ni  Ni22  1  0.12589722  0.62750651  0.90477244  1
  Ni  Ni23  1  0.62583568  0.62535692  0.78086262  1
  O  O24  1  0.39094969  0.37979902  0.09449358  1
  O  O25  1  0.39088120  0.37537940  0.21459000  1
  O  O26  1  0.39094969  0.85127699  0.09449358  1
  O  O27  1  0.85797890  0.38116743  0.09492156  1
  O  O28  1  0.38179208  0.87504250  0.21703073  1
  O  O29  1  0.38730122  0.37042715  0.34701226  1
  O  O30  1  0.38827126  0.37583245  0.46501596  1
  O  O31  1  0.86265501  0.39082662  0.21699594  1
  O  O32  1  0.38730122  0.85422258  0.34701226  1
  O  O33  1  0.84378967  0.86758835  0.10525841  1
  O  O34  1  0.86265501  0.87853463  0.21699594  1
  O  O35  1  0.85959786  0.37580020  0.34720044  1
  O  O36  1  0.38920283  0.87423784  0.46558037  1
  O  O37  1  0.38777940  0.37088097  0.59670220  1
  O  O38  1  0.38859662  0.37599427  0.71485371  1
  O  O39  1  0.86231623  0.39519677  0.46575482  1
  O  O40  1  0.38777940  0.85453084  0.59670220  1
  O  O41  1  0.85871322  0.87228111  0.34918114  1
  O  O42  1  0.86231623  0.87946773  0.46575482  1
  O  O43  1  0.85975842  0.37619038  0.59696521  1
  O  O44  1  0.39207165  0.87466727  0.71464845  1
  O  O45  1  0.38886806  0.37114489  0.84635747  1
  O  O46  1  0.86304781  0.39722753  0.71499496  1
  O  O47  1  0.38984597  0.37761722  0.96372990  1
  O  O48  1  0.38886806  0.85455716  0.84635747  1
  O  O49  1  0.86173132  0.87435577  0.59738928  1
  O  O50  1  0.86304781  0.87974484  0.71499496  1
  O  O51  1  0.86088957  0.37540823  0.84707349  1
  O  O52  1  0.40749452  0.86835710  0.96394782  1
  O  O53  1  0.85552762  0.40950344  0.96584541  1
  O  O54  1  0.86693503  0.87712271  0.84470489  1
  O  O55  1  0.85552762  0.87158730  0.96584541  1
