# generated using pymatgen
data_La17Mn18O54
_symmetry_space_group_name_H-M   'P 1'
_cell_length_a   16.62986682
_cell_length_b   19.94723166
_cell_length_c   13.48757656
_cell_angle_alpha   25.44793224
_cell_angle_beta   35.77503140
_cell_angle_gamma   46.71009588
_symmetry_Int_Tables_number   1
_chemical_formula_structural   La17Mn18O54
_chemical_formula_sum   'La17 Mn18 O54'
_cell_volume   1104.11644203
_cell_formula_units_Z   1
loop_
 _symmetry_equiv_pos_site_id
 _symmetry_equiv_pos_as_xyz
  1  'x, y, z'
loop_
 _atom_site_type_symbol
 _atom_site_label
 _atom_site_symmetry_multiplicity
 _atom_site_fract_x
 _atom_site_fract_y
 _atom_site_fract_z
 _atom_site_occupancy
  La  La0  1  0.22050820  0.33327912  0.25212343  1
  La  La1  1  0.11079261  0.66878157  0.24834450  1
  La  La2  1  0.21574473  0.32387837  0.76205556  1
  La  La3  1  0.55592928  0.32823587  0.25750802  1
  La  La4  1  0.10622076  0.67538016  0.73576771  1
  La  La5  1  0.44378529  0.66468116  0.25212713  1
  La  La6  1  0.99956759  0.00077934  0.74892834  1
  La  La7  1  0.33371734  0.00037752  0.24722725  1
  La  La8  1  0.55650825  0.33336800  0.74859798  1
  La  La9  1  0.89060993  0.33734072  0.24141286  1
  La  La10  1  0.44405578  0.66660579  0.75142207  1
  La  La11  1  0.77908514  0.66675582  0.24854966  1
  La  La12  1  0.32417540  0.00139769  0.76458148  1
  La  La13  1  0.66662026  0.00109971  0.25050172  1
  La  La14  1  0.89136743  0.32352126  0.76823233  1
  La  La15  1  0.78494198  0.67425275  0.73844143  1
  La  La16  1  0.67604699  0.00022670  0.73366673  1
  Mn  Mn17  1  0.99994213  0.00023484  0.00166264  1
  Mn  Mn18  1  0.33239143  0.00039431  0.00058682  1
  Mn  Mn19  1  0.22242893  0.33476814  0.99744763  1
  Mn  Mn20  1  0.11090693  0.66564748  0.00140643  1
  Mn  Mn21  1  0.66677532  0.99962669  1.00004503  1
  Mn  Mn22  1  0.22231828  0.33110677  0.50270065  1
  Mn  Mn23  1  0.55520251  0.33378934  0.99926327  1
  Mn  Mn24  1  0.11036038  0.66629787  0.50035482  1
  Mn  Mn25  1  0.44472427  0.66681192  0.00009465  1
  Mn  Mn26  1  0.00004342  0.00023251  0.49808479  1
  Mn  Mn27  1  0.55597752  0.33450932  0.49867856  1
  Mn  Mn28  1  0.88833268  0.33064662  0.00397476  1
  Mn  Mn29  1  0.44393482  0.66803218  0.49770508  1
  Mn  Mn30  1  0.77934719  0.66793708  0.99686745  1
  Mn  Mn31  1  0.33354573  0.00055771  0.49923738  1
  Mn  Mn32  1  0.88891885  0.33371763  0.50035428  1
  Mn  Mn33  1  0.77729009  0.66562931  0.50265367  1
  Mn  Mn34  1  0.66761730  0.99964732  0.49935832  1
  O  O35  1  0.14121517  0.14599706  0.24977650  1
  O  O36  1  0.04726242  0.28950290  0.31581268  1
  O  O37  1  0.02984004  0.47832500  0.24804291  1
  O  O38  1  0.31465285  0.19168487  0.18035792  1
  O  O39  1  0.17483385  0.04316632  0.68220209  1
  O  O40  1  0.09165852  0.19848902  0.71571471  1
  O  O41  1  0.20438465  0.52445546  0.17930499  1
  O  O42  1  0.47420158  0.14613993  0.24540902  1
  O  O43  1  0.06363785  0.37881043  0.68085393  1
  O  O44  1  0.38166710  0.29184866  0.30973603  1
  O  O45  1  0.26479518  0.15829423  0.77414118  1
  O  O46  1  0.09469865  0.84078403  0.19002814  1
  O  O47  1  0.36652550  0.48265678  0.23877973  1
  O  O48  1  0.64528481  0.18689529  0.18782854  1
  O  O49  1  0.27244684  0.61461535  0.32388282  1
  O  O50  1  0.50693338  0.03854203  0.69176693  1
  O  O51  1  0.13234901  0.47676737  0.81323279  1
  O  O52  1  0.41907249  0.19201307  0.74285379  1
  O  O53  1  0.25099361  0.80668493  0.25579264  1
  O  O54  1  0.54233284  0.52639423  0.17364940  1
  O  O55  1  0.78841239  0.15855616  0.25036294  1
  O  O56  1  0.17390309  0.95942638  0.30805825  1
  O  O57  1  0.39799304  0.37682289  0.68431699  1
  O  O58  1  0.71547996  0.29136091  0.31534755  1
  O  O59  1  0.01976264  0.81147560  0.81771457  1
  O  O60  1  0.29941861  0.52706465  0.74540422  1
  O  O61  1  0.57432041  0.14632410  0.81550871  1
  O  O62  1  0.43183826  0.85689350  0.17491293  1
  O  O63  1  0.69292303  0.47656087  0.25760060  1
  O  O64  1  0.97383051  0.19899554  0.18834461  1
  O  O65  1  0.28846828  0.71276147  0.67840760  1
  O  O66  1  0.59905657  0.62049806  0.32238187  1
  O  O67  1  0.84061314  0.04360957  0.68722744  1
  O  O68  1  0.19228960  0.85627463  0.74982774  1
  O  O69  1  0.46215727  0.47967456  0.81312865  1
  O  O70  1  0.74786104  0.18811985  0.75277210  1
  O  O71  1  0.58547268  0.81000619  0.25174230  1
  O  O72  1  0.86686899  0.52115400  0.19132041  1
  O  O73  1  0.49206517  0.95479016  0.31776785  1
  O  O74  1  0.72825222  0.37718138  0.68592888  1
  O  O75  1  0.35241590  0.80999288  0.81686227  1
  O  O76  1  0.63518173  0.52157985  0.75472234  1
  O  O77  1  0.90900499  0.14565570  0.81177568  1
  O  O78  1  0.75917659  0.85335037  0.18575676  1
  O  O79  1  0.61662240  0.71426965  0.68145313  1
  O  O80  1  0.93615743  0.61695040  0.32518993  1
  O  O81  1  0.51752463  0.85364237  0.76272716  1
  O  O82  1  0.79714384  0.48063861  0.81371383  1
  O  O83  1  0.91769469  0.81305086  0.24591541  1
  O  O84  1  0.81144195  0.95821290  0.31658897  1
  O  O85  1  0.68427266  0.80920991  0.81922195  1
  O  O86  1  0.97357104  0.52337287  0.74265235  1
  O  O87  1  0.94738741  0.68089366  0.72822468  1
  O  O88  1  0.85289673  0.84001397  0.78798810  1
