# generated using pymatgen
data_Li9Mn20O40
_symmetry_space_group_name_H-M   'P 1'
_cell_length_a   30.08485200
_cell_length_b   16.05192317
_cell_length_c   10.20041991
_cell_angle_alpha   29.54364772
_cell_angle_beta   30.04129177
_cell_angle_gamma   18.47791664
_symmetry_Int_Tables_number   1
_chemical_formula_structural   Li9Mn20O40
_chemical_formula_sum   'Li9 Mn20 O40'
_cell_volume   743.47771912
_cell_formula_units_Z   1
loop_
 _symmetry_equiv_pos_site_id
 _symmetry_equiv_pos_as_xyz
  1  'x, y, z'
loop_
 _atom_site_type_symbol
 _atom_site_label
 _atom_site_symmetry_multiplicity
 _atom_site_fract_x
 _atom_site_fract_y
 _atom_site_fract_z
 _atom_site_occupancy
  Li  Li0  1  0.15381008  0.11808852  0.12551788  1
  Li  Li1  1  0.35478538  0.10675183  0.13377690  1
  Li  Li2  1  0.54496752  0.12501162  0.13474012  1
  Li  Li3  1  0.04734095  0.87948744  0.87863453  1
  Li  Li4  1  0.74807744  0.12886251  0.12250838  1
  Li  Li5  1  0.24812851  0.88300629  0.87250288  1
  Li  Li6  1  0.45125299  0.88317755  0.86168005  1
  Li  Li7  1  0.64724399  0.88387637  0.87172467  1
  Li  Li8  1  0.84921886  0.87584983  0.87327596  1
  Mn  Mn9  1  -0.00013273  0.50531361  0.49304806  1
  Mn  Mn10  1  0.10366704  0.48650806  0.50628306  1
  Mn  Mn11  1  0.19707314  0.49986789  0.50364333  1
  Mn  Mn12  1  0.10004896  0.50449711  0.99254721  1
  Mn  Mn13  1  0.00029126  0.00589938  0.49393609  1
  Mn  Mn14  1  0.30169999  0.49203591  0.50423735  1
  Mn  Mn15  1  0.39747204  0.50417350  0.49913488  1
  Mn  Mn16  1  0.29270937  0.51084289  0.00193248  1
  Mn  Mn17  1  0.20204163  0.00787188  0.48670657  1
  Mn  Mn18  1  0.49722505  0.50363358  0.50174135  1
  Mn  Mn19  1  0.60376303  0.49029496  0.50408846  1
  Mn  Mn20  1  0.40148082  0.99455531  0.50077899  1
  Mn  Mn21  1  0.50172131  0.49417096  0.00065416  1
  Mn  Mn22  1  0.69695151  0.51401940  0.49031053  1
  Mn  Mn23  1  0.80015955  0.50565434  0.49600212  1
  Mn  Mn24  1  0.59678447  -0.00066888  0.50923796  1
  Mn  Mn25  1  0.70339360  0.48913969  0.00557877  1
  Mn  Mn26  1  0.89785434  0.50740642  0.49746851  1
  Mn  Mn27  1  0.89832277  0.50785254  0.00190579  1
  Mn  Mn28  1  0.79386249  0.00173163  0.51063936  1
  O  O29  1  0.09853170  0.27236923  0.24370105  1
  O  O30  1  0.00820913  0.27950762  0.68602838  1
  O  O31  1  0.18612518  0.26056967  0.26016178  1
  O  O32  1  0.08167426  0.29651465  0.73503651  1
  O  O33  1  0.29270496  0.24630448  0.28392733  1
  O  O34  1  0.20712324  0.24256890  0.72177101  1
  O  O35  1  0.11307599  0.69047573  0.28605778  1
  O  O36  1  0.38246024  0.25264544  0.27428022  1
  O  O37  1  0.01691748  0.72353427  0.75140833  1
  O  O38  1  0.28520230  0.29389225  0.73011791  1
  O  O39  1  0.19656874  0.74192419  0.28420220  1
  O  O40  1  0.10791425  0.72193049  0.75009277  1
  O  O41  1  0.49167891  0.24657181  0.28930505  1
  O  O42  1  0.40562721  0.24619438  0.72552666  1
  O  O43  1  0.31210849  0.69949728  0.28212162  1
  O  O44  1  0.58627166  0.24335988  0.27903418  1
  O  O45  1  0.20803900  0.77168988  0.71273573  1
  O  O46  1  0.47929690  0.30856684  0.72653430  1
  O  O47  1  0.39398531  0.75342486  0.27581473  1
  O  O48  1  0.30375077  0.75922902  0.71267751  1
  O  O49  1  0.69065035  0.24491853  0.29561099  1
  O  O50  1  0.60281273  0.25065910  0.72430843  1
  O  O51  1  0.51725143  0.69481496  0.27613304  1
  O  O52  1  0.78602680  0.23337319  0.29016189  1
  O  O53  1  0.41416990  0.74890884  0.72714346  1
  O  O54  1  0.68389560  0.28163205  0.74686112  1
  O  O55  1  0.59109215  0.75290737  0.27877250  1
  O  O56  1  0.50152587  0.75654245  0.72064281  1
  O  O57  1  0.89437945  0.28981761  0.23916081  1
  O  O58  1  0.71985954  0.72609444  0.24321491  1
  O  O59  1  0.80313640  0.28308614  0.69786058  1
  O  O60  1  0.98028437  0.29012468  0.24664148  1
  O  O61  1  0.61514327  0.74562484  0.72872921  1
  O  O62  1  0.88312804  0.28330289  0.74304774  1
  O  O63  1  0.79209323  0.73593754  0.29643491  1
  O  O64  1  0.70215445  0.75343480  0.72422595  1
  O  O65  1  0.92224392  0.72091745  0.23894962  1
  O  O66  1  0.81555395  0.74021020  0.73701389  1
  O  O67  1  0.99308402  0.73129142  0.29939628  1
  O  O68  1  0.90561745  0.73316951  0.73882396  1
