# generated using pymatgen
data_Na2AlFeF7
_symmetry_space_group_name_H-M   'P 1'
_cell_length_a   7.28553495
_cell_length_b   7.28553493
_cell_length_c   24.52441580
_cell_angle_alpha   89.99358275
_cell_angle_beta   98.71357163
_cell_angle_gamma   119.36803953
_symmetry_Int_Tables_number   1
_chemical_formula_structural   Na2AlFeF7
_chemical_formula_sum   'Na16 Al8 Fe8 F56'
_cell_volume   1117.18362472
_cell_formula_units_Z   8
loop_
 _symmetry_equiv_pos_site_id
 _symmetry_equiv_pos_as_xyz
  1  'x, y, z'
loop_
 _atom_site_type_symbol
 _atom_site_label
 _atom_site_symmetry_multiplicity
 _atom_site_fract_x
 _atom_site_fract_y
 _atom_site_fract_z
 _atom_site_occupancy
  Na  Na0  1  0.74245427  0.11693218  0.87840999  1
  Na  Na1  1  0.50000000  0.50000000  0.00000000  1
  Na  Na2  1  0.26147781  0.13595572  0.37840999  1
  Na  Na3  1  0.95162942  0.69919344  0.74744727  1
  Na  Na4  1  0.25754573  0.88306782  0.12159001  1
  Na  Na5  1  0.04282255  0.79282255  0.25000000  1
  Na  Na6  1  0.54825383  0.79581785  0.24744727  1
  Na  Na7  1  0.00000000  0.00000000  0.00000000  1
  Na  Na8  1  0.04837058  0.30080656  0.25255273  1
  Na  Na9  1  0.50000000  0.00000000  0.50000000  1
  Na  Na10  1  0.45174617  0.20418215  0.75255273  1
  Na  Na11  1  0.50000000  0.50000000  0.50000000  1
  Na  Na12  1  0.00000000  0.50000000  0.50000000  1
  Na  Na13  1  0.50000000  0.00000000  0.00000000  1
  Na  Na14  1  0.73852219  0.86404428  0.62159001  1
  Na  Na15  1  0.95717745  0.20717745  0.75000000  1
  Al  Al16  1  0.49981763  0.74981763  0.75000000  1
  Al  Al17  1  0.50018237  0.25018237  0.25000000  1
  Al  Al18  1  0.73416159  0.36115689  0.62586356  1
  Al  Al19  1  0.76470667  0.89170197  0.12586356  1
  Al  Al20  1  0.26583841  0.63884311  0.37413644  1
  Al  Al21  1  0.00000000  0.50000000  0.00000000  1
  Al  Al22  1  0.00000000  0.00000000  0.50000000  1
  Al  Al23  1  0.23529333  0.10829803  0.87413644  1
  Fe  Fe24  1  0.76370332  0.13654823  0.37409333  1
  Fe  Fe25  1  0.76082935  0.38822925  0.12770458  1
  Fe  Fe26  1  0.26245490  0.38960999  0.12590667  1
  Fe  Fe27  1  0.23947532  0.36687523  0.62770458  1
  Fe  Fe28  1  0.23917065  0.61177075  0.87229542  1
  Fe  Fe29  1  0.23629668  0.86345177  0.62590667  1
  Fe  Fe30  1  0.73754510  0.61039001  0.87409333  1
  Fe  Fe31  1  0.76052468  0.63312477  0.37229542  1
  F  F32  1  0.64009181  0.00363474  0.79053784  1
  F  F33  1  0.28690311  0.15044603  0.29053784  1
  F  F34  1  0.64700102  0.50999310  0.28998444  1
  F  F35  1  0.13646230  0.29257750  0.85980010  1
  F  F36  1  0.65059914  0.14770968  0.29255196  1
  F  F37  1  0.53977143  0.45072686  0.61211073  1
  F  F38  1  0.15384777  0.77855340  0.03053794  1
  F  F39  1  0.18986257  0.57184949  0.95340892  1
  F  F40  1  0.35515772  0.35804718  0.20744804  1
  F  F41  1  0.81013743  0.42815051  0.04659108  1
  F  F42  1  0.46279703  0.91932577  0.38914729  1
  F  F43  1  0.11455361  0.86966017  0.54471923  1
  F  F44  1  0.06722260  0.72333780  0.35980010  1
  F  F45  1  0.93277740  0.27666220  0.64019990  1
  F  F46  1  0.30515425  0.64799214  0.59124137  1
  F  F47  1  0.66138387  0.07233930  0.11211073  1
  F  F48  1  0.69484575  0.35200786  0.40875863  1
  F  F49  1  0.91968992  0.50989853  0.83870694  1
  F  F50  1  0.15196207  0.02137322  0.79958956  1
  F  F51  1  0.06618596  0.35773673  0.35942863  1
  F  F52  1  0.93381404  0.64226327  0.64057137  1
  F  F53  1  0.24801547  0.12330983  0.46946206  1
  F  F54  1  0.71309689  0.84955397  0.70946216  1
  F  F55  1  0.35990819  0.99636526  0.20946216  1
  F  F56  1  0.72000866  0.35701657  0.21001556  1
  F  F57  1  0.08031008  0.49010147  0.16129306  1
  F  F58  1  0.88544639  0.13033983  0.45528077  1
  F  F59  1  0.17119159  0.08098298  0.66129306  1
  F  F60  1  0.33861613  0.92766070  0.88788927  1
  F  F61  1  0.03017848  0.07364974  0.11085271  1
  F  F62  1  0.84803793  0.97862678  0.20041044  1
  F  F63  1  0.55675077  0.71391288  0.90875863  1
  F  F64  1  0.35299898  0.49000690  0.71001556  1
  F  F65  1  0.72178366  0.35237251  0.70041044  1
  F  F66  1  0.31699300  0.19152600  0.94879124  1
  F  F67  1  0.46022857  0.54927314  0.38788927  1
  F  F68  1  0.82880841  0.91901702  0.33870694  1
  F  F69  1  0.86353770  0.70742250  0.14019990  1
  F  F70  1  0.88155943  0.76354636  0.45340892  1
  F  F71  1  0.27821634  0.64762749  0.29958956  1
  F  F72  1  0.50169190  0.29324267  0.85942863  1
  F  F73  1  0.64484228  0.64195282  0.79255196  1
  F  F74  1  0.75198453  0.87669017  0.53053794  1
  F  F75  1  0.82494093  0.56983437  0.95528077  1
  F  F76  1  0.84615223  0.22144660  0.96946206  1
  F  F77  1  0.34940086  0.85229032  0.70744804  1
  F  F78  1  0.49830810  0.70675733  0.14057137  1
  F  F79  1  0.44324923  0.28608712  0.09124137  1
  F  F80  1  0.17505907  0.43016563  0.04471923  1
  F  F81  1  0.25726524  0.63179824  0.44879124  1
  F  F82  1  0.27999134  0.64298343  0.78998444  1
  F  F83  1  0.74273476  0.36820176  0.55120876  1
  F  F84  1  0.53720297  0.08067423  0.61085271  1
  F  F85  1  0.96982152  0.92635026  0.88914729  1
  F  F86  1  0.68300700  0.80847400  0.05120876  1
  F  F87  1  0.11844057  0.23645364  0.54659108  1
