# generated using pymatgen
data_Li10Si(PSe6)2
_symmetry_space_group_name_H-M   'P 1'
_cell_length_a   9.27420994
_cell_length_b   9.27420994
_cell_length_c   13.29230078
_cell_angle_alpha   90.00000000
_cell_angle_beta   90.00000000
_cell_angle_gamma   90.00000000
_symmetry_Int_Tables_number   1
_chemical_formula_structural   Li10Si(PSe6)2
_chemical_formula_sum   'Li20 Si2 P4 Se24'
_cell_volume   1143.28368377
_cell_formula_units_Z   2
loop_
 _symmetry_equiv_pos_site_id
 _symmetry_equiv_pos_as_xyz
  1  'x, y, z'
loop_
 _atom_site_type_symbol
 _atom_site_label
 _atom_site_symmetry_multiplicity
 _atom_site_fract_x
 _atom_site_fract_y
 _atom_site_fract_z
 _atom_site_occupancy
  Li  Li0  1  0.23179217  0.77389896  0.29528060  1
  Li  Li1  1  0.76820783  0.22610104  0.29528060  1
  Li  Li2  1  0.27389896  0.26820783  0.79528060  1
  Li  Li3  1  0.72610104  0.73179217  0.79528060  1
  Li  Li4  1  0.23179217  0.22610104  0.29528060  1
  Li  Li5  1  0.76820783  0.77389896  0.29528060  1
  Li  Li6  1  0.27389896  0.73179217  0.79528060  1
  Li  Li7  1  0.72610104  0.26820783  0.79528060  1
  Li  Li8  1  0.00000000  0.50000000  0.94129829  1
  Li  Li9  1  0.00000000  0.50000000  0.44129829  1
  Li  Li10  1  0.50000000  0.00000000  0.54658311  1
  Li  Li11  1  0.50000000  0.00000000  0.04658311  1
  Li  Li12  1  0.25947583  0.22675926  0.03487293  1
  Li  Li13  1  0.74052417  0.77324074  0.03487293  1
  Li  Li14  1  0.27324074  0.75947583  0.53487293  1
  Li  Li15  1  0.72675926  0.24052417  0.53487293  1
  Li  Li16  1  0.27324074  0.24052417  0.53487293  1
  Li  Li17  1  0.72675926  0.75947583  0.53487293  1
  Li  Li18  1  0.25947583  0.77324074  0.03487293  1
  Li  Li19  1  0.74052417  0.22675926  0.03487293  1
  Si  Si20  1  0.50000000  0.00000000  0.80112501  1
  Si  Si21  1  0.50000000  0.00000000  0.30112501  1
  P  P22  1  0.00000000  0.50000000  0.68588574  1
  P  P23  1  0.00000000  0.50000000  0.18588574  1
  P  P24  1  0.00000000  0.00000000  0.50411832  1
  P  P25  1  0.50000000  0.50000000  0.00411832  1
  Se  Se26  1  0.00000000  0.19963740  0.40927389  1
  Se  Se27  1  0.00000000  0.80036260  0.40927389  1
  Se  Se28  1  0.30036260  0.50000000  0.90927389  1
  Se  Se29  1  0.69963740  0.50000000  0.90927389  1
  Se  Se30  1  0.50000000  0.69386611  0.10185620  1
  Se  Se31  1  0.50000000  0.30613389  0.10185620  1
  Se  Se32  1  0.19386611  0.00000000  0.60185620  1
  Se  Se33  1  0.80613389  0.00000000  0.60185620  1
  Se  Se34  1  0.00000000  0.29744436  0.09293559  1
  Se  Se35  1  0.00000000  0.70255564  0.09293559  1
  Se  Se36  1  0.20255564  0.50000000  0.59293559  1
  Se  Se37  1  0.79744436  0.50000000  0.59293559  1
  Se  Se38  1  0.50000000  0.79337106  0.39980144  1
  Se  Se39  1  0.50000000  0.20662894  0.39980144  1
  Se  Se40  1  0.29337106  0.00000000  0.89980144  1
  Se  Se41  1  0.70662894  0.00000000  0.89980144  1
  Se  Se42  1  0.00000000  0.69742649  0.77925680  1
  Se  Se43  1  0.00000000  0.30257351  0.77925680  1
  Se  Se44  1  0.80257351  0.50000000  0.27925680  1
  Se  Se45  1  0.19742649  0.50000000  0.27925680  1
  Se  Se46  1  0.50000000  0.20195390  0.70066577  1
  Se  Se47  1  0.50000000  0.79804610  0.70066577  1
  Se  Se48  1  0.70195390  0.00000000  0.20066577  1
  Se  Se49  1  0.29804610  0.00000000  0.20066577  1
