# generated using pymatgen
data_Yb6Mn23
_symmetry_space_group_name_H-M   'P 1'
_cell_length_a   8.69182813
_cell_length_b   8.69182813
_cell_length_c   8.69182813
_cell_angle_alpha   60.00000000
_cell_angle_beta   60.00000000
_cell_angle_gamma   60.00000000
_symmetry_Int_Tables_number   1
_chemical_formula_structural   Yb6Mn23
_chemical_formula_sum   'Yb6 Mn23'
_cell_volume   464.32107061
_cell_formula_units_Z   1
loop_
 _symmetry_equiv_pos_site_id
 _symmetry_equiv_pos_as_xyz
  1  'x, y, z'
loop_
 _atom_site_type_symbol
 _atom_site_label
 _atom_site_symmetry_multiplicity
 _atom_site_fract_x
 _atom_site_fract_y
 _atom_site_fract_z
 _atom_site_occupancy
  Yb  Yb0  1  0.70768527  0.29231473  0.29231473  1
  Yb  Yb1  1  0.70768527  0.29231473  0.70768527  1
  Yb  Yb2  1  0.70768527  0.70768527  0.29231473  1
  Yb  Yb3  1  0.29231473  0.70768527  0.70768527  1
  Yb  Yb4  1  0.29231473  0.70768527  0.29231473  1
  Yb  Yb5  1  0.29231473  0.29231473  0.70768527  1
  Mn  Mn6  1  -0.00000000  0.00000000  0.00000000  1
  Mn  Mn7  1  0.50000000  0.00000000  0.00000000  1
  Mn  Mn8  1  0.50000000  -0.00000000  0.50000000  1
  Mn  Mn9  1  0.50000000  0.50000000  0.00000000  1
  Mn  Mn10  1  0.00000000  0.50000000  0.50000000  1
  Mn  Mn11  1  -0.00000000  0.50000000  0.00000000  1
  Mn  Mn12  1  0.00000000  -0.00000000  0.50000000  1
  Mn  Mn13  1  0.64105305  0.11964898  0.11964898  1
  Mn  Mn14  1  0.11964898  0.64105305  0.11964898  1
  Mn  Mn15  1  0.11964898  0.11964898  0.64105305  1
  Mn  Mn16  1  0.11964898  0.11964898  0.11964898  1
  Mn  Mn17  1  0.35894695  0.88035102  0.88035102  1
  Mn  Mn18  1  0.88035102  0.35894695  0.88035102  1
  Mn  Mn19  1  0.88035102  0.88035102  0.35894695  1
  Mn  Mn20  1  0.88035102  0.88035102  0.88035102  1
  Mn  Mn21  1  0.03055696  0.32314768  0.32314768  1
  Mn  Mn22  1  0.32314768  0.03055696  0.32314768  1
  Mn  Mn23  1  0.32314768  0.32314768  0.03055696  1
  Mn  Mn24  1  0.32314768  0.32314768  0.32314768  1
  Mn  Mn25  1  0.96944304  0.67685232  0.67685232  1
  Mn  Mn26  1  0.67685232  0.96944304  0.67685232  1
  Mn  Mn27  1  0.67685232  0.67685232  0.96944304  1
  Mn  Mn28  1  0.67685232  0.67685232  0.67685232  1
