# generated using pymatgen
data_KBaLiZnF6
_symmetry_space_group_name_H-M   'P 1'
_cell_length_a   5.80162784
_cell_length_b   5.80162799
_cell_length_c   29.09804743
_cell_angle_alpha   60.10336449
_cell_angle_beta   60.10336365
_cell_angle_gamma   60.00378504
_symmetry_Int_Tables_number   1
_chemical_formula_structural   KBaLiZnF6
_chemical_formula_sum   'K5 Ba5 Li5 Zn5 F30'
_cell_volume   693.64587569
_cell_formula_units_Z   5
loop_
 _symmetry_equiv_pos_site_id
 _symmetry_equiv_pos_as_xyz
  1  'x, y, z'
loop_
 _atom_site_type_symbol
 _atom_site_label
 _atom_site_symmetry_multiplicity
 _atom_site_fract_x
 _atom_site_fract_y
 _atom_site_fract_z
 _atom_site_occupancy
  K  K0  1  0.49141750  0.49141750  0.10516295  1
  K  K1  1  0.99723876  0.99723876  0.20166190  1
  K  K2  1  0.99675624  0.99675624  0.40196571  1
  K  K3  1  0.50085343  0.50085343  0.69946141  1
  K  K4  1  0.50061488  0.50061488  0.89962183  1
  Ba  Ba5  1  0.00553851  0.00553851  0.99667326  1
  Ba  Ba6  1  0.49923080  0.49923080  0.30045679  1
  Ba  Ba7  1  0.50801575  0.50801575  0.49518745  1
  Ba  Ba8  1  0.00552610  0.00552610  0.59668507  1
  Ba  Ba9  1  0.00025157  0.00025157  0.79984747  1
  Li  Li10  1  0.25280197  0.25280197  0.24831691  1
  Li  Li11  1  0.24810990  0.24810990  0.45113462  1
  Li  Li12  1  0.75696752  0.75696752  0.54582117  1
  Li  Li13  1  0.75105355  0.75105355  0.74937557  1
  Li  Li14  1  0.74959460  0.74959460  0.95024551  1
  Zn  Zn15  1  0.25140767  0.25140767  0.04915203  1
  Zn  Zn16  1  0.74486086  0.74486086  0.15307986  1
  Zn  Zn17  1  0.24722108  0.24722108  0.65167396  1
  Zn  Zn18  1  0.75110421  0.75110421  0.34932683  1
  Zn  Zn19  1  0.25014680  0.25014680  0.84990369  1
  F  F20  1  0.00041283  0.49994840  -0.00006199  1
  F  F21  1  -0.00019757  -0.00019757  0.09702777  1
  F  F22  1  0.49994840  0.00041283  -0.00006199  1
  F  F23  1  -0.00024933  0.51527775  0.09703314  1
  F  F24  1  0.51527775  -0.00024933  0.09703314  1
  F  F25  1  0.49997362  0.49997362  -0.00006657  1
  F  F26  1  0.99086143  0.50099918  0.20143359  1
  F  F27  1  0.00009165  0.00009165  0.30001681  1
  F  F28  1  0.50099918  0.99086143  0.20143359  1
  F  F29  1  0.00011413  0.49966033  0.30001397  1
  F  F30  1  0.49966033  0.00011413  0.30001397  1
  F  F31  1  0.50098836  0.50098836  0.20143275  1
  F  F32  1  -0.00093979  0.50044657  0.40000840  1
  F  F33  1  0.99793712  0.99793712  0.50346676  1
  F  F34  1  0.50044657  -0.00093979  0.40000840  1
  F  F35  1  0.99792760  0.48678506  0.50346117  1
  F  F36  1  0.50045442  0.50045442  0.40000695  1
  F  F37  1  0.48678506  0.99792760  0.50346117  1
  F  F38  1  0.99933612  0.99933612  0.70080357  1
  F  F39  1  0.00878346  0.49818481  0.59897132  1
  F  F40  1  0.49818481  0.00878346  0.59897132  1
  F  F41  1  0.99930552  0.49740867  0.70081012  1
  F  F42  1  0.49740867  0.99930552  0.70081012  1
  F  F43  1  0.49817354  0.49817354  0.59897247  1
  F  F44  1  0.99896804  0.50027117  0.80009688  1
  F  F45  1  0.00006147  0.00006147  0.89998510  1
  F  F46  1  0.00005519  0.49997022  0.89998475  1
  F  F47  1  0.50027117  0.99896804  0.80009688  1
  F  F48  1  0.49997022  0.00005519  0.89998475  1
  F  F49  1  0.50027833  0.50027833  0.80009773  1
