# generated using pymatgen
data_Co6Te5O16
_symmetry_space_group_name_H-M   'P 1'
_cell_length_a   10.42252274
_cell_length_b   11.24260643
_cell_length_c   13.03074350
_cell_angle_alpha   90.00000000
_cell_angle_beta   90.00000000
_cell_angle_gamma   90.00000000
_symmetry_Int_Tables_number   1
_chemical_formula_structural   Co6Te5O16
_chemical_formula_sum   'Co24 Te20 O64'
_cell_volume   1526.89458549
_cell_formula_units_Z   4
loop_
 _symmetry_equiv_pos_site_id
 _symmetry_equiv_pos_as_xyz
  1  'x, y, z'
loop_
 _atom_site_type_symbol
 _atom_site_label
 _atom_site_symmetry_multiplicity
 _atom_site_fract_x
 _atom_site_fract_y
 _atom_site_fract_z
 _atom_site_occupancy
  Co  Co0  1  0.93328724  0.24724211  0.99373328  1
  Co  Co1  1  0.43328724  0.75275789  0.00626672  1
  Co  Co2  1  0.40972358  0.24952689  0.22987701  1
  Co  Co3  1  0.57281685  0.98524866  0.10703688  1
  Co  Co4  1  0.09027642  0.24952689  0.22987701  1
  Co  Co5  1  0.59027642  0.25047311  0.72987701  1
  Co  Co6  1  0.07281685  0.01475134  0.89296312  1
  Co  Co7  1  0.40972358  0.74952689  0.27012299  1
  Co  Co8  1  0.43328724  0.25275789  0.49373328  1
  Co  Co9  1  0.09027642  0.74952689  0.27012299  1
  Co  Co10  1  0.93328724  0.74724211  0.50626672  1
  Co  Co11  1  0.07281685  0.51475134  0.60703688  1
  Co  Co12  1  0.56671276  0.74724211  0.50626672  1
  Co  Co13  1  0.06671276  0.25275789  0.49373328  1
  Co  Co14  1  0.92718315  0.48524866  0.39296312  1
  Co  Co15  1  0.42718315  0.01475134  0.89296312  1
  Co  Co16  1  0.06671276  0.75275789  0.00626672  1
  Co  Co17  1  0.90972358  0.75047311  0.77012299  1
  Co  Co18  1  0.57281685  0.48524866  0.39296312  1
  Co  Co19  1  0.56671276  0.24724211  0.99373328  1
  Co  Co20  1  0.59027642  0.75047311  0.77012299  1
  Co  Co21  1  0.90972358  0.25047311  0.72987701  1
  Co  Co22  1  0.42718315  0.51475134  0.60703688  1
  Co  Co23  1  0.92718315  0.98524866  0.10703688  1
  Te  Te24  1  0.75000000  0.22173967  0.49350630  1
  Te  Te25  1  0.75000000  0.53443937  0.63845084  1
  Te  Te26  1  0.03788979  0.99003179  0.63472565  1
  Te  Te27  1  0.25000000  0.77826033  0.50649370  1
  Te  Te28  1  0.53788979  0.00996821  0.36527435  1
  Te  Te29  1  0.46211021  0.99003179  0.63472565  1
  Te  Te30  1  0.03788979  0.49003179  0.86527435  1
  Te  Te31  1  0.53788979  0.50996821  0.13472565  1
  Te  Te32  1  0.25000000  0.80033919  0.81607197  1
  Te  Te33  1  0.75000000  0.03443937  0.86154916  1
  Te  Te34  1  0.25000000  0.27826033  0.99350630  1
  Te  Te35  1  0.25000000  0.30033919  0.68392803  1
  Te  Te36  1  0.75000000  0.69966081  0.31607197  1
  Te  Te37  1  0.96211021  0.50996821  0.13472565  1
  Te  Te38  1  0.25000000  0.46556063  0.36154916  1
  Te  Te39  1  0.25000000  0.96556063  0.13845084  1
  Te  Te40  1  0.96211021  0.00996821  0.36527435  1
  Te  Te41  1  0.75000000  0.72173967  0.00649370  1
  Te  Te42  1  0.75000000  0.19966081  0.18392803  1
  Te  Te43  1  0.46211021  0.49003179  0.86527435  1
  O  O44  1  0.05606543  0.32444992  0.65008527  1
  O  O45  1  0.88854941  0.06105535  0.95814318  1
  O  O46  1  0.61057765  0.81475974  0.05660831  1
  O  O47  1  0.44393457  0.32444992  0.65008527  1
  O  O48  1  0.48176473  0.92547647  0.24410727  1
  O  O49  1  0.11145059  0.43894465  0.45814318  1
  O  O50  1  0.38942235  0.68524026  0.55660831  1
  O  O51  1  0.04597278  0.89834860  0.45409540  1
  O  O52  1  0.75000000  0.77996501  0.44710862  1
  O  O53  1  0.94393457  0.67555008  0.34991473  1
  O  O54  1  0.88854941  0.56105535  0.54185682  1
  O  O55  1  0.41937191  0.63822449  0.14144247  1
  O  O56  1  0.44393457  0.82444992  0.84991473  1
  O  O57  1  0.51823527  0.07452353  0.75589273  1
  O  O58  1  0.88942235  0.81475974  0.05660831  1
  O  O59  1  0.38854941  0.43894465  0.45814318  1
  O  O60  1  0.25000000  0.97130021  0.83374139  1
  O  O61  1  0.75000000  0.28065174  0.63190837  1
  O  O62  1  0.55606543  0.17555008  0.15008527  1
  O  O63  1  0.75000000  0.69201517  0.68621913  1
  O  O64  1  0.45402722  0.39834860  0.04590460  1
  O  O65  1  0.98176473  0.57452353  0.74410727  1
  O  O66  1  0.38942235  0.18524026  0.94339169  1
  O  O67  1  0.61145059  0.06105535  0.95814318  1
  O  O68  1  0.58062809  0.86177551  0.64144247  1
  O  O69  1  0.04597278  0.39834860  0.04590460  1
  O  O70  1  0.25000000  0.30798483  0.31378087  1
  O  O71  1  0.25000000  0.80798483  0.18621913  1
  O  O72  1  0.25000000  0.22003499  0.55289138  1
  O  O73  1  0.25000000  0.21934826  0.13190837  1
  O  O74  1  0.11145059  0.93894465  0.04185682  1
  O  O75  1  0.38854941  0.93894465  0.04185682  1
  O  O76  1  0.75000000  0.78065174  0.86809163  1
  O  O77  1  0.95402722  0.10165140  0.54590460  1
  O  O78  1  0.54597278  0.60165140  0.95409540  1
  O  O79  1  0.91937191  0.36177551  0.85855753  1
  O  O80  1  0.01823527  0.92547647  0.24410727  1
  O  O81  1  0.41937191  0.13822449  0.35855753  1
  O  O82  1  0.61145059  0.56105535  0.54185682  1
  O  O83  1  0.75000000  0.19201517  0.81378087  1
  O  O84  1  0.05606543  0.82444992  0.84991473  1
  O  O85  1  0.55606543  0.67555008  0.34991473  1
  O  O86  1  0.08062809  0.13822449  0.35855753  1
  O  O87  1  0.98176473  0.07452353  0.75589273  1
  O  O88  1  0.45402722  0.89834860  0.45409540  1
  O  O89  1  0.61057765  0.31475974  0.44339169  1
  O  O90  1  0.75000000  0.02869979  0.16625861  1
  O  O91  1  0.25000000  0.47130021  0.66625861  1
  O  O92  1  0.25000000  0.72003499  0.94710862  1
  O  O93  1  0.88942235  0.31475974  0.44339169  1
  O  O94  1  0.75000000  0.52869979  0.33374139  1
  O  O95  1  0.75000000  0.27996501  0.05289138  1
  O  O96  1  0.11057765  0.18524026  0.94339169  1
  O  O97  1  0.08062809  0.63822449  0.14144247  1
  O  O98  1  0.01823527  0.42547647  0.25589273  1
  O  O99  1  0.54597278  0.10165140  0.54590460  1
  O  O100  1  0.11057765  0.68524026  0.55660831  1
  O  O101  1  0.48176473  0.42547647  0.25589273  1
  O  O102  1  0.25000000  0.71934826  0.36809163  1
  O  O103  1  0.91937191  0.86177551  0.64144247  1
  O  O104  1  0.94393457  0.17555008  0.15008527  1
  O  O105  1  0.51823527  0.57452353  0.74410727  1
  O  O106  1  0.58062809  0.36177551  0.85855753  1
  O  O107  1  0.95402722  0.60165140  0.95409540  1
