# generated using pymatgen
data_H10S(NO2)2
_symmetry_space_group_name_H-M   'P 1'
_cell_length_a   6.43292191
_cell_length_b   8.12562890
_cell_length_c   12.41415268
_cell_angle_alpha   90.00000000
_cell_angle_beta   97.91381575
_cell_angle_gamma   90.00000000
_symmetry_Int_Tables_number   1
_chemical_formula_structural   H10S(NO2)2
_chemical_formula_sum   'H40 S4 N8 O16'
_cell_volume   642.72683208
_cell_formula_units_Z   4
loop_
 _symmetry_equiv_pos_site_id
 _symmetry_equiv_pos_as_xyz
  1  'x, y, z'
loop_
 _atom_site_type_symbol
 _atom_site_label
 _atom_site_symmetry_multiplicity
 _atom_site_fract_x
 _atom_site_fract_y
 _atom_site_fract_z
 _atom_site_occupancy
  H  H0  1  0.89207231  0.94886559  0.68101496  1
  H  H1  1  0.10792769  0.44886559  0.81898504  1
  H  H2  1  0.10792769  0.05113441  0.31898504  1
  H  H3  1  0.89207231  0.55113441  0.18101496  1
  H  H4  1  0.79320997  0.08656482  0.60035902  1
  H  H5  1  0.20679003  0.58656482  0.89964098  1
  H  H6  1  0.20679003  0.91343518  0.39964098  1
  H  H7  1  0.79320997  0.41343518  0.10035902  1
  H  H8  1  0.31182089  0.79451970  0.69798804  1
  H  H9  1  0.68817911  0.29451970  0.80201196  1
  H  H10  1  0.68817911  0.20548030  0.30201196  1
  H  H11  1  0.31182089  0.70548030  0.19798804  1
  H  H12  1  0.30449221  0.70786385  0.57015402  1
  H  H13  1  0.69550779  0.20786385  0.92984598  1
  H  H14  1  0.69550779  0.29213615  0.42984598  1
  H  H15  1  0.30449221  0.79213615  0.07015402  1
  H  H16  1  0.44308856  0.61542808  0.68034286  1
  H  H17  1  0.55691144  0.11542808  0.81965714  1
  H  H18  1  0.55691144  0.38457192  0.31965714  1
  H  H19  1  0.44308856  0.88457192  0.18034286  1
  H  H20  1  0.17853806  0.61154563  0.66341242  1
  H  H21  1  0.82146194  0.11154563  0.83658758  1
  H  H22  1  0.82146194  0.38845437  0.33658758  1
  H  H23  1  0.17853806  0.88845437  0.16341242  1
  H  H24  1  0.17657976  0.29185915  0.61538237  1
  H  H25  1  0.82342024  0.79185915  0.88461763  1
  H  H26  1  0.82342024  0.70814085  0.38461763  1
  H  H27  1  0.17657976  0.20814085  0.11538237  1
  H  H28  1  0.42968255  0.25132923  0.58950399  1
  H  H29  1  0.57031745  0.75132923  0.91049601  1
  H  H30  1  0.57031745  0.74867077  0.41049601  1
  H  H31  1  0.42968255  0.24867077  0.08950399  1
  H  H32  1  0.22515496  0.14659960  0.52043529  1
  H  H33  1  0.77484504  0.64659960  0.97956471  1
  H  H34  1  0.77484504  0.85340040  0.47956471  1
  H  H35  1  0.22515496  0.35340040  0.02043529  1
  H  H36  1  0.29510783  0.11495606  0.65694360  1
  H  H37  1  0.70489217  0.61495606  0.84305640  1
  H  H38  1  0.70489217  0.88504394  0.34305640  1
  H  H39  1  0.29510783  0.38504394  0.15694360  1
  S  S40  1  0.22052442  0.96189124  0.87714727  1
  S  S41  1  0.77947558  0.46189124  0.62285273  1
  S  S42  1  0.77947558  0.03810876  0.12285273  1
  S  S43  1  0.22052442  0.53810876  0.37714727  1
  N  N44  1  0.30846178  0.68514048  0.65359826  1
  N  N45  1  0.69153822  0.18514048  0.84640174  1
  N  N46  1  0.69153822  0.31485952  0.34640174  1
  N  N47  1  0.30846178  0.81485952  0.15359826  1
  N  N48  1  0.28090645  0.20203226  0.59493615  1
  N  N49  1  0.71909355  0.70203226  0.90506385  1
  N  N50  1  0.71909355  0.79796774  0.40506385  1
  N  N51  1  0.28090645  0.29796774  0.09493615  1
  O  O52  1  0.29425655  0.79163574  0.92450747  1
  O  O53  1  0.70574345  0.29163574  0.57549253  1
  O  O54  1  0.70574345  0.20836426  0.07549253  1
  O  O55  1  0.29425655  0.70836426  0.42450747  1
  O  O56  1  0.98883335  0.93732777  0.82663260  1
  O  O57  1  0.01116665  0.43732777  0.67336740  1
  O  O58  1  0.01116665  0.06267223  0.17336740  1
  O  O59  1  0.98883335  0.56267223  0.32663260  1
  O  O60  1  0.34397539  0.98339554  0.77885488  1
  O  O61  1  0.65602461  0.48339554  0.72114512  1
  O  O62  1  0.65602461  0.01660446  0.22114512  1
  O  O63  1  0.34397539  0.51660446  0.27885488  1
  O  O64  1  0.82825218  0.96780657  0.60502390  1
  O  O65  1  0.17174782  0.46780657  0.89497610  1
  O  O66  1  0.17174782  0.03219343  0.39497610  1
  O  O67  1  0.82825218  0.53219343  0.10502390  1
