# generated using pymatgen
data_NaB2HO4
_symmetry_space_group_name_H-M   'P 1'
_cell_length_a   8.78230775
_cell_length_b   10.57598648
_cell_length_c   14.37669478
_cell_angle_alpha   90.00000000
_cell_angle_beta   90.00000000
_cell_angle_gamma   90.00000000
_symmetry_Int_Tables_number   1
_chemical_formula_structural   NaB2HO4
_chemical_formula_sum   'Na16 B32 H16 O64'
_cell_volume   1335.32995421
_cell_formula_units_Z   16
loop_
 _symmetry_equiv_pos_site_id
 _symmetry_equiv_pos_as_xyz
  1  'x, y, z'
loop_
 _atom_site_type_symbol
 _atom_site_label
 _atom_site_symmetry_multiplicity
 _atom_site_fract_x
 _atom_site_fract_y
 _atom_site_fract_z
 _atom_site_occupancy
  Na  Na0  1  0.41819510  0.52839796  0.18848566  1
  Na  Na1  1  0.91819510  0.97160204  0.81151434  1
  Na  Na2  1  0.58180490  0.02839796  0.31151434  1
  Na  Na3  1  0.08180490  0.47160204  0.68848566  1
  Na  Na4  1  0.58180490  0.47160204  0.81151434  1
  Na  Na5  1  0.08180490  0.02839796  0.18848566  1
  Na  Na6  1  0.41819510  0.97160204  0.68848566  1
  Na  Na7  1  0.91819510  0.52839796  0.31151434  1
  Na  Na8  1  0.26502578  0.47440137  0.43007374  1
  Na  Na9  1  0.76502578  0.02559863  0.56992626  1
  Na  Na10  1  0.73497422  0.97440137  0.06992626  1
  Na  Na11  1  0.23497422  0.52559863  0.93007374  1
  Na  Na12  1  0.73497422  0.52559863  0.56992626  1
  Na  Na13  1  0.23497422  0.97440137  0.43007374  1
  Na  Na14  1  0.26502578  0.02559863  0.93007374  1
  Na  Na15  1  0.76502578  0.47440137  0.06992626  1
  B  B16  1  0.07988620  0.26411430  0.33702886  1
  B  B17  1  0.57988620  0.23588570  0.66297114  1
  B  B18  1  0.92011380  0.76411430  0.16297114  1
  B  B19  1  0.42011380  0.73588570  0.83702886  1
  B  B20  1  0.92011380  0.73588570  0.66297114  1
  B  B21  1  0.42011380  0.76411430  0.33702886  1
  B  B22  1  0.07988620  0.23588570  0.83702886  1
  B  B23  1  0.57988620  0.26411430  0.16297114  1
  B  B24  1  0.90087683  0.10688483  0.38556814  1
  B  B25  1  0.40087683  0.39311517  0.61443186  1
  B  B26  1  0.09912317  0.60688483  0.11443186  1
  B  B27  1  0.59912317  0.89311517  0.88556814  1
  B  B28  1  0.09912317  0.89311517  0.61443186  1
  B  B29  1  0.59912317  0.60688483  0.38556814  1
  B  B30  1  0.90087683  0.39311517  0.88556814  1
  B  B31  1  0.40087683  0.10688483  0.11443186  1
  B  B32  1  0.82954794  0.25769689  0.26018449  1
  B  B33  1  0.32954794  0.24230311  0.73981551  1
  B  B34  1  0.17045206  0.75769689  0.23981551  1
  B  B35  1  0.67045206  0.74230311  0.76018449  1
  B  B36  1  0.17045206  0.74230311  0.73981551  1
  B  B37  1  0.67045206  0.75769689  0.26018449  1
  B  B38  1  0.82954794  0.24230311  0.76018449  1
  B  B39  1  0.32954794  0.25769689  0.23981551  1
  B  B40  1  0.95287785  0.28886052  0.48957299  1
  B  B41  1  0.45287785  0.21113948  0.51042701  1
  B  B42  1  0.04712215  0.78886052  0.01042701  1
  B  B43  1  0.54712215  0.71113948  0.98957299  1
  B  B44  1  0.04712215  0.71113948  0.51042701  1
  B  B45  1  0.54712215  0.78886052  0.48957299  1
  B  B46  1  0.95287785  0.21113948  0.98957299  1
  B  B47  1  0.45287785  0.28886052  0.01042701  1
  H  H48  1  0.93320330  0.91990263  0.41909454  1
  H  H49  1  0.43320330  0.58009737  0.58090546  1
  H  H50  1  0.06679670  0.41990263  0.08090546  1
  H  H51  1  0.56679670  0.08009737  0.91909454  1
  H  H52  1  0.06679670  0.08009737  0.58090546  1
  H  H53  1  0.56679670  0.41990263  0.41909454  1
  H  H54  1  0.93320330  0.58009737  0.91909454  1
  H  H55  1  0.43320330  0.91990263  0.08090546  1
  H  H56  1  0.84961853  0.29881396  0.60827897  1
  H  H57  1  0.34961853  0.20118604  0.39172103  1
  H  H58  1  0.15038147  0.79881396  0.89172103  1
  H  H59  1  0.65038147  0.70118604  0.10827897  1
  H  H60  1  0.15038147  0.70118604  0.39172103  1
  H  H61  1  0.65038147  0.79881396  0.60827897  1
  H  H62  1  0.84961853  0.20118604  0.10827897  1
  H  H63  1  0.34961853  0.29881396  0.89172103  1
  O  O64  1  0.97081610  0.31437372  0.26620531  1
  O  O65  1  0.47081610  0.18562628  0.73379469  1
  O  O66  1  0.02918390  0.81437372  0.23379469  1
  O  O67  1  0.52918390  0.68562628  0.76620531  1
  O  O68  1  0.02918390  0.68562628  0.73379469  1
  O  O69  1  0.52918390  0.81437372  0.26620531  1
  O  O70  1  0.97081610  0.18562628  0.76620531  1
  O  O71  1  0.47081610  0.31437372  0.23379469  1
  O  O72  1  0.23859830  0.29717263  0.31340160  1
  O  O73  1  0.73859830  0.20282737  0.68659840  1
  O  O74  1  0.76140170  0.79717263  0.18659840  1
  O  O75  1  0.26140170  0.70282737  0.81340160  1
  O  O76  1  0.76140170  0.70282737  0.68659840  1
  O  O77  1  0.26140170  0.79717263  0.31340160  1
  O  O78  1  0.23859830  0.20282737  0.81340160  1
  O  O79  1  0.73859830  0.29717263  0.18659840  1
  O  O80  1  0.05668905  0.12707294  0.35015688  1
  O  O81  1  0.55668905  0.37292706  0.64984312  1
  O  O82  1  0.94331095  0.62707294  0.14984312  1
  O  O83  1  0.44331095  0.87292706  0.85015688  1
  O  O84  1  0.94331095  0.87292706  0.64984312  1
  O  O85  1  0.44331095  0.62707294  0.35015688  1
  O  O86  1  0.05668905  0.37292706  0.85015688  1
  O  O87  1  0.55668905  0.12707294  0.14984312  1
  O  O88  1  0.04893528  0.33937019  0.42527514  1
  O  O89  1  0.54893528  0.16062981  0.57472486  1
  O  O90  1  0.95106472  0.83937019  0.07472486  1
  O  O91  1  0.45106472  0.66062981  0.92527514  1
  O  O92  1  0.95106472  0.66062981  0.57472486  1
  O  O93  1  0.45106472  0.83937019  0.42527514  1
  O  O94  1  0.04893528  0.16062981  0.92527514  1
  O  O95  1  0.54893528  0.33937019  0.07472486  1
  O  O96  1  0.78722344  0.16158793  0.31851528  1
  O  O97  1  0.28722344  0.33841207  0.68148472  1
  O  O98  1  0.21277656  0.66158793  0.18148472  1
  O  O99  1  0.71277656  0.83841207  0.81851528  1
  O  O100  1  0.21277656  0.83841207  0.68148472  1
  O  O101  1  0.71277656  0.66158793  0.31851528  1
  O  O102  1  0.78722344  0.33841207  0.81851528  1
  O  O103  1  0.28722344  0.16158793  0.18148472  1
  O  O104  1  0.88650642  0.17269806  0.47865415  1
  O  O105  1  0.38650642  0.32730194  0.52134585  1
  O  O106  1  0.11349358  0.67269806  0.02134585  1
  O  O107  1  0.61349358  0.82730194  0.97865415  1
  O  O108  1  0.11349358  0.82730194  0.52134585  1
  O  O109  1  0.61349358  0.67269806  0.47865415  1
  O  O110  1  0.88650642  0.32730194  0.97865415  1
  O  O111  1  0.38650642  0.17269806  0.02134585  1
  O  O112  1  0.85166137  0.97637238  0.39981095  1
  O  O113  1  0.35166137  0.52362762  0.60018905  1
  O  O114  1  0.14833863  0.47637238  0.10018905  1
  O  O115  1  0.64833863  0.02362762  0.89981095  1
  O  O116  1  0.14833863  0.02362762  0.60018905  1
  O  O117  1  0.64833863  0.47637238  0.39981095  1
  O  O118  1  0.85166137  0.52362762  0.89981095  1
  O  O119  1  0.35166137  0.97637238  0.10018905  1
  O  O120  1  0.91857341  0.35509302  0.57190792  1
  O  O121  1  0.41857341  0.14490698  0.42809208  1
  O  O122  1  0.08142659  0.85509302  0.92809208  1
  O  O123  1  0.58142659  0.64490698  0.07190792  1
  O  O124  1  0.08142659  0.64490698  0.42809208  1
  O  O125  1  0.58142659  0.85509302  0.57190792  1
  O  O126  1  0.91857341  0.14490698  0.07190792  1
  O  O127  1  0.41857341  0.35509302  0.92809208  1
