# generated using pymatgen
data_U2H14S2O19
_symmetry_space_group_name_H-M   'P 1'
_cell_length_a   11.44715072
_cell_length_b   6.91562858
_cell_length_c   21.09466578
_cell_angle_alpha   90.00000000
_cell_angle_beta   90.00000000
_cell_angle_gamma   90.00000000
_symmetry_Int_Tables_number   1
_chemical_formula_structural   U2H14S2O19
_chemical_formula_sum   'U8 H56 S8 O76'
_cell_volume   1669.94324104
_cell_formula_units_Z   4
loop_
 _symmetry_equiv_pos_site_id
 _symmetry_equiv_pos_as_xyz
  1  'x, y, z'
loop_
 _atom_site_type_symbol
 _atom_site_label
 _atom_site_symmetry_multiplicity
 _atom_site_fract_x
 _atom_site_fract_y
 _atom_site_fract_z
 _atom_site_occupancy
  U  U0  1  0.99973172  0.80831151  0.57922513  1
  U  U1  1  0.49973172  0.19168849  0.42077487  1
  U  U2  1  0.49973172  0.80831151  0.92077487  1
  U  U3  1  0.99973172  0.19168849  0.07922513  1
  U  U4  1  0.38754118  0.29758108  0.70164565  1
  U  U5  1  0.88754118  0.70241892  0.29835435  1
  U  U6  1  0.88754118  0.29758108  0.79835435  1
  U  U7  1  0.38754118  0.70241892  0.20164565  1
  H  H8  1  0.53844023  0.52146622  0.79238767  1
  H  H9  1  0.03844023  0.47853378  0.20761233  1
  H  H10  1  0.03844023  0.52146622  0.70761233  1
  H  H11  1  0.53844023  0.47853378  0.29238767  1
  H  H12  1  0.58607903  0.61467717  0.72665186  1
  H  H13  1  0.08607903  0.38532283  0.27334814  1
  H  H14  1  0.08607903  0.61467717  0.77334814  1
  H  H15  1  0.58607903  0.38532283  0.22665186  1
  H  H16  1  0.81872927  0.60261108  0.49536377  1
  H  H17  1  0.31872927  0.39738892  0.50463623  1
  H  H18  1  0.31872927  0.60261108  0.00463623  1
  H  H19  1  0.81872927  0.39738892  0.99536377  1
  H  H20  1  0.83600394  0.46035843  0.55362378  1
  H  H21  1  0.33600394  0.53964157  0.44637622  1
  H  H22  1  0.33600394  0.46035843  0.94637622  1
  H  H23  1  0.83600394  0.53964157  0.05362378  1
  H  H24  1  0.74207615  0.80293523  0.68602270  1
  H  H25  1  0.24207615  0.19706477  0.31397730  1
  H  H26  1  0.24207615  0.80293523  0.81397730  1
  H  H27  1  0.74207615  0.19706477  0.18602270  1
  H  H28  1  0.63422755  0.76824652  0.64127702  1
  H  H29  1  0.13422755  0.23175348  0.35872298  1
  H  H30  1  0.13422755  0.76824652  0.85872298  1
  H  H31  1  0.63422755  0.23175348  0.14127702  1
  H  H32  1  0.85162602  0.03613214  0.47887019  1
  H  H33  1  0.35162602  0.96386786  0.52112981  1
  H  H34  1  0.35162602  0.03613214  0.02112981  1
  H  H35  1  0.85162602  0.96386786  0.97887019  1
  H  H36  1  0.81588967  0.08339301  0.55009651  1
  H  H37  1  0.31588967  0.91660699  0.44990349  1
  H  H38  1  0.31588967  0.08339301  0.94990349  1
  H  H39  1  0.81588967  0.91660699  0.05009651  1
  H  H40  1  0.60460877  0.15658151  0.77218914  1
  H  H41  1  0.10460877  0.84341849  0.22781086  1
  H  H42  1  0.10460877  0.15658151  0.72781086  1
  H  H43  1  0.60460877  0.84341849  0.27218914  1
  H  H44  1  0.59414324  0.99271088  0.71785756  1
  H  H45  1  0.09414324  0.00728912  0.28214244  1
  H  H46  1  0.09414324  0.99271088  0.78214244  1
  H  H47  1  0.59414324  0.00728912  0.21785756  1
  H  H48  1  0.62307870  0.69762941  0.53208888  1
  H  H49  1  0.12307870  0.30237059  0.46791112  1
  H  H50  1  0.12307870  0.69762941  0.96791112  1
  H  H51  1  0.62307870  0.30237059  0.03208888  1
  H  H52  1  0.50542369  0.73617606  0.57091741  1
  H  H53  1  0.00542369  0.26382394  0.42908259  1
  H  H54  1  0.00542369  0.73617606  0.92908259  1
  H  H55  1  0.50542369  0.26382394  0.07091741  1
  H  H56  1  0.17851099  0.26565864  0.92832352  1
  H  H57  1  0.67851099  0.73434136  0.07167648  1
  H  H58  1  0.67851099  0.26565864  0.57167648  1
  H  H59  1  0.17851099  0.73434136  0.42832352  1
  H  H60  1  0.26066448  0.27412192  0.86628955  1
  H  H61  1  0.76066448  0.72587808  0.13371045  1
  H  H62  1  0.76066448  0.27412192  0.63371045  1
  H  H63  1  0.26066448  0.72587808  0.36628955  1
  S  S64  1  0.11437575  0.31140737  0.60343786  1
  S  S65  1  0.61437575  0.68859263  0.39656214  1
  S  S66  1  0.61437575  0.31140737  0.89656214  1
  S  S67  1  0.11437575  0.68859263  0.10343786  1
  S  S68  1  0.29637685  0.80591910  0.65012853  1
  S  S69  1  0.79637685  0.19408090  0.34987147  1
  S  S70  1  0.79637685  0.80591910  0.84987147  1
  S  S71  1  0.29637685  0.19408090  0.15012853  1
  O  O72  1  0.89905544  0.81838455  0.64535655  1
  O  O73  1  0.39905544  0.18161545  0.35464345  1
  O  O74  1  0.39905544  0.81838455  0.85464345  1
  O  O75  1  0.89905544  0.18161545  0.14535655  1
  O  O76  1  0.09252859  0.80070688  0.51019668  1
  O  O77  1  0.59252859  0.19929312  0.48980332  1
  O  O78  1  0.59252859  0.80070688  0.98980332  1
  O  O79  1  0.09252859  0.19929312  0.01019668  1
  O  O80  1  0.45033433  0.29604282  0.62363818  1
  O  O81  1  0.95033433  0.70395718  0.37636182  1
  O  O82  1  0.95033433  0.29604282  0.87636182  1
  O  O83  1  0.45033433  0.70395718  0.12363818  1
  O  O84  1  0.32376982  0.29617860  0.78024209  1
  O  O85  1  0.82376982  0.70382140  0.21975791  1
  O  O86  1  0.82376982  0.29617860  0.71975791  1
  O  O87  1  0.32376982  0.70382140  0.28024209  1
  O  O88  1  0.04210995  0.48566017  0.62083778  1
  O  O89  1  0.54210995  0.51433983  0.37916222  1
  O  O90  1  0.54210995  0.48566017  0.87916222  1
  O  O91  1  0.04210995  0.51433983  0.12083778  1
  O  O92  1  0.18834496  0.26495032  0.66016191  1
  O  O93  1  0.68834496  0.73504968  0.33983809  1
  O  O94  1  0.68834496  0.26495032  0.83983809  1
  O  O95  1  0.18834496  0.73504968  0.16016191  1
  O  O96  1  0.18561477  0.34905583  0.54726290  1
  O  O97  1  0.68561477  0.65094417  0.45273710  1
  O  O98  1  0.68561477  0.34905583  0.95273710  1
  O  O99  1  0.18561477  0.65094417  0.04726290  1
  O  O100  1  0.03255504  0.14815946  0.59284546  1
  O  O101  1  0.53255504  0.85184054  0.40715454  1
  O  O102  1  0.53255504  0.14815946  0.90715454  1
  O  O103  1  0.03255504  0.85184054  0.09284546  1
  O  O104  1  0.31682404  0.61689488  0.68199993  1
  O  O105  1  0.81682404  0.38310512  0.31800007  1
  O  O106  1  0.81682404  0.61689488  0.81800007  1
  O  O107  1  0.31682404  0.38310512  0.18199993  1
  O  O108  1  0.34033462  0.96126924  0.69308351  1
  O  O109  1  0.84033462  0.03873076  0.30691649  1
  O  O110  1  0.84033462  0.96126924  0.80691649  1
  O  O111  1  0.34033462  0.03873076  0.19308351  1
  O  O112  1  0.35390491  0.81364465  0.58808669  1
  O  O113  1  0.85390491  0.18635535  0.41191331  1
  O  O114  1  0.85390491  0.81364465  0.91191331  1
  O  O115  1  0.35390491  0.18635535  0.08808669  1
  O  O116  1  0.16694599  0.83219361  0.64359086  1
  O  O117  1  0.66694599  0.16780639  0.35640914  1
  O  O118  1  0.66694599  0.83219361  0.85640914  1
  O  O119  1  0.16694599  0.16780639  0.14359086  1
  O  O120  1  0.53244612  0.51508781  0.74570544  1
  O  O121  1  0.03244612  0.48491219  0.25429456  1
  O  O122  1  0.03244612  0.51508781  0.75429456  1
  O  O123  1  0.53244612  0.48491219  0.24570544  1
  O  O124  1  0.87340845  0.56777500  0.52963389  1
  O  O125  1  0.37340845  0.43222500  0.47036611  1
  O  O126  1  0.37340845  0.56777500  0.97036611  1
  O  O127  1  0.87340845  0.43222500  0.02963389  1
  O  O128  1  0.65634898  0.79586190  0.68727546  1
  O  O129  1  0.15634898  0.20413810  0.31272454  1
  O  O130  1  0.15634898  0.79586190  0.81272454  1
  O  O131  1  0.65634898  0.20413810  0.18727546  1
  O  O132  1  0.85168363  0.98063699  0.52229881  1
  O  O133  1  0.35168363  0.01936301  0.47770119  1
  O  O134  1  0.35168363  0.98063699  0.97770119  1
  O  O135  1  0.85168363  0.01936301  0.02229881  1
  O  O136  1  0.55556880  0.11008608  0.73693802  1
  O  O137  1  0.05556880  0.88991392  0.26306198  1
  O  O138  1  0.05556880  0.11008608  0.76306198  1
  O  O139  1  0.55556880  0.88991392  0.23693802  1
  O  O140  1  0.58928325  0.70754110  0.57462094  1
  O  O141  1  0.08928325  0.29245890  0.42537906  1
  O  O142  1  0.08928325  0.70754110  0.92537906  1
  O  O143  1  0.58928325  0.29245890  0.07462094  1
  O  O144  1  0.25938106  0.26581269  0.91278554  1
  O  O145  1  0.75938106  0.73418731  0.08721446  1
  O  O146  1  0.75938106  0.26581269  0.58721446  1
  O  O147  1  0.25938106  0.73418731  0.41278554  1
