# generated using pymatgen
data_NaCaB5H8O13
_symmetry_space_group_name_H-M   'P 1'
_cell_length_a   6.55040223
_cell_length_b   13.41008214
_cell_length_c   11.64253655
_cell_angle_alpha   90.00000000
_cell_angle_beta   93.22400878
_cell_angle_gamma   90.00000000
_symmetry_Int_Tables_number   1
_chemical_formula_structural   NaCaB5H8O13
_chemical_formula_sum   'Na4 Ca4 B20 H32 O52'
_cell_volume   1021.07844479
_cell_formula_units_Z   4
loop_
 _symmetry_equiv_pos_site_id
 _symmetry_equiv_pos_as_xyz
  1  'x, y, z'
loop_
 _atom_site_type_symbol
 _atom_site_label
 _atom_site_symmetry_multiplicity
 _atom_site_fract_x
 _atom_site_fract_y
 _atom_site_fract_z
 _atom_site_occupancy
  Na  Na0  1  0.33797496  0.51702362  0.85486465  1
  Na  Na1  1  0.66202504  0.01702362  0.64513535  1
  Na  Na2  1  0.66202504  0.48297638  0.14513535  1
  Na  Na3  1  0.33797496  0.98297638  0.35486465  1
  Ca  Ca4  1  0.21085239  0.60420936  0.58082982  1
  Ca  Ca5  1  0.78914761  0.10420936  0.91917018  1
  Ca  Ca6  1  0.78914761  0.39579064  0.41917018  1
  Ca  Ca7  1  0.21085239  0.89579064  0.08082982  1
  B  B8  1  0.62244057  0.45884900  0.68252527  1
  B  B9  1  0.37755943  0.95884900  0.81747473  1
  B  B10  1  0.37755943  0.54115100  0.31747473  1
  B  B11  1  0.62244057  0.04115100  0.18252527  1
  B  B12  1  0.31439201  0.37257841  0.57713879  1
  B  B13  1  0.68560799  0.87257841  0.92286121  1
  B  B14  1  0.68560799  0.62742159  0.42286121  1
  B  B15  1  0.31439201  0.12742159  0.07713879  1
  B  B16  1  0.83967793  0.75606580  0.78455530  1
  B  B17  1  0.16032207  0.25606580  0.71544470  1
  B  B18  1  0.16032207  0.24393420  0.21544470  1
  B  B19  1  0.83967793  0.74393420  0.28455530  1
  B  B20  1  0.88015149  0.56723838  0.78063258  1
  B  B21  1  0.11984851  0.06723838  0.71936742  1
  B  B22  1  0.11984851  0.43276162  0.21936742  1
  B  B23  1  0.88015149  0.93276162  0.28063258  1
  B  B24  1  0.98448745  0.41743333  0.65915354  1
  B  B25  1  0.01551255  0.91743333  0.84084646  1
  B  B26  1  0.01551255  0.58256667  0.34084646  1
  B  B27  1  0.98448745  0.08256667  0.15915354  1
  H  H28  1  0.22947577  0.73282267  0.78393145  1
  H  H29  1  0.77052423  0.23282267  0.71606855  1
  H  H30  1  0.77052423  0.26717733  0.21606855  1
  H  H31  1  0.22947577  0.76717733  0.28393145  1
  H  H32  1  0.46634282  0.71158972  0.79567826  1
  H  H33  1  0.53365718  0.21158972  0.70432174  1
  H  H34  1  0.53365718  0.28841028  0.20432174  1
  H  H35  1  0.46634282  0.78841028  0.29567826  1
  H  H36  1  0.67487917  0.65077223  0.59460686  1
  H  H37  1  0.32512083  0.15077223  0.90539314  1
  H  H38  1  0.32512083  0.34922777  0.40539314  1
  H  H39  1  0.67487917  0.84922777  0.09460686  1
  H  H40  1  0.08959955  0.80903645  0.62813865  1
  H  H41  1  0.91040045  0.30903645  0.87186135  1
  H  H42  1  0.91040045  0.19096355  0.37186135  1
  H  H43  1  0.08959955  0.69096355  0.12813865  1
  H  H44  1  0.07905163  0.81873459  0.49237067  1
  H  H45  1  0.92094837  0.31873459  0.00762933  1
  H  H46  1  0.92094837  0.18126541  0.50762933  1
  H  H47  1  0.07905163  0.68126541  0.99237067  1
  H  H48  1  0.89053446  0.53855554  0.95351192  1
  H  H49  1  0.10946554  0.03855554  0.54648808  1
  H  H50  1  0.10946554  0.46144446  0.04648808  1
  H  H51  1  0.89053446  0.96144446  0.45351192  1
  H  H52  1  0.42241068  0.65102448  0.05121303  1
  H  H53  1  0.57758932  0.15102448  0.44878697  1
  H  H54  1  0.57758932  0.34897552  0.94878697  1
  H  H55  1  0.42241068  0.84897552  0.55121303  1
  H  H56  1  0.62164926  0.67220867  0.98777123  1
  H  H57  1  0.37835074  0.17220867  0.51222877  1
  H  H58  1  0.37835074  0.32779133  0.01222877  1
  H  H59  1  0.62164926  0.82779133  0.48777123  1
  O  O60  1  0.10338328  0.40787281  0.55616399  1
  O  O61  1  0.89661672  0.90787281  0.94383601  1
  O  O62  1  0.89661672  0.59212719  0.44383601  1
  O  O63  1  0.10338328  0.09212719  0.05616399  1
  O  O64  1  0.86078162  0.66762514  0.72568305  1
  O  O65  1  0.13921838  0.16762514  0.77431695  1
  O  O66  1  0.13921838  0.33237486  0.27431695  1
  O  O67  1  0.86078162  0.83237486  0.22568305  1
  O  O68  1  0.41721660  0.44772815  0.65609996  1
  O  O69  1  0.58278340  0.94772815  0.84390004  1
  O  O70  1  0.58278340  0.55227185  0.34390004  1
  O  O71  1  0.41721660  0.05227185  0.15609996  1
  O  O72  1  0.31119543  0.27204823  0.63933055  1
  O  O73  1  0.68880457  0.77204823  0.86066945  1
  O  O74  1  0.68880457  0.72795177  0.36066945  1
  O  O75  1  0.31119543  0.22795177  0.13933055  1
  O  O76  1  0.76486345  0.41182160  0.61902570  1
  O  O77  1  0.23513655  0.91182160  0.88097430  1
  O  O78  1  0.23513655  0.58817840  0.38097430  1
  O  O79  1  0.76486345  0.08817840  0.11902570  1
  O  O80  1  0.67917076  0.51731373  0.77641846  1
  O  O81  1  0.32082924  0.01731373  0.72358154  1
  O  O82  1  0.32082924  0.48268627  0.22358154  1
  O  O83  1  0.67917076  0.98268627  0.27641846  1
  O  O84  1  0.33279090  0.68234222  0.76763318  1
  O  O85  1  0.66720910  0.18234222  0.73236682  1
  O  O86  1  0.66720910  0.31765778  0.23236682  1
  O  O87  1  0.33279090  0.81765778  0.26763318  1
  O  O88  1  0.57693107  0.63741922  0.52860499  1
  O  O89  1  0.42306893  0.13741922  0.97139501  1
  O  O90  1  0.42306893  0.36258078  0.47139501  1
  O  O91  1  0.57693107  0.86258078  0.02860499  1
  O  O92  1  0.02955172  0.51147496  0.71762198  1
  O  O93  1  0.97044828  0.01147496  0.78237802  1
  O  O94  1  0.97044828  0.48852504  0.28237802  1
  O  O95  1  0.02955172  0.98852504  0.21762198  1
  O  O96  1  0.15754017  0.78678886  0.55797455  1
  O  O97  1  0.84245983  0.28678886  0.94202545  1
  O  O98  1  0.84245983  0.21321114  0.44202545  1
  O  O99  1  0.15754017  0.71321114  0.05797455  1
  O  O100  1  0.03666692  0.41859610  0.09724488  1
  O  O101  1  0.96333308  0.91859610  0.40275512  1
  O  O102  1  0.96333308  0.58140390  0.90275512  1
  O  O103  1  0.03666692  0.08140390  0.59724488  1
  O  O104  1  0.97965189  0.67040160  0.26191986  1
  O  O105  1  0.02034811  0.17040160  0.23808014  1
  O  O106  1  0.02034811  0.32959840  0.73808014  1
  O  O107  1  0.97965189  0.82959840  0.76191986  1
  O  O108  1  0.54862030  0.61882646  0.02678762  1
  O  O109  1  0.45137970  0.11882646  0.47321238  1
  O  O110  1  0.45137970  0.38117354  0.97321238  1
  O  O111  1  0.54862030  0.88117354  0.52678762  1
