# generated using pymatgen
data_Ca3B6(H4O5)4
_symmetry_space_group_name_H-M   'P 1'
_cell_length_a   8.15840257
_cell_length_b   13.62194828
_cell_length_c   8.15840257
_cell_angle_alpha   67.03443221
_cell_angle_beta   107.94736934
_cell_angle_gamma   112.96556779
_symmetry_Int_Tables_number   1
_chemical_formula_structural   Ca3B6(H4O5)4
_chemical_formula_sum   'Ca6 B12 H32 O40'
_cell_volume   755.53071342
_cell_formula_units_Z   2
loop_
 _symmetry_equiv_pos_site_id
 _symmetry_equiv_pos_as_xyz
  1  'x, y, z'
loop_
 _atom_site_type_symbol
 _atom_site_label
 _atom_site_symmetry_multiplicity
 _atom_site_fract_x
 _atom_site_fract_y
 _atom_site_fract_z
 _atom_site_occupancy
  Ca  Ca0  1  0.75126400  0.75000000  0.75126400  1
  Ca  Ca1  1  0.24873600  0.25000000  0.24873600  1
  Ca  Ca2  1  0.42939363  0.06946127  0.75259195  1
  Ca  Ca3  1  0.75259195  0.43053873  0.42939363  1
  Ca  Ca4  1  0.57060637  0.93053873  0.24740805  1
  Ca  Ca5  1  0.24740805  0.56946127  0.57060637  1
  B  B6  1  0.92297839  0.66799597  0.40121166  1
  B  B7  1  0.40121166  0.83200403  0.92297839  1
  B  B8  1  0.07702161  0.33200403  0.59878834  1
  B  B9  1  0.59878834  0.16799597  0.07702161  1
  B  B10  1  0.61774143  0.65777439  0.43088176  1
  B  B11  1  0.43088176  0.84222561  0.61774143  1
  B  B12  1  0.38225857  0.34222561  0.56911824  1
  B  B13  1  0.56911824  0.15777439  0.38225857  1
  B  B14  1  0.89428133  0.84337294  0.40625277  1
  B  B15  1  0.40625277  0.65662706  0.89428133  1
  B  B16  1  0.10571867  0.15662706  0.59374723  1
  B  B17  1  0.59374723  0.34337294  0.10571867  1
  H  H18  1  0.65113263  0.51280470  0.04113000  1
  H  H19  1  0.04113000  0.98719530  0.65113263  1
  H  H20  1  0.34886737  0.48719530  0.95887000  1
  H  H21  1  0.95887000  0.01280470  0.34886737  1
  H  H22  1  0.60988977  0.51792852  0.65941851  1
  H  H23  1  0.65941851  0.98207148  0.60988977  1
  H  H24  1  0.39011023  0.48207148  0.34058149  1
  H  H25  1  0.34058149  0.01792852  0.39011023  1
  H  H26  1  0.99603422  0.65801173  0.18383318  1
  H  H27  1  0.18383318  0.84198827  0.99603422  1
  H  H28  1  0.00396578  0.34198827  0.81616682  1
  H  H29  1  0.81616682  0.15801173  0.00396578  1
  H  H30  1  0.39876005  0.66638510  0.20654942  1
  H  H31  1  0.20654942  0.83361490  0.39876005  1
  H  H32  1  0.60123995  0.33361490  0.79345058  1
  H  H33  1  0.79345058  0.16638510  0.60123995  1
  H  H34  1  0.97177049  0.62836341  0.68856347  1
  H  H35  1  0.68856347  0.87163659  0.97177049  1
  H  H36  1  0.02822951  0.37163659  0.31143653  1
  H  H37  1  0.31143653  0.12836341  0.02822951  1
  H  H38  1  0.10928502  0.65729548  0.95649293  1
  H  H39  1  0.95649293  0.84270452  0.10928502  1
  H  H40  1  0.89071498  0.34270452  0.04350707  1
  H  H41  1  0.04350707  0.15729548  0.89071498  1
  H  H42  1  0.91633745  0.56441580  0.00654139  1
  H  H43  1  0.00654139  0.93558420  0.91633745  1
  H  H44  1  0.08366255  0.43558420  0.99345861  1
  H  H45  1  0.99345861  0.06441580  0.08366255  1
  H  H46  1  0.62612096  0.64399312  0.11914203  1
  H  H47  1  0.11914203  0.85600688  0.62612096  1
  H  H48  1  0.37387904  0.35600688  0.88085797  1
  H  H49  1  0.88085797  0.14399312  0.37387904  1
  O  O50  1  0.72220598  0.62117455  0.35963095  1
  O  O51  1  0.35963095  0.87882545  0.72220598  1
  O  O52  1  0.27779402  0.37882545  0.64036905  1
  O  O53  1  0.64036905  0.12117455  0.27779402  1
  O  O54  1  0.70130260  0.77815301  0.42001659  1
  O  O55  1  0.42001659  0.72184699  0.70130260  1
  O  O56  1  0.29869740  0.22184699  0.57998341  1
  O  O57  1  0.57998341  0.27815301  0.29869740  1
  O  O58  1  0.89839371  0.95841734  0.28086647  1
  O  O59  1  0.28086647  0.54158266  0.89839371  1
  O  O60  1  0.10160629  0.04158266  0.71913353  1
  O  O61  1  0.71913353  0.45841734  0.10160629  1
  O  O62  1  0.62929175  0.90489085  0.60920890  1
  O  O63  1  0.60920890  0.59510915  0.62929175  1
  O  O64  1  0.37070825  0.09510915  0.39079110  1
  O  O65  1  0.39079110  0.40489085  0.37070825  1
  O  O66  1  0.97851268  0.79140037  0.34194146  1
  O  O67  1  0.34194146  0.70859963  0.97851268  1
  O  O68  1  0.02148732  0.20859963  0.65805854  1
  O  O69  1  0.65805854  0.29140037  0.02148732  1
  O  O70  1  0.00658648  0.62613825  0.31493788  1
  O  O71  1  0.31493788  0.87386175  0.00658648  1
  O  O72  1  0.99341352  0.37386175  0.68506212  1
  O  O73  1  0.68506212  0.12613825  0.99341352  1
  O  O74  1  0.34132552  0.86816689  0.42469035  1
  O  O75  1  0.42469035  0.63183311  0.34132552  1
  O  O76  1  0.65867448  0.13183311  0.57530965  1
  O  O77  1  0.57530965  0.36816689  0.65867448  1
  O  O78  1  0.99766786  0.61472316  0.59226865  1
  O  O79  1  0.59226865  0.88527684  0.99766786  1
  O  O80  1  0.00233214  0.38527684  0.40773135  1
  O  O81  1  0.40773135  0.11472316  0.00233214  1
  O  O82  1  0.97559632  0.64328357  0.93891250  1
  O  O83  1  0.93891250  0.85671643  0.97559632  1
  O  O84  1  0.02440368  0.35671643  0.06108750  1
  O  O85  1  0.06108750  0.14328357  0.02440368  1
  O  O86  1  0.99060655  0.85482922  0.59166199  1
  O  O87  1  0.59166199  0.64517078  0.99060655  1
  O  O88  1  0.00939345  0.14517078  0.40833801  1
  O  O89  1  0.40833801  0.35482922  0.00939345  1
