# generated using pymatgen
data_LiCuH4Cl3O2
_symmetry_space_group_name_H-M   'P 1'
_cell_length_a   6.19088754
_cell_length_b   11.22982595
_cell_length_c   9.31361295
_cell_angle_alpha   90.00000000
_cell_angle_beta   107.60781717
_cell_angle_gamma   90.00000000
_symmetry_Int_Tables_number   1
_chemical_formula_structural   LiCuH4Cl3O2
_chemical_formula_sum   'Li4 Cu4 H16 Cl12 O8'
_cell_volume   617.17042615
_cell_formula_units_Z   4
loop_
 _symmetry_equiv_pos_site_id
 _symmetry_equiv_pos_as_xyz
  1  'x, y, z'
loop_
 _atom_site_type_symbol
 _atom_site_label
 _atom_site_symmetry_multiplicity
 _atom_site_fract_x
 _atom_site_fract_y
 _atom_site_fract_z
 _atom_site_occupancy
  Li  Li0  1  0.43998825  0.48343339  0.83698612  1
  Li  Li1  1  0.56001175  0.98343339  0.66301388  1
  Li  Li2  1  0.56001175  0.51656661  0.16301388  1
  Li  Li3  1  0.43998825  0.01656661  0.33698612  1
  Cu  Cu4  1  0.83158015  0.49087109  0.61599852  1
  Cu  Cu5  1  0.16841985  0.99087109  0.88400148  1
  Cu  Cu6  1  0.16841985  0.50912891  0.38400148  1
  Cu  Cu7  1  0.83158015  0.00912891  0.11599852  1
  H  H8  1  0.11296729  0.35270567  0.88459736  1
  H  H9  1  0.88703271  0.85270567  0.61540264  1
  H  H10  1  0.88703271  0.64729433  0.11540264  1
  H  H11  1  0.11296729  0.14729433  0.38459736  1
  H  H12  1  0.20382351  0.29917461  0.76042847  1
  H  H13  1  0.79617649  0.79917461  0.73957153  1
  H  H14  1  0.79617649  0.70082539  0.23957153  1
  H  H15  1  0.20382351  0.20082539  0.26042847  1
  H  H16  1  0.60912081  0.18868528  0.55075216  1
  H  H17  1  0.39087919  0.68868528  0.94924784  1
  H  H18  1  0.39087919  0.81131472  0.44924784  1
  H  H19  1  0.60912081  0.31131472  0.05075216  1
  H  H20  1  0.80616762  0.10669829  0.53679738  1
  H  H21  1  0.19383238  0.60669829  0.96320262  1
  H  H22  1  0.19383238  0.89330171  0.46320262  1
  H  H23  1  0.80616762  0.39330171  0.03679738  1
  Cl  Cl24  1  0.54407052  0.36832984  0.62183075  1
  Cl  Cl25  1  0.45592948  0.86832984  0.87816925  1
  Cl  Cl26  1  0.45592948  0.63167016  0.37816925  1
  Cl  Cl27  1  0.54407052  0.13167016  0.12183075  1
  Cl  Cl28  1  0.20481032  0.10137611  0.68194570  1
  Cl  Cl29  1  0.79518968  0.60137611  0.81805430  1
  Cl  Cl30  1  0.79518968  0.89862389  0.31805430  1
  Cl  Cl31  1  0.20481032  0.39862389  0.18194570  1
  Cl  Cl32  1  0.89108109  0.11529031  0.91609213  1
  Cl  Cl33  1  0.10891891  0.61529031  0.58390787  1
  Cl  Cl34  1  0.10891891  0.88470969  0.08390787  1
  Cl  Cl35  1  0.89108109  0.38470969  0.41609213  1
  O  O36  1  0.16996103  0.37474338  0.80184678  1
  O  O37  1  0.83003897  0.87474338  0.69815322  1
  O  O38  1  0.83003897  0.62525662  0.19815322  1
  O  O39  1  0.16996103  0.12525662  0.30184678  1
  O  O40  1  0.64177742  0.10670316  0.52367066  1
  O  O41  1  0.35822258  0.60670316  0.97632934  1
  O  O42  1  0.35822258  0.89329684  0.47632934  1
  O  O43  1  0.64177742  0.39329684  0.02367066  1
