# generated using pymatgen
data_Na2B5H5O11
_symmetry_space_group_name_H-M   'P 1'
_cell_length_a   12.11974263
_cell_length_b   6.57108694
_cell_length_c   11.27269876
_cell_angle_alpha   90.00000000
_cell_angle_beta   90.00000000
_cell_angle_gamma   90.00000000
_symmetry_Int_Tables_number   1
_chemical_formula_structural   Na2B5H5O11
_chemical_formula_sum   'Na8 B20 H20 O44'
_cell_volume   897.75640484
_cell_formula_units_Z   4
loop_
 _symmetry_equiv_pos_site_id
 _symmetry_equiv_pos_as_xyz
  1  'x, y, z'
loop_
 _atom_site_type_symbol
 _atom_site_label
 _atom_site_symmetry_multiplicity
 _atom_site_fract_x
 _atom_site_fract_y
 _atom_site_fract_z
 _atom_site_occupancy
  Na  Na0  1  0.97357286  0.85869197  0.50305792  1
  Na  Na1  1  0.02642714  0.14130803  0.00305792  1
  Na  Na2  1  0.52642714  0.35869197  0.00305792  1
  Na  Na3  1  0.47357286  0.64130803  0.50305792  1
  Na  Na4  1  0.74852491  0.03251339  0.17789811  1
  Na  Na5  1  0.25147509  0.96748661  0.67789811  1
  Na  Na6  1  0.75147509  0.53251339  0.67789811  1
  Na  Na7  1  0.24852491  0.46748661  0.17789811  1
  B  B8  1  0.71800190  0.01784619  0.50765388  1
  B  B9  1  0.28199810  0.98215381  0.00765388  1
  B  B10  1  0.78199810  0.51784619  0.00765388  1
  B  B11  1  0.21800190  0.48215381  0.50765388  1
  B  B12  1  0.65747988  0.35077223  0.42150413  1
  B  B13  1  0.34252012  0.64922777  0.92150413  1
  B  B14  1  0.84252012  0.85077223  0.92150413  1
  B  B15  1  0.15747988  0.14922777  0.42150413  1
  B  B16  1  0.52010848  0.12026617  0.51880791  1
  B  B17  1  0.47989152  0.87973383  0.01880791  1
  B  B18  1  0.97989152  0.62026617  0.01880791  1
  B  B19  1  0.02010848  0.37973383  0.51880791  1
  B  B20  1  0.70328082  0.46393978  0.21374416  1
  B  B21  1  0.29671918  0.53606022  0.71374416  1
  B  B22  1  0.79671918  0.96393978  0.71374416  1
  B  B23  1  0.20328082  0.03606022  0.21374416  1
  B  B24  1  0.71522037  0.70875264  0.37300153  1
  B  B25  1  0.28477963  0.29124736  0.87300153  1
  B  B26  1  0.78477963  0.20875264  0.87300153  1
  B  B27  1  0.21522037  0.79124736  0.37300153  1
  H  H28  1  0.35345381  0.16093860  0.52056970  1
  H  H29  1  0.64654619  0.83906140  0.02056970  1
  H  H30  1  0.14654619  0.66093860  0.02056970  1
  H  H31  1  0.85345381  0.33906140  0.52056970  1
  H  H32  1  0.07857891  0.70146939  0.66330445  1
  H  H33  1  0.92142109  0.29853061  0.16330445  1
  H  H34  1  0.42142109  0.20146939  0.16330445  1
  H  H35  1  0.57857891  0.79853061  0.66330445  1
  H  H36  1  0.02639484  0.83122397  0.76866121  1
  H  H37  1  0.97360516  0.16877603  0.26866121  1
  H  H38  1  0.47360516  0.33122397  0.26866121  1
  H  H39  1  0.52639484  0.66877603  0.76866121  1
  H  H40  1  0.90617495  0.70514221  0.26639248  1
  H  H41  1  0.09382505  0.29485779  0.76639248  1
  H  H42  1  0.59382505  0.20514221  0.76639248  1
  H  H43  1  0.40617495  0.79485779  0.26639248  1
  H  H44  1  0.03112590  0.66374355  0.25447220  1
  H  H45  1  0.96887410  0.33625645  0.75447220  1
  H  H46  1  0.46887410  0.16374355  0.75447220  1
  H  H47  1  0.53112590  0.83625645  0.25447220  1
  O  O48  1  0.60161931  0.98421100  0.55056386  1
  O  O49  1  0.39838069  0.01578900  0.05056386  1
  O  O50  1  0.89838069  0.48421100  0.05056386  1
  O  O51  1  0.10161931  0.51578900  0.55056386  1
  O  O52  1  0.79417907  0.92328402  0.59492140  1
  O  O53  1  0.20582093  0.07671598  0.09492140  1
  O  O54  1  0.70582093  0.42328402  0.09492140  1
  O  O55  1  0.29417907  0.57671598  0.59492140  1
  O  O56  1  0.66617063  0.31878752  0.29035996  1
  O  O57  1  0.33382937  0.68121248  0.79035996  1
  O  O58  1  0.83382937  0.81878752  0.79035996  1
  O  O59  1  0.16617063  0.18121248  0.29035996  1
  O  O60  1  0.54192708  0.29493656  0.45562792  1
  O  O61  1  0.45807292  0.70506344  0.95562792  1
  O  O62  1  0.95807292  0.79493656  0.95562792  1
  O  O63  1  0.04192708  0.20506344  0.45562792  1
  O  O64  1  0.73776606  0.23381474  0.48901866  1
  O  O65  1  0.26223394  0.76618526  0.98901866  1
  O  O66  1  0.76223394  0.73381474  0.98901866  1
  O  O67  1  0.23776606  0.26618526  0.48901866  1
  O  O68  1  0.73630530  0.90790762  0.39469305  1
  O  O69  1  0.26369470  0.09209238  0.89469305  1
  O  O70  1  0.76369470  0.40790762  0.89469305  1
  O  O71  1  0.23630530  0.59209238  0.39469305  1
  O  O72  1  0.67289880  0.57043865  0.45091028  1
  O  O73  1  0.32710120  0.42956135  0.95091028  1
  O  O74  1  0.82710120  0.07043865  0.95091028  1
  O  O75  1  0.17289880  0.92956135  0.45091028  1
  O  O76  1  0.41438167  0.07501131  0.55759973  1
  O  O77  1  0.58561833  0.92498869  0.05759973  1
  O  O78  1  0.08561833  0.57501131  0.05759973  1
  O  O79  1  0.91438167  0.42498869  0.55759973  1
  O  O80  1  0.73924246  0.65380147  0.25473925  1
  O  O81  1  0.26075754  0.34619853  0.75473925  1
  O  O82  1  0.76075754  0.15380147  0.75473925  1
  O  O83  1  0.23924246  0.84619853  0.25473925  1
  O  O84  1  0.06919442  0.84124058  0.69524593  1
  O  O85  1  0.93080558  0.15875942  0.19524593  1
  O  O86  1  0.43080558  0.34124058  0.19524593  1
  O  O87  1  0.56919442  0.65875942  0.69524593  1
  O  O88  1  0.97588250  0.71249939  0.31015228  1
  O  O89  1  0.02411750  0.28750061  0.81015228  1
  O  O90  1  0.52411750  0.21249939  0.81015228  1
  O  O91  1  0.47588250  0.78750061  0.31015228  1
