# generated using pymatgen
data_Na4CaTa4TiO15
_symmetry_space_group_name_H-M   'P 1'
_cell_length_a   5.50649859
_cell_length_b   5.58481078
_cell_length_c   39.11251881
_cell_angle_alpha   89.86709002
_cell_angle_beta   89.95280384
_cell_angle_gamma   90.18084230
_symmetry_Int_Tables_number   1
_chemical_formula_structural   Na4CaTa4TiO15
_chemical_formula_sum   'Na16 Ca4 Ta16 Ti4 O60'
_cell_volume   1202.80797543
_cell_formula_units_Z   4
loop_
 _symmetry_equiv_pos_site_id
 _symmetry_equiv_pos_as_xyz
  1  'x, y, z'
loop_
 _atom_site_type_symbol
 _atom_site_label
 _atom_site_symmetry_multiplicity
 _atom_site_fract_x
 _atom_site_fract_y
 _atom_site_fract_z
 _atom_site_occupancy
  Na  Na0  1  0.00808952  0.96851401  0.35103151  1
  Na  Na1  1  0.00872659  0.97604584  0.55458538  1
  Na  Na2  1  0.00974467  0.97673325  0.74758283  1
  Na  Na3  1  0.00336902  0.98056605  0.95509509  1
  Na  Na4  1  0.49029955  0.47272130  0.15205168  1
  Na  Na5  1  0.49340020  0.48160344  0.55484030  1
  Na  Na6  1  0.49233751  0.47709797  0.74769800  1
  Na  Na7  1  0.48628098  0.48423463  0.95476762  1
  Na  Na8  1  0.50855885  0.51735419  0.24690881  1
  Na  Na9  1  0.50809358  0.51944723  0.04618401  1
  Na  Na10  1  0.51698666  0.51596052  0.64673680  1
  Na  Na11  1  0.50544552  0.52480430  0.44939454  1
  Na  Na12  1  0.50591425  0.52890824  0.85041890  1
  Na  Na13  1  0.99098405  0.02273733  0.24739096  1
  Na  Na14  1  0.98874729  0.02457888  0.04641422  1
  Na  Na15  1  0.99149302  0.02045021  0.64655278  1
  Ca  Ca16  1  0.00892711  0.95438817  0.15216167  1
  Ca  Ca17  1  0.49064495  0.46159654  0.35129271  1
  Ca  Ca18  1  0.98928223  0.04713255  0.44876261  1
  Ca  Ca19  1  0.99163161  0.04322484  0.85044717  1
  Ta  Ta20  1  0.99559170  0.50587623  0.90214132  1
  Ta  Ta21  1  0.50164425  0.99757247  0.09930623  1
  Ta  Ta22  1  0.48936165  0.00488595  0.99992330  1
  Ta  Ta23  1  0.49805282  0.00288086  0.50111731  1
  Ta  Ta24  1  0.50178547  0.99571334  0.29923349  1
  Ta  Ta25  1  0.49620567  0.00185731  0.90089803  1
  Ta  Ta26  1  0.50271262  0.99143530  0.20001400  1
  Ta  Ta27  1  0.50816764  0.99419676  0.60074494  1
  Ta  Ta28  1  0.50093415  0.99871807  0.69932034  1
  Ta  Ta29  1  0.49407408  0.99525179  0.39989576  1
  Ta  Ta30  1  0.49865247  0.00212007  0.79909236  1
  Ta  Ta31  1  0.00098377  0.49350233  0.09940220  1
  Ta  Ta32  1  0.00101152  0.49813813  0.29882844  1
  Ta  Ta33  1  0.99728657  0.50719873  0.50094424  1
  Ta  Ta34  1  0.00560370  0.49835687  0.69789815  1
  Ta  Ta35  1  0.99920448  0.50596064  0.79917916  1
  Ti  Ti36  1  0.98851306  0.50870210  0.00168750  1
  Ti  Ti37  1  0.99552291  0.48216009  0.19926728  1
  Ti  Ti38  1  0.01193556  0.48981489  0.59939354  1
  Ti  Ti39  1  0.99159182  0.50588516  0.40048079  1
  O  O40  1  0.07422508  0.49088658  0.05103949  1
  O  O41  1  0.07167323  0.48946507  0.25052723  1
  O  O42  1  0.07101344  0.48176736  0.44887298  1
  O  O43  1  0.07405583  0.49235783  0.64997959  1
  O  O44  1  0.07441334  0.47976174  0.84985396  1
  O  O45  1  0.22670384  0.22140635  0.39246699  1
  O  O46  1  0.22859554  0.23809760  0.59262610  1
  O  O47  1  0.21560312  0.21247683  0.79356374  1
  O  O48  1  0.21844204  0.22583301  0.19173300  1
  O  O49  1  0.21404217  0.21694650  0.10962248  1
  O  O50  1  0.22802280  0.22838934  0.30927925  1
  O  O51  1  0.21528957  0.21331836  0.50544884  1
  O  O52  1  0.22989186  0.23097673  0.70842878  1
  O  O53  1  0.23501659  0.23321072  0.99324762  1
  O  O54  1  0.21329304  0.21077843  0.90614891  1
  O  O55  1  0.26968318  0.73486806  0.19196822  1
  O  O56  1  0.27477183  0.72889136  0.10962128  1
  O  O57  1  0.26223708  0.73635612  0.59271990  1
  O  O58  1  0.28737447  0.71910071  0.30931407  1
  O  O59  1  0.27300327  0.73090999  0.70852934  1
  O  O60  1  0.28929259  0.71366375  0.39119181  1
  O  O61  1  0.28600955  0.71472312  0.79251023  1
  O  O62  1  0.28554246  0.71461572  0.50665201  1
  O  O63  1  0.28338747  0.71367771  0.90722586  1
  O  O64  1  0.26829371  0.73126538  0.99335479  1
  O  O65  1  0.42687793  0.98863485  0.05080535  1
  O  O66  1  0.42359160  0.99237725  0.25057085  1
  O  O67  1  0.42337949  0.99373287  0.65049664  1
  O  O68  1  0.41689935  0.98389745  0.44951992  1
  O  O69  1  0.41662798  0.98269638  0.84988576  1
  O  O70  1  0.57727207  0.01832315  0.34987091  1
  O  O71  1  0.58199850  0.01807740  0.15002770  1
  O  O72  1  0.57182574  0.01258813  0.54911965  1
  O  O73  1  0.57701723  0.01298185  0.75060516  1
  O  O74  1  0.57377000  0.00843037  0.94927814  1
  O  O75  1  0.72527576  0.27919454  0.20725019  1
  O  O76  1  0.73774070  0.26479443  0.00710970  1
  O  O77  1  0.71475486  0.28517269  0.09269981  1
  O  O78  1  0.73134725  0.26994308  0.60657061  1
  O  O79  1  0.72718116  0.27493825  0.69287102  1
  O  O80  1  0.71626047  0.28575266  0.29351507  1
  O  O81  1  0.72640939  0.27685660  0.40710680  1
  O  O82  1  0.72512971  0.27091800  0.49010565  1
  O  O83  1  0.72459916  0.27190465  0.80918374  1
  O  O84  1  0.72419581  0.26996189  0.89065790  1
  O  O85  1  0.77104537  0.76320341  0.00715652  1
  O  O86  1  0.78369013  0.78681637  0.09409320  1
  O  O87  1  0.77725896  0.78145158  0.20626112  1
  O  O88  1  0.78379626  0.78589765  0.29263082  1
  O  O89  1  0.78926394  0.78485788  0.40814640  1
  O  O90  1  0.78471581  0.78348544  0.49010794  1
  O  O91  1  0.76454925  0.76825366  0.60670839  1
  O  O92  1  0.77468814  0.77588111  0.69301722  1
  O  O93  1  0.78316339  0.78045443  0.89053748  1
  O  O94  1  0.78646345  0.78343838  0.80927036  1
  O  O95  1  0.92680414  0.51796680  0.15049564  1
  O  O96  1  0.91965024  0.51522277  0.35024295  1
  O  O97  1  0.92593856  0.51030356  0.54872531  1
  O  O98  1  0.92413356  0.51081077  0.75075170  1
  O  O99  1  0.92501451  0.50870472  0.94959496  1
