# generated using pymatgen
data_VAs2H4O9
_symmetry_space_group_name_H-M   'P 1'
_cell_length_a   9.28543667
_cell_length_b   9.28543667
_cell_length_c   8.53959139
_cell_angle_alpha   90.00000000
_cell_angle_beta   90.00000000
_cell_angle_gamma   90.00000000
_symmetry_Int_Tables_number   1
_chemical_formula_structural   VAs2H4O9
_chemical_formula_sum   'V4 As8 H16 O36'
_cell_volume   736.27788358
_cell_formula_units_Z   4
loop_
 _symmetry_equiv_pos_site_id
 _symmetry_equiv_pos_as_xyz
  1  'x, y, z'
loop_
 _atom_site_type_symbol
 _atom_site_label
 _atom_site_symmetry_multiplicity
 _atom_site_fract_x
 _atom_site_fract_y
 _atom_site_fract_z
 _atom_site_occupancy
  V  V0  1  0.25000000  0.25000000  0.30387821  1
  V  V1  1  0.25000000  0.25000000  0.80387821  1
  V  V2  1  0.75000000  0.75000000  0.69630582  1
  V  V3  1  0.75000000  0.75000000  0.19630582  1
  As  As4  1  0.53496960  0.46497379  0.25000336  1
  As  As5  1  0.96503040  0.46497379  0.75000336  1
  As  As6  1  0.53496960  0.03502621  0.75000336  1
  As  As7  1  0.96503040  0.03502621  0.25000336  1
  As  As8  1  0.46497379  0.53496960  0.75000336  1
  As  As9  1  0.03502621  0.53496960  0.25000336  1
  As  As10  1  0.46497379  0.96503040  0.25000336  1
  As  As11  1  0.03502621  0.96503040  0.75000336  1
  H  H12  1  0.58721132  0.28823442  0.42931272  1
  H  H13  1  0.91278868  0.28823442  0.92931272  1
  H  H14  1  0.58721132  0.21176558  0.92931272  1
  H  H15  1  0.91278868  0.21176558  0.42931272  1
  H  H16  1  0.28823442  0.58721132  0.92931272  1
  H  H17  1  0.21176558  0.58721132  0.42931272  1
  H  H18  1  0.28823442  0.91278868  0.42931272  1
  H  H19  1  0.21176558  0.91278868  0.92931272  1
  H  H20  1  0.41275235  0.71168639  0.57064595  1
  H  H21  1  0.08724765  0.71168639  0.07064595  1
  H  H22  1  0.41275235  0.78831361  0.07064595  1
  H  H23  1  0.08724765  0.78831361  0.57064595  1
  H  H24  1  0.71168639  0.41275235  0.07064595  1
  H  H25  1  0.78831361  0.41275235  0.57064595  1
  H  H26  1  0.71168639  0.08724765  0.57064595  1
  H  H27  1  0.78831361  0.08724765  0.07064595  1
  O  O28  1  0.62098367  0.38865130  0.41527615  1
  O  O29  1  0.87901633  0.38865130  0.91527615  1
  O  O30  1  0.62098367  0.11134870  0.91527615  1
  O  O31  1  0.87901633  0.11134870  0.41527615  1
  O  O32  1  0.38865130  0.62098367  0.91527615  1
  O  O33  1  0.11134870  0.62098367  0.41527615  1
  O  O34  1  0.38865130  0.87901633  0.41527615  1
  O  O35  1  0.11134870  0.87901633  0.91527615  1
  O  O36  1  0.37891635  0.61122142  0.58474987  1
  O  O37  1  0.12108365  0.61122142  0.08474987  1
  O  O38  1  0.37891635  0.88877858  0.08474987  1
  O  O39  1  0.12108365  0.88877858  0.58474987  1
  O  O40  1  0.61122142  0.37891635  0.08474987  1
  O  O41  1  0.88877858  0.37891635  0.58474987  1
  O  O42  1  0.61122142  0.12108365  0.58474987  1
  O  O43  1  0.88877858  0.12108365  0.08474987  1
  O  O44  1  0.35530416  0.43368355  0.25444582  1
  O  O45  1  0.14469584  0.43368355  0.75444582  1
  O  O46  1  0.35530416  0.06631645  0.75444582  1
  O  O47  1  0.14469584  0.06631645  0.25444582  1
  O  O48  1  0.43368355  0.35530416  0.75444582  1
  O  O49  1  0.06631645  0.35530416  0.25444582  1
  O  O50  1  0.43368355  0.14469584  0.25444582  1
  O  O51  1  0.06631645  0.14469584  0.75444582  1
  O  O52  1  0.64461765  0.56628161  0.74557466  1
  O  O53  1  0.85538235  0.56628161  0.24557466  1
  O  O54  1  0.64461765  0.93371839  0.24557466  1
  O  O55  1  0.85538235  0.93371839  0.74557466  1
  O  O56  1  0.56628161  0.64461765  0.24557466  1
  O  O57  1  0.93371839  0.64461765  0.74557466  1
  O  O58  1  0.56628161  0.85538235  0.74557466  1
  O  O59  1  0.93371839  0.85538235  0.24557466  1
  O  O60  1  0.25000000  0.25000000  0.49610483  1
  O  O61  1  0.25000000  0.25000000  0.99610483  1
  O  O62  1  0.75000000  0.75000000  0.50367706  1
  O  O63  1  0.75000000  0.75000000  0.00367706  1
