# generated using pymatgen
data_MgAsH15O11
_symmetry_space_group_name_H-M   'P 1'
_cell_length_a   6.68559968
_cell_length_b   13.63674088
_cell_length_c   11.45588082
_cell_angle_alpha   88.63584388
_cell_angle_beta   95.57323815
_cell_angle_gamma   104.18962936
_symmetry_Int_Tables_number   1
_chemical_formula_structural   MgAsH15O11
_chemical_formula_sum   'Mg4 As4 H60 O44'
_cell_volume   1007.77788608
_cell_formula_units_Z   4
loop_
 _symmetry_equiv_pos_site_id
 _symmetry_equiv_pos_as_xyz
  1  'x, y, z'
loop_
 _atom_site_type_symbol
 _atom_site_label
 _atom_site_symmetry_multiplicity
 _atom_site_fract_x
 _atom_site_fract_y
 _atom_site_fract_z
 _atom_site_occupancy
  Mg  Mg0  1  0.27976491  0.55953083  0.75000000  1
  Mg  Mg1  1  0.44618575  0.89237249  0.25000000  1
  Mg  Mg2  1  0.55381425  0.10762751  0.75000000  1
  Mg  Mg3  1  0.72023509  0.44046917  0.25000000  1
  As  As4  1  0.02993938  0.19130099  0.45813387  1
  As  As5  1  0.16136161  0.19130099  0.04186613  1
  As  As6  1  0.83863839  0.80869901  0.95813387  1
  As  As7  1  0.97006062  0.80869901  0.54186613  1
  H  H8  1  0.19337340  0.97024782  0.81983475  1
  H  H9  1  0.25717371  0.93152795  0.70105084  1
  H  H10  1  0.07522481  0.76746076  0.32313253  1
  H  H11  1  0.06398433  0.76363693  0.18550837  1
  H  H12  1  0.15359082  0.70273681  0.86848459  1
  H  H13  1  0.01549450  0.56175447  0.12774673  1
  H  H14  1  0.11984335  0.49907787  0.35824598  1
  H  H15  1  0.08069478  0.38083422  0.33857202  1
  H  H16  1  0.17397456  0.38941665  0.89350523  1
  H  H17  1  0.26611694  0.90130423  0.03520134  1
  H  H18  1  0.33223390  0.73582082  0.62180619  1
  H  H19  1  0.39387223  0.87611051  0.49134857  1
  H  H20  1  0.40358692  0.73582082  0.87819381  1
  H  H21  1  0.29245402  0.66148480  0.35099795  1
  H  H22  1  0.00000000  0.00000000  0.50000000  1
  H  H23  1  0.21544209  0.38941665  0.60649477  1
  H  H24  1  0.32950684  0.62376978  0.48119917  1
  H  H25  1  0.12373595  0.24747191  0.25000000  1
  H  H26  1  0.29426295  0.62376978  0.01880083  1
  H  H27  1  0.00000000  0.00000000  0.00000000  1
  H  H28  1  0.36903078  0.66148480  0.14900205  1
  H  H29  1  0.48223828  0.87611051  0.00865143  1
  H  H30  1  0.54914599  0.70273681  0.63151541  1
  H  H31  1  0.63518628  0.90130423  0.46479866  1
  H  H32  1  0.30776405  0.23253924  0.82313253  1
  H  H33  1  0.30034740  0.23636307  0.68550837  1
  H  H34  1  0.67435424  0.93152795  0.79894916  1
  H  H35  1  0.30013944  0.38083422  0.16142798  1
  H  H36  1  0.37923352  0.49907787  0.14175402  1
  H  H37  1  0.45374003  0.43824553  0.62774673  1
  H  H38  1  0.22312558  0.02975218  0.31983475  1
  H  H39  1  0.77687442  0.97024782  0.68016525  1
  H  H40  1  0.54625997  0.56175447  0.37225327  1
  H  H41  1  0.62076648  0.50092213  0.85824598  1
  H  H42  1  0.69986056  0.61916578  0.83857202  1
  H  H43  1  0.32564576  0.06847205  0.20105084  1
  H  H44  1  0.69965260  0.76363693  0.31449163  1
  H  H45  1  0.69223595  0.76746076  0.17686747  1
  H  H46  1  0.36481372  0.09869577  0.53520134  1
  H  H47  1  0.45085401  0.29726319  0.36848459  1
  H  H48  1  0.51776172  0.12389049  0.99134857  1
  H  H49  1  0.63096922  0.33851520  0.85099795  1
  H  H50  1  0.70573705  0.37623022  0.98119917  1
  H  H51  1  0.87626405  0.75252809  0.75000000  1
  H  H52  1  0.67049316  0.37623022  0.51880083  1
  H  H53  1  0.78455791  0.61058335  0.39350523  1
  H  H54  1  0.70754598  0.33851520  0.64900205  1
  H  H55  1  0.59641308  0.26417918  0.12180619  1
  H  H56  1  0.60612777  0.12389049  0.50865143  1
  H  H57  1  0.66776610  0.26417918  0.37819381  1
  H  H58  1  0.73388306  0.09869577  0.96479866  1
  H  H59  1  0.82602544  0.61058335  0.10649477  1
  H  H60  1  0.91930522  0.61916578  0.66142798  1
  H  H61  1  0.88015665  0.50092213  0.64175402  1
  H  H62  1  0.98450550  0.43824553  0.87225327  1
  H  H63  1  0.84640918  0.29726319  0.13151541  1
  H  H64  1  0.93601567  0.23636307  0.81449163  1
  H  H65  1  0.92477519  0.23253924  0.67686747  1
  H  H66  1  0.74282629  0.06847205  0.29894916  1
  H  H67  1  0.80662660  0.02975218  0.18016525  1
  O  O68  1  0.88510525  0.91945810  0.52283386  1
  O  O69  1  0.27500476  0.99151236  0.75296131  1
  O  O70  1  0.22530826  0.83551734  0.59477558  1
  O  O71  1  0.01407703  0.43754578  0.32832944  1
  O  O72  1  0.16625969  0.77794904  0.25578295  1
  O  O73  1  0.13632381  0.45333665  0.86826803  1
  O  O74  1  0.27985186  0.67585077  0.87218220  1
  O  O75  1  0.17671989  0.26283121  0.91740756  1
  O  O76  1  0.08611132  0.26283121  0.58259244  1
  O  O77  1  0.08080620  0.26120933  0.14668108  1
  O  O78  1  0.96564715  0.08054190  0.02283386  1
  O  O79  1  0.39899343  0.88882183  0.07186725  1
  O  O80  1  0.31414562  0.60292636  0.39728128  1
  O  O81  1  0.39599892  0.67585077  0.62781780  1
  O  O82  1  0.28877974  0.60292636  0.10271872  1
  O  O83  1  0.48982840  0.88882183  0.42813275  1
  O  O84  1  0.31701284  0.45333665  0.63173197  1
  O  O85  1  0.18040313  0.26120933  0.35331892  1
  O  O86  1  0.61021008  0.83551734  0.90522442  1
  O  O87  1  0.71650760  0.99151236  0.74703869  1
  O  O88  1  0.57653125  0.56245422  0.82832944  1
  O  O89  1  0.38831065  0.22205096  0.75578295  1
  O  O90  1  0.61168935  0.77794904  0.24421705  1
  O  O91  1  0.42346875  0.43754578  0.17167056  1
  O  O92  1  0.28349240  0.00848764  0.25296131  1
  O  O93  1  0.38978992  0.16448266  0.09477558  1
  O  O94  1  0.81959687  0.73879067  0.64668108  1
  O  O95  1  0.68298716  0.54666335  0.36826803  1
  O  O96  1  0.51017160  0.11117817  0.57186725  1
  O  O97  1  0.71122026  0.39707364  0.89728128  1
  O  O98  1  0.60400108  0.32414923  0.37218220  1
  O  O99  1  0.68585438  0.39707364  0.60271872  1
  O  O100  1  0.60100657  0.11117817  0.92813275  1
  O  O101  1  0.03435285  0.91945810  0.97716614  1
  O  O102  1  0.91919380  0.73879067  0.85331892  1
  O  O103  1  0.91388868  0.73716879  0.41740756  1
  O  O104  1  0.82328011  0.73716879  0.08259244  1
  O  O105  1  0.72014814  0.32414923  0.12781780  1
  O  O106  1  0.86367619  0.54666335  0.13173197  1
  O  O107  1  0.83374031  0.22205096  0.74421705  1
  O  O108  1  0.98592297  0.56245422  0.67167056  1
  O  O109  1  0.77469174  0.16448266  0.40522442  1
  O  O110  1  0.72499524  0.00848764  0.24703869  1
  O  O111  1  0.11489475  0.08054190  0.47716614  1
