# generated using pymatgen
data_Na3SiH5O6
_symmetry_space_group_name_H-M   'P 1'
_cell_length_a   10.52085323
_cell_length_b   10.19514650
_cell_length_c   11.45382236
_cell_angle_alpha   90.00000000
_cell_angle_beta   90.00000000
_cell_angle_gamma   90.00000000
_symmetry_Int_Tables_number   1
_chemical_formula_structural   Na3SiH5O6
_chemical_formula_sum   'Na24 Si8 H40 O48'
_cell_volume   1228.55577043
_cell_formula_units_Z   8
loop_
 _symmetry_equiv_pos_site_id
 _symmetry_equiv_pos_as_xyz
  1  'x, y, z'
loop_
 _atom_site_type_symbol
 _atom_site_label
 _atom_site_symmetry_multiplicity
 _atom_site_fract_x
 _atom_site_fract_y
 _atom_site_fract_z
 _atom_site_occupancy
  Na  Na0  1  0.04729033  0.94328573  0.15538059  1
  Na  Na1  1  0.04729033  0.55671427  0.65538059  1
  Na  Na2  1  0.10627442  0.74722639  0.43209100  1
  Na  Na3  1  0.10627442  0.75277361  0.93209100  1
  Na  Na4  1  0.11531416  0.45585294  0.08129137  1
  Na  Na5  1  0.11531416  0.04414706  0.58129137  1
  Na  Na6  1  0.38468584  0.95585294  0.08129137  1
  Na  Na7  1  0.38468584  0.54414706  0.58129137  1
  Na  Na8  1  0.39372558  0.24722639  0.43209100  1
  Na  Na9  1  0.39372558  0.25277361  0.93209100  1
  Na  Na10  1  0.45270967  0.44328573  0.15538059  1
  Na  Na11  1  0.45270967  0.05671427  0.65538059  1
  Na  Na12  1  0.54729033  0.55671427  0.84461941  1
  Na  Na13  1  0.54729033  0.94328573  0.34461941  1
  Na  Na14  1  0.60627442  0.75277361  0.56790900  1
  Na  Na15  1  0.60627442  0.74722639  0.06790900  1
  Na  Na16  1  0.61531416  0.45585294  0.41870863  1
  Na  Na17  1  0.61531416  0.04414706  0.91870863  1
  Na  Na18  1  0.88468584  0.54414706  0.91870863  1
  Na  Na19  1  0.88468584  0.95585294  0.41870863  1
  Na  Na20  1  0.89372558  0.25277361  0.56790900  1
  Na  Na21  1  0.89372558  0.24722639  0.06790900  1
  Na  Na22  1  0.95270967  0.05671427  0.84461941  1
  Na  Na23  1  0.95270967  0.44328573  0.34461941  1
  Si  Si24  1  0.24660876  0.01723898  0.35479155  1
  Si  Si25  1  0.24660876  0.48276102  0.85479155  1
  Si  Si26  1  0.25339124  0.98276102  0.85479155  1
  Si  Si27  1  0.25339124  0.51723898  0.35479155  1
  Si  Si28  1  0.74660876  0.01723898  0.14520845  1
  Si  Si29  1  0.74660876  0.48276102  0.64520845  1
  Si  Si30  1  0.75339124  0.51723898  0.14520845  1
  Si  Si31  1  0.75339124  0.98276102  0.64520845  1
  H  H32  1  0.98580946  0.67820929  0.15365884  1
  H  H33  1  0.98580946  0.82179071  0.65365884  1
  H  H34  1  0.13341118  0.68852197  0.19477030  1
  H  H35  1  0.13341118  0.81147803  0.69477030  1
  H  H36  1  0.13929289  0.11207748  0.03587378  1
  H  H37  1  0.13929289  0.38792252  0.53587378  1
  H  H38  1  0.16360612  0.17963241  0.15889514  1
  H  H39  1  0.16360612  0.32036759  0.65889514  1
  H  H40  1  0.20010960  0.31248555  0.28300657  1
  H  H41  1  0.20010960  0.18751445  0.78300657  1
  H  H42  1  0.29989040  0.81248555  0.28300657  1
  H  H43  1  0.29989040  0.68751445  0.78300657  1
  H  H44  1  0.33639388  0.67963241  0.15889514  1
  H  H45  1  0.33639388  0.82036759  0.65889514  1
  H  H46  1  0.36070711  0.61207748  0.03587378  1
  H  H47  1  0.36070711  0.88792252  0.53587378  1
  H  H48  1  0.36658882  0.18852197  0.19477030  1
  H  H49  1  0.36658882  0.31147803  0.69477030  1
  H  H50  1  0.51419054  0.32179071  0.65365884  1
  H  H51  1  0.51419054  0.17820929  0.15365884  1
  H  H52  1  0.48580946  0.67820929  0.34634116  1
  H  H53  1  0.48580946  0.82179071  0.84634116  1
  H  H54  1  0.63341118  0.68852197  0.30522970  1
  H  H55  1  0.63341118  0.81147803  0.80522970  1
  H  H56  1  0.63929289  0.11207748  0.46412622  1
  H  H57  1  0.63929289  0.38792252  0.96412622  1
  H  H58  1  0.66360612  0.17963241  0.34110486  1
  H  H59  1  0.66360612  0.32036759  0.84110486  1
  H  H60  1  0.70010960  0.31248555  0.21699343  1
  H  H61  1  0.70010960  0.18751445  0.71699343  1
  H  H62  1  0.79989040  0.68751445  0.71699343  1
  H  H63  1  0.79989040  0.81248555  0.21699343  1
  H  H64  1  0.83639388  0.67963241  0.34110486  1
  H  H65  1  0.83639388  0.82036759  0.84110486  1
  H  H66  1  0.86070711  0.88792252  0.96412622  1
  H  H67  1  0.86070711  0.61207748  0.46412622  1
  H  H68  1  0.86658882  0.18852197  0.30522970  1
  H  H69  1  0.86658882  0.31147803  0.80522970  1
  H  H70  1  0.01419054  0.32179071  0.84634116  1
  H  H71  1  0.01419054  0.17820929  0.34634116  1
  O  O72  1  0.06799808  0.71516673  0.13122532  1
  O  O73  1  0.06799808  0.78483327  0.63122532  1
  O  O74  1  0.10039274  0.53160386  0.86719732  1
  O  O75  1  0.10039274  0.96839614  0.36719732  1
  O  O76  1  0.10895585  0.18774126  0.08751880  1
  O  O77  1  0.10895585  0.31225874  0.58751880  1
  O  O78  1  0.17912654  0.52841587  0.48028841  1
  O  O79  1  0.17912654  0.97158413  0.98028841  1
  O  O80  1  0.17100823  0.09397292  0.77302526  1
  O  O81  1  0.17100823  0.40602708  0.27302526  1
  O  O82  1  0.24042977  0.65639650  0.28117423  1
  O  O83  1  0.24042977  0.84360350  0.78117423  1
  O  O84  1  0.25957023  0.15639650  0.28117423  1
  O  O85  1  0.25957023  0.34360350  0.78117423  1
  O  O86  1  0.32899177  0.90602708  0.27302526  1
  O  O87  1  0.32899177  0.59397292  0.77302526  1
  O  O88  1  0.32087346  0.02841587  0.48028841  1
  O  O89  1  0.32087346  0.47158413  0.98028841  1
  O  O90  1  0.39104415  0.68774126  0.08751880  1
  O  O91  1  0.39104415  0.81225874  0.58751880  1
  O  O92  1  0.39960726  0.46839614  0.36719732  1
  O  O93  1  0.39960726  0.03160386  0.86719732  1
  O  O94  1  0.43200192  0.28483327  0.63122532  1
  O  O95  1  0.43200192  0.21516673  0.13122532  1
  O  O96  1  0.56799808  0.71516673  0.36877468  1
  O  O97  1  0.56799808  0.78483327  0.86877468  1
  O  O98  1  0.60039274  0.53160386  0.63280268  1
  O  O99  1  0.60039274  0.96839614  0.13280268  1
  O  O100  1  0.60895585  0.18774126  0.41248120  1
  O  O101  1  0.60895585  0.31225874  0.91248120  1
  O  O102  1  0.67912654  0.52841587  0.01971159  1
  O  O103  1  0.67912654  0.97158413  0.51971159  1
  O  O104  1  0.67100723  0.40602708  0.22697474  1
  O  O105  1  0.67100723  0.09397292  0.72697474  1
  O  O106  1  0.74042977  0.65639650  0.21882577  1
  O  O107  1  0.74042977  0.84360350  0.71882577  1
  O  O108  1  0.75957023  0.15639650  0.21882577  1
  O  O109  1  0.75957023  0.34360350  0.71882577  1
  O  O110  1  0.82899277  0.59397292  0.72697474  1
  O  O111  1  0.82899277  0.90602708  0.22697474  1
  O  O112  1  0.82087346  0.02841587  0.01971159  1
  O  O113  1  0.82087346  0.47158413  0.51971159  1
  O  O114  1  0.89104415  0.68774126  0.41248120  1
  O  O115  1  0.89104415  0.81225874  0.91248120  1
  O  O116  1  0.89960726  0.03160386  0.63280268  1
  O  O117  1  0.89960726  0.46839614  0.13280268  1
  O  O118  1  0.93200192  0.28483327  0.86877468  1
  O  O119  1  0.93200192  0.21516673  0.36877468  1
