# generated using pymatgen
data_MgCoH16(ClO2)4
_symmetry_space_group_name_H-M   'P 1'
_cell_length_a   6.13323707
_cell_length_b   6.36027189
_cell_length_c   8.68899264
_cell_angle_alpha   82.49065271
_cell_angle_beta   88.80678615
_cell_angle_gamma   86.57674198
_symmetry_Int_Tables_number   1
_chemical_formula_structural   MgCoH16(ClO2)4
_chemical_formula_sum   'Mg1 Co1 H16 Cl4 O8'
_cell_volume   335.41377085
_cell_formula_units_Z   1
loop_
 _symmetry_equiv_pos_site_id
 _symmetry_equiv_pos_as_xyz
  1  'x, y, z'
loop_
 _atom_site_type_symbol
 _atom_site_label
 _atom_site_symmetry_multiplicity
 _atom_site_fract_x
 _atom_site_fract_y
 _atom_site_fract_z
 _atom_site_occupancy
  Mg  Mg0  1  0.50000000  0.50000000  0.50000000  1
  Co  Co1  1  0.00000000  0.00000000  0.00000000  1
  H  H2  1  0.77900025  0.38609323  0.95126203  1
  H  H3  1  0.22099975  0.61390677  0.04873797  1
  H  H4  1  0.60397743  0.21279666  0.97150478  1
  H  H5  1  0.39602257  0.78720334  0.02849522  1
  H  H6  1  0.49632385  0.10596314  0.65950523  1
  H  H7  1  0.50367615  0.89403686  0.34049477  1
  H  H8  1  0.74537893  0.16151320  0.65032358  1
  H  H9  1  0.25462107  0.83848680  0.34967642  1
  H  H10  1  0.25500266  0.45363394  0.77381939  1
  H  H11  1  0.74499734  0.54636606  0.22618061  1
  H  H12  1  0.25163954  0.70065146  0.71079206  1
  H  H13  1  0.74836046  0.29934854  0.28920794  1
  H  H14  1  0.76992636  0.67984881  0.69063006  1
  H  H15  1  0.23007364  0.32015119  0.30936994  1
  H  H16  1  0.85548373  0.71798001  0.51718416  1
  H  H17  1  0.14451627  0.28201999  0.48281584  1
  Cl  Cl18  1  0.11920567  0.03403640  0.72033218  1
  Cl  Cl19  1  0.88079433  0.96596360  0.27966782  1
  Cl  Cl20  1  0.74108614  0.73242849  0.95315986  1
  Cl  Cl21  1  0.25891386  0.26757151  0.04684014  1
  O  O22  1  0.75793707  0.23532401  0.94194173  1
  O  O23  1  0.24206293  0.76467599  0.05805827  1
  O  O24  1  0.60296779  0.19276141  0.59950177  1
  O  O25  1  0.39703221  0.80723859  0.40049823  1
  O  O26  1  0.31011506  0.55844576  0.69170576  1
  O  O27  1  0.68988494  0.44155424  0.30829424  1
  O  O28  1  0.77347800  0.62131023  0.59170783  1
  O  O29  1  0.22652200  0.37868977  0.40829217  1
