# generated using pymatgen
data_Fe6P4H17O27
_symmetry_space_group_name_H-M   'P 1'
_cell_length_a   10.82936472
_cell_length_b   10.82936472
_cell_length_c   19.55807335
_cell_angle_alpha   87.65223667
_cell_angle_beta   92.34776333
_cell_angle_gamma   152.14742103
_symmetry_Int_Tables_number   1
_chemical_formula_structural   Fe6P4H17O27
_chemical_formula_sum   'Fe12 P8 H34 O54'
_cell_volume   1070.64636768
_cell_formula_units_Z   2
loop_
 _symmetry_equiv_pos_site_id
 _symmetry_equiv_pos_as_xyz
  1  'x, y, z'
loop_
 _atom_site_type_symbol
 _atom_site_label
 _atom_site_symmetry_multiplicity
 _atom_site_fract_x
 _atom_site_fract_y
 _atom_site_fract_z
 _atom_site_occupancy
  Fe  Fe0  1  0.00000000  0.50000000  0.50000000  1
  Fe  Fe1  1  0.50000000  0.00000000  0.00000000  1
  Fe  Fe2  1  0.00000000  0.00000000  0.50000000  1
  Fe  Fe3  1  0.00000000  0.00000000  0.00000000  1
  Fe  Fe4  1  0.76865956  0.67763341  0.67360974  1
  Fe  Fe5  1  0.67763341  0.76865956  0.82639026  1
  Fe  Fe6  1  0.23134044  0.32236659  0.32639026  1
  Fe  Fe7  1  0.32236659  0.23134044  0.17360974  1
  Fe  Fe8  1  0.07019148  0.85653468  0.91672430  1
  Fe  Fe9  1  0.85653468  0.07019148  0.58327570  1
  Fe  Fe10  1  0.92980852  0.14346532  0.08327570  1
  Fe  Fe11  1  0.14346532  0.92980852  0.41672430  1
  P  P12  1  0.63060155  0.42101821  0.52495879  1
  P  P13  1  0.42101821  0.63060155  0.97504121  1
  P  P14  1  0.36939845  0.57898179  0.47504121  1
  P  P15  1  0.57898179  0.36939845  0.02495879  1
  P  P16  1  0.35943646  0.54506893  0.68047802  1
  P  P17  1  0.54506893  0.35943646  0.81952198  1
  P  P18  1  0.64056354  0.45493107  0.31952198  1
  P  P19  1  0.45493107  0.64056354  0.18047802  1
  H  H20  1  0.00433102  0.61352387  0.98821057  1
  H  H21  1  0.61352387  0.00433102  0.51178943  1
  H  H22  1  0.99566898  0.38647613  0.01178943  1
  H  H23  1  0.38647613  0.99566898  0.48821057  1
  H  H24  1  0.14199204  0.13718814  0.87388944  1
  H  H25  1  0.13718814  0.14199204  0.62611056  1
  H  H26  1  0.85800796  0.86281186  0.12611056  1
  H  H27  1  0.86281186  0.85800796  0.37388944  1
  H  H28  1  0.05795668  0.57628817  0.74971532  1
  H  H29  1  0.57628817  0.05795668  0.75028468  1
  H  H30  1  0.94204332  0.42371183  0.25028468  1
  H  H31  1  0.42371183  0.94204332  0.24971532  1
  H  H32  1  0.80812726  0.43824914  0.73337554  1
  H  H33  1  0.43824914  0.80812726  0.76662446  1
  H  H34  1  0.19187274  0.56175086  0.26662446  1
  H  H35  1  0.56175086  0.19187274  0.23337554  1
  H  H36  1  0.29331424  0.72186886  0.61310423  1
  H  H37  1  0.72186886  0.29331424  0.88689577  1
  H  H38  1  0.70668576  0.27813114  0.38689577  1
  H  H39  1  0.27813114  0.70668576  0.11310423  1
  H  H40  1  0.02782311  0.54325535  0.64083273  1
  H  H41  1  0.54325535  0.02782311  0.85916727  1
  H  H42  1  0.97217689  0.45674465  0.35916727  1
  H  H43  1  0.45674465  0.97217689  0.14083273  1
  H  H44  1  0.30635041  0.08337103  0.70126017  1
  H  H45  1  0.08337103  0.30635041  0.79873983  1
  H  H46  1  0.69364959  0.91662897  0.29873983  1
  H  H47  1  0.91662897  0.69364959  0.20126017  1
  H  H48  1  0.17583128  0.87882544  0.64715133  1
  H  H49  1  0.87882544  0.17583128  0.85284867  1
  H  H50  1  0.82416872  0.12117456  0.35284867  1
  H  H51  1  0.12117456  0.82416872  0.14715133  1
  H  H52  1  0.07701625  0.07701625  0.75000000  1
  H  H53  1  0.92298375  0.92298375  0.25000000  1
  O  O54  1  0.68969363  0.33499677  0.51339138  1
  O  O55  1  0.33499677  0.68969363  0.98660862  1
  O  O56  1  0.31030637  0.66500323  0.48660862  1
  O  O57  1  0.66500323  0.31030637  0.01339138  1
  O  O58  1  0.17873793  0.32778194  0.51892104  1
  O  O59  1  0.32778194  0.17873793  0.98107896  1
  O  O60  1  0.82126207  0.67221806  0.48107896  1
  O  O61  1  0.67221806  0.82126207  0.01892104  1
  O  O62  1  0.19033908  0.34177417  0.99973815  1
  O  O63  1  0.34177417  0.19033908  0.50026185  1
  O  O64  1  0.80966092  0.65822583  0.00026185  1
  O  O65  1  0.65822583  0.80966092  0.49973815  1
  O  O66  1  0.66157338  0.47419013  0.60100183  1
  O  O67  1  0.47419013  0.66157338  0.89899817  1
  O  O68  1  0.33842662  0.52580987  0.39899817  1
  O  O69  1  0.52580987  0.33842662  0.10100183  1
  O  O70  1  0.42684185  0.46733562  0.66756429  1
  O  O71  1  0.46733562  0.42684185  0.83243571  1
  O  O72  1  0.57315815  0.53266438  0.33243571  1
  O  O73  1  0.53266438  0.57315815  0.16756429  1
  O  O74  1  0.60310009  0.39779151  0.74162297  1
  O  O75  1  0.39779151  0.60310009  0.75837703  1
  O  O76  1  0.39689991  0.60220849  0.25837703  1
  O  O77  1  0.60220849  0.39689991  0.24162297  1
  O  O78  1  0.06645276  0.31010817  0.66150412  1
  O  O79  1  0.31010817  0.06645276  0.83849588  1
  O  O80  1  0.93354724  0.68989183  0.33849588  1
  O  O81  1  0.68989183  0.93354724  0.16150412  1
  O  O82  1  0.78693645  0.52862450  0.86319520  1
  O  O83  1  0.52862450  0.78693645  0.63680480  1
  O  O84  1  0.21306355  0.47137550  0.13680480  1
  O  O85  1  0.47137550  0.21306355  0.36319520  1
  O  O86  1  0.96924864  0.95406969  0.89180083  1
  O  O87  1  0.95406969  0.96924864  0.60819917  1
  O  O88  1  0.03075136  0.04593031  0.10819917  1
  O  O89  1  0.04593031  0.03075136  0.39180083  1
  O  O90  1  0.16801635  0.78367987  0.96374368  1
  O  O91  1  0.78367987  0.16801635  0.53625632  1
  O  O92  1  0.83198365  0.21632013  0.03625632  1
  O  O93  1  0.21632013  0.83198365  0.46374368  1
  O  O94  1  0.88908559  0.88908559  0.75000000  1
  O  O95  1  0.11091441  0.11091441  0.25000000  1
  O  O96  1  0.90518814  0.13587397  0.81978538  1
  O  O97  1  0.13587397  0.90518814  0.68021462  1
  O  O98  1  0.09481186  0.86412603  0.18021462  1
  O  O99  1  0.86412603  0.09481186  0.31978538  1
  O  O100  1  0.15604458  0.66371788  0.60202155  1
  O  O101  1  0.66371788  0.15604458  0.89797845  1
  O  O102  1  0.84395542  0.33628212  0.39797845  1
  O  O103  1  0.33628212  0.84395542  0.10202155  1
  O  O104  1  0.88370404  0.42257366  0.72583425  1
  O  O105  1  0.42257366  0.88370404  0.77416575  1
  O  O106  1  0.11629596  0.57742634  0.27416575  1
  O  O107  1  0.57742634  0.11629596  0.22583425  1
