# generated using pymatgen
data_VZn2HO5
_symmetry_space_group_name_H-M   'P 1'
_cell_length_a   14.79209355
_cell_length_b   6.14185415
_cell_length_c   9.03358284
_cell_angle_alpha   90.00000000
_cell_angle_beta   90.00000000
_cell_angle_gamma   90.00000000
_symmetry_Int_Tables_number   1
_chemical_formula_structural   VZn2HO5
_chemical_formula_sum   'V8 Zn16 H8 O40'
_cell_volume   820.70896102
_cell_formula_units_Z   8
loop_
 _symmetry_equiv_pos_site_id
 _symmetry_equiv_pos_as_xyz
  1  'x, y, z'
loop_
 _atom_site_type_symbol
 _atom_site_label
 _atom_site_symmetry_multiplicity
 _atom_site_fract_x
 _atom_site_fract_y
 _atom_site_fract_z
 _atom_site_occupancy
  V  V0  1  0.92543229  0.25000000  0.68949373  1
  V  V1  1  0.42543229  0.25000000  0.81050627  1
  V  V2  1  0.07456771  0.75000000  0.31050627  1
  V  V3  1  0.57456771  0.75000000  0.18949373  1
  V  V4  1  0.83921208  0.75000000  0.01973660  1
  V  V5  1  0.33921208  0.75000000  0.48026340  1
  V  V6  1  0.16078792  0.25000000  0.98026340  1
  V  V7  1  0.66078792  0.25000000  0.51973660  1
  Zn  Zn8  1  0.92491506  0.25000000  0.08754301  1
  Zn  Zn9  1  0.42491506  0.25000000  0.41245699  1
  Zn  Zn10  1  0.07508494  0.75000000  0.91245699  1
  Zn  Zn11  1  0.57508494  0.75000000  0.58754301  1
  Zn  Zn12  1  0.79400031  0.75000000  0.66024270  1
  Zn  Zn13  1  0.29400031  0.75000000  0.83975730  1
  Zn  Zn14  1  0.20599969  0.25000000  0.33975730  1
  Zn  Zn15  1  0.70599969  0.25000000  0.16024270  1
  Zn  Zn16  1  0.86047595  0.99476887  0.37506123  1
  Zn  Zn17  1  0.36047595  0.50523113  0.12493877  1
  Zn  Zn18  1  0.13952405  0.49476887  0.62493877  1
  Zn  Zn19  1  0.63952405  0.00523113  0.87506123  1
  Zn  Zn20  1  0.13952405  0.00523113  0.62493877  1
  Zn  Zn21  1  0.63952405  0.49476887  0.87506123  1
  Zn  Zn22  1  0.86047595  0.50523113  0.37506123  1
  Zn  Zn23  1  0.36047595  0.99476887  0.12493877  1
  H  H24  1  0.00191762  0.25000000  0.34420904  1
  H  H25  1  0.50191762  0.25000000  0.15579096  1
  H  H26  1  0.99808238  0.75000000  0.65579096  1
  H  H27  1  0.49808238  0.75000000  0.84420904  1
  H  H28  1  0.71423978  0.75000000  0.40037585  1
  H  H29  1  0.21423978  0.75000000  0.09962415  1
  H  H30  1  0.28576022  0.25000000  0.59962415  1
  H  H31  1  0.78576022  0.25000000  0.90037585  1
  O  O32  1  0.75329823  0.75000000  0.87378855  1
  O  O33  1  0.25329823  0.75000000  0.62621145  1
  O  O34  1  0.24670177  0.25000000  0.12621145  1
  O  O35  1  0.74670177  0.25000000  0.37378855  1
  O  O36  1  0.89916725  0.25000000  0.87493899  1
  O  O37  1  0.39916725  0.25000000  0.62506101  1
  O  O38  1  0.10083275  0.75000000  0.12506101  1
  O  O39  1  0.60083275  0.75000000  0.37493899  1
  O  O40  1  0.95849896  0.75000000  0.34304214  1
  O  O41  1  0.45849896  0.75000000  0.15695786  1
  O  O42  1  0.04150104  0.25000000  0.65695786  1
  O  O43  1  0.54150104  0.25000000  0.84304214  1
  O  O44  1  0.87883339  0.01256885  0.61097369  1
  O  O45  1  0.37883339  0.48743115  0.88902631  1
  O  O46  1  0.12116661  0.51256885  0.38902631  1
  O  O47  1  0.62116661  0.98743115  0.11097369  1
  O  O48  1  0.12116661  0.98743115  0.38902631  1
  O  O49  1  0.62116661  0.51256885  0.11097369  1
  O  O50  1  0.87883339  0.48743115  0.61097369  1
  O  O51  1  0.37883339  0.01256885  0.88902631  1
  O  O52  1  0.94041032  0.75000000  0.93399270  1
  O  O53  1  0.44041032  0.75000000  0.56600730  1
  O  O54  1  0.05958968  0.25000000  0.06600730  1
  O  O55  1  0.55958968  0.25000000  0.43399270  1
  O  O56  1  0.83292872  0.98577110  0.13182939  1
  O  O57  1  0.33292872  0.51422890  0.36817061  1
  O  O58  1  0.16707128  0.48577110  0.86817061  1
  O  O59  1  0.66707128  0.01422890  0.63182939  1
  O  O60  1  0.16707128  0.01422890  0.86817061  1
  O  O61  1  0.66707128  0.48577110  0.63182939  1
  O  O62  1  0.83292872  0.51422890  0.13182939  1
  O  O63  1  0.33292872  0.98577110  0.36817061  1
  O  O64  1  0.93846043  0.25000000  0.31358261  1
  O  O65  1  0.43846043  0.25000000  0.18641739  1
  O  O66  1  0.06153957  0.75000000  0.68641739  1
  O  O67  1  0.56153957  0.75000000  0.81358261  1
  O  O68  1  0.77840160  0.75000000  0.43351254  1
  O  O69  1  0.27840160  0.75000000  0.06648746  1
  O  O70  1  0.22159840  0.25000000  0.56648746  1
  O  O71  1  0.72159840  0.25000000  0.93351254  1
