# generated using pymatgen
data_CoH12SO10
_symmetry_space_group_name_H-M   'P 1'
_cell_length_a   6.20330983
_cell_length_b   6.20330983
_cell_length_c   24.22142015
_cell_angle_alpha   82.69165190
_cell_angle_beta   97.30834810
_cell_angle_gamma   108.14409284
_symmetry_Int_Tables_number   1
_chemical_formula_structural   CoH12SO10
_chemical_formula_sum   'Co4 H48 S4 O40'
_cell_volume   874.72240166
_cell_formula_units_Z   4
loop_
 _symmetry_equiv_pos_site_id
 _symmetry_equiv_pos_as_xyz
  1  'x, y, z'
loop_
 _atom_site_type_symbol
 _atom_site_label
 _atom_site_symmetry_multiplicity
 _atom_site_fract_x
 _atom_site_fract_y
 _atom_site_fract_z
 _atom_site_occupancy
  Co  Co0  1  0.00000000  0.00000000  0.50000000  1
  Co  Co1  1  0.00000000  0.00000000  0.00000000  1
  Co  Co2  1  0.05593692  0.05593692  0.75000000  1
  Co  Co3  1  0.94406308  0.94406308  0.25000000  1
  H  H4  1  0.96357777  0.64564060  0.57733920  1
  H  H5  1  0.64564060  0.96357777  0.92266080  1
  H  H6  1  0.03642223  0.35435940  0.42266080  1
  H  H7  1  0.35435940  0.03642223  0.07733920  1
  H  H8  1  0.70784100  0.63809296  0.55426919  1
  H  H9  1  0.63809296  0.70784100  0.94573081  1
  H  H10  1  0.29215900  0.36190704  0.44573081  1
  H  H11  1  0.36190704  0.29215900  0.05426919  1
  H  H12  1  0.73224024  0.70186979  0.43203273  1
  H  H13  1  0.70186979  0.73224024  0.06796727  1
  H  H14  1  0.26775976  0.29813021  0.56796727  1
  H  H15  1  0.29813021  0.26775976  0.93203273  1
  H  H16  1  0.69440587  0.93806734  0.40729617  1
  H  H17  1  0.93806734  0.69440587  0.09270383  1
  H  H18  1  0.30559413  0.06193266  0.59270383  1
  H  H19  1  0.06193266  0.30559413  0.90729617  1
  H  H20  1  0.34618285  0.93653255  0.44987787  1
  H  H21  1  0.93653255  0.34618285  0.05012213  1
  H  H22  1  0.65381715  0.06346745  0.55012213  1
  H  H23  1  0.06346745  0.65381715  0.94987787  1
  H  H24  1  0.30286820  0.75130258  0.50366610  1
  H  H25  1  0.75130258  0.30286820  0.99633390  1
  H  H26  1  0.69713180  0.24869742  0.49633390  1
  H  H27  1  0.24869742  0.69713180  0.00366610  1
  H  H28  1  0.72730446  0.06557067  0.81078361  1
  H  H29  1  0.06557067  0.72730446  0.68921639  1
  H  H30  1  0.27269554  0.93442933  0.18921639  1
  H  H31  1  0.93442933  0.27269554  0.31078361  1
  H  H32  1  0.67273350  0.80957458  0.79925305  1
  H  H33  1  0.80957458  0.67273350  0.70074695  1
  H  H34  1  0.32726650  0.19042542  0.20074695  1
  H  H35  1  0.19042542  0.32726650  0.29925305  1
  H  H36  1  0.28926161  0.43984422  0.80043252  1
  H  H37  1  0.43984422  0.28926161  0.69956748  1
  H  H38  1  0.71073839  0.56015578  0.19956748  1
  H  H39  1  0.56015578  0.71073839  0.30043252  1
  H  H40  1  0.07077145  0.49021429  0.76523981  1
  H  H41  1  0.49021429  0.07077145  0.73476019  1
  H  H42  1  0.92922855  0.50978571  0.23476019  1
  H  H43  1  0.50978571  0.92922855  0.26523981  1
  H  H44  1  0.32839382  0.00053161  0.84361914  1
  H  H45  1  0.00053161  0.32839382  0.65638086  1
  H  H46  1  0.67160618  0.99946839  0.15638086  1
  H  H47  1  0.99946839  0.67160618  0.34361914  1
  H  H48  1  0.10421224  0.78218447  0.84526490  1
  H  H49  1  0.78218447  0.10421224  0.65473510  1
  H  H50  1  0.89578776  0.21781553  0.15473510  1
  H  H51  1  0.21781553  0.89578776  0.34526490  1
  S  S52  1  0.41969412  0.67814562  0.62280287  1
  S  S53  1  0.67814562  0.41969412  0.87719713  1
  S  S54  1  0.58030588  0.32185438  0.37719713  1
  S  S55  1  0.32185438  0.58030588  0.12280287  1
  O  O56  1  0.17690691  0.62559658  0.63492151  1
  O  O57  1  0.62559658  0.17690691  0.86507849  1
  O  O58  1  0.82309309  0.37440342  0.36507849  1
  O  O59  1  0.37440342  0.82309309  0.13492151  1
  O  O60  1  0.54494734  0.56850997  0.66811443  1
  O  O61  1  0.56850997  0.54494734  0.83188557  1
  O  O62  1  0.45505266  0.43149003  0.33188557  1
  O  O63  1  0.43149003  0.45505266  0.16811443  1
  O  O64  1  0.42193843  0.58900158  0.56792944  1
  O  O65  1  0.58900158  0.42193843  0.93207056  1
  O  O66  1  0.57806157  0.41099842  0.43207056  1
  O  O67  1  0.41099842  0.57806157  0.06792944  1
  O  O68  1  0.52942245  0.93105653  0.61716014  1
  O  O69  1  0.93105653  0.52942245  0.88283986  1
  O  O70  1  0.47057755  0.06894347  0.38283986  1
  O  O71  1  0.06894347  0.47057755  0.11716014  1
  O  O72  1  0.86559288  0.67768707  0.54383478  1
  O  O73  1  0.67768707  0.86559288  0.95616522  1
  O  O74  1  0.13440712  0.32231293  0.45616522  1
  O  O75  1  0.32231293  0.13440712  0.04383478  1
  O  O76  1  0.80752230  0.86882692  0.42808264  1
  O  O77  1  0.86882692  0.80752230  0.07191736  1
  O  O78  1  0.19247770  0.13117308  0.57191736  1
  O  O79  1  0.13117308  0.19247770  0.92808264  1
  O  O80  1  0.24792365  0.86798598  0.48028218  1
  O  O81  1  0.86798598  0.24792365  0.01971782  1
  O  O82  1  0.75207635  0.13201402  0.51971782  1
  O  O83  1  0.13201402  0.75207635  0.98028218  1
  O  O84  1  0.72890881  0.96840559  0.78142495  1
  O  O85  1  0.96840559  0.72890881  0.71857505  1
  O  O86  1  0.27109119  0.03159441  0.21857505  1
  O  O87  1  0.03159441  0.27109119  0.28142495  1
  O  O88  1  0.13433068  0.36856173  0.78304920  1
  O  O89  1  0.36856173  0.13433068  0.71695080  1
  O  O90  1  0.86566932  0.63143827  0.21695080  1
  O  O91  1  0.63143827  0.86566932  0.28304920  1
  O  O92  1  0.20042281  0.90408457  0.82081558  1
  O  O93  1  0.90408457  0.20042281  0.67918442  1
  O  O94  1  0.79957719  0.09591543  0.17918442  1
  O  O95  1  0.09591543  0.79957719  0.32081558  1
