# generated using pymatgen
data_Ca2V3Co2AgO12
_symmetry_space_group_name_H-M   'P 1'
_cell_length_a   10.94507564
_cell_length_b   10.94507628
_cell_length_c   10.94507620
_cell_angle_alpha   109.39469352
_cell_angle_beta   109.39469473
_cell_angle_gamma   109.62438095
_symmetry_Int_Tables_number   1
_chemical_formula_structural   Ca2V3Co2AgO12
_chemical_formula_sum   'Ca8 V12 Co8 Ag4 O48'
_cell_volume   1009.32757327
_cell_formula_units_Z   4
loop_
 _symmetry_equiv_pos_site_id
 _symmetry_equiv_pos_as_xyz
  1  'x, y, z'
loop_
 _atom_site_type_symbol
 _atom_site_label
 _atom_site_symmetry_multiplicity
 _atom_site_fract_x
 _atom_site_fract_y
 _atom_site_fract_z
 _atom_site_occupancy
  Ca  Ca0  1  0.25000000  0.87331639  0.62331639  1
  Ca  Ca1  1  0.12668361  0.25000000  0.37668361  1
  Ca  Ca2  1  0.37331639  0.75000000  0.12331639  1
  Ca  Ca3  1  0.25000000  0.37331639  0.12331639  1
  Ca  Ca4  1  0.75000000  0.62668361  0.87668361  1
  Ca  Ca5  1  0.62668361  0.25000000  0.87668361  1
  Ca  Ca6  1  0.87331639  0.75000000  0.62331639  1
  Ca  Ca7  1  0.75000000  0.12668361  0.37668361  1
  V  V8  1  0.12370110  0.75000000  0.87370110  1
  V  V9  1  0.12500000  0.87500000  0.25000000  1
  V  V10  1  0.37500000  0.62500000  0.75000000  1
  V  V11  1  0.25000000  0.62370110  0.37370110  1
  V  V12  1  0.25000000  0.12370110  0.87370110  1
  V  V13  1  0.37629890  0.25000000  0.62629890  1
  V  V14  1  0.62370110  0.75000000  0.37370110  1
  V  V15  1  0.75000000  0.37629890  0.62629890  1
  V  V16  1  0.75000000  0.87629890  0.12629890  1
  V  V17  1  0.62500000  0.37500000  0.25000000  1
  V  V18  1  0.87500000  0.12500000  0.75000000  1
  V  V19  1  0.87629890  0.25000000  0.12629890  1
  Co  Co20  1  0.50000000  0.00000000  0.50000000  1
  Co  Co21  1  0.00000000  0.00000000  0.00000000  1
  Co  Co22  1  0.50000000  0.50000000  0.50000000  1
  Co  Co23  1  0.50000000  0.50000000  0.00000000  1
  Co  Co24  1  0.00000000  0.00000000  0.50000000  1
  Co  Co25  1  0.50000000  0.00000000  0.00000000  1
  Co  Co26  1  0.00000000  0.50000000  0.50000000  1
  Co  Co27  1  0.00000000  0.50000000  0.00000000  1
  Ag  Ag28  1  0.12500000  0.37500000  0.75000000  1
  Ag  Ag29  1  0.62500000  0.87500000  0.75000000  1
  Ag  Ag30  1  0.37500000  0.12500000  0.25000000  1
  Ag  Ag31  1  0.87500000  0.62500000  0.25000000  1
  O  O32  1  0.10452147  0.98376704  0.68984824  1
  O  O33  1  0.01098904  0.30559097  0.90348800  1
  O  O34  1  0.11642391  0.60707319  0.91470832  1
  O  O35  1  0.08532677  0.70608120  0.68984824  1
  O  O36  1  0.09789702  0.89249895  0.40348800  1
  O  O37  1  0.10707319  0.61642391  0.41470832  1
  O  O38  1  0.19440903  0.48901096  0.59651200  1
  O  O39  1  0.40210298  0.80559097  0.79460193  1
  O  O40  1  0.29828442  0.30763514  0.91470832  1
  O  O41  1  0.39249895  0.59789702  0.90348800  1
  O  O42  1  0.30559097  0.90210298  0.29460193  1
  O  O43  1  0.01623296  0.20608120  0.12075444  1
  O  O44  1  0.19236486  0.20171558  0.58529168  1
  O  O45  1  0.20608120  0.58532677  0.18984824  1
  O  O46  1  0.39292681  0.80763514  0.50935072  1
  O  O47  1  0.30763514  0.89292681  0.00935072  1
  O  O48  1  0.29391880  0.48376704  0.37924556  1
  O  O49  1  0.10750105  0.01098904  0.20539807  1
  O  O50  1  0.51098904  0.60750105  0.70539807  1
  O  O51  1  0.39547853  0.08532677  0.87924556  1
  O  O52  1  0.51623296  0.39547853  0.81015176  1
  O  O53  1  0.38357609  0.29828442  0.49064928  1
  O  O54  1  0.58532677  0.89547853  0.37924556  1
  O  O55  1  0.20171558  0.11642391  0.00935072  1
  O  O56  1  0.79828442  0.88357609  0.99064928  1
  O  O57  1  0.41467323  0.10452147  0.62075444  1
  O  O58  1  0.61642391  0.70171558  0.50935072  1
  O  O59  1  0.48376704  0.60452147  0.18984824  1
  O  O60  1  0.60452147  0.91467323  0.12075444  1
  O  O61  1  0.48901096  0.39249895  0.29460193  1
  O  O62  1  0.89249895  0.98901096  0.79460193  1
  O  O63  1  0.70608120  0.51623296  0.62075444  1
  O  O64  1  0.69236486  0.10707319  0.99064928  1
  O  O65  1  0.60707319  0.19236486  0.49064928  1
  O  O66  1  0.79391880  0.41467323  0.81015176  1
  O  O67  1  0.80763514  0.79828442  0.41470832  1
  O  O68  1  0.98376704  0.79391880  0.87924556  1
  O  O69  1  0.69440903  0.09789702  0.70539807  1
  O  O70  1  0.60750105  0.40210298  0.09651200  1
  O  O71  1  0.70171558  0.69236486  0.08529168  1
  O  O72  1  0.59789702  0.19440903  0.20539807  1
  O  O73  1  0.80559097  0.51098904  0.40348800  1
  O  O74  1  0.89292681  0.38357609  0.58529168  1
  O  O75  1  0.90210298  0.10750105  0.59651200  1
  O  O76  1  0.91467323  0.29391880  0.31015176  1
  O  O77  1  0.88357609  0.39292681  0.08529168  1
  O  O78  1  0.98901096  0.69440903  0.09651200  1
  O  O79  1  0.89547853  0.01623296  0.31015176  1
