# generated using pymatgen
data_SrCoBiRuO6
_symmetry_space_group_name_H-M   'P 1'
_cell_length_a   5.60592146
_cell_length_b   5.73895256
_cell_length_c   7.89883259
_cell_angle_alpha   90.00000000
_cell_angle_beta   90.04468954
_cell_angle_gamma   90.00000000
_symmetry_Int_Tables_number   1
_chemical_formula_structural   SrCoBiRuO6
_chemical_formula_sum   'Sr2 Co2 Bi2 Ru2 O12'
_cell_volume   254.12209122
_cell_formula_units_Z   2
loop_
 _symmetry_equiv_pos_site_id
 _symmetry_equiv_pos_as_xyz
  1  'x, y, z'
loop_
 _atom_site_type_symbol
 _atom_site_label
 _atom_site_symmetry_multiplicity
 _atom_site_fract_x
 _atom_site_fract_y
 _atom_site_fract_z
 _atom_site_occupancy
  Sr  Sr0  1  0.00685031  0.03971348  0.24951172  1
  Sr  Sr1  1  0.50685031  0.46028652  0.74951172  1
  Co  Co2  1  0.49906683  0.00559060  0.99877943  1
  Co  Co3  1  -0.00093317  0.49440940  0.49877943  1
  Bi  Bi4  1  0.47686291  0.56052938  0.24775847  1
  Bi  Bi5  1  0.97686291  0.93947062  0.74775847  1
  Ru  Ru6  1  0.50021824  0.00315586  0.49994154  1
  Ru  Ru7  1  0.00021824  0.49684414  -0.00005846  1
  O  O8  1  0.07446552  0.53051108  0.75540088  1
  O  O9  1  0.21648282  0.76494798  0.05004147  1
  O  O10  1  0.23133371  0.78159541  0.45638044  1
  O  O11  1  0.28763585  0.29973420  0.04755799  1
  O  O12  1  0.30575721  0.28555318  0.45091054  1
  O  O13  1  0.40132661  0.01998560  0.74371751  1
  O  O14  1  0.57446552  0.96948892  0.25540088  1
  O  O15  1  0.71648282  0.73505202  0.55004147  1
  O  O16  1  0.73133371  0.71840459  0.95638044  1
  O  O17  1  0.80575721  0.21444682  0.95091054  1
  O  O18  1  0.78763585  0.20026580  0.54755799  1
  O  O19  1  0.90132661  0.48001440  0.24371751  1
