# generated using pymatgen
data_Mg7VFeMo15O56
_symmetry_space_group_name_H-M   'P 1'
_cell_length_a   8.51046903
_cell_length_b   17.41165469
_cell_length_c   9.24221534
_cell_angle_alpha   90.14522160
_cell_angle_beta   89.82467871
_cell_angle_gamma   112.20294598
_symmetry_Int_Tables_number   1
_chemical_formula_structural   Mg7VFeMo15O56
_chemical_formula_sum   'Mg7 V1 Fe1 Mo15 O56'
_cell_volume   1267.96797091
_cell_formula_units_Z   1
loop_
 _symmetry_equiv_pos_site_id
 _symmetry_equiv_pos_as_xyz
  1  'x, y, z'
loop_
 _atom_site_type_symbol
 _atom_site_label
 _atom_site_symmetry_multiplicity
 _atom_site_fract_x
 _atom_site_fract_y
 _atom_site_fract_z
 _atom_site_occupancy
  Mg  Mg0  1  0.00092876  0.59360867  0.50689837  1
  Mg  Mg1  1  0.50439340  0.84517253  0.99206992  1
  Mg  Mg2  1  0.00367909  0.09634268  0.50002663  1
  Mg  Mg3  1  0.49865320  0.65586277  0.00693004  1
  Mg  Mg4  1  0.49337161  0.33914296  0.99671241  1
  Mg  Mg5  1  0.00023599  0.90713091  0.49293807  1
  Mg  Mg6  1  0.99732726  0.40502564  0.49354558  1
  V  V7  1  0.13571299  0.17194516  0.13977755  1
  Fe  Fe8  1  0.49392784  0.15774335  0.00837939  1
  Mo  Mo9  1  0.20406437  0.94745411  0.11782730  1
  Mo  Mo10  1  0.13447436  0.67271106  0.13890705  1
  Mo  Mo11  1  0.29851805  0.80296498  0.61854526  1
  Mo  Mo12  1  0.20052651  0.44583398  0.11876030  1
  Mo  Mo13  1  0.36505709  0.57683717  0.63936130  1
  Mo  Mo14  1  0.63586484  0.92347140  0.36108727  1
  Mo  Mo15  1  0.29851812  0.30271091  0.61858024  1
  Mo  Mo16  1  0.70172599  0.69719307  0.38120521  1
  Mo  Mo17  1  0.86675218  0.82816129  0.86106140  1
  Mo  Mo18  1  0.36675514  0.07873442  0.64171296  1
  Mo  Mo19  1  0.63405140  0.42305132  0.36032788  1
  Mo  Mo20  1  0.79673741  0.55073740  0.88211734  1
  Mo  Mo21  1  0.69701457  0.19647318  0.37782070  1
  Mo  Mo22  1  0.86532561  0.32570266  0.86109067  1
  Mo  Mo23  1  0.80005308  0.05697915  0.88580842  1
  O  O24  1  0.01654727  0.90954227  0.99034470  1
  O  O25  1  0.13755982  0.93036634  0.29934068  1
  O  O26  1  0.04995068  0.74784568  0.16504741  1
  O  O27  1  0.15182221  0.84797215  0.57116612  1
  O  O28  1  0.13371097  0.62725391  0.30931116  1
  O  O29  1  0.34768780  0.90082674  0.07189575  1
  O  O30  1  0.20118261  0.69391092  0.59383641  1
  O  O31  1  0.01092422  0.40627374  0.99114150  1
  O  O32  1  0.36694271  0.82394821  0.79917700  1
  O  O33  1  0.14945932  0.52340371  0.57347116  1
  O  O34  1  0.55118263  0.99855882  0.33591716  1
  O  O35  1  0.35008571  0.72624720  0.07263302  1
  O  O36  1  0.13229955  0.42619005  0.29983281  1
  O  O37  1  0.48751305  0.84248609  0.49113428  1
  O  O38  1  0.06433931  0.24707275  0.15959696  1
  O  O39  1  0.29680741  0.55482733  0.09295523  1
  O  O40  1  0.14907540  0.34628450  0.57234757  1
  O  O41  1  0.36642509  0.62281270  0.80977761  1
  O  O42  1  0.63371660  0.87704490  0.19116128  1
  O  O43  1  0.70166878  0.94758828  0.91037942  1
  O  O44  1  0.51264568  0.65785363  0.50900280  1
  O  O45  1  0.12692860  0.12486374  0.30208900  1
  O  O46  1  0.35019338  0.40285492  0.07168900  1
  O  O47  1  0.20447264  0.19344287  0.59490258  1
  O  O48  1  0.65118556  0.77486064  0.92724003  1
  O  O49  1  0.44949489  0.50172163  0.66410673  1
  O  O50  1  0.85061297  0.97605601  0.42907289  1
  O  O51  1  0.63358609  0.67649390  0.20035735  1
  O  O52  1  0.36757398  0.32385996  0.79879877  1
  O  O53  1  0.15240317  0.02528067  0.57777990  1
  O  O54  1  0.55070579  0.49862204  0.33546741  1
  O  O55  1  0.35132013  0.22021339  0.06766120  1
  O  O56  1  0.79959600  0.80624319  0.40618558  1
  O  O57  1  0.65038804  0.59624847  0.92855621  1
  O  O58  1  0.86754499  0.87335471  0.69072787  1
  O  O59  1  0.48788466  0.34235185  0.49128522  1
  O  O60  1  0.31168210  0.05604646  0.08908532  1
  O  O61  1  0.37313167  0.12678390  0.81329702  1
  O  O62  1  0.63325191  0.37673840  0.19036120  1
  O  O63  1  0.84904704  0.65262296  0.42822045  1
  O  O64  1  0.69932715  0.44160854  0.90747928  1
  O  O65  1  0.95043713  0.75277305  0.83574181  1
  O  O66  1  0.51258605  0.15771589  0.50895892  1
  O  O67  1  0.86578217  0.57209732  0.70129738  1
  O  O68  1  0.64823800  0.27081554  0.92890325  1
  O  O69  1  0.45114449  0.00397891  0.66671258  1
  O  O70  1  0.84943907  0.47524560  0.42748696  1
  O  O71  1  0.62175604  0.17640422  0.19666037  1
  O  O72  1  0.98627026  0.59162224  0.00873663  1
  O  O73  1  0.79561169  0.30478217  0.40395350  1
  O  O74  1  0.64697927  0.10122154  0.93415128  1
  O  O75  1  0.86267032  0.37057999  0.69116842  1
  O  O76  1  0.84230431  0.15133013  0.42285777  1
  O  O77  1  0.94974607  0.25115163  0.83387291  1
  O  O78  1  0.86825083  0.07634564  0.70382696  1
  O  O79  1  0.98323786  0.09436717  0.01034695  1
