# generated using pymatgen
data_KNiH9(CO5)2
_symmetry_space_group_name_H-M   'P 1'
_cell_length_a   5.34345718
_cell_length_b   6.68502840
_cell_length_c   6.99472827
_cell_angle_alpha   116.23073049
_cell_angle_beta   89.83520076
_cell_angle_gamma   107.87549945
_symmetry_Int_Tables_number   1
_chemical_formula_structural   KNiH9(CO5)2
_chemical_formula_sum   'K1 Ni1 H9 C2 O10'
_cell_volume   210.71370235
_cell_formula_units_Z   1
loop_
 _symmetry_equiv_pos_site_id
 _symmetry_equiv_pos_as_xyz
  1  'x, y, z'
loop_
 _atom_site_type_symbol
 _atom_site_label
 _atom_site_symmetry_multiplicity
 _atom_site_fract_x
 _atom_site_fract_y
 _atom_site_fract_z
 _atom_site_occupancy
  K  K0  1  0.00000000  0.00000000  0.00000000  1
  Ni  Ni1  1  0.50000000  0.50000000  0.50000000  1
  H  H2  1  0.35471257  0.74541778  0.87171679  1
  H  H3  1  0.64528743  0.25458222  0.12828321  1
  H  H4  1  0.41542326  0.91314595  0.75213931  1
  H  H5  1  0.58457674  0.08685405  0.24786069  1
  H  H6  1  0.00446450  0.34327803  0.58273241  1
  H  H7  1  0.99553550  0.65672197  0.41726759  1
  H  H8  1  0.19622817  0.20672252  0.60100361  1
  H  H9  1  0.80377183  0.79327748  0.39899639  1
  H  H10  1  0.00000000  0.50000000  0.00000000  1
  C  C11  1  0.62957146  0.30911472  0.79524801  1
  C  C12  1  0.37042854  0.69088528  0.20475199  1
  O  O13  1  0.45986655  0.78568964  0.76772119  1
  O  O14  1  0.54013345  0.21431036  0.23227881  1
  O  O15  1  0.13401214  0.26861542  0.50928217  1
  O  O16  1  0.86598786  0.73138458  0.49071783  1
  O  O17  1  0.71681287  0.44185008  0.70405594  1
  O  O18  1  0.28318713  0.55814992  0.29594406  1
  O  O19  1  0.39313955  0.16034908  0.74991437  1
  O  O20  1  0.60686045  0.83965092  0.25008563  1
  O  O21  1  0.80002135  0.32755703  0.94548933  1
  O  O22  1  0.19997865  0.67244297  0.05451067  1
