# generated using pymatgen
data_Na2Ca(PO4)2
_symmetry_space_group_name_H-M   'P 1'
_cell_length_a   5.50503882
_cell_length_b   7.24746271
_cell_length_c   9.16357446
_cell_angle_alpha   90.00000000
_cell_angle_beta   99.04102706
_cell_angle_gamma   90.00000000
_symmetry_Int_Tables_number   1
_chemical_formula_structural   Na2Ca(PO4)2
_chemical_formula_sum   'Na4 Ca2 P4 O16'
_cell_volume   361.06205304
_cell_formula_units_Z   2
loop_
 _symmetry_equiv_pos_site_id
 _symmetry_equiv_pos_as_xyz
  1  'x, y, z'
loop_
 _atom_site_type_symbol
 _atom_site_label
 _atom_site_symmetry_multiplicity
 _atom_site_fract_x
 _atom_site_fract_y
 _atom_site_fract_z
 _atom_site_occupancy
  Na  Na0  1  0.06316870  0.01612942  0.24189380  1
  Na  Na1  1  0.93683130  0.51612942  0.75810620  1
  Na  Na2  1  0.67472386  0.77205319  0.38373984  1
  Na  Na3  1  0.32527614  0.27205319  0.61626016  1
  Ca  Ca4  1  0.19719860  0.49642550  0.23278613  1
  Ca  Ca5  1  0.80280140  0.99642550  0.76721387  1
  P  P6  1  0.76238600  0.27888529  0.42444137  1
  P  P7  1  0.23761400  0.77888529  0.57555863  1
  P  P8  1  0.69360875  0.64164760  0.03669278  1
  P  P9  1  0.30639125  0.14164760  0.96330722  1
  O  O10  1  0.42759491  0.63530521  0.06952276  1
  O  O11  1  0.57240509  0.13530521  0.93047724  1
  O  O12  1  0.03246276  0.30636542  0.39956074  1
  O  O13  1  0.96753724  0.80636542  0.60043926  1
  O  O14  1  0.66036580  0.09937838  0.34225474  1
  O  O15  1  0.33963420  0.59937838  0.65774526  1
  O  O16  1  0.59892933  0.44498182  0.36899386  1
  O  O17  1  0.40107067  0.94498182  0.63100614  1
  O  O18  1  0.75454152  0.25089110  0.59201901  1
  O  O19  1  0.24545848  0.75089110  0.40798099  1
  O  O20  1  0.86074504  0.75330001  0.15712197  1
  O  O21  1  0.13925496  0.25330001  0.84287803  1
  O  O22  1  0.70524172  0.71828734  0.88097348  1
  O  O23  1  0.29475828  0.21828734  0.11902652  1
  O  O24  1  0.19039223  0.94544974  0.95019539  1
  O  O25  1  0.80960777  0.44544974  0.04980461  1
