# generated using pymatgen
data_Co5P4(HO2)10
_symmetry_space_group_name_H-M   'P 1'
_cell_length_a   8.99932668
_cell_length_b   9.41172057
_cell_length_c   9.81028291
_cell_angle_alpha   95.96063007
_cell_angle_beta   117.30119495
_cell_angle_gamma   90.00000102
_symmetry_Int_Tables_number   1
_chemical_formula_structural   Co5P4(HO2)10
_chemical_formula_sum   'Co10 P8 H20 O40'
_cell_volume   733.30498531
_cell_formula_units_Z   2
loop_
 _symmetry_equiv_pos_site_id
 _symmetry_equiv_pos_as_xyz
  1  'x, y, z'
loop_
 _atom_site_type_symbol
 _atom_site_label
 _atom_site_symmetry_multiplicity
 _atom_site_fract_x
 _atom_site_fract_y
 _atom_site_fract_z
 _atom_site_occupancy
  Co  Co0  1  0.90105185  0.18802597  0.62969087  1
  Co  Co1  1  0.27136099  0.31197403  0.37030913  1
  Co  Co2  1  0.09894815  0.81197403  0.37030913  1
  Co  Co3  1  0.72863901  0.68802597  0.62969087  1
  Co  Co4  1  0.40300132  0.75000000  0.00000000  1
  Co  Co5  1  0.59699868  0.25000000  1.00000000  1
  Co  Co6  1  0.30199326  0.13031300  0.65047999  1
  Co  Co7  1  0.65151326  0.36968700  0.34952001  1
  Co  Co8  1  0.69800674  0.86968700  0.34952001  1
  Co  Co9  1  0.34848674  0.63031300  0.65047999  1
  P  P10  1  0.76271299  0.58933732  0.16631065  1
  P  P11  1  0.59640235  0.91066268  0.83368935  1
  P  P12  1  0.23728701  0.41066268  0.83368935  1
  P  P13  1  0.40359765  0.08933732  0.16631065  1
  P  P14  1  0.07943605  0.87141653  0.67772203  1
  P  P15  1  0.40171402  0.62858347  0.32227797  1
  P  P16  1  0.92056395  0.12858347  0.32227797  1
  P  P17  1  0.59828598  0.37141653  0.67772203  1
  O  O18  1  0.10349178  0.03449003  0.67103674  1
  O  O19  1  0.43245504  0.46550997  0.32896326  1
  O  O20  1  0.89650822  0.96550997  0.32896326  1
  O  O21  1  0.56754496  0.53449003  0.67103674  1
  O  O22  1  0.15896359  0.83969938  0.85122139  1
  O  O23  1  0.30774220  0.66030062  0.14877861  1
  O  O24  1  0.84103641  0.16030062  0.14877861  1
  O  O25  1  0.69225780  0.33969938  0.85122139  1
  O  O26  1  0.64607395  0.71164022  0.15582856  1
  O  O27  1  0.49024539  0.78835978  0.84417144  1
  O  O28  1  0.35392605  0.28835978  0.84417144  1
  O  O29  1  0.50975461  0.21164022  0.15582856  1
  O  O30  1  0.83134129  0.21663422  0.40418773  1
  O  O31  1  0.42715357  0.28336578  0.59581227  1
  O  O32  1  0.16865871  0.78336578  0.59581227  1
  O  O33  1  0.57284643  0.71663422  0.40418773  1
  O  O34  1  0.70169422  0.32550258  0.59289463  1
  O  O35  1  0.10879959  0.17449742  0.40710537  1
  O  O36  1  0.29830578  0.67449742  0.40710537  1
  O  O37  1  0.89120041  0.82550258  0.59289463  1
  O  O38  1  0.68651693  0.03103174  0.51818234  1
  O  O39  1  0.16833459  0.46896826  0.48181766  1
  O  O40  1  0.31348307  0.96896826  0.48181766  1
  O  O41  1  0.83166541  0.53103174  0.51818234  1
  O  O42  1  0.91739689  0.15621243  0.83671315  1
  O  O43  1  0.08068374  0.34378757  0.16328685  1
  O  O44  1  0.08260311  0.84378757  0.16328685  1
  O  O45  1  0.91931626  0.65621243  0.83671315  1
  O  O46  1  0.68565230  0.44216427  0.16632780  1
  O  O47  1  0.51932449  0.05783573  0.83367220  1
  O  O48  1  0.31434770  0.55783573  0.83367220  1
  O  O49  1  0.48067551  0.94216427  0.16632780  1
  O  O50  1  0.06933765  0.37015607  0.68594147  1
  O  O51  1  0.38339619  0.12984393  0.31405853  1
  O  O52  1  0.93066235  0.62984393  0.31405853  1
  O  O53  1  0.61660381  0.87015607  0.68594147  1
  O  O54  1  0.79848613  0.57632217  0.02217157  1
  O  O55  1  0.77631456  0.92367783  0.97782843  1
  O  O56  1  0.20151387  0.42367783  0.97782843  1
  O  O57  1  0.22368544  0.07632217  0.02217157  1
  H  H58  1  0.58739609  0.08933661  0.46934657  1
  H  H59  1  0.11804953  0.41066339  0.53065343  1
  H  H60  1  0.41260391  0.91066339  0.53065343  1
  H  H61  1  0.88195047  0.58933661  0.46934657  1
  H  H62  1  0.67235963  0.97765537  0.59641660  1
  H  H63  1  0.07594303  0.52234463  0.40358340  1
  H  H64  1  0.32764037  0.02234463  0.40358340  1
  H  H65  1  0.92405697  0.47765537  0.59641660  1
  H  H66  1  0.84749558  0.22367365  0.86420380  1
  H  H67  1  0.98329178  0.27632635  0.13579620  1
  H  H68  1  0.15250442  0.77632635  0.13579620  1
  H  H69  1  0.01670822  0.72367365  0.86420380  1
  H  H70  1  0.02803904  0.14502497  0.92455638  1
  H  H71  1  0.10348266  0.35497503  0.07544362  1
  H  H72  1  0.97196096  0.85497503  0.07544362  1
  H  H73  1  0.89651734  0.64502497  0.92455638  1
  H  H74  1  0.75423998  0.47995860  0.95178220  1
  H  H75  1  0.80245778  0.02004140  0.04821780  1
  H  H76  1  0.24576002  0.52004140  0.04821780  1
  H  H77  1  0.19754222  0.97995860  0.95178220  1
