# generated using pymatgen
data_Ce3TaO7
_symmetry_space_group_name_H-M   'P 1'
_cell_length_a   6.67661870
_cell_length_b   6.67661870
_cell_length_c   7.71567181
_cell_angle_alpha   90.00000000
_cell_angle_beta   90.00000000
_cell_angle_gamma   111.53343995
_symmetry_Int_Tables_number   1
_chemical_formula_structural   Ce3TaO7
_chemical_formula_sum   'Ce6 Ta2 O14'
_cell_volume   319.93729424
_cell_formula_units_Z   2
loop_
 _symmetry_equiv_pos_site_id
 _symmetry_equiv_pos_as_xyz
  1  'x, y, z'
loop_
 _atom_site_type_symbol
 _atom_site_label
 _atom_site_symmetry_multiplicity
 _atom_site_fract_x
 _atom_site_fract_y
 _atom_site_fract_z
 _atom_site_occupancy
  Ce  Ce0  1  0.06918972  0.52598741  0.25000000  1
  Ce  Ce1  1  0.47401259  0.93081028  0.75000000  1
  Ce  Ce2  1  0.00000000  0.00000000  0.00000000  1
  Ce  Ce3  1  0.00000000  0.00000000  0.50000000  1
  Ce  Ce4  1  0.52598741  0.06918972  0.25000000  1
  Ce  Ce5  1  0.93081028  0.47401259  0.75000000  1
  Ta  Ta6  1  0.50000000  0.50000000  0.00000000  1
  Ta  Ta7  1  0.50000000  0.50000000  0.50000000  1
  O  O8  1  0.10333285  0.84216302  0.75000000  1
  O  O9  1  0.15783698  0.89666715  0.25000000  1
  O  O10  1  0.18182957  0.43711864  0.53749269  1
  O  O11  1  0.56288136  0.81817043  0.03749269  1
  O  O12  1  0.56288136  0.81817043  0.46250731  1
  O  O13  1  0.18182957  0.43711864  0.96250731  1
  O  O14  1  0.57018480  0.57018480  0.75000000  1
  O  O15  1  0.42981520  0.42981520  0.25000000  1
  O  O16  1  0.43711864  0.18182957  0.96250731  1
  O  O17  1  0.81817043  0.56288136  0.03749269  1
  O  O18  1  0.43711864  0.18182957  0.53749269  1
  O  O19  1  0.81817043  0.56288136  0.46250731  1
  O  O20  1  0.84216302  0.10333285  0.75000000  1
  O  O21  1  0.89666715  0.15783698  0.25000000  1
