# generated using pymatgen
data_Ca9LaTi4Mn6O30
_symmetry_space_group_name_H-M   'P 1'
_cell_length_a   5.39542917
_cell_length_b   5.44179071
_cell_length_c   38.35644327
_cell_angle_alpha   90.05426435
_cell_angle_beta   90.00295854
_cell_angle_gamma   89.89620779
_symmetry_Int_Tables_number   1
_chemical_formula_structural   Ca9LaTi4Mn6O30
_chemical_formula_sum   'Ca18 La2 Ti8 Mn12 O60'
_cell_volume   1126.17336580
_cell_formula_units_Z   2
loop_
 _symmetry_equiv_pos_site_id
 _symmetry_equiv_pos_as_xyz
  1  'x, y, z'
loop_
 _atom_site_type_symbol
 _atom_site_label
 _atom_site_symmetry_multiplicity
 _atom_site_fract_x
 _atom_site_fract_y
 _atom_site_fract_z
 _atom_site_occupancy
  Ca  Ca0  1  0.01309103  0.96568889  0.15027324  1
  Ca  Ca1  1  0.01318078  0.96732346  0.34960798  1
  Ca  Ca2  1  0.01233518  0.96588737  0.55002821  1
  Ca  Ca3  1  0.01337214  0.96595333  0.74982658  1
  Ca  Ca4  1  0.49262032  0.45970495  0.34864497  1
  Ca  Ca5  1  0.49176933  0.45904487  0.15010973  1
  Ca  Ca6  1  0.49132129  0.46028977  0.55134035  1
  Ca  Ca7  1  0.49255916  0.45988561  0.75001935  1
  Ca  Ca8  1  0.49167079  0.46402256  0.94842534  1
  Ca  Ca9  1  0.50696330  0.53829479  0.05060178  1
  Ca  Ca10  1  0.50783892  0.54103157  0.24951586  1
  Ca  Ca11  1  0.50744088  0.54006049  0.65031307  1
  Ca  Ca12  1  0.50988627  0.53683486  0.84977748  1
  Ca  Ca13  1  0.98768825  0.03376829  0.05120636  1
  Ca  Ca14  1  0.98646019  0.03461064  0.24976828  1
  Ca  Ca15  1  0.98612411  0.03454739  0.64998860  1
  Ca  Ca16  1  0.98984006  0.03360951  0.45170402  1
  Ca  Ca17  1  0.98799645  0.03721683  0.84880836  1
  La  La18  1  0.00566141  0.97496559  0.94839934  1
  La  La19  1  0.50358549  0.52719463  0.45157826  1
  Ti  Ti20  1  0.99985464  0.49905569  0.00107339  1
  Ti  Ti21  1  0.99896336  0.49991939  0.10058914  1
  Ti  Ti22  1  0.99983071  0.49988713  0.19991180  1
  Ti  Ti23  1  0.00052566  0.50133132  0.29919033  1
  Ti  Ti24  1  0.99936042  0.49928436  0.39868236  1
  Ti  Ti25  1  0.00133028  0.50032663  0.60038497  1
  Ti  Ti26  1  0.99994403  0.49988739  0.70002681  1
  Ti  Ti27  1  0.99912211  0.50196125  0.79970970  1
  Mn  Mn28  1  0.99951431  0.50054109  0.50168035  1
  Mn  Mn29  1  0.00168278  0.49954770  0.89846913  1
  Mn  Mn30  1  0.49995818  0.99927802  0.10024584  1
  Mn  Mn31  1  0.49870457  0.99967310  0.00080939  1
  Mn  Mn32  1  0.49885638  0.00037161  0.29968669  1
  Mn  Mn33  1  0.50026724  0.00012005  0.19993553  1
  Mn  Mn34  1  0.50232650  0.99925694  0.39929234  1
  Mn  Mn35  1  0.50038284  0.00016780  0.50181516  1
  Mn  Mn36  1  0.49934852  0.00020157  0.60058487  1
  Mn  Mn37  1  0.50127411  0.00010774  0.89809605  1
  Mn  Mn38  1  0.50015874  0.00004038  0.70006101  1
  Mn  Mn39  1  0.49960702  0.99966381  0.79954006  1
  O  O40  1  0.07224150  0.48558511  0.04972740  1
  O  O41  1  0.07356688  0.48448257  0.24993575  1
  O  O42  1  0.05938602  0.48767168  0.45082772  1
  O  O43  1  0.07189091  0.48456043  0.64991807  1
  O  O44  1  0.07434943  0.48589123  0.85017596  1
  O  O45  1  0.21936190  0.21717440  0.19169754  1
  O  O46  1  0.22525122  0.22152515  0.39230983  1
  O  O47  1  0.21793019  0.21531972  0.59194670  1
  O  O48  1  0.21812645  0.21588109  0.10805652  1
  O  O49  1  0.21906591  0.21587758  0.79196959  1
  O  O50  1  0.21803825  0.21710901  0.30835845  1
  O  O51  1  0.22404209  0.21950994  0.99256610  1
  O  O52  1  0.22090616  0.22041426  0.50837243  1
  O  O53  1  0.22016291  0.21672844  0.70832222  1
  O  O54  1  0.22363821  0.22296709  0.90695800  1
  O  O55  1  0.28429057  0.71819152  0.10800640  1
  O  O56  1  0.28478558  0.71872124  0.19186944  1
  O  O57  1  0.28317660  0.71997038  0.30805303  1
  O  O58  1  0.28757038  0.71854194  0.39258443  1
  O  O59  1  0.28382117  0.72024456  0.59234651  1
  O  O60  1  0.28766765  0.71433035  0.50816332  1
  O  O61  1  0.28199896  0.72129118  0.99171660  1
  O  O62  1  0.28551045  0.71949479  0.70820123  1
  O  O63  1  0.28489526  0.71915405  0.79176718  1
  O  O64  1  0.28088357  0.72005588  0.90801656  1
  O  O65  1  0.41791806  0.97979638  0.05024053  1
  O  O66  1  0.41641523  0.98164229  0.24987323  1
  O  O67  1  0.41453079  0.98059431  0.65036385  1
  O  O68  1  0.42449312  0.99383810  0.45011564  1
  O  O69  1  0.41762236  0.97889261  0.84892817  1
  O  O70  1  0.58269000  0.01726468  0.34974527  1
  O  O71  1  0.58302570  0.01865227  0.15008442  1
  O  O72  1  0.58247504  0.01775151  0.55108784  1
  O  O73  1  0.58517601  0.01983687  0.74979816  1
  O  O74  1  0.56392788  0.01426412  0.94978633  1
  O  O75  1  0.72016627  0.27667634  0.00763739  1
  O  O76  1  0.71500142  0.28048564  0.09183536  1
  O  O77  1  0.71570318  0.28100427  0.20797944  1
  O  O78  1  0.71336797  0.28220965  0.29199535  1
  O  O79  1  0.72085371  0.27647108  0.40728294  1
  O  O80  1  0.71223976  0.28133159  0.60812043  1
  O  O81  1  0.72311596  0.27748711  0.49303988  1
  O  O82  1  0.71485125  0.28026778  0.69201536  1
  O  O83  1  0.71430557  0.28028759  0.80792225  1
  O  O84  1  0.72126896  0.27965961  0.89159434  1
  O  O85  1  0.77995173  0.78192687  0.09175547  1
  O  O86  1  0.78168635  0.78380053  0.00745952  1
  O  O87  1  0.78104601  0.78319057  0.20816070  1
  O  O88  1  0.77986605  0.78363660  0.29169971  1
  O  O89  1  0.78065429  0.78002643  0.49196579  1
  O  O90  1  0.78032936  0.78375521  0.69185341  1
  O  O91  1  0.77928215  0.78217913  0.40868277  1
  O  O92  1  0.77836028  0.78325882  0.60827632  1
  O  O93  1  0.77996399  0.78325335  0.80795320  1
  O  O94  1  0.78768987  0.78519810  0.89170797  1
  O  O95  1  0.92603057  0.51532778  0.14997433  1
  O  O96  1  0.92687374  0.51746860  0.35039149  1
  O  O97  1  0.92656779  0.51728556  0.54970368  1
  O  O98  1  0.92747521  0.51491436  0.75022791  1
  O  O99  1  0.93009839  0.50511234  0.94915248  1
