# generated using pymatgen
data_Cs3HoO3
_symmetry_space_group_name_H-M   'P 1'
_cell_length_a   7.61533364
_cell_length_b   7.61533364
_cell_length_c   7.61881900
_cell_angle_alpha   84.03041376
_cell_angle_beta   95.96958624
_cell_angle_gamma   64.12906946
_symmetry_Int_Tables_number   1
_chemical_formula_structural   Cs3HoO3
_chemical_formula_sum   'Cs6 Ho2 O6'
_cell_volume   389.85543698
_cell_formula_units_Z   2
loop_
 _symmetry_equiv_pos_site_id
 _symmetry_equiv_pos_as_xyz
  1  'x, y, z'
loop_
 _atom_site_type_symbol
 _atom_site_label
 _atom_site_symmetry_multiplicity
 _atom_site_fract_x
 _atom_site_fract_y
 _atom_site_fract_z
 _atom_site_occupancy
  Cs  Cs0  1  0.36135740  0.63864260  0.65145062  1
  Cs  Cs1  1  0.20498324  0.20498324  0.50000000  1
  Cs  Cs2  1  0.79501676  0.79501676  0.50000000  1
  Cs  Cs3  1  0.26223362  0.26223362  0.00000000  1
  Cs  Cs4  1  0.73776638  0.73776638  0.00000000  1
  Cs  Cs5  1  0.63864260  0.36135740  0.34854938  1
  Ho  Ho6  1  0.17262426  0.82737574  0.14883330  1
  Ho  Ho7  1  0.82737574  0.17262426  0.85116670  1
  O  O8  1  0.09773865  0.90226135  0.85414827  1
  O  O9  1  0.16440081  0.56554167  0.26509305  1
  O  O10  1  0.43445833  0.83559919  0.26509305  1
  O  O11  1  0.56554167  0.16440081  0.73490695  1
  O  O12  1  0.83559919  0.43445833  0.73490695  1
  O  O13  1  0.90226135  0.09773865  0.14585173  1
