# generated using pymatgen
data_CoH6(SeO4)2
_symmetry_space_group_name_H-M   'P 1'
_cell_length_a   7.21605940
_cell_length_b   7.00526906
_cell_length_c   8.07863436
_cell_angle_alpha   90.00000000
_cell_angle_beta   113.15628722
_cell_angle_gamma   90.00000000
_symmetry_Int_Tables_number   1
_chemical_formula_structural   CoH6(SeO4)2
_chemical_formula_sum   'Co2 H12 Se4 O16'
_cell_volume   375.47774249
_cell_formula_units_Z   2
loop_
 _symmetry_equiv_pos_site_id
 _symmetry_equiv_pos_as_xyz
  1  'x, y, z'
loop_
 _atom_site_type_symbol
 _atom_site_label
 _atom_site_symmetry_multiplicity
 _atom_site_fract_x
 _atom_site_fract_y
 _atom_site_fract_z
 _atom_site_occupancy
  Co  Co0  1  0.00000000  0.50000000  0.50000000  1
  Co  Co1  1  0.50000000  0.00000000  0.00000000  1
  H  H2  1  0.25909179  0.52946488  0.26415559  1
  H  H3  1  0.75909179  0.97053512  0.76415559  1
  H  H4  1  0.74090821  0.47053512  0.73584441  1
  H  H5  1  0.24090821  0.02946488  0.23584441  1
  H  H6  1  0.22432257  0.79457098  0.61415351  1
  H  H7  1  0.72432257  0.70542902  0.11415351  1
  H  H8  1  0.77567743  0.20542902  0.38584649  1
  H  H9  1  0.27567743  0.29457098  0.88584649  1
  H  H10  1  0.11598319  0.83066327  0.40224530  1
  H  H11  1  0.61598319  0.66933673  0.90224530  1
  H  H12  1  0.88401681  0.16933673  0.59775470  1
  H  H13  1  0.38401681  0.33066327  0.09775470  1
  Se  Se14  1  0.55336905  0.73144683  0.37719720  1
  Se  Se15  1  0.05336905  0.76855317  0.87719720  1
  Se  Se16  1  0.44663095  0.26855317  0.62280280  1
  Se  Se17  1  0.94663095  0.23144683  0.12280280  1
  O  O18  1  0.75729878  0.66519075  0.33404910  1
  O  O19  1  0.25729878  0.83480925  0.83404910  1
  O  O20  1  0.24270122  0.33480925  0.66595090  1
  O  O21  1  0.74270122  0.16519075  0.16595090  1
  O  O22  1  0.46254097  0.92442352  0.24039602  1
  O  O23  1  0.96254097  0.57557648  0.74039602  1
  O  O24  1  0.53745903  0.07557648  0.75960398  1
  O  O25  1  0.03745903  0.42442352  0.25960398  1
  O  O26  1  0.38613607  0.54267715  0.24122092  1
  O  O27  1  0.88613607  0.95732285  0.74122092  1
  O  O28  1  0.61386393  0.45732285  0.75877908  1
  O  O29  1  0.11386393  0.04267715  0.25877908  1
  O  O30  1  0.18781371  0.73302319  0.49426130  1
  O  O31  1  0.68781371  0.76697681  0.99426130  1
  O  O32  1  0.81218629  0.26697681  0.50573870  1
  O  O33  1  0.31218629  0.23302319  0.00573870  1
