# generated using pymatgen
data_Bi2OF4
_symmetry_space_group_name_H-M   'P 1'
_cell_length_a   5.66670978
_cell_length_b   7.10502533
_cell_length_c   5.83137679
_cell_angle_alpha   78.88046276
_cell_angle_beta   90.00000000
_cell_angle_gamma   66.49795415
_symmetry_Int_Tables_number   1
_chemical_formula_structural   Bi2OF4
_chemical_formula_sum   'Bi4 O2 F8'
_cell_volume   210.49226612
_cell_formula_units_Z   2
loop_
 _symmetry_equiv_pos_site_id
 _symmetry_equiv_pos_as_xyz
  1  'x, y, z'
loop_
 _atom_site_type_symbol
 _atom_site_label
 _atom_site_symmetry_multiplicity
 _atom_site_fract_x
 _atom_site_fract_y
 _atom_site_fract_z
 _atom_site_occupancy
  Bi  Bi0  1  0.89127432  0.78843869  0.58150557  1
  Bi  Bi1  1  0.32028699  0.78843869  0.08150557  1
  Bi  Bi2  1  0.67971301  0.21156131  0.91849443  1
  Bi  Bi3  1  0.10872568  0.21156131  0.41849443  1
  O  O4  1  0.03878096  0.00000000  0.75000000  1
  O  O5  1  0.96121904  0.00000000  0.25000000  1
  F  F6  1  0.69561022  0.84297935  0.93957145  1
  F  F7  1  0.46141043  0.84297935  0.43957145  1
  F  F8  1  0.28079428  0.57139221  0.82282779  1
  F  F9  1  0.14781351  0.57139221  0.32282779  1
  F  F10  1  0.85218649  0.42860779  0.67717221  1
  F  F11  1  0.71920572  0.42860779  0.17717221  1
  F  F12  1  0.53858957  0.15702065  0.56042855  1
  F  F13  1  0.30438978  0.15702065  0.06042855  1
