# generated using pymatgen
data_Zn3N2
_symmetry_space_group_name_H-M   'P 1'
_cell_length_a   3.40521297
_cell_length_b   5.90000088
_cell_length_c   12.02051062
_cell_angle_alpha   90.00025718
_cell_angle_beta   89.99999737
_cell_angle_gamma   89.99995741
_symmetry_Int_Tables_number   1
_chemical_formula_structural   Zn3N2
_chemical_formula_sum   'Zn12 N8'
_cell_volume   241.50118817
_cell_formula_units_Z   4
loop_
 _symmetry_equiv_pos_site_id
 _symmetry_equiv_pos_as_xyz
  1  'x, y, z'
loop_
 _atom_site_type_symbol
 _atom_site_label
 _atom_site_symmetry_multiplicity
 _atom_site_fract_x
 _atom_site_fract_y
 _atom_site_fract_z
 _atom_site_occupancy
  Zn  Zn0  1  0.99998914  0.33987122  0.07683186  1
  Zn  Zn1  1  0.99999367  0.66015262  0.57683467  1
  Zn  Zn2  1  0.99999082  0.00106654  0.24679342  1
  Zn  Zn3  1  0.99999115  0.32597938  0.41863363  1
  Zn  Zn4  1  0.99999014  0.99895213  0.74679302  1
  Zn  Zn5  1  0.99998857  0.67404068  0.91863082  1
  Zn  Zn6  1  0.49998471  0.82598475  0.08136601  1
  Zn  Zn7  1  0.49998759  0.16015702  0.92316667  1
  Zn  Zn8  1  0.49998989  0.50106692  0.25320670  1
  Zn  Zn9  1  0.49999252  0.49895111  0.75320783  1
  Zn  Zn10  1  0.49999104  0.17403384  0.58136883  1
  Zn  Zn11  1  0.49999351  0.83986480  0.42316791  1
  N  N12  1  0.99998990  0.33447368  0.24747017  1
  N  N13  1  0.99998607  0.99734073  0.00248109  1
  N  N14  1  0.99999181  0.66554509  0.74746975  1
  N  N15  1  0.99999273  0.00267893  0.50248950  1
  N  N16  1  0.49999098  0.83447364  0.25253026  1
  N  N17  1  0.49999162  0.16554688  0.75253014  1
  N  N18  1  0.49999193  0.49733684  0.49751470  1
  N  N19  1  0.49998120  0.50268519  0.99751200  1
