# generated using pymatgen
data_NaZnSiO4
_symmetry_space_group_name_H-M   'P 1'
_cell_length_a   5.18823771
_cell_length_b   7.52905779
_cell_length_c   9.59657038
_cell_angle_alpha   90.00000000
_cell_angle_beta   90.00000000
_cell_angle_gamma   90.00000000
_symmetry_Int_Tables_number   1
_chemical_formula_structural   NaZnSiO4
_chemical_formula_sum   'Na4 Zn4 Si4 O16'
_cell_volume   374.86642918
_cell_formula_units_Z   4
loop_
 _symmetry_equiv_pos_site_id
 _symmetry_equiv_pos_as_xyz
  1  'x, y, z'
loop_
 _atom_site_type_symbol
 _atom_site_label
 _atom_site_symmetry_multiplicity
 _atom_site_fract_x
 _atom_site_fract_y
 _atom_site_fract_z
 _atom_site_occupancy
  Na  Na0  1  0.02402687  0.21107113  0.34469063  1
  Na  Na1  1  0.52402687  0.28892887  0.65530937  1
  Na  Na2  1  0.97597313  0.71107113  0.15530937  1
  Na  Na3  1  0.47597313  0.78892887  0.84469063  1
  Zn  Zn4  1  0.47813757  0.89953842  0.49148329  1
  Zn  Zn5  1  0.97813757  0.60046158  0.50851671  1
  Zn  Zn6  1  0.52186243  0.39953842  0.00851671  1
  Zn  Zn7  1  0.02186243  0.10046158  0.99148329  1
  Si  Si8  1  0.51216732  0.01429584  0.16176253  1
  Si  Si9  1  0.01216732  0.48570416  0.83823747  1
  Si  Si10  1  0.48783268  0.51429584  0.33823747  1
  Si  Si11  1  0.98783268  0.98570416  0.66176253  1
  O  O12  1  0.82527795  0.02192749  0.15334980  1
  O  O13  1  0.32527795  0.47807251  0.84665020  1
  O  O14  1  0.17472205  0.52192749  0.34665020  1
  O  O15  1  0.67472205  0.97807251  0.65334980  1
  O  O16  1  0.41163904  0.03624969  0.32437628  1
  O  O17  1  0.91163904  0.46375031  0.67562372  1
  O  O18  1  0.58836096  0.53624969  0.17562372  1
  O  O19  1  0.08836096  0.96375031  0.82437628  1
  O  O20  1  0.63217443  0.67049124  0.43116383  1
  O  O21  1  0.13217443  0.82950876  0.56883617  1
  O  O22  1  0.36782557  0.17049124  0.06883617  1
  O  O23  1  0.86782557  0.32950876  0.93116383  1
  O  O24  1  0.61511190  0.33091140  0.40333486  1
  O  O25  1  0.11511190  0.16908860  0.59666514  1
  O  O26  1  0.38488810  0.83091140  0.09666514  1
  O  O27  1  0.88488810  0.66908860  0.90333486  1
