# generated using pymatgen
data_Na6MgO4
_symmetry_space_group_name_H-M   'P 1'
_cell_length_a   7.66370169
_cell_length_b   7.66358934
_cell_length_c   5.92568234
_cell_angle_alpha   89.99935258
_cell_angle_beta   90.00033056
_cell_angle_gamma   119.99951176
_symmetry_Int_Tables_number   1
_chemical_formula_structural   Na6MgO4
_chemical_formula_sum   'Na12 Mg2 O8'
_cell_volume   301.39909978
_cell_formula_units_Z   2
loop_
 _symmetry_equiv_pos_site_id
 _symmetry_equiv_pos_as_xyz
  1  'x, y, z'
loop_
 _atom_site_type_symbol
 _atom_site_label
 _atom_site_symmetry_multiplicity
 _atom_site_fract_x
 _atom_site_fract_y
 _atom_site_fract_z
 _atom_site_occupancy
  Na  Na0  1  0.14068240  0.85933059  0.38704026  1
  Na  Na1  1  0.07470713  0.53736012  0.71154837  1
  Na  Na2  1  0.14067059  0.28134879  0.38704117  1
  Na  Na3  1  0.46264315  0.92529884  0.71154599  1
  Na  Na4  1  0.46263867  0.53736626  0.71154261  1
  Na  Na5  1  0.28134724  0.14068086  0.88703482  1
  Na  Na6  1  0.71865276  0.85933362  0.38703482  1
  Na  Na7  1  0.53735685  0.46265569  0.21154599  1
  Na  Na8  1  0.53736133  0.07472659  0.21154261  1
  Na  Na9  1  0.85931760  0.71864819  0.88704026  1
  Na  Na10  1  0.92529287  0.46265299  0.21154837  1
  Na  Na11  1  0.85932941  0.14067720  0.88704117  1
  Mg  Mg12  1  0.33332428  0.66667177  0.10838708  1
  Mg  Mg13  1  0.66667572  0.33334749  0.60838708  1
  O  O14  1  0.19034501  0.80967095  0.99807334  1
  O  O15  1  0.33331215  0.66668138  0.44238038  1
  O  O16  1  0.19033869  0.38068761  0.99808169  1
  O  O17  1  0.61930531  0.80966164  0.99808329  1
  O  O18  1  0.38069469  0.19035633  0.49808329  1
  O  O19  1  0.66668785  0.33336923  0.94238038  1
  O  O20  1  0.80965499  0.61932594  0.49807334  1
  O  O21  1  0.80966131  0.19034891  0.49808169  1
