# generated using pymatgen
data_Sm2Se2O
_symmetry_space_group_name_H-M   'P 1'
_cell_length_a   8.78017692
_cell_length_b   7.25456705
_cell_length_c   7.26727542
_cell_angle_alpha   90.00000000
_cell_angle_beta   99.91765489
_cell_angle_gamma   90.00000000
_symmetry_Int_Tables_number   1
_chemical_formula_structural   Sm2Se2O
_chemical_formula_sum   'Sm8 Se8 O4'
_cell_volume   455.98172696
_cell_formula_units_Z   4
loop_
 _symmetry_equiv_pos_site_id
 _symmetry_equiv_pos_as_xyz
  1  'x, y, z'
loop_
 _atom_site_type_symbol
 _atom_site_label
 _atom_site_symmetry_multiplicity
 _atom_site_fract_x
 _atom_site_fract_y
 _atom_site_fract_z
 _atom_site_occupancy
  Sm  Sm0  1  0.14436873  0.55075846  0.75405913  1
  Sm  Sm1  1  0.14436873  0.94924154  0.25405913  1
  Sm  Sm2  1  0.42721973  0.14850320  0.67232849  1
  Sm  Sm3  1  0.42721973  0.35149680  0.17232849  1
  Sm  Sm4  1  0.57278027  0.64850320  0.82767151  1
  Sm  Sm5  1  0.57278027  0.85149680  0.32767151  1
  Sm  Sm6  1  0.85563127  0.05075846  0.74594087  1
  Sm  Sm7  1  0.85563127  0.44924154  0.24594087  1
  Se  Se8  1  0.07656204  0.22188491  0.52976579  1
  Se  Se9  1  0.07656204  0.27811509  0.02976579  1
  Se  Se10  1  0.31964763  0.87209313  0.92908165  1
  Se  Se11  1  0.31964763  0.62790687  0.42908165  1
  Se  Se12  1  0.68035237  0.37209313  0.57091835  1
  Se  Se13  1  0.68035237  0.12790687  0.07091835  1
  Se  Se14  1  0.92343796  0.72188491  0.97023421  1
  Se  Se15  1  0.92343796  0.77811509  0.47023421  1
  O  O16  1  0.38631296  0.41424159  0.85107241  1
  O  O17  1  0.38631296  0.08575841  0.35107241  1
  O  O18  1  0.61368704  0.91424159  0.64892759  1
  O  O19  1  0.61368704  0.58575841  0.14892759  1
