# generated using pymatgen
data_Na4Ti5O12
_symmetry_space_group_name_H-M   'P 1'
_cell_length_a   13.43561151
_cell_length_b   5.95568936
_cell_length_c   6.45297177
_cell_angle_alpha   89.99291719
_cell_angle_beta   95.87291564
_cell_angle_gamma   83.64283589
_symmetry_Int_Tables_number   1
_chemical_formula_structural   Na4Ti5O12
_chemical_formula_sum   'Na8 Ti10 O24'
_cell_volume   510.45313823
_cell_formula_units_Z   2
loop_
 _symmetry_equiv_pos_site_id
 _symmetry_equiv_pos_as_xyz
  1  'x, y, z'
loop_
 _atom_site_type_symbol
 _atom_site_label
 _atom_site_symmetry_multiplicity
 _atom_site_fract_x
 _atom_site_fract_y
 _atom_site_fract_z
 _atom_site_occupancy
  Na  Na0  1  0.12024796  0.46982825  0.40762467  1
  Na  Na1  1  0.19653372  0.95084519  0.32547854  1
  Na  Na2  1  0.37609898  0.40555448  0.58921437  1
  Na  Na3  1  0.38543136  0.90413248  0.59986836  1
  Na  Na4  1  0.62390102  0.09444552  0.41078563  1
  Na  Na5  1  0.61456864  0.59586752  0.40013164  1
  Na  Na6  1  0.80346628  0.54915481  0.67452146  1
  Na  Na7  1  0.87975204  0.03017175  0.59237533  1
  Ti  Ti8  1  0.00747806  0.99812797  0.01921025  1
  Ti  Ti9  1  0.99252194  0.50187203  0.98078975  1
  Ti  Ti10  1  0.18889590  0.20103062  0.83502852  1
  Ti  Ti11  1  0.18896221  0.70433880  0.83502626  1
  Ti  Ti12  1  0.41558012  0.89801864  0.09842490  1
  Ti  Ti13  1  0.41131710  0.39665704  0.09764670  1
  Ti  Ti14  1  0.58868290  0.10334296  0.90235330  1
  Ti  Ti15  1  0.58441988  0.60198136  0.90157510  1
  Ti  Ti16  1  0.81110410  0.29896938  0.16497148  1
  Ti  Ti17  1  0.81103779  0.79566120  0.16497374  1
  O  O18  1  0.09042883  0.97732999  0.77453102  1
  O  O19  1  0.09166663  0.47707037  0.77061864  1
  O  O20  1  0.08428262  0.22603249  0.12255986  1
  O  O21  1  0.08429907  0.73187052  0.12256000  1
  O  O22  1  0.23915469  0.18819014  0.59829467  1
  O  O23  1  0.23914116  0.69209018  0.59809216  1
  O  O24  1  0.27053564  0.43231504  0.98539560  1
  O  O25  1  0.26953081  0.93261150  0.99057920  1
  O  O26  1  0.40839394  0.14703023  0.28682759  1
  O  O27  1  0.40959074  0.64835412  0.28641738  1
  O  O28  1  0.43735116  0.13992681  0.88702281  1
  O  O29  1  0.43674749  0.64134196  0.88468507  1
  O  O30  1  0.56264884  0.36007319  0.11297719  1
  O  O31  1  0.56325251  0.85865804  0.11531493  1
  O  O32  1  0.59040926  0.85164588  0.71358262  1
  O  O33  1  0.59160606  0.35296977  0.71317241  1
  O  O34  1  0.73046919  0.56738850  0.00942080  1
  O  O35  1  0.72946436  0.06768496  0.01460440  1
  O  O36  1  0.76084531  0.31180986  0.40170533  1
  O  O37  1  0.76085884  0.80790982  0.40190784  1
  O  O38  1  0.91571738  0.27396751  0.87744014  1
  O  O39  1  0.91570093  0.76812948  0.87744000  1
  O  O40  1  0.90833337  0.02292963  0.22938136  1
  O  O41  1  0.90957117  0.52267001  0.22546898  1
