# generated using pymatgen
data_Ag2B8O13
_symmetry_space_group_name_H-M   'P 1'
_cell_length_a   12.03895666
_cell_length_b   7.89822624
_cell_length_c   10.66395301
_cell_angle_alpha   89.99107001
_cell_angle_beta   99.77537960
_cell_angle_gamma   90.00672958
_symmetry_Int_Tables_number   1
_chemical_formula_structural   Ag2B8O13
_chemical_formula_sum   'Ag8 B32 O52'
_cell_volume   999.27464740
_cell_formula_units_Z   4
loop_
 _symmetry_equiv_pos_site_id
 _symmetry_equiv_pos_as_xyz
  1  'x, y, z'
loop_
 _atom_site_type_symbol
 _atom_site_label
 _atom_site_symmetry_multiplicity
 _atom_site_fract_x
 _atom_site_fract_y
 _atom_site_fract_z
 _atom_site_occupancy
  Ag  Ag0  1  0.08460045  0.86262374  0.53600806  1
  Ag  Ag1  1  0.08516345  0.63746319  0.03609215  1
  Ag  Ag2  1  0.38271606  0.60917324  0.68835251  1
  Ag  Ag3  1  0.38991600  0.92884532  0.19789326  1
  Ag  Ag4  1  0.61033373  0.07253586  0.80230991  1
  Ag  Ag5  1  0.61021106  0.42846032  0.30231081  1
  Ag  Ag6  1  0.91475922  0.36252401  0.96383473  1
  Ag  Ag7  1  0.91484903  0.13764955  0.46384701  1
  B  B8  1  0.00419935  0.34082291  0.72174641  1
  B  B9  1  0.00427962  0.15905768  0.22172069  1
  B  B10  1  0.13776808  0.58590700  0.76264079  1
  B  B11  1  0.12468638  0.40524188  0.56527278  1
  B  B12  1  0.13791144  0.91400614  0.26228211  1
  B  B13  1  0.23930030  0.08175877  0.88919245  1
  B  B14  1  0.12466418  0.09475508  0.06525407  1
  B  B15  1  0.29693513  0.51034701  0.95820596  1
  B  B16  1  0.23923240  0.41847987  0.38899889  1
  B  B17  1  0.32713928  0.05102993  0.69503347  1
  B  B18  1  0.29672564  0.98975331  0.45823920  1
  B  B19  1  0.39728899  0.89313166  0.89777453  1
  B  B20  1  0.32721261  0.44969144  0.19497557  1
  B  B21  1  0.39718532  0.60690152  0.39641488  1
  B  B22  1  0.44155002  0.18642411  0.54822244  1
  B  B23  1  0.55844294  0.68578934  0.95182530  1
  B  B24  1  0.44146072  0.31398496  0.04793293  1
  B  B25  1  0.55854737  0.81401980  0.45200888  1
  B  B26  1  0.60276383  0.39317071  0.60332536  1
  B  B27  1  0.67256043  0.54965864  0.80441020  1
  B  B28  1  0.60280588  0.10702234  0.10292069  1
  B  B29  1  0.70328217  0.01063143  0.54161880  1
  B  B30  1  0.67279889  0.94989823  0.30463024  1
  B  B31  1  0.76053434  0.58150263  0.61074226  1
  B  B32  1  0.70325543  0.48939782  0.04148870  1
  B  B33  1  0.87529636  0.90522622  0.93473209  1
  B  B34  1  0.76065383  0.91848623  0.11069723  1
  B  B35  1  0.86203937  0.08592873  0.73767171  1
  B  B36  1  0.87530796  0.59471085  0.43478788  1
  B  B37  1  0.86199422  0.41406953  0.23762098  1
  B  B38  1  0.99564199  0.84100017  0.77827718  1
  B  B39  1  0.99570545  0.65905038  0.27821316  1
  O  O40  1  0.05823479  0.46312002  0.80039577  1
  O  O41  1  0.03661941  0.31169921  0.60246521  1
  O  O42  1  0.08414061  0.75581130  0.74424862  1
  O  O43  1  0.15363814  0.14021051  0.94944874  1
  O  O44  1  0.05836222  0.03676300  0.30033688  1
  O  O45  1  0.03653017  0.18815147  0.10240542  1
  O  O46  1  0.08421494  0.74421963  0.24427292  1
  O  O47  1  0.17070348  0.53670326  0.63805769  1
  O  O48  1  0.15372101  0.35971470  0.44959640  1
  O  O49  1  0.24318786  0.59826318  0.85504026  1
  O  O50  1  0.24436252  0.12189764  0.76668807  1
  O  O51  1  0.17119319  0.96369589  0.13813793  1
  O  O52  1  0.32257518  0.98014025  0.96021035  1
  O  O53  1  0.26623556  0.97252204  0.57615594  1
  O  O54  1  0.24356990  0.90219616  0.35485643  1
  O  O55  1  0.24443824  0.37803820  0.26671738  1
  O  O56  1  0.38830282  0.40736773  0.94462971  1
  O  O57  1  0.32231012  0.52081887  0.45949534  1
  O  O58  1  0.26613476  0.52690800  0.07593800  1
  O  O59  1  0.39765895  0.91584075  0.77115912  1
  O  O60  1  0.40787818  0.17951737  0.66383819  1
  O  O61  1  0.38812600  0.09294380  0.44460607  1
  O  O62  1  0.47008101  0.78761627  0.97571676  1
  O  O63  1  0.39811153  0.58374005  0.27050755  1
  O  O64  1  0.40767955  0.31945525  0.16369990  1
  O  O65  1  0.46977066  0.71260607  0.47525707  1
  O  O66  1  0.52990894  0.28783453  0.52476158  1
  O  O67  1  0.59229517  0.68053059  0.83625917  1
  O  O68  1  0.60281245  0.41560519  0.72942788  1
  O  O69  1  0.52995205  0.21228224  0.02458454  1
  O  O70  1  0.61160189  0.90756643  0.55534218  1
  O  O71  1  0.59234047  0.81953492  0.33635698  1
  O  O72  1  0.60205097  0.08360594  0.22912928  1
  O  O73  1  0.73397370  0.47312806  0.92394639  1
  O  O74  1  0.67725303  0.48005355  0.53981222  1
  O  O75  1  0.61161306  0.59231731  0.05526813  1
  O  O76  1  0.75553324  0.62197481  0.73312311  1
  O  O77  1  0.75643699  0.09762369  0.64514586  1
  O  O78  1  0.73391311  0.02692526  0.42385966  1
  O  O79  1  0.67751853  0.02031819  0.03994278  1
  O  O80  1  0.82887690  0.03629079  0.86188550  1
  O  O81  1  0.75557527  0.87811607  0.23323562  1
  O  O82  1  0.75639573  0.40223036  0.14524274  1
  O  O83  1  0.84636514  0.64021674  0.55044278  1
  O  O84  1  0.82889622  0.46362253  0.36189001  1
  O  O85  1  0.91579996  0.25572883  0.75570537  1
  O  O86  1  0.96348396  0.81182806  0.89759563  1
  O  O87  1  0.94170434  0.96325768  0.69966309  1
  O  O88  1  0.84635333  0.85976250  0.05052780  1
  O  O89  1  0.91581694  0.24423137  0.25575399  1
  O  O90  1  0.96347104  0.68814862  0.39755785  1
  O  O91  1  0.94168786  0.53675458  0.19966286  1
