# generated using pymatgen
data_InH10N2Cl5O
_symmetry_space_group_name_H-M   'P 1'
_cell_length_a   14.06326512
_cell_length_b   10.25436812
_cell_length_c   7.24004619
_cell_angle_alpha   90.00000000
_cell_angle_beta   90.00000000
_cell_angle_gamma   90.00000000
_symmetry_Int_Tables_number   1
_chemical_formula_structural   InH10N2Cl5O
_chemical_formula_sum   'In4 H40 N8 Cl20 O4'
_cell_volume   1044.08631902
_cell_formula_units_Z   4
loop_
 _symmetry_equiv_pos_site_id
 _symmetry_equiv_pos_as_xyz
  1  'x, y, z'
loop_
 _atom_site_type_symbol
 _atom_site_label
 _atom_site_symmetry_multiplicity
 _atom_site_fract_x
 _atom_site_fract_y
 _atom_site_fract_z
 _atom_site_occupancy
  In  In0  1  0.11498292  0.25000000  0.19107358  1
  In  In1  1  0.38501708  0.75000000  0.69107358  1
  In  In2  1  0.61498292  0.25000000  0.30892642  1
  In  In3  1  0.88501708  0.75000000  0.80892642  1
  H  H4  1  0.03666976  0.67156471  0.06954914  1
  H  H5  1  0.03666976  0.82843529  0.06954914  1
  H  H6  1  0.07534035  0.53016558  0.66969355  1
  H  H7  1  0.07534035  0.96983442  0.66969355  1
  H  H8  1  0.14135210  0.10605171  0.64045115  1
  H  H9  1  0.14135210  0.39394829  0.64045115  1
  H  H10  1  0.17661516  0.53692911  0.54761083  1
  H  H11  1  0.17661516  0.96307089  0.54761083  1
  H  H12  1  0.18123548  0.98396151  0.77677443  1
  H  H13  1  0.18123548  0.51603849  0.77677443  1
  H  H14  1  0.31876452  0.01603849  0.27677443  1
  H  H15  1  0.31876452  0.48396151  0.27677443  1
  H  H16  1  0.32338484  0.03692911  0.04761083  1
  H  H17  1  0.32338484  0.46307089  0.04761083  1
  H  H18  1  0.35864790  0.60605171  0.14045115  1
  H  H19  1  0.35864790  0.89394829  0.14045115  1
  H  H20  1  0.42465965  0.03016558  0.16969355  1
  H  H21  1  0.42465965  0.46983442  0.16969355  1
  H  H22  1  0.46333024  0.17156471  0.56954914  1
  H  H23  1  0.46333024  0.32843529  0.56954914  1
  H  H24  1  0.53666976  0.67156471  0.43045086  1
  H  H25  1  0.53666976  0.82843529  0.43045086  1
  H  H26  1  0.57534035  0.53016558  0.83030645  1
  H  H27  1  0.57534035  0.96983442  0.83030645  1
  H  H28  1  0.64135210  0.10605171  0.85954885  1
  H  H29  1  0.64135210  0.39394829  0.85954885  1
  H  H30  1  0.67661516  0.53692911  0.95238917  1
  H  H31  1  0.67661516  0.96307089  0.95238917  1
  H  H32  1  0.68123548  0.51603849  0.72322557  1
  H  H33  1  0.68123548  0.98396151  0.72322557  1
  H  H34  1  0.81876452  0.01603849  0.22322557  1
  H  H35  1  0.81876452  0.48396151  0.22322557  1
  H  H36  1  0.82338484  0.03692911  0.45238917  1
  H  H37  1  0.82338484  0.46307089  0.45238917  1
  H  H38  1  0.85864790  0.60605171  0.35954885  1
  H  H39  1  0.85864790  0.89394829  0.35954885  1
  H  H40  1  0.92465965  0.03016558  0.33030645  1
  H  H41  1  0.92465965  0.46983442  0.33030645  1
  H  H42  1  0.96333024  0.17156471  0.93045086  1
  H  H43  1  0.96333024  0.32843529  0.93045086  1
  N  N44  1  0.14362724  0.00587032  0.65902818  1
  N  N45  1  0.14362724  0.49412968  0.65902818  1
  N  N46  1  0.35637276  0.50587032  0.15902818  1
  N  N47  1  0.35637276  0.99412968  0.15902818  1
  N  N48  1  0.64362724  0.00587032  0.84097182  1
  N  N49  1  0.64362724  0.49412968  0.84097182  1
  N  N50  1  0.85637276  0.50587032  0.34097182  1
  N  N51  1  0.85637276  0.99412968  0.34097182  1
  Cl  Cl52  1  0.00279431  0.25000000  0.46392767  1
  Cl  Cl53  1  0.10380625  0.00143943  0.18234315  1
  Cl  Cl54  1  0.10380625  0.49856057  0.18234315  1
  Cl  Cl55  1  0.22602539  0.25000000  0.91902873  1
  Cl  Cl56  1  0.24511953  0.75000000  0.90810585  1
  Cl  Cl57  1  0.25488047  0.25000000  0.40810585  1
  Cl  Cl58  1  0.27397461  0.75000000  0.41902873  1
  Cl  Cl59  1  0.39619375  0.50143943  0.68234315  1
  Cl  Cl60  1  0.39619375  0.99856057  0.68234315  1
  Cl  Cl61  1  0.49720569  0.75000000  0.96392767  1
  Cl  Cl62  1  0.50279431  0.25000000  0.03607233  1
  Cl  Cl63  1  0.60380625  0.00143943  0.31765685  1
  Cl  Cl64  1  0.60380625  0.49856057  0.31765685  1
  Cl  Cl65  1  0.72602539  0.25000000  0.58097127  1
  Cl  Cl66  1  0.74511953  0.75000000  0.59189415  1
  Cl  Cl67  1  0.75488047  0.25000000  0.09189415  1
  Cl  Cl68  1  0.77397461  0.75000000  0.08097127  1
  Cl  Cl69  1  0.89619375  0.50143943  0.81765685  1
  Cl  Cl70  1  0.89619375  0.99856057  0.81765685  1
  Cl  Cl71  1  0.99720569  0.75000000  0.53607233  1
  O  O72  1  0.00956680  0.75000000  0.01047399  1
  O  O73  1  0.49043320  0.25000000  0.51047399  1
  O  O74  1  0.50956680  0.75000000  0.48952601  1
  O  O75  1  0.99043320  0.25000000  0.98952601  1
