# generated using pymatgen
data_UH12S2O15
_symmetry_space_group_name_H-M   'P 1'
_cell_length_a   6.95785295
_cell_length_b   6.95785295
_cell_length_c   14.94503936
_cell_angle_alpha   92.64825976
_cell_angle_beta   104.26015393
_cell_angle_gamma   111.81832425
_symmetry_Int_Tables_number   1
_chemical_formula_structural   UH12S2O15
_chemical_formula_sum   'U2 H24 S4 O30'
_cell_volume   643.31608825
_cell_formula_units_Z   2
loop_
 _symmetry_equiv_pos_site_id
 _symmetry_equiv_pos_as_xyz
  1  'x, y, z'
loop_
 _atom_site_type_symbol
 _atom_site_label
 _atom_site_symmetry_multiplicity
 _atom_site_fract_x
 _atom_site_fract_y
 _atom_site_fract_z
 _atom_site_occupancy
  U  U0  1  0.97936942  0.72936942  0.75000000  1
  U  U1  1  0.02063058  0.27063058  0.25000000  1
  H  H2  1  0.32731618  0.18046904  0.78325254  1
  H  H3  1  0.39721651  0.04406365  0.71674746  1
  H  H4  1  0.67268382  0.81953096  0.21674746  1
  H  H5  1  0.60278349  0.95593635  0.28325254  1
  H  H6  1  0.21917381  0.37130872  0.91470557  1
  H  H7  1  0.45660315  0.80446824  0.58529443  1
  H  H8  1  0.78082619  0.62869128  0.08529443  1
  H  H9  1  0.54339685  0.19553176  0.41470557  1
  H  H10  1  0.22417502  0.30799082  0.01652399  1
  H  H11  1  0.29146683  0.70765102  0.48347601  1
  H  H12  1  0.77582498  0.69200918  0.98347601  1
  H  H13  1  0.70853317  0.29234898  0.51652399  1
  H  H14  1  0.68405490  0.02979283  0.90605726  1
  H  H15  1  0.12373557  0.27799764  0.59394274  1
  H  H16  1  0.31594510  0.97020717  0.09394274  1
  H  H17  1  0.87626443  0.72200236  0.40605726  1
  H  H18  1  0.93609823  0.25953141  0.94106282  1
  H  H19  1  0.31846859  0.49503541  0.55893718  1
  H  H20  1  0.06390177  0.74046859  0.05893718  1
  H  H21  1  0.68153141  0.50496459  0.44106282  1
  H  H22  1  0.71627928  0.22789965  0.97924577  1
  H  H23  1  0.24865388  0.23703351  0.52075423  1
  H  H24  1  0.28372072  0.77210035  0.02075423  1
  H  H25  1  0.75134612  0.76296649  0.47924577  1
  S  S26  1  0.80243344  0.15589471  0.68899750  1
  S  S27  1  0.46689721  0.61343594  0.81100250  1
  S  S28  1  0.19756656  0.84410529  0.31100250  1
  S  S29  1  0.53310279  0.38656406  0.18899750  1
  O  O30  1  0.06467190  0.77271689  0.87649215  1
  O  O31  1  0.89622474  0.68817975  0.62350785  1
  O  O32  1  0.93532810  0.22728311  0.12350785  1
  O  O33  1  0.10377526  0.31182025  0.37649215  1
  O  O34  1  0.89544606  0.03212845  0.75235914  1
  O  O35  1  0.27976931  0.64308692  0.74764086  1
  O  O36  1  0.10455394  0.96787155  0.24764086  1
  O  O37  1  0.72023069  0.35691308  0.25235914  1
  O  O38  1  0.85717249  0.35956339  0.74651115  1
  O  O39  1  0.61305224  0.61066135  0.75348885  1
  O  O40  1  0.14282751  0.64043661  0.25348885  1
  O  O41  1  0.38694776  0.38933865  0.24651115  1
  O  O42  1  0.28781387  0.03781387  0.75000000  1
  O  O43  1  0.71218613  0.96218613  0.25000000  1
  O  O44  1  0.38806509  0.41089346  0.84616860  1
  O  O45  1  0.56472486  0.04189649  0.65383140  1
  O  O46  1  0.61193491  0.58910654  0.15383140  1
  O  O47  1  0.43527514  0.95810351  0.34616860  1
  O  O48  1  0.58090485  0.78410545  0.89279263  1
  O  O49  1  0.89131282  0.18811222  0.60720737  1
  O  O50  1  0.41909515  0.21589455  0.10720737  1
  O  O51  1  0.10868718  0.81188778  0.39279263  1
  O  O52  1  0.14537032  0.35872645  0.96507647  1
  O  O53  1  0.39364998  0.68029385  0.53492353  1
  O  O54  1  0.85462968  0.64127355  0.03492353  1
  O  O55  1  0.60635002  0.31970615  0.46507647  1
  O  O56  1  0.75236624  0.18909152  0.92383859  1
  O  O57  1  0.26525293  0.32852765  0.57616141  1
  O  O58  1  0.24763376  0.81090848  0.07616141  1
  O  O59  1  0.73474707  0.67147235  0.42383859  1
