# generated using pymatgen
data_FeB12(HO6)4
_symmetry_space_group_name_H-M   'P 1'
_cell_length_a   8.71830484
_cell_length_b   8.77653034
_cell_length_c   11.86124349
_cell_angle_alpha   104.04384455
_cell_angle_beta   90.00000000
_cell_angle_gamma   90.00000000
_symmetry_Int_Tables_number   1
_chemical_formula_structural   FeB12(HO6)4
_chemical_formula_sum   'Fe2 B24 H8 O48'
_cell_volume   880.45315289
_cell_formula_units_Z   2
loop_
 _symmetry_equiv_pos_site_id
 _symmetry_equiv_pos_as_xyz
  1  'x, y, z'
loop_
 _atom_site_type_symbol
 _atom_site_label
 _atom_site_symmetry_multiplicity
 _atom_site_fract_x
 _atom_site_fract_y
 _atom_site_fract_z
 _atom_site_occupancy
  Fe  Fe0  1  0.50000000  -0.00000000  -0.00000000  1
  Fe  Fe1  1  -0.00000000  0.50000000  -0.00000000  1
  B  B2  1  0.53524896  0.86115236  0.72170233  1
  B  B3  1  0.03524896  0.63884764  0.27829767  1
  B  B4  1  0.46475104  0.13884764  0.27829767  1
  B  B5  1  0.96475104  0.36115236  0.72170233  1
  B  B6  1  0.40391386  0.79671853  0.53086663  1
  B  B7  1  0.90391386  0.70328147  0.46913337  1
  B  B8  1  0.59608614  0.20328147  0.46913337  1
  B  B9  1  0.09608614  0.29671853  0.53086663  1
  B  B10  1  0.40382263  0.60691145  0.64571714  1
  B  B11  1  0.90382263  0.89308855  0.35428286  1
  B  B12  1  0.59617737  0.39308855  0.35428286  1
  B  B13  1  0.09617737  0.10691145  0.64571714  1
  B  B14  1  0.79009442  0.93970202  0.85746618  1
  B  B15  1  0.29009442  0.56029798  0.14253382  1
  B  B16  1  0.20990558  0.06029798  0.14253382  1
  B  B17  1  0.70990558  0.43970202  0.85746618  1
  B  B18  1  0.75431661  0.23855680  0.97642297  1
  B  B19  1  0.25431661  0.26144320  0.02357703  1
  B  B20  1  0.24568339  0.76144320  0.02357703  1
  B  B21  1  0.74568339  0.73855680  0.97642297  1
  B  B22  1  0.49127452  0.29262344  0.91579790  1
  B  B23  1  0.99127452  0.20737656  0.08420210  1
  B  B24  1  0.50872548  0.70737656  0.08420210  1
  B  B25  1  0.00872548  0.79262344  0.91579790  1
  H  H26  1  0.40818999  0.93248822  0.41789372  1
  H  H27  1  0.90818999  0.56751178  0.58210628  1
  H  H28  1  0.59181001  0.06751178  0.58210628  1
  H  H29  1  0.09181001  0.43248822  0.41789372  1
  H  H30  1  0.41140459  0.44091988  0.73081345  1
  H  H31  1  0.91140459  0.05908012  0.26918655  1
  H  H32  1  0.58859541  0.55908012  0.26918655  1
  H  H33  1  0.08859541  0.94091988  0.73081345  1
  O  O34  1  0.49573124  0.89735808  0.61250302  1
  O  O35  1  0.99573124  0.60264192  0.38749698  1
  O  O36  1  0.50426876  0.10264192  0.38749698  1
  O  O37  1  0.00426876  0.39735808  0.61250302  1
  O  O38  1  0.35322591  0.65423722  0.54950759  1
  O  O39  1  0.85322591  0.84576278  0.45049241  1
  O  O40  1  0.64677409  0.34576278  0.45049241  1
  O  O41  1  0.14677409  0.15423722  0.54950759  1
  O  O42  1  0.50253827  0.70183329  0.72435954  1
  O  O43  1  0.00253827  0.79816671  0.27564046  1
  O  O44  1  0.49746173  0.29816671  0.27564046  1
  O  O45  1  0.99746173  0.20183329  0.72435954  1
  O  O46  1  0.69954603  0.90313977  0.75018876  1
  O  O47  1  0.19954603  0.59686023  0.24981124  1
  O  O48  1  0.30045397  0.09686023  0.24981124  1
  O  O49  1  0.80045397  0.40313977  0.75018876  1
  O  O50  1  0.70903006  0.89322475  0.95489925  1
  O  O51  1  0.20903006  0.60677525  0.04510075  1
  O  O52  1  0.29096994  0.10677525  0.04510075  1
  O  O53  1  0.79096994  0.39322475  0.95489925  1
  O  O54  1  0.58374404  0.22264960  0.98745920  1
  O  O55  1  0.08374404  0.27735040  0.01254080  1
  O  O56  1  0.41625596  0.77735040  0.01254080  1
  O  O57  1  0.91625596  0.72264960  0.98745920  1
  O  O58  1  0.80782191  0.11004956  0.88094181  1
  O  O59  1  0.30782191  0.38995044  0.11905819  1
  O  O60  1  0.19217809  0.88995044  0.11905819  1
  O  O61  1  0.69217809  0.61004956  0.88094181  1
  O  O62  1  0.36640402  0.83166903  0.42887831  1
  O  O63  1  0.86640402  0.66833097  0.57112169  1
  O  O64  1  0.63359598  0.16833097  0.57112169  1
  O  O65  1  0.13359598  0.33166903  0.42887831  1
  O  O66  1  0.35762705  0.46656800  0.66513789  1
  O  O67  1  0.85762705  0.03343200  0.33486211  1
  O  O68  1  0.64237295  0.53343200  0.33486211  1
  O  O69  1  0.14237295  0.96656800  0.66513789  1
  O  O70  1  0.94376027  0.87166472  0.84234369  1
  O  O71  1  0.44376027  0.62833528  0.15765631  1
  O  O72  1  0.05623973  0.12833528  0.15765631  1
  O  O73  1  0.55623973  0.37166472  0.84234369  1
  O  O74  1  0.53071720  0.03095357  0.17477894  1
  O  O75  1  0.03071720  0.46904643  0.82522106  1
  O  O76  1  0.46928280  0.96904643  0.82522106  1
  O  O77  1  0.96928280  0.53095357  0.17477894  1
  O  O78  1  0.83450841  0.21441918  0.07709929  1
  O  O79  1  0.33450841  0.28558082  0.92290071  1
  O  O80  1  0.16549159  0.78558082  0.92290071  1
  O  O81  1  0.66549159  0.71441918  0.07709929  1
