# generated using pymatgen
data_BaZn2As3HO11
_symmetry_space_group_name_H-M   'P 1'
_cell_length_a   12.04543348
_cell_length_b   8.35559890
_cell_length_c   10.08254858
_cell_angle_alpha   90.00004696
_cell_angle_beta   95.22737008
_cell_angle_gamma   90.00002546
_symmetry_Int_Tables_number   1
_chemical_formula_structural   BaZn2As3HO11
_chemical_formula_sum   'Ba4 Zn8 As12 H4 O44'
_cell_volume   1010.55589404
_cell_formula_units_Z   4
loop_
 _symmetry_equiv_pos_site_id
 _symmetry_equiv_pos_as_xyz
  1  'x, y, z'
loop_
 _atom_site_type_symbol
 _atom_site_label
 _atom_site_symmetry_multiplicity
 _atom_site_fract_x
 _atom_site_fract_y
 _atom_site_fract_z
 _atom_site_occupancy
  Ba  Ba0  1  0.21495872  0.96764403  0.99867001  1
  Ba  Ba1  1  0.21495801  0.53235440  0.49866739  1
  Ba  Ba2  1  0.78504199  0.46764560  0.50133261  1
  Ba  Ba3  1  0.78504128  0.03235597  0.00132999  1
  Zn  Zn4  1  0.28720117  0.18036090  0.70009698  1
  Zn  Zn5  1  0.28720092  0.31963873  0.20009685  1
  Zn  Zn6  1  0.45369860  0.68562132  0.99532206  1
  Zn  Zn7  1  0.45369837  0.81437880  0.49532166  1
  Zn  Zn8  1  0.54630163  0.18562120  0.50467834  1
  Zn  Zn9  1  0.54630140  0.31437868  0.00467794  1
  Zn  Zn10  1  0.71279908  0.68036127  0.79990315  1
  Zn  Zn11  1  0.71279883  0.81963910  0.29990302  1
  As  As12  1  0.99479058  0.14457732  0.71336418  1
  As  As13  1  0.99479121  0.35542244  0.21336392  1
  As  As14  1  0.22679825  0.47220887  0.89797963  1
  As  As15  1  0.22679794  0.02779061  0.39797977  1
  As  As16  1  0.49469498  0.48776678  0.70260909  1
  As  As17  1  0.50530451  0.98776778  0.79739066  1
  As  As18  1  0.49469549  0.01223222  0.20260934  1
  As  As19  1  0.50530502  0.51223322  0.29739091  1
  As  As20  1  0.77320206  0.97220939  0.60202023  1
  As  As21  1  0.77320175  0.52779113  0.10202037  1
  As  As22  1  0.00520879  0.64457756  0.78663608  1
  As  As23  1  0.00520942  0.85542268  0.28663582  1
  H  H24  1  0.01820342  0.76465078  0.99893297  1
  H  H25  1  0.01820337  0.73534952  0.49893318  1
  H  H26  1  0.98179663  0.26465048  0.50106682  1
  H  H27  1  0.98179658  0.23534922  0.00106703  1
  O  O28  1  0.99223462  0.30478551  0.59553244  1
  O  O29  1  0.99223467  0.19521479  0.09553237  1
  O  O30  1  0.07579829  0.49266625  0.88778527  1
  O  O31  1  0.07963344  0.69268382  0.66032662  1
  O  O32  1  0.07579829  0.00733394  0.38778502  1
  O  O33  1  0.07963303  0.80731619  0.16032764  1
  O  O34  1  0.12848251  0.08919691  0.75610169  1
  O  O35  1  0.12848236  0.41080302  0.25610141  1
  O  O36  1  0.25155928  0.40692631  0.74311506  1
  O  O37  1  0.24722529  0.18302143  0.50679761  1
  O  O38  1  0.28060060  0.65331640  0.94684962  1
  O  O39  1  0.25155881  0.09307348  0.24311391  1
  O  O40  1  0.24722533  0.31697809  0.00679776  1
  O  O41  1  0.28060072  0.84668329  0.44684955  1
  O  O42  1  0.36492808  0.02173443  0.81362324  1
  O  O43  1  0.36492886  0.47826615  0.31362327  1
  O  O44  1  0.41386778  0.63432079  0.62222774  1
  O  O45  1  0.41386782  0.86567893  0.12222785  1
  O  O46  1  0.45641602  0.30555206  0.63154047  1
  O  O47  1  0.47614823  0.47691261  0.87127366  1
  O  O48  1  0.45641589  0.19444868  0.13154092  1
  O  O49  1  0.47614827  0.02308684  0.37127217  1
  O  O50  1  0.52385173  0.97691316  0.62872783  1
  O  O51  1  0.54358411  0.80555132  0.86845908  1
  O  O52  1  0.52385177  0.52308739  0.12872634  1
  O  O53  1  0.54358398  0.69444794  0.36845953  1
  O  O54  1  0.58613218  0.13432107  0.87777215  1
  O  O55  1  0.58613222  0.36567921  0.37777226  1
  O  O56  1  0.63507114  0.52173385  0.68637673  1
  O  O57  1  0.63507192  0.97826557  0.18637676  1
  O  O58  1  0.71939928  0.15331671  0.55315045  1
  O  O59  1  0.74844119  0.90692652  0.75688609  1
  O  O60  1  0.71939940  0.34668360  0.05315038  1
  O  O61  1  0.75277471  0.81697857  0.49320239  1
  O  O62  1  0.74844072  0.59307369  0.25688494  1
  O  O63  1  0.75277467  0.68302191  0.99320224  1
  O  O64  1  0.87151764  0.58919698  0.74389859  1
  O  O65  1  0.87151749  0.91080309  0.24389831  1
  O  O66  1  0.92036697  0.19268381  0.83967236  1
  O  O67  1  0.92420171  0.99266606  0.61221498  1
  O  O68  1  0.92036656  0.30731618  0.33967338  1
  O  O69  1  0.92420171  0.50733375  0.11221473  1
  O  O70  1  0.00776533  0.80478521  0.90446763  1
  O  O71  1  0.00776538  0.69521449  0.40446756  1
