# generated using pymatgen
data_Cs3YO3
_symmetry_space_group_name_H-M   'P 1'
_cell_length_a   7.63350304
_cell_length_b   7.63350304
_cell_length_c   7.68571432
_cell_angle_alpha   84.24015938
_cell_angle_beta   95.75984062
_cell_angle_gamma   63.46397833
_symmetry_Int_Tables_number   1
_chemical_formula_structural   Cs3YO3
_chemical_formula_sum   'Cs6 Y2 O6'
_cell_volume   393.30813977
_cell_formula_units_Z   2
loop_
 _symmetry_equiv_pos_site_id
 _symmetry_equiv_pos_as_xyz
  1  'x, y, z'
loop_
 _atom_site_type_symbol
 _atom_site_label
 _atom_site_symmetry_multiplicity
 _atom_site_fract_x
 _atom_site_fract_y
 _atom_site_fract_z
 _atom_site_occupancy
  Cs  Cs0  1  0.35733313  0.64266687  0.64920769  1
  Cs  Cs1  1  0.21126515  0.21126515  0.50000000  1
  Cs  Cs2  1  0.78873485  0.78873485  0.50000000  1
  Cs  Cs3  1  0.26207906  0.26207906  0.00000000  1
  Cs  Cs4  1  0.73792094  0.73792094  0.00000000  1
  Cs  Cs5  1  0.64266687  0.35733313  0.35079231  1
  Y  Y6  1  0.17404277  0.82595723  0.15011015  1
  Y  Y7  1  0.82595723  0.17404277  0.84988985  1
  O  O8  1  0.10103049  0.89896951  0.85699062  1
  O  O9  1  0.16806495  0.56246526  0.26431142  1
  O  O10  1  0.43753474  0.83193505  0.26431142  1
  O  O11  1  0.56246526  0.16806495  0.73568858  1
  O  O12  1  0.83193505  0.43753474  0.73568858  1
  O  O13  1  0.89896951  0.10103049  0.14300938  1
