# generated using pymatgen
data_Li12Nb14ZnO42
_symmetry_space_group_name_H-M   'P 1'
_cell_length_a   9.27631914
_cell_length_b   9.06114347
_cell_length_c   9.89582118
_cell_angle_alpha   81.21982791
_cell_angle_beta   103.60445957
_cell_angle_gamma   80.64092038
_symmetry_Int_Tables_number   1
_chemical_formula_structural   Li12Nb14ZnO42
_chemical_formula_sum   'Li12 Nb14 Zn1 O42'
_cell_volume   781.72162229
_cell_formula_units_Z   1
loop_
 _symmetry_equiv_pos_site_id
 _symmetry_equiv_pos_as_xyz
  1  'x, y, z'
loop_
 _atom_site_type_symbol
 _atom_site_label
 _atom_site_symmetry_multiplicity
 _atom_site_fract_x
 _atom_site_fract_y
 _atom_site_fract_z
 _atom_site_occupancy
  Li  Li0  1  0.04879064  0.68425996  0.85493965  1
  Li  Li1  1  0.19126340  0.39596319  0.42523994  1
  Li  Li2  1  0.40699943  0.47122449  0.78374524  1
  Li  Li3  1  0.26213592  0.75406455  0.21032643  1
  Li  Li4  1  0.47601239  0.82580282  0.56886134  1
  Li  Li5  1  0.54857078  0.18244509  0.35353589  1
  Li  Li6  1  0.69327742  0.89587894  0.92630740  1
  Li  Li7  1  0.76523295  0.25360122  0.71225475  1
  Li  Li8  1  0.61996706  0.54058399  0.13853427  1
  Li  Li9  1  0.83426054  0.61233621  0.49672580  1
  Li  Li10  1  0.90538498  0.96927077  0.28217714  1
  Li  Li11  1  0.97540642  0.32507972  0.06886700  1
  Nb  Nb12  1  0.07861335  0.35587089  0.79240132  1
  Nb  Nb13  1  0.14255451  0.70801286  0.57270748  1
  Nb  Nb14  1  0.21597200  0.07119688  0.35502322  1
  Nb  Nb15  1  0.35788557  0.78700402  0.93038810  1
  Nb  Nb16  1  0.43170685  0.14498996  0.71855103  1
  Nb  Nb17  1  0.28786657  0.42643600  0.14355307  1
  Nb  Nb18  1  0.50092582  0.50136877  0.49934391  1
  Nb  Nb19  1  0.71506054  0.57048819  0.85667950  1
  Nb  Nb20  1  0.57066434  0.85807873  0.28269032  1
  Nb  Nb21  1  0.63873480  0.21173232  0.06812216  1
  Nb  Nb22  1  0.77998640  0.92967207  0.64219250  1
  Nb  Nb23  1  0.85344362  0.28988491  0.42558828  1
  Nb  Nb24  1  0.92852714  0.64373209  0.21293965  1
  Nb  Nb25  1  0.00035800  0.00203719  -0.00040530  1
  Zn  Zn26  1  0.11744843  0.04030773  0.64052279  1
  O  O27  1  0.08913329  0.16748005  0.95067065  1
  O  O28  1  0.02681689  0.55561673  0.66942756  1
  O  O29  1  0.13048562  0.46024432  0.96946716  1
  O  O30  1  0.13726646  0.83417301  0.97398817  1
  O  O31  1  0.28141139  0.30350558  0.78825478  1
  O  O32  1  0.16887286  0.26949513  0.24010072  1
  O  O33  1  0.27297264  0.17233394  0.54379596  1
  O  O34  1  0.13781026  0.58386753  0.22442690  1
  O  O35  1  0.27322039  0.67485422  0.79258098  1
  O  O36  1  0.13068676  0.95938077  0.22117217  1
  O  O37  1  0.28155841  0.54621949  0.54461099  1
  O  O38  1  0.23948867  0.87591204  0.52703906  1
  O  O39  1  0.30802288  0.98153499  0.80346631  1
  O  O40  1  0.42499325  0.01182234  0.36786154  1
  O  O41  1  0.56384735  0.09999865  0.93014229  1
  O  O42  1  0.41664050  0.38860268  0.36438448  1
  O  O43  1  0.52833944  0.30452422  0.66771334  1
  O  O44  1  0.59785539  0.41135658  0.95387805  1
  O  O45  1  0.43006505  0.26661094  0.12181727  1
  O  O46  1  0.56582291  0.72791903  0.93790867  1
  O  O47  1  0.38344838  0.59009590  0.09614401  1
  O  O48  1  0.45548045  0.69789506  0.38357963  1
  O  O49  1  0.55805363  0.60253272  0.68426981  1
  O  O50  1  0.41850816  0.87950784  0.11544800  1
  O  O51  1  0.56675300  0.97653992  0.68749832  1
  O  O52  1  0.67034025  0.02005825  0.23985582  1
  O  O53  1  0.74114227  0.12651473  0.52580649  1
  O  O54  1  0.84486929  0.03105185  0.82748689  1
  O  O55  1  0.71148112  0.43983065  0.51068614  1
  O  O56  1  0.70295669  0.31906270  0.25517489  1
  O  O57  1  0.70276315  0.81623787  0.50682069  1
  O  O58  1  0.85040486  0.40627732  0.82885116  1
  O  O59  1  0.81305769  0.73322740  0.81122453  1
  O  O60  1  0.71032723  0.68985485  0.26061013  1
  O  O61  1  0.85052708  0.15445250  0.08271492  1
  O  O62  1  0.99116748  0.24227666  0.65215119  1
  O  O63  1  0.84457747  0.53123702  0.07720193  1
  O  O64  1  0.99537699  0.11835035  0.40568643  1
  O  O65  1  0.95653718  0.44762340  0.38343414  1
  O  O66  1  0.99533238  0.87335066  0.65369351  1
  O  O67  1  0.88308650  0.84088484  0.09707992  1
  O  O68  1  0.98818048  0.74522668  0.39980053  1
