# generated using pymatgen
data_NaCu(PO3)3
_symmetry_space_group_name_H-M   'P 1'
_cell_length_a   9.06504080
_cell_length_b   8.41922218
_cell_length_c   8.99286111
_cell_angle_alpha   90.00000000
_cell_angle_beta   90.00000000
_cell_angle_gamma   90.00000000
_symmetry_Int_Tables_number   1
_chemical_formula_structural   NaCu(PO3)3
_chemical_formula_sum   'Na4 Cu4 P12 O36'
_cell_volume   686.34048878
_cell_formula_units_Z   4
loop_
 _symmetry_equiv_pos_site_id
 _symmetry_equiv_pos_as_xyz
  1  'x, y, z'
loop_
 _atom_site_type_symbol
 _atom_site_label
 _atom_site_symmetry_multiplicity
 _atom_site_fract_x
 _atom_site_fract_y
 _atom_site_fract_z
 _atom_site_occupancy
  Na  Na0  1  0.10770089  0.87752588  0.42271984  1
  Na  Na1  1  0.39229911  0.12247412  0.92271984  1
  Na  Na2  1  0.60770089  0.62247412  0.57728016  1
  Na  Na3  1  0.89229911  0.37752588  0.07728016  1
  Cu  Cu4  1  0.11624254  0.09882746  0.13878043  1
  Cu  Cu5  1  0.38375746  0.90117254  0.63878043  1
  Cu  Cu6  1  0.61624254  0.40117254  0.86121957  1
  Cu  Cu7  1  0.88375746  0.59882746  0.36121957  1
  P  P8  1  0.04793064  0.95219415  0.82445303  1
  P  P9  1  0.06470969  0.72683077  0.07614137  1
  P  P10  1  0.23124405  0.56106997  0.55969339  1
  P  P11  1  0.26875595  0.43893003  0.05969339  1
  P  P12  1  0.43529031  0.27316923  0.57614137  1
  P  P13  1  0.45206936  0.04780585  0.32445303  1
  P  P14  1  0.54793064  0.54780585  0.17554697  1
  P  P15  1  0.56470969  0.77316923  0.92385863  1
  P  P16  1  0.73124405  0.93893003  0.44030661  1
  P  P17  1  0.76875595  0.06106997  0.94030661  1
  P  P18  1  0.93529031  0.22683077  0.42385863  1
  P  P19  1  0.95206936  0.45219415  0.67554697  1
  O  O20  1  0.01335475  0.78761325  0.91485476  1
  O  O21  1  0.05836034  0.13058224  0.35475343  1
  O  O22  1  0.10781805  0.91537190  0.67390248  1
  O  O23  1  0.11693847  0.52300772  0.69465205  1
  O  O24  1  0.12284796  0.86416605  0.16664133  1
  O  O25  1  0.14791917  0.33246031  0.11864807  1
  O  O26  1  0.14556002  0.61068203  0.42535700  1
  O  O27  1  0.14126814  0.06035234  0.92171927  1
  O  O28  1  0.19819507  0.61220341  0.02904119  1
  O  O29  1  0.30180493  0.38779659  0.52904119  1
  O  O30  1  0.35873186  0.93964766  0.42171927  1
  O  O31  1  0.35443998  0.38931797  0.92535700  1
  O  O32  1  0.35208083  0.66753969  0.61864807  1
  O  O33  1  0.37715204  0.13583395  0.66664133  1
  O  O34  1  0.38306153  0.47699228  0.19465205  1
  O  O35  1  0.39218295  0.08462810  0.17390248  1
  O  O36  1  0.44163966  0.86941776  0.85475343  1
  O  O37  1  0.48664525  0.21238675  0.41485476  1
  O  O38  1  0.51335475  0.71238675  0.08514524  1
  O  O39  1  0.55836034  0.36941776  0.64524657  1
  O  O40  1  0.60781705  0.58462810  0.32609752  1
  O  O41  1  0.61693847  0.97699228  0.30534795  1
  O  O42  1  0.62284796  0.63583395  0.83335867  1
  O  O43  1  0.64791917  0.16753969  0.88135193  1
  O  O44  1  0.64556002  0.88931797  0.57464300  1
  O  O45  1  0.64126814  0.43964766  0.07828073  1
  O  O46  1  0.69819507  0.88779659  0.97095881  1
  O  O47  1  0.80180493  0.11220341  0.47095881  1
  O  O48  1  0.85873186  0.56035234  0.57828073  1
  O  O49  1  0.85443998  0.11068203  0.07464300  1
  O  O50  1  0.85208083  0.83246031  0.38135193  1
  O  O51  1  0.87715204  0.36416605  0.33335867  1
  O  O52  1  0.88306153  0.02300772  0.80534795  1
  O  O53  1  0.89218295  0.41537190  0.82609752  1
  O  O54  1  0.94163966  0.63058224  0.14524657  1
  O  O55  1  0.98664525  0.28761325  0.58514524  1
