# generated using pymatgen
data_Bi2CO5
_symmetry_space_group_name_H-M   'P 1'
_cell_length_a   3.93346560
_cell_length_b   7.64564234
_cell_length_c   3.93972205
_cell_angle_alpha   74.56919398
_cell_angle_beta   89.98924918
_cell_angle_gamma   105.27564084
_symmetry_Int_Tables_number   1
_chemical_formula_structural   Bi2CO5
_chemical_formula_sum   'Bi2 C1 O5'
_cell_volume   109.86133703
_cell_formula_units_Z   1
loop_
 _symmetry_equiv_pos_site_id
 _symmetry_equiv_pos_as_xyz
  1  'x, y, z'
loop_
 _atom_site_type_symbol
 _atom_site_label
 _atom_site_symmetry_multiplicity
 _atom_site_fract_x
 _atom_site_fract_y
 _atom_site_fract_z
 _atom_site_occupancy
  Bi  Bi0  1  0.83890694  0.67606486  0.15124790  1
  Bi  Bi1  1  0.15494102  0.32361375  0.83652570  1
  C  C2  1  0.45458715  0.00086798  0.44817979  1
  O  O3  1  0.21968984  0.99646217  0.21495487  1
  O  O4  1  0.64376028  0.16515070  0.46824401  1
  O  O5  1  0.24884437  0.49938477  0.24366937  1
  O  O6  1  0.48830260  0.84220370  0.64735588  1
  O  O7  1  0.74948480  0.50010008  0.74243747  1
