# generated using pymatgen
data_BaMnO3
_symmetry_space_group_name_H-M   'P 1'
_cell_length_a   5.75966926
_cell_length_b   5.75970558
_cell_length_c   14.31339465
_cell_angle_alpha   89.99920834
_cell_angle_beta   90.00025448
_cell_angle_gamma   120.00178548
_symmetry_Int_Tables_number   1
_chemical_formula_structural   BaMnO3
_chemical_formula_sum   'Ba6 Mn6 O18'
_cell_volume   411.20964580
_cell_formula_units_Z   6
loop_
 _symmetry_equiv_pos_site_id
 _symmetry_equiv_pos_as_xyz
  1  'x, y, z'
loop_
 _atom_site_type_symbol
 _atom_site_label
 _atom_site_symmetry_multiplicity
 _atom_site_fract_x
 _atom_site_fract_y
 _atom_site_fract_z
 _atom_site_occupancy
  Ba  Ba0  1  0.33333918  0.66665100  0.16826993  1
  Ba  Ba1  1  0.33345594  0.66657522  0.50002774  1
  Ba  Ba2  1  0.33334251  0.66673895  0.83173491  1
  Ba  Ba3  1  0.99992065  0.00004118  0.00003549  1
  Ba  Ba4  1  0.66668141  0.33333090  0.66449584  1
  Ba  Ba5  1  0.66668952  0.33331153  0.33549702  1
  Mn  Mn6  1  0.00000782  0.99998168  0.23511223  1
  Mn  Mn7  1  0.00001539  0.99998296  0.41240080  1
  Mn  Mn8  1  0.00001969  0.00001541  0.58759606  1
  Mn  Mn9  1  0.00000198  0.00003104  0.76489727  1
  Mn  Mn10  1  0.66664387  0.33335889  0.90919761  1
  Mn  Mn11  1  0.66665738  0.33333103  0.09081078  1
  O  O12  1  0.95679907  0.47842992  0.00000108  1
  O  O13  1  0.14760152  0.85238680  0.32648850  1
  O  O14  1  0.14760364  0.85242750  0.67349992  1
  O  O15  1  0.14762216  0.29519372  0.32649108  1
  O  O16  1  0.14761720  0.29523532  0.67349473  1
  O  O17  1  0.70479178  0.85236981  0.32649440  1
  O  O18  1  0.70478857  0.85241620  0.67349360  1
  O  O19  1  0.52157564  0.47841028  0.00000274  1
  O  O20  1  0.29809116  0.14904293  0.49999234  1
  O  O21  1  0.33483331  0.16741573  0.16509007  1
  O  O22  1  0.33484110  0.16742304  0.83490166  1
  O  O23  1  0.52155561  0.04319490  0.00000319  1
  O  O24  1  0.83256420  0.66514916  0.16508982  1
  O  O25  1  0.85096729  0.70192271  0.49999959  1
  O  O26  1  0.83256757  0.66514751  0.83489589  1
  O  O27  1  0.85097714  0.14903486  0.49998633  1
  O  O28  1  0.83257176  0.16742771  0.16509155  1
  O  O29  1  0.83255793  0.16742009  0.83490983  1
