# generated using pymatgen
data_Mn23FeO32
_symmetry_space_group_name_H-M   'P 1'
_cell_length_a   6.33246024
_cell_length_b   10.49754571
_cell_length_c   10.48612232
_cell_angle_alpha   74.10076248
_cell_angle_beta   94.26787732
_cell_angle_gamma   85.55833005
_symmetry_Int_Tables_number   1
_chemical_formula_structural   Mn23FeO32
_chemical_formula_sum   'Mn23 Fe1 O32'
_cell_volume   665.05542556
_cell_formula_units_Z   1
loop_
 _symmetry_equiv_pos_site_id
 _symmetry_equiv_pos_as_xyz
  1  'x, y, z'
loop_
 _atom_site_type_symbol
 _atom_site_label
 _atom_site_symmetry_multiplicity
 _atom_site_fract_x
 _atom_site_fract_y
 _atom_site_fract_z
 _atom_site_occupancy
  Mn  Mn0  1  0.99662996  0.99973569  0.99971032  1
  Mn  Mn1  1  0.50020207  0.12537923  0.12569790  1
  Mn  Mn2  1  0.50024996  0.99996540  0.50008250  1
  Mn  Mn3  1  0.00003141  0.06271008  0.31276685  1
  Mn  Mn4  1  0.75039196  0.31249304  0.31259214  1
  Mn  Mn5  1  0.49624142  0.06160504  0.81382215  1
  Mn  Mn6  1  0.00005410  0.12452282  0.62558587  1
  Mn  Mn7  1  0.49979793  0.49962077  0.99930210  1
  Mn  Mn8  1  0.50000000  0.31250000  0.56250000  1
  Mn  Mn9  1  0.25019971  0.31280770  0.31244218  1
  Mn  Mn10  1  0.00000000  0.31250000  0.06250000  1
  Mn  Mn11  1  0.74980029  0.31219230  0.81255782  1
  Mn  Mn12  1  0.50375858  0.56339496  0.31117785  1
  Mn  Mn13  1  0.24960804  0.31250696  0.81240786  1
  Mn  Mn14  1  0.75127248  0.81264527  0.31267505  1
  Mn  Mn15  1  0.00337004  0.62526431  0.12528968  1
  Mn  Mn16  1  0.49975004  0.62503460  0.62491850  1
  Mn  Mn17  1  0.99994590  0.50047718  0.49941413  1
  Mn  Mn18  1  0.74740390  0.81059141  0.81368302  1
  Mn  Mn19  1  0.25259610  0.81440859  0.31131698  1
  Mn  Mn20  1  0.99996859  0.56228992  0.81223315  1
  Mn  Mn21  1  0.00000000  0.81250000  0.56250000  1
  Mn  Mn22  1  0.24872752  0.81235473  0.81232495  1
  Fe  Fe23  1  0.50000000  0.81250000  0.06250000  1
  O  O24  1  0.77217802  0.19175840  0.19798144  1
  O  O25  1  0.99346779  0.19119040  0.41985252  1
  O  O26  1  0.49355455  0.20554702  0.43383983  1
  O  O27  1  0.99265192  0.20497237  0.93392665  1
  O  O28  1  0.22820827  0.19824131  0.19157779  1
  O  O29  1  0.72812294  0.19705570  0.69218981  1
  O  O30  1  0.72853685  0.43349275  0.42730448  1
  O  O31  1  0.50747066  0.43427267  0.20523805  1
  O  O32  1  0.27146315  0.19150725  0.69769552  1
  O  O33  1  0.49252934  0.19072733  0.91976195  1
  O  O34  1  0.00734808  0.42002763  0.19107335  1
  O  O35  1  0.27187706  0.42794430  0.43281019  1
  O  O36  1  0.77179173  0.42675869  0.93342221  1
  O  O37  1  0.50644545  0.41945298  0.69116017  1
  O  O38  1  0.99517022  0.70566662  0.43316363  1
  O  O39  1  0.73294605  0.69698917  0.19350204  1
  O  O40  1  0.77151868  0.69139918  0.69748248  1
  O  O41  1  0.99219422  0.69073640  0.91949996  1
  O  O42  1  0.00653221  0.43380960  0.70514748  1
  O  O43  1  0.28274960  0.69755448  0.18990552  1
  O  O44  1  0.22782198  0.43324160  0.92701856  1
  O  O45  1  0.49304379  0.69103373  0.41900740  1
  O  O46  1  0.77209178  0.92730636  0.43369688  1
  O  O47  1  0.50814172  0.92025956  0.19356243  1
  O  O48  1  0.49185828  0.70474044  0.93143757  1
  O  O49  1  0.22790822  0.69769364  0.69130312  1
  O  O50  1  0.22848132  0.93360082  0.42751752  1
  O  O51  1  0.50695621  0.93396627  0.70599260  1
  O  O52  1  0.00780578  0.93426360  0.20550004  1
  O  O53  1  0.71725040  0.92744552  0.93509448  1
  O  O54  1  0.00482978  0.91933338  0.69183637  1
  O  O55  1  0.26705395  0.92801083  0.93149796  1
