# generated using pymatgen
data_La16Mn15O48
_symmetry_space_group_name_H-M   'P 1'
_cell_length_a   5.53584725
_cell_length_b   14.82537356
_cell_length_c   12.42081779
_cell_angle_alpha   94.45019571
_cell_angle_beta   101.68129845
_cell_angle_gamma   79.59944918
_symmetry_Int_Tables_number   1
_chemical_formula_structural   La16Mn15O48
_chemical_formula_sum   'La16 Mn15 O48'
_cell_volume   980.98268854
_cell_formula_units_Z   1
loop_
 _symmetry_equiv_pos_site_id
 _symmetry_equiv_pos_as_xyz
  1  'x, y, z'
loop_
 _atom_site_type_symbol
 _atom_site_label
 _atom_site_symmetry_multiplicity
 _atom_site_fract_x
 _atom_site_fract_y
 _atom_site_fract_z
 _atom_site_occupancy
  La  La0  1  0.40245593  0.02976976  0.85746678  1
  La  La1  1  0.84660516  0.20645873  0.91065494  1
  La  La2  1  0.28079043  0.40529877  0.96851710  1
  La  La3  1  0.65691093  0.28098670  0.59535926  1
  La  La4  1  0.21953645  0.09315033  0.53221206  1
  La  La5  1  0.96353322  0.85416428  0.79184736  1
  La  La6  1  0.52936741  0.65795205  0.71803554  1
  La  La7  1  0.90692209  0.53133670  0.34368124  1
  La  La8  1  0.03646678  0.14583572  0.20815264  1
  La  La9  1  0.47063259  0.34204795  0.28196446  1
  La  La10  1  0.09307791  0.46866330  0.65631876  1
  La  La11  1  0.78046355  0.90684967  0.46778794  1
  La  La12  1  0.34308907  0.71901330  0.40464074  1
  La  La13  1  0.71920957  0.59470123  0.03148290  1
  La  La14  1  0.59754407  0.97023024  0.14253322  1
  La  La15  1  0.15339484  0.79354127  0.08934506  1
  Mn  Mn16  1  0.81166436  0.06252031  0.68713840  1
  Mn  Mn17  1  0.68874942  0.43641341  0.81346307  1
  Mn  Mn18  1  0.24984566  0.24961765  0.75022971  1
  Mn  Mn19  1  0.62398511  0.12485777  0.37476354  1
  Mn  Mn20  1  0.56341772  0.81067585  0.93692263  1
  Mn  Mn21  1  0.93785039  0.68871577  0.56387442  1
  Mn  Mn22  1  0.43658228  0.18932415  0.06307737  1
  Mn  Mn23  1  0.12614791  0.62525067  0.87624203  1
  Mn  Mn24  1  0.87385209  0.37474933  0.12375797  1
  Mn  Mn25  1  0.50000000  0.50000000  0.50000000  1
  Mn  Mn26  1  0.06214961  0.31128423  0.43612558  1
  Mn  Mn27  1  0.31125058  0.56358659  0.18653693  1
  Mn  Mn28  1  0.37601489  0.87514223  0.62523646  1
  Mn  Mn29  1  0.75015434  0.75038235  0.24977029  1
  Mn  Mn30  1  0.18833564  0.93747969  0.31286160  1
  O  O31  1  0.90064667  0.01322882  0.82662704  1
  O  O32  1  0.79070694  0.37846562  0.96047152  1
  O  O33  1  0.57158447  0.16543382  0.74157105  1
  O  O34  1  0.94803881  0.03868282  0.37110694  1
  O  O35  1  0.71371555  0.11950443  0.54283163  1
  O  O36  1  0.92774200  0.33697913  0.75408309  1
  O  O37  1  0.33524707  0.24489337  0.91464369  1
  O  O38  1  0.95544632  0.51358575  0.86108614  1
  O  O39  1  0.45499186  0.01572833  0.36458434  1
  O  O40  1  0.08378421  0.13906870  0.73714936  1
  O  O41  1  0.41671456  0.36135540  0.76353347  1
  O  O42  1  0.79034898  0.23567071  0.39229665  1
  O  O43  1  0.44900991  0.53870095  0.86934275  1
  O  O44  1  0.82337581  0.41469908  0.49373476  1
  O  O45  1  0.53818950  0.13258399  0.20979380  1
  O  O46  1  0.16551172  0.25614064  0.58590701  1
  O  O47  1  0.95848840  0.36994933  0.28866184  1
  O  O48  1  0.79319686  0.70838541  0.88126183  1
  O  O49  1  0.58475315  0.49479719  0.66432518  1
  O  O50  1  0.29904239  0.20960380  0.37893343  1
  O  O51  1  0.66439607  0.09427961  0.01020756  1
  O  O52  1  0.81427739  0.88409050  0.97748952  1
  O  O53  1  0.33216987  0.38941294  0.48581296  1
  O  O54  1  0.70750804  0.26241370  0.11030166  1
  O  O55  1  0.29249196  0.73758630  0.88969834  1
  O  O56  1  0.66783013  0.61058706  0.51418804  1
  O  O57  1  0.18572261  0.11590950  0.02251048  1
  O  O58  1  0.04151160  0.63005067  0.71133816  1
  O  O59  1  0.70095761  0.79039620  0.62106657  1
  O  O60  1  0.33560393  0.90572039  0.98979244  1
  O  O61  1  0.41524685  0.50520281  0.33567482  1
  O  O62  1  0.20680314  0.29161459  0.11873817  1
  O  O63  1  0.46181050  0.86741601  0.79020620  1
  O  O64  1  0.83448828  0.74385936  0.41409299  1
  O  O65  1  0.17662419  0.58530092  0.50626524  1
  O  O66  1  0.55099009  0.46129905  0.13065725  1
  O  O67  1  0.58328544  0.63864460  0.23646653  1
  O  O68  1  0.20965102  0.76432929  0.60770335  1
  O  O69  1  0.54500814  0.98427167  0.63541566  1
  O  O70  1  0.04455368  0.48641425  0.13891386  1
  O  O71  1  0.91621579  0.86093130  0.26285064  1
  O  O72  1  0.66475293  0.75510663  0.08535631  1
  O  O73  1  0.28628445  0.88049557  0.45716837  1
  O  O74  1  0.07225800  0.66302087  0.24591691  1
  O  O75  1  0.20929306  0.62153438  0.03952848  1
  O  O76  1  0.05196119  0.96131718  0.62889306  1
  O  O77  1  0.42841553  0.83456618  0.25842895  1
  O  O78  1  0.09935333  0.98677118  0.17337296  1
