# generated using pymatgen
data_K2CrH5C4S4N4O3
_symmetry_space_group_name_H-M   'P 1'
_cell_length_a   10.72099740
_cell_length_b   12.98425690
_cell_length_c   13.09953001
_cell_angle_alpha   66.82935381
_cell_angle_beta   85.29318110
_cell_angle_gamma   78.72277299
_symmetry_Int_Tables_number   1
_chemical_formula_structural   K2CrH5C4S4N4O3
_chemical_formula_sum   'K8 Cr4 H20 C16 S16 N16 O12'
_cell_volume   1644.02577422
_cell_formula_units_Z   4
loop_
 _symmetry_equiv_pos_site_id
 _symmetry_equiv_pos_as_xyz
  1  'x, y, z'
loop_
 _atom_site_type_symbol
 _atom_site_label
 _atom_site_symmetry_multiplicity
 _atom_site_fract_x
 _atom_site_fract_y
 _atom_site_fract_z
 _atom_site_occupancy
  K  K0  1  0.82000354  0.07537158  0.85892757  1
  K  K1  1  0.17999646  0.92462842  0.14107243  1
  K  K2  1  0.27678792  0.80758456  0.67330739  1
  K  K3  1  0.72321208  0.19241544  0.32669261  1
  K  K4  1  0.45882965  0.38956919  0.83555128  1
  K  K5  1  0.54117035  0.61043081  0.16444872  1
  K  K6  1  0.02998071  0.27685093  0.52020400  1
  K  K7  1  0.97001929  0.72314907  0.47979600  1
  Cr  Cr8  1  0.39696644  0.09643903  0.51364012  1
  Cr  Cr9  1  0.60303356  0.90356097  0.48635988  1
  Cr  Cr10  1  0.10693717  0.42589809  0.95891645  1
  Cr  Cr11  1  0.89306283  0.57410191  0.04108355  1
  H  H12  1  0.52273693  0.92733424  0.66711485  1
  H  H13  1  0.47726307  0.07266576  0.33288515  1
  H  H14  1  0.89659411  0.53796548  0.86275103  1
  H  H15  1  0.10340589  0.46203452  0.13724897  1
  H  H16  1  0.04372112  0.23389520  0.78852595  1
  H  H17  1  0.95627888  0.76610480  0.21147405  1
  H  H18  1  0.92167572  0.32382302  0.74307455  1
  H  H19  1  0.07832428  0.67617698  0.25692545  1
  H  H20  1  0.99249690  0.79949290  0.68998715  1
  H  H21  1  0.00750310  0.20050710  0.31001285  1
  H  H22  1  0.02379707  0.66812177  0.75655698  1
  H  H23  1  0.97620293  0.33187823  0.24344302  1
  H  H24  1  0.48547081  0.60703192  0.62169226  1
  H  H25  1  0.51452919  0.39296808  0.37830774  1
  H  H26  1  0.35994627  0.58788288  0.58806457  1
  H  H27  1  0.64005373  0.41211712  0.41193543  1
  H  H28  1  0.60272124  0.14245453  0.01346737  1
  H  H29  1  0.39727876  0.85754547  0.98653263  1
  H  H30  1  0.52030105  0.12758018  0.93048424  1
  H  H31  1  0.47969895  0.87241982  0.06951576  1
  C  C32  1  0.28985866  0.35404141  0.34540755  1
  C  C33  1  0.71014134  0.64595859  0.65459245  1
  C  C34  1  0.17777399  0.01828306  0.42243236  1
  C  C35  1  0.82222601  0.98171694  0.57756764  1
  C  C36  1  0.28393494  0.11810013  0.73397391  1
  C  C37  1  0.71606506  0.88189987  0.26602609  1
  C  C38  1  0.57698821  0.21522033  0.59680664  1
  C  C39  1  0.42301179  0.78477967  0.40319336  1
  C  C40  1  0.94995949  0.22542388  0.03077229  1
  C  C41  1  0.05004051  0.77457612  0.96922771  1
  C  C42  1  0.31638225  0.58392967  0.92242195  1
  C  C43  1  0.68361775  0.41607033  0.07757805  1
  C  C44  1  0.16203556  0.44487264  0.70754459  1
  C  C45  1  0.83796444  0.55512736  0.29245541  1
  C  C46  1  0.30799061  0.20325926  0.09047004  1
  C  C47  1  0.69200939  0.79674074  0.90952996  1
  S  S48  1  0.24926958  0.48372043  0.25713303  1
  S  S49  1  0.75073042  0.51627957  0.74286697  1
  S  S50  1  0.06868007  0.99352427  0.36129593  1
  S  S51  1  0.93131993  0.00647573  0.63870407  1
  S  S52  1  0.27054909  0.13554538  0.84992486  1
  S  S53  1  0.72945091  0.86445462  0.15007514  1
  S  S54  1  0.64796332  0.29063745  0.63850835  1
  S  S55  1  0.35203668  0.70936255  0.36149165  1
  S  S56  1  0.88669902  0.11206588  0.08873915  1
  S  S57  1  0.11330098  0.88793412  0.91126085  1
  S  S58  1  0.43108647  0.65413193  0.90277321  1
  S  S59  1  0.56891353  0.34586807  0.09722679  1
  S  S60  1  0.18186016  0.46680786  0.57727145  1
  S  S61  1  0.81813984  0.53319214  0.42272855  1
  S  S62  1  0.38942810  0.08025882  0.16394863  1
  S  S63  1  0.61057190  0.91974118  0.83605137  1
  N  N64  1  0.32020928  0.25899727  0.41010509  1
  N  N65  1  0.67979072  0.74100273  0.58989491  1
  N  N66  1  0.25613977  0.03844450  0.46731461  1
  N  N67  1  0.74386023  0.96155550  0.53268539  1
  N  N68  1  0.29083190  0.10662845  0.64770653  1
  N  N69  1  0.70916810  0.89337155  0.35229347  1
  N  N70  1  0.52726303  0.16159967  0.56213226  1
  N  N71  1  0.47273697  0.83840033  0.43786774  1
  N  N72  1  0.99535598  0.30852975  0.98693817  1
  N  N73  1  0.00464402  0.69147025  0.01306183  1
  N  N74  1  0.23293819  0.53203721  0.93380581  1
  N  N75  1  0.76706181  0.46796279  0.06619419  1
  N  N76  1  0.15050513  0.42836115  0.80337535  1
  N  N77  1  0.84949487  0.57163885  0.19662465  1
  N  N78  1  0.24986175  0.29309037  0.03406425  1
  N  N79  1  0.75013825  0.70690963  0.96593575  1
  O  O80  1  0.47882441  0.93254141  0.60169872  1
  O  O81  1  0.52117559  0.06745859  0.39830128  1
  O  O82  1  0.96128092  0.55873791  0.89677605  1
  O  O83  1  0.03871908  0.44126209  0.10322395  1
  O  O84  1  0.96566469  0.24902767  0.74673688  1
  O  O85  1  0.03433531  0.75097233  0.25326312  1
  O  O86  1  0.04044816  0.72887471  0.68478545  1
  O  O87  1  0.95955184  0.27112529  0.31521455  1
  O  O88  1  0.40069197  0.59317186  0.64980354  1
  O  O89  1  0.59930803  0.40682814  0.35019646  1
  O  O90  1  0.58941195  0.16568267  0.93376776  1
  O  O91  1  0.41058805  0.83431733  0.06623224  1
