# generated using pymatgen
data_Li4FeSi2O7
_symmetry_space_group_name_H-M   'P 1'
_cell_length_a   5.47886571
_cell_length_b   7.23096996
_cell_length_c   8.14428028
_cell_angle_alpha   85.66918470
_cell_angle_beta   90.00000000
_cell_angle_gamma   67.73770508
_symmetry_Int_Tables_number   1
_chemical_formula_structural   Li4FeSi2O7
_chemical_formula_sum   'Li8 Fe2 Si4 O14'
_cell_volume   297.60936042
_cell_formula_units_Z   2
loop_
 _symmetry_equiv_pos_site_id
 _symmetry_equiv_pos_as_xyz
  1  'x, y, z'
loop_
 _atom_site_type_symbol
 _atom_site_label
 _atom_site_symmetry_multiplicity
 _atom_site_fract_x
 _atom_site_fract_y
 _atom_site_fract_z
 _atom_site_occupancy
  Li  Li0  1  0.73683376  0.84629493  0.87551569  1
  Li  Li1  1  0.41687131  0.84629493  0.37551569  1
  Li  Li2  1  0.88459401  0.58655636  0.59397359  1
  Li  Li3  1  0.52885063  0.58655636  0.09397359  1
  Li  Li4  1  0.12815322  0.44480528  0.94751819  1
  Li  Li5  1  0.42704150  0.44480528  0.44751819  1
  Li  Li6  1  0.18959549  0.99737603  0.02038204  1
  Li  Li7  1  0.81302848  0.99737603  0.52038204  1
  Fe  Fe8  1  0.68572759  0.29901679  0.79720953  1
  Fe  Fe9  1  0.01525562  0.29901679  0.29720953  1
  Si  Si10  1  0.30726856  0.72738353  0.73952635  1
  Si  Si11  1  0.96534791  0.72738353  0.23952635  1
  Si  Si12  1  0.25634030  0.14746081  0.66984127  1
  Si  Si13  1  0.59619889  0.14746081  0.16984127  1
  O  O14  1  0.21307093  0.94296477  0.60536153  1
  O  O15  1  0.84396430  0.94296477  0.10536153  1
  O  O16  1  0.42660577  0.77996390  0.90401034  1
  O  O17  1  0.79343133  0.77996390  0.40401034  1
  O  O18  1  0.05136304  0.67074438  0.77318366  1
  O  O19  1  0.27789257  0.67074438  0.27318366  1
  O  O20  1  0.53803743  0.55320557  0.64233367  1
  O  O21  1  0.90875800  0.55320557  0.14233367  1
  O  O22  1  0.14792521  0.32635475  0.52060048  1
  O  O23  1  0.52572104  0.32635475  0.02060048  1
  O  O24  1  0.08023678  0.21964108  0.83437030  1
  O  O25  1  0.70012214  0.21964108  0.33437030  1
  O  O26  1  0.57306550  0.08921281  0.70585538  1
  O  O27  1  0.33772168  0.08921281  0.20585538  1
