# generated using pymatgen
data_LiAgF4
_symmetry_space_group_name_H-M   'P 1'
_cell_length_a   5.82933778
_cell_length_b   5.24555096
_cell_length_c   6.12361987
_cell_angle_alpha   90.00000000
_cell_angle_beta   63.69840397
_cell_angle_gamma   90.00000000
_symmetry_Int_Tables_number   1
_chemical_formula_structural   LiAgF4
_chemical_formula_sum   'Li2 Ag2 F8'
_cell_volume   167.86350854
_cell_formula_units_Z   2
loop_
 _symmetry_equiv_pos_site_id
 _symmetry_equiv_pos_as_xyz
  1  'x, y, z'
loop_
 _atom_site_type_symbol
 _atom_site_label
 _atom_site_symmetry_multiplicity
 _atom_site_fract_x
 _atom_site_fract_y
 _atom_site_fract_z
 _atom_site_occupancy
  Li  Li0  1  0.00000000  0.00000000  0.50000000  1
  Li  Li1  1  0.50000000  0.50000000  0.00000000  1
  Ag  Ag2  1  0.00000000  0.00000000  0.00000000  1
  Ag  Ag3  1  0.50000000  0.50000000  0.50000000  1
  F  F4  1  0.19812192  0.80964854  0.13890144  1
  F  F5  1  0.30187808  0.30964854  0.36109856  1
  F  F6  1  0.15735366  0.82836717  0.67972277  1
  F  F7  1  0.34264634  0.32836717  0.82027723  1
  F  F8  1  0.65735366  0.67163283  0.17972277  1
  F  F9  1  0.84264634  0.17163283  0.32027723  1
  F  F10  1  0.69812192  0.69035146  0.63890144  1
  F  F11  1  0.80187808  0.19035146  0.86109856  1
