# generated using pymatgen
data_Li7(NiO2)9
_symmetry_space_group_name_H-M   'P 1'
_cell_length_a   8.63917625
_cell_length_b   5.83192592
_cell_length_c   6.42515613
_cell_angle_alpha   104.11273059
_cell_angle_beta   77.13776744
_cell_angle_gamma   90.51693140
_symmetry_Int_Tables_number   1
_chemical_formula_structural   Li7(NiO2)9
_chemical_formula_sum   'Li7 Ni9 O18'
_cell_volume   305.71996885
_cell_formula_units_Z   1
loop_
 _symmetry_equiv_pos_site_id
 _symmetry_equiv_pos_as_xyz
  1  'x, y, z'
loop_
 _atom_site_type_symbol
 _atom_site_label
 _atom_site_symmetry_multiplicity
 _atom_site_fract_x
 _atom_site_fract_y
 _atom_site_fract_z
 _atom_site_occupancy
  Li  Li0  1  0.76680839  0.34391226  0.34007908  1
  Li  Li1  1  0.66666700  0.00000000  0.00000000  1
  Li  Li2  1  0.56652461  0.65608774  0.65992092  1
  Li  Li3  1  0.33803022  0.00503346  0.00499592  1
  Li  Li4  1  0.22088780  0.66154300  0.65466897  1
  Li  Li5  1  0.11244520  0.33845700  0.34533103  1
  Li  Li6  1  0.99530278  0.99496654  0.99500408  1
  Ni  Ni7  1  0.88934173  0.16963136  0.66773519  1
  Ni  Ni8  1  0.77841677  0.83914882  0.33377475  1
  Ni  Ni9  1  0.66666700  0.50000000  0.00000000  1
  Ni  Ni10  1  0.55491623  0.16085118  0.66622525  1
  Ni  Ni11  1  0.44399127  0.83036864  0.33226481  1
  Ni  Ni12  1  0.22620678  0.16437808  0.66708387  1
  Ni  Ni13  1  0.33419242  0.48791654  0.00274168  1
  Ni  Ni14  1  0.10712622  0.83562192  0.33291613  1
  Ni  Ni15  1  0.99914058  0.51208346  0.99725832  1
  O  O16  1  0.94602651  0.05870888  0.33574244  1
  O  O17  1  0.94445067  0.61385169  0.31478080  1
  O  O18  1  0.83617768  0.29183207  0.00073245  1
  O  O19  1  0.70461662  0.39142133  0.67803999  1
  O  O20  1  0.82444837  0.76630673  0.02796264  1
  O  O21  1  0.71096219  0.93275955  0.64900706  1
  O  O22  1  0.62871738  0.60857867  0.32196001  1
  O  O23  1  0.62237081  0.06724045  0.35099294  1
  O  O24  1  0.50888463  0.23369327  0.97203736  1
  O  O25  1  0.49715632  0.70816793  0.99926755  1
  O  O26  1  0.38730649  0.94129112  0.66425756  1
  O  O27  1  0.38888233  0.38614731  0.68521920  1
  O  O28  1  0.25932116  0.60234573  0.31846101  1
  O  O29  1  0.25985097  0.06632638  0.35269553  1
  O  O30  1  0.17729176  0.25595479  0.98045395  1
  O  O31  1  0.15604124  0.74404521  0.01954605  1
  O  O32  1  0.07401184  0.39765427  0.68153899  1
  O  O33  1  0.07348303  0.93367362  0.64730447  1
