# generated using pymatgen
data_V2(OF)3
_symmetry_space_group_name_H-M   'P 1'
_cell_length_a   5.18563462
_cell_length_b   13.24656420
_cell_length_c   5.24131936
_cell_angle_alpha   89.13408646
_cell_angle_beta   119.51253474
_cell_angle_gamma   90.83027535
_symmetry_Int_Tables_number   1
_chemical_formula_structural   V2(OF)3
_chemical_formula_sum   'V6 O9 F9'
_cell_volume   313.27443395
_cell_formula_units_Z   3
loop_
 _symmetry_equiv_pos_site_id
 _symmetry_equiv_pos_as_xyz
  1  'x, y, z'
loop_
 _atom_site_type_symbol
 _atom_site_label
 _atom_site_symmetry_multiplicity
 _atom_site_fract_x
 _atom_site_fract_y
 _atom_site_fract_z
 _atom_site_occupancy
  V  V0  1  0.03102708  0.48716332  0.03793370  1
  V  V1  1  0.01446706  0.00411622  0.99157188  1
  V  V2  1  0.61967779  0.83090019  0.33958342  1
  V  V3  1  0.31650609  0.66938084  0.70805877  1
  V  V4  1  0.65154055  0.32785944  0.33984699  1
  V  V5  1  0.36065288  0.15800590  0.67203245  1
  O  O6  1  0.42868759  0.74988456  0.99390986  1
  O  O7  1  0.33023942  0.42209872  0.09150335  1
  O  O8  1  0.33713868  0.91137509  0.24169571  1
  O  O9  1  0.09436217  0.58770297  0.75625077  1
  O  O10  1  0.43488649  0.25344603  0.42234712  1
  O  O11  1  0.57452881  0.74802722  0.55895885  1
  O  O12  1  0.91209105  0.42108507  0.23712889  1
  O  O13  1  0.22467182  0.08237207  0.90620193  1
  O  O14  1  0.64636296  0.08186572  0.74804939  1
  F  F15  1  0.01016238  0.75037623  0.41832667  1
  F  F16  1  0.06455256  0.08388529  0.32808869  1
  F  F17  1  0.23597428  0.58740869  0.32033775  1
  F  F18  1  0.59672994  0.25204101  0.00044087  1
  F  F19  1  0.01858376  0.25340894  0.58920261  1
  F  F20  1  0.76432043  0.91456114  0.08227824  1
  F  F21  1  0.75468789  0.42384338  0.67071800  1
  F  F22  1  0.92068226  0.91225075  0.65190451  1
  F  F23  1  0.65746607  0.58694222  0.89362961  1
