# generated using pymatgen
data_Li11Ni13O24
_symmetry_space_group_name_H-M   'P 1'
_cell_length_a   7.62393688
_cell_length_b   8.72257818
_cell_length_c   7.62393658
_cell_angle_alpha   72.55863639
_cell_angle_beta   69.49739110
_cell_angle_gamma   105.55610547
_symmetry_Int_Tables_number   1
_chemical_formula_structural   Li11Ni13O24
_chemical_formula_sum   'Li11 Ni13 O24'
_cell_volume   411.65284574
_cell_formula_units_Z   1
loop_
 _symmetry_equiv_pos_site_id
 _symmetry_equiv_pos_as_xyz
  1  'x, y, z'
loop_
 _atom_site_type_symbol
 _atom_site_label
 _atom_site_symmetry_multiplicity
 _atom_site_fract_x
 _atom_site_fract_y
 _atom_site_fract_z
 _atom_site_occupancy
  Li  Li0  1  0.70814755  0.12500000  0.91685245  1
  Li  Li1  1  0.62491438  0.87236874  0.75254563  1
  Li  Li2  1  0.96235018  0.87701035  0.41440730  1
  Li  Li3  1  0.21030694  0.62500000  0.91469306  1
  Li  Li4  1  0.53969306  0.62500000  0.58530694  1
  Li  Li5  1  0.45858135  0.37298965  0.41466117  1
  Li  Li6  1  0.78764982  0.37298965  0.08559270  1
  Li  Li7  1  0.12508562  0.37763126  0.74745437  1
  Li  Li8  1  0.04185245  0.12500000  0.58314755  1
  Li  Li9  1  0.37500000  0.12500000  0.25000000  1
  Li  Li10  1  0.29141865  0.87701035  0.08533883  1
  Ni  Ni11  1  0.91611002  0.74910282  0.83520539  1
  Ni  Ni12  1  0.83388998  0.50089718  0.66479461  1
  Ni  Ni13  1  0.41269425  0.24835549  0.83387261  1
  Ni  Ni14  1  0.75125576  0.25210663  0.49914913  1
  Ni  Ni15  1  0.66777290  0.00164551  0.33566124  1
  Ni  Ni16  1  0.33730575  0.00164551  0.66612739  1
  Ni  Ni17  1  0.87500000  0.62500000  0.25000000  1
  Ni  Ni18  1  0.58430721  0.74910282  0.16700720  1
  Ni  Ni19  1  0.25126316  0.75232777  0.49893539  1
  Ni  Ni20  1  0.49873684  0.49767223  0.00106461  1
  Ni  Ni21  1  0.16569279  0.50089718  0.33299280  1
  Ni  Ni22  1  0.08222710  0.24835549  0.16433876  1
  Ni  Ni23  1  0.99874424  0.99789337  0.00085087  1
  O  O24  1  0.59241327  0.32232897  0.95003846  1
  O  O25  1  0.92771666  0.31510911  0.61260755  1
  O  O26  1  0.82228334  0.93489089  0.88739245  1
  O  O27  1  0.85954188  0.07728805  0.43903177  1
  O  O28  1  0.51632083  0.07728805  0.78225383  1
  O  O29  1  0.72382813  0.67536522  0.73141696  1
  O  O30  1  0.98323544  0.43612430  0.21801706  1
  O  O31  1  0.65414136  0.43612430  0.54711114  1
  O  O32  1  0.30130435  0.41453753  0.88676582  1
  O  O33  1  0.23367917  0.17271195  0.71774617  1
  O  O34  1  0.89045812  0.17271195  0.06096823  1
  O  O35  1  0.57753265  0.19240152  0.38513112  1
  O  O36  1  0.09585864  0.81387570  0.95288886  1
  O  O37  1  0.76676456  0.81387570  0.28198294  1
  O  O38  1  0.44869565  0.83546247  0.61323418  1
  O  O39  1  0.34321782  0.57463478  0.45153709  1
  O  O40  1  0.02617187  0.57463478  0.76858304  1
  O  O41  1  0.69040662  0.57042082  0.11998580  1
  O  O42  1  0.27236743  0.32232897  0.27008430  1
  O  O43  1  0.15758673  0.92767103  0.54996154  1
  O  O44  1  0.47763257  0.92767103  0.22991570  1
  O  O45  1  0.17246735  0.05759848  0.11486888  1
  O  O46  1  0.05959338  0.67957918  0.38001420  1
  O  O47  1  0.40678218  0.67536522  0.04846291  1
