# generated using pymatgen
data_Li2Fe3CoO8
_symmetry_space_group_name_H-M   'P 1'
_cell_length_a   8.38333368
_cell_length_b   8.31411224
_cell_length_c   8.42490618
_cell_angle_alpha   89.98928630
_cell_angle_beta   89.99831117
_cell_angle_gamma   90.07545172
_symmetry_Int_Tables_number   1
_chemical_formula_structural   Li2Fe3CoO8
_chemical_formula_sum   'Li8 Fe12 Co4 O32'
_cell_volume   587.21524857
_cell_formula_units_Z   4
loop_
 _symmetry_equiv_pos_site_id
 _symmetry_equiv_pos_as_xyz
  1  'x, y, z'
loop_
 _atom_site_type_symbol
 _atom_site_label
 _atom_site_symmetry_multiplicity
 _atom_site_fract_x
 _atom_site_fract_y
 _atom_site_fract_z
 _atom_site_occupancy
  Li  Li0  1  0.00218284  0.00199996  0.00323665  1
  Li  Li1  1  0.24750675  0.24752857  0.24688360  1
  Li  Li2  1  0.25268485  0.75225679  0.74660728  1
  Li  Li3  1  0.49743512  0.99808481  0.50304158  1
  Li  Li4  1  0.50232451  0.49760971  0.99828669  1
  Li  Li5  1  0.74736836  0.25232746  0.75176709  1
  Li  Li6  1  0.75275189  0.74765491  0.25161404  1
  Li  Li7  1  0.99790162  0.50238846  0.49839252  1
  Fe  Fe8  1  0.12689908  0.12227579  0.62525533  1
  Fe  Fe9  1  0.12574897  0.37173648  0.87828918  1
  Fe  Fe10  1  0.12222766  0.62476366  0.12713053  1
  Fe  Fe11  1  0.37785954  0.37522113  0.62708729  1
  Fe  Fe12  1  0.37429198  0.62831016  0.37821839  1
  Fe  Fe13  1  0.37292922  0.87768867  0.12518498  1
  Fe  Fe14  1  0.62752083  0.37774452  0.37474844  1
  Fe  Fe15  1  0.62615878  0.12784269  0.12202012  1
  Fe  Fe16  1  0.62134225  0.87481728  0.87274680  1
  Fe  Fe17  1  0.87860228  0.12534329  0.37282850  1
  Fe  Fe18  1  0.87367533  0.87216217  0.62190245  1
  Fe  Fe19  1  0.87256081  0.62240113  0.87474114  1
  Co  Co20  1  0.12534390  0.87610529  0.37506133  1
  Co  Co21  1  0.37451502  0.12373608  0.87503734  1
  Co  Co22  1  0.62488672  0.62443512  0.62479986  1
  Co  Co23  1  0.87525496  0.37557046  0.12495780  1
  O  O24  1  0.11917327  0.10295330  0.38380680  1
  O  O25  1  0.11545651  0.88419381  0.60252486  1
  O  O26  1  0.11213727  0.61209936  0.88520804  1
  O  O27  1  0.14737735  0.13099044  0.86652833  1
  O  O28  1  0.10348549  0.38407664  0.11813706  1
  O  O29  1  0.13586044  0.35969874  0.63626831  1
  O  O30  1  0.13377493  0.64853453  0.36900710  1
  O  O31  1  0.13382764  0.86653798  0.14809112  1
  O  O32  1  0.36592429  0.13339392  0.64800088  1
  O  O33  1  0.36631795  0.35124548  0.86902019  1
  O  O34  1  0.36410502  0.64025651  0.13613822  1
  O  O35  1  0.39657752  0.61581124  0.61796161  1
  O  O36  1  0.35242782  0.86891538  0.36648794  1
  O  O37  1  0.38780950  0.38796750  0.38530315  1
  O  O38  1  0.38448678  0.11574477  0.10255970  1
  O  O39  1  0.38070336  0.89708600  0.88365021  1
  O  O40  1  0.61907660  0.39806780  0.61616788  1
  O  O41  1  0.61528932  0.61737226  0.39740299  1
  O  O42  1  0.61126234  0.88697075  0.11487461  1
  O  O43  1  0.64706856  0.36864301  0.13430827  1
  O  O44  1  0.60204094  0.11574161  0.88105491  1
  O  O45  1  0.63725665  0.13924894  0.36464424  1
  O  O46  1  0.63309086  0.85165819  0.63041243  1
  O  O47  1  0.63247335  0.63311132  0.85183831  1
  O  O48  1  0.86777596  0.36689688  0.35186817  1
  O  O49  1  0.86681781  0.14825526  0.13071479  1
  O  O50  1  0.86275730  0.86092080  0.86442368  1
  O  O51  1  0.89783514  0.88430873  0.38102146  1
  O  O52  1  0.85321829  0.63156627  0.63439204  1
  O  O53  1  0.88874567  0.11304449  0.61492764  1
  O  O54  1  0.88478207  0.38276099  0.89756309  1
  O  O55  1  0.88109172  0.60206451  0.11599303  1
