# generated using pymatgen
data_Li4Fe3Ni3(SbO8)2
_symmetry_space_group_name_H-M   'P 1'
_cell_length_a   5.94716743
_cell_length_b   5.90794664
_cell_length_c   9.70381317
_cell_angle_alpha   90.12306017
_cell_angle_beta   90.56320445
_cell_angle_gamma   120.12848735
_symmetry_Int_Tables_number   1
_chemical_formula_structural   Li4Fe3Ni3(SbO8)2
_chemical_formula_sum   'Li4 Fe3 Ni3 Sb2 O16'
_cell_volume   294.86314736
_cell_formula_units_Z   1
loop_
 _symmetry_equiv_pos_site_id
 _symmetry_equiv_pos_as_xyz
  1  'x, y, z'
loop_
 _atom_site_type_symbol
 _atom_site_label
 _atom_site_symmetry_multiplicity
 _atom_site_fract_x
 _atom_site_fract_y
 _atom_site_fract_z
 _atom_site_occupancy
  Li  Li0  1  0.33220433  0.66458139  0.90172934  1
  Li  Li1  1  0.99005747  0.99385374  0.98807185  1
  Li  Li2  1  0.99914002  0.00067692  0.49110181  1
  Li  Li3  1  0.67067797  0.33806334  0.40462767  1
  Fe  Fe4  1  0.17161719  0.83152336  0.21291721  1
  Fe  Fe5  1  0.17204700  0.33926274  0.21411649  1
  Fe  Fe6  1  0.33737295  0.17119243  0.71509102  1
  Ni  Ni7  1  0.65938711  0.82980347  0.21349015  1
  Ni  Ni8  1  0.82940902  0.66060819  0.71282610  1
  Ni  Ni9  1  0.82598763  0.16654299  0.71263035  1
  Sb  Sb10  1  0.33504596  0.67038136  0.48807362  1
  Sb  Sb11  1  0.66866379  0.33105053  0.98408609  1
  O  O12  1  0.16750089  0.83651236  0.59617280  1
  O  O13  1  0.03464654  0.51554179  0.34601803  1
  O  O14  1  0.33232353  0.66492942  0.10846167  1
  O  O15  1  0.99760306  0.99815570  0.30217259  1
  O  O16  1  0.98783996  0.99537480  0.79845366  1
  O  O17  1  0.17640120  0.33743751  0.59440136  1
  O  O18  1  0.47789114  0.96837234  0.34883644  1
  O  O19  1  0.48241547  0.51794324  0.34772485  1
  O  O20  1  0.33597916  0.16884327  0.09515147  1
  O  O21  1  0.67669852  0.84478840  0.59371430  1
  O  O22  1  0.51858316  0.48490269  0.84606460  1
  O  O23  1  0.50482741  0.02866415  0.84774803  1
  O  O24  1  0.67471741  0.33700680  0.61516854  1
  O  O25  1  0.84009340  0.66631387  0.09261244  1
  O  O26  1  0.96323323  0.47123407  0.84204741  1
  O  O27  1  0.83763550  0.16674416  0.09433112  1
