# generated using pymatgen
data_MnFe(PO4)2
_symmetry_space_group_name_H-M   'P 1'
_cell_length_a   9.89358950
_cell_length_b   6.00458539
_cell_length_c   4.91802475
_cell_angle_alpha   89.99996394
_cell_angle_beta   89.99978823
_cell_angle_gamma   89.99997335
_symmetry_Int_Tables_number   1
_chemical_formula_structural   MnFe(PO4)2
_chemical_formula_sum   'Mn2 Fe2 P4 O16'
_cell_volume   292.16461911
_cell_formula_units_Z   2
loop_
 _symmetry_equiv_pos_site_id
 _symmetry_equiv_pos_as_xyz
  1  'x, y, z'
loop_
 _atom_site_type_symbol
 _atom_site_label
 _atom_site_symmetry_multiplicity
 _atom_site_fract_x
 _atom_site_fract_y
 _atom_site_fract_z
 _atom_site_occupancy
  Mn  Mn0  1  0.21508034  0.74999874  0.43540107  1
  Mn  Mn1  1  0.28492182  0.25001401  0.93538227  1
  Fe  Fe2  1  0.72644337  0.74999905  0.03109351  1
  Fe  Fe3  1  0.77355974  0.24999956  0.53111341  1
  P  P4  1  0.10082148  0.24999643  0.42128875  1
  P  P5  1  0.39917806  0.75000090  0.92129263  1
  P  P6  1  0.59738182  0.24999974  0.08078936  1
  P  P7  1  0.90261772  0.74999966  0.58080316  1
  O  O8  1  0.05350862  0.74999925  0.65208558  1
  O  O9  1  0.12063650  0.25000016  0.73174949  1
  O  O10  1  0.17238377  0.04975967  0.27918523  1
  O  O11  1  0.17238424  0.45023868  0.27918573  1
  O  O12  1  0.32761671  0.54976290  0.77918666  1
  O  O13  1  0.32761624  0.95023502  0.77918402  1
  O  O14  1  0.37936641  0.74999957  0.23174980  1
  O  O15  1  0.44648895  0.25000009  0.15208819  1
  O  O16  1  0.55130143  0.74999875  0.86240208  1
  O  O17  1  0.61869970  0.25000009  0.77386499  1
  O  O18  1  0.67198764  0.05020723  0.22628186  1
  O  O19  1  0.67198701  0.44979173  0.22628043  1
  O  O20  1  0.82801268  0.55020898  0.72628695  1
  O  O21  1  0.82801274  0.94978876  0.72628768  1
  O  O22  1  0.88129163  0.74999977  0.27386195  1
  O  O23  1  0.94870137  0.25000126  0.36240723  1
