# generated using pymatgen
data_LiVCr(P2O7)2
_symmetry_space_group_name_H-M   'P 1'
_cell_length_a   9.71832501
_cell_length_b   16.83835253
_cell_length_c   7.15547931
_cell_angle_alpha   83.89403077
_cell_angle_beta   68.04318496
_cell_angle_gamma   73.29525701
_symmetry_Int_Tables_number   1
_chemical_formula_structural   LiVCr(P2O7)2
_chemical_formula_sum   'Li4 V4 Cr4 P16 O56'
_cell_volume   1040.16353250
_cell_formula_units_Z   4
loop_
 _symmetry_equiv_pos_site_id
 _symmetry_equiv_pos_as_xyz
  1  'x, y, z'
loop_
 _atom_site_type_symbol
 _atom_site_label
 _atom_site_symmetry_multiplicity
 _atom_site_fract_x
 _atom_site_fract_y
 _atom_site_fract_z
 _atom_site_occupancy
  Li  Li0  1  0.03475016  0.43230638  0.67489832  1
  Li  Li1  1  0.40918111  0.68040466  0.32573934  1
  Li  Li2  1  0.65907499  0.18093441  0.32764300  1
  Li  Li3  1  0.28525912  0.93240201  0.67483432  1
  V  V4  1  0.11972202  0.24786252  0.72250807  1
  V  V5  1  0.36999069  0.74804880  0.72837227  1
  V  V6  1  0.61708242  0.25331898  0.72801938  1
  V  V7  1  0.86637668  0.75309537  0.72215717  1
  Cr  Cr8  1  0.00564452  0.50283824  0.27161689  1
  Cr  Cr9  1  0.25531604  0.00298761  0.27095053  1
  Cr  Cr10  1  0.50620815  0.49879889  0.27634426  1
  Cr  Cr11  1  0.75610681  0.99846962  0.27696690  1
  P  P12  1  0.14310203  0.59146319  0.52278012  1
  P  P13  1  0.39477124  0.09037937  0.52329233  1
  P  P14  1  0.11820638  0.89150326  0.08702955  1
  P  P15  1  0.36858107  0.39170684  0.08486195  1
  P  P16  1  0.10983092  0.64174202  0.91657027  1
  P  P17  1  0.36376887  0.14169351  0.91535254  1
  P  P18  1  0.14215416  0.83980792  0.47765394  1
  P  P19  1  0.39109290  0.34096925  0.47543778  1
  P  P20  1  0.64747134  0.58755690  0.51948313  1
  P  P21  1  0.89566669  0.08839266  0.51867860  1
  P  P22  1  0.61928087  0.89107231  0.08579110  1
  P  P23  1  0.86898289  0.39111966  0.08820322  1
  P  P24  1  0.61638887  0.64090384  0.91068436  1
  P  P25  1  0.86272196  0.14099548  0.91151378  1
  P  P26  1  0.64201485  0.83987502  0.47647709  1
  P  P27  1  0.89368835  0.33884455  0.47837458  1
  O  O28  1  0.05882031  0.08999078  0.39301107  1
  O  O29  1  0.01385817  0.26917329  0.53068666  1
  O  O30  1  0.01473434  0.16546893  0.85137106  1
  O  O31  1  0.08672242  0.59503566  0.11135051  1
  O  O32  1  0.33574599  0.09560237  0.11147525  1
  O  O33  1  0.19569656  0.41178651  0.14252628  1
  O  O34  1  0.08968034  0.52020861  0.48332144  1
  O  O35  1  0.33936419  0.02019666  0.48342106  1
  O  O36  1  0.03271617  0.67655157  0.51933677  1
  O  O37  1  0.28463647  0.17608430  0.51838849  1
  O  O38  1  0.22556329  0.33731081  0.60824397  1
  O  O39  1  0.23279322  0.21771525  0.90455328  1
  O  O40  1  0.13741919  0.57438853  0.75272111  1
  O  O41  1  0.38736757  0.07411385  0.75295484  1
  O  O42  1  0.16883412  0.82440524  0.24745186  1
  O  O43  1  0.41710768  0.32313543  0.24762108  1
  O  O44  1  0.17599146  0.96749445  0.07932743  1
  O  O45  1  0.42580011  0.46673521  0.08588368  1
  O  O46  1  0.30784769  0.59163215  0.39033319  1
  O  O47  1  0.55844860  0.09147972  0.38996869  1
  O  O48  1  0.16751855  0.92397714  0.49227427  1
  O  O49  1  0.40948276  0.42604192  0.48927770  1
  O  O50  1  0.26795079  0.76867702  0.51910913  1
  O  O51  1  0.51468669  0.26965226  0.52089039  1
  O  O52  1  0.26132804  0.66930457  0.85158541  1
  O  O53  1  0.51372748  0.16890943  0.84969070  1
  O  O54  1  0.20458606  0.84441217  0.88449040  1
  O  O55  1  0.45122707  0.34126240  0.88869173  1
  O  O56  1  0.57723760  0.59897436  0.11571498  1
  O  O57  1  0.82697611  0.09863759  0.11599406  1
  O  O58  1  0.44612944  0.91141302  0.14211591  1
  O  O59  1  0.69674021  0.40958942  0.14260029  1
  O  O60  1  0.58991914  0.51982922  0.47661252  1
  O  O61  1  0.84059385  0.01943303  0.47592755  1
  O  O62  1  0.53078443  0.67378909  0.51760997  1
  O  O63  1  0.77940061  0.17405188  0.51721939  1
  O  O64  1  0.47462631  0.83589094  0.60819411  1
  O  O65  1  0.72921447  0.33360171  0.60766242  1
  O  O66  1  0.48260867  0.71806085  0.91111362  1
  O  O67  1  0.73056398  0.21848171  0.91335156  1
  O  O68  1  0.63518806  0.57412805  0.75366590  1
  O  O69  1  0.88451356  0.07442762  0.75331641  1
  O  O70  1  0.66582291  0.82259309  0.24972509  1
  O  O71  1  0.91803278  0.32396035  0.24940355  1
  O  O72  1  0.67555450  0.96648985  0.08668156  1
  O  O73  1  0.92569201  0.46752811  0.08059865  1
  O  O74  1  0.80951432  0.59005551  0.39251433  1
  O  O75  1  0.65778319  0.92591171  0.48903937  1
  O  O76  1  0.91629386  0.42399598  0.49188659  1
  O  O77  1  0.76057716  0.76999159  0.53138015  1
  O  O78  1  0.76692415  0.66570324  0.85000274  1
  O  O79  1  0.70277162  0.84058228  0.89004310  1
  O  O80  1  0.95622697  0.34405661  0.88580315  1
  O  O81  1  0.94615301  0.90987406  0.14264410  1
  O  O82  1  0.97915038  0.83526692  0.60833861  1
  O  O83  1  0.98084122  0.71809672  0.90790505  1
