# generated using pymatgen
data_NaFe(PO3)3
_symmetry_space_group_name_H-M   'P 1'
_cell_length_a   8.77609427
_cell_length_b   8.69311130
_cell_length_c   9.03868301
_cell_angle_alpha   90.00000000
_cell_angle_beta   90.00000000
_cell_angle_gamma   90.00000000
_symmetry_Int_Tables_number   1
_chemical_formula_structural   NaFe(PO3)3
_chemical_formula_sum   'Na4 Fe4 P12 O36'
_cell_volume   689.57526576
_cell_formula_units_Z   4
loop_
 _symmetry_equiv_pos_site_id
 _symmetry_equiv_pos_as_xyz
  1  'x, y, z'
loop_
 _atom_site_type_symbol
 _atom_site_label
 _atom_site_symmetry_multiplicity
 _atom_site_fract_x
 _atom_site_fract_y
 _atom_site_fract_z
 _atom_site_occupancy
  Na  Na0  1  0.15248031  0.86816353  0.39294223  1
  Na  Na1  1  0.34751969  0.13183647  0.89294223  1
  Na  Na2  1  0.65248031  0.63183647  0.60705777  1
  Na  Na3  1  0.84751969  0.36816353  0.10705777  1
  Fe  Fe4  1  0.12745092  0.14290780  0.15922977  1
  Fe  Fe5  1  0.37254908  0.85709220  0.65922977  1
  Fe  Fe6  1  0.62745092  0.35709220  0.84077023  1
  Fe  Fe7  1  0.87254908  0.64290780  0.34077023  1
  P  P8  1  0.03182706  0.67598219  0.68775306  1
  P  P9  1  0.19353951  0.51999374  0.19124386  1
  P  P10  1  0.19768719  0.19211665  0.56011781  1
  P  P11  1  0.30231281  0.80788335  0.06011781  1
  P  P12  1  0.30646049  0.48000626  0.69124286  1
  P  P13  1  0.46817294  0.32401781  0.18775306  1
  P  P14  1  0.53182706  0.82401781  0.31224694  1
  P  P15  1  0.69353951  0.98000626  0.80875714  1
  P  P16  1  0.69768719  0.30788335  0.43988219  1
  P  P17  1  0.80231281  0.69211665  0.93988219  1
  P  P18  1  0.80646049  0.01999374  0.30875614  1
  P  P19  1  0.96817294  0.17598219  0.81224694  1
  O  O20  1  0.04368074  0.21958547  0.65537509  1
  O  O21  1  0.10669076  0.38402184  0.13214685  1
  O  O22  1  0.08833737  0.12383061  0.91888779  1
  O  O23  1  0.11953590  0.61012731  0.31448191  1
  O  O24  1  0.13294062  0.80630476  0.63929240  1
  O  O25  1  0.13815898  0.53265180  0.74133060  1
  O  O26  1  0.15368349  0.14821418  0.40596238  1
  O  O27  1  0.19496698  0.91178662  0.14435788  1
  O  O28  1  0.23210464  0.63544516  0.05512576  1
  O  O29  1  0.26789536  0.36455484  0.55512576  1
  O  O30  1  0.30503302  0.08821338  0.64435788  1
  O  O31  1  0.34631651  0.85178582  0.90596238  1
  O  O32  1  0.36184102  0.46734820  0.24133060  1
  O  O33  1  0.36705938  0.19369524  0.13929240  1
  O  O34  1  0.38046410  0.38987269  0.81448191  1
  O  O35  1  0.41166263  0.87616939  0.41888779  1
  O  O36  1  0.39330924  0.61597816  0.63214685  1
  O  O37  1  0.45631926  0.78041453  0.15537509  1
  O  O38  1  0.54368074  0.28041453  0.34462491  1
  O  O39  1  0.60669076  0.11597816  0.86785315  1
  O  O40  1  0.58833737  0.37616939  0.08111221  1
  O  O41  1  0.61953590  0.88987269  0.68551809  1
  O  O42  1  0.63294062  0.69369524  0.36070760  1
  O  O43  1  0.63815898  0.96734820  0.25866940  1
  O  O44  1  0.65368349  0.35178582  0.59403762  1
  O  O45  1  0.69496698  0.58821338  0.85564212  1
  O  O46  1  0.73210464  0.86455484  0.94487424  1
  O  O47  1  0.76789536  0.13544516  0.44487424  1
  O  O48  1  0.80503302  0.41178662  0.35564212  1
  O  O49  1  0.84631651  0.64821418  0.09403762  1
  O  O50  1  0.86184102  0.03265180  0.75866940  1
  O  O51  1  0.86705938  0.30630476  0.86070760  1
  O  O52  1  0.88046410  0.11012731  0.18551809  1
  O  O53  1  0.91166263  0.62383061  0.58111221  1
  O  O54  1  0.89330924  0.88402184  0.36785315  1
  O  O55  1  0.95631926  0.71958547  0.84462491  1
