# generated using pymatgen
data_LiVFeP2(HO5)2
_symmetry_space_group_name_H-M   'P 1'
_cell_length_a   10.24889418
_cell_length_b   7.42053570
_cell_length_c   5.20947569
_cell_angle_alpha   74.82144124
_cell_angle_beta   79.90395399
_cell_angle_gamma   103.50386910
_symmetry_Int_Tables_number   1
_chemical_formula_structural   LiVFeP2(HO5)2
_chemical_formula_sum   'Li2 V2 Fe2 P4 H4 O20'
_cell_volume   359.80598836
_cell_formula_units_Z   2
loop_
 _symmetry_equiv_pos_site_id
 _symmetry_equiv_pos_as_xyz
  1  'x, y, z'
loop_
 _atom_site_type_symbol
 _atom_site_label
 _atom_site_symmetry_multiplicity
 _atom_site_fract_x
 _atom_site_fract_y
 _atom_site_fract_z
 _atom_site_occupancy
  Li  Li0  1  0.28064119  0.12604270  0.64765645  1
  Li  Li1  1  0.71935881  0.87395730  0.35234355  1
  V  V2  1  0.24844061  0.74379141  0.25598994  1
  V  V3  1  0.75155939  0.25620859  0.74401006  1
  Fe  Fe4  1  0.00000000  0.00000000  0.00000000  1
  Fe  Fe5  1  0.50000000  0.50000000  0.50000000  1
  P  P6  1  0.06495691  0.28816875  0.38577728  1
  P  P7  1  0.43637018  0.20519562  0.11121123  1
  P  P8  1  0.56362982  0.79480438  0.88878877  1
  P  P9  1  0.93504309  0.71183125  0.61422272  1
  H  H10  1  0.14382605  0.79373934  0.85260785  1
  H  H11  1  0.34658479  0.68720769  0.66490152  1
  H  H12  1  0.65341521  0.31279231  0.33509848  1
  H  H13  1  0.85617395  0.20626066  0.14739215  1
  O  O14  1  0.08490249  0.15790718  0.20874642  1
  O  O15  1  0.11059829  0.21983755  0.65197963  1
  O  O16  1  0.09177253  0.71572430  0.55337635  1
  O  O17  1  0.15354625  0.50296373  0.21820172  1
  O  O18  1  0.34166709  0.99818189  0.29610228  1
  O  O19  1  0.16537418  0.88065523  0.96451771  1
  O  O20  1  0.39571574  0.26635825  0.83818485  1
  O  O21  1  0.34226238  0.62619653  0.51789087  1
  O  O22  1  0.41402539  0.33876088  0.28715140  1
  O  O23  1  0.40733144  0.79037623  0.94275283  1
  O  O24  1  0.59266856  0.20962377  0.05724717  1
  O  O25  1  0.58597461  0.66123912  0.71284860  1
  O  O26  1  0.65773762  0.37380347  0.48210913  1
  O  O27  1  0.60428426  0.73364175  0.16181515  1
  O  O28  1  0.83462582  0.11934477  0.03548229  1
  O  O29  1  0.65833291  0.00181811  0.70389772  1
  O  O30  1  0.84645375  0.49703627  0.78179828  1
  O  O31  1  0.90822747  0.28427570  0.44662365  1
  O  O32  1  0.88940171  0.78016245  0.34802037  1
  O  O33  1  0.91509751  0.84209282  0.79125358  1
