# generated using pymatgen
data_LiVFeP2(HO5)2
_symmetry_space_group_name_H-M   'P 1'
_cell_length_a   7.48422028
_cell_length_b   11.11918672
_cell_length_c   6.90544973
_cell_angle_alpha   72.55904523
_cell_angle_beta   89.41952701
_cell_angle_gamma   80.71178104
_symmetry_Int_Tables_number   1
_chemical_formula_structural   LiVFeP2(HO5)2
_chemical_formula_sum   'Li3 V3 Fe3 P6 H6 O30'
_cell_volume   540.60692236
_cell_formula_units_Z   3
loop_
 _symmetry_equiv_pos_site_id
 _symmetry_equiv_pos_as_xyz
  1  'x, y, z'
loop_
 _atom_site_type_symbol
 _atom_site_label
 _atom_site_symmetry_multiplicity
 _atom_site_fract_x
 _atom_site_fract_y
 _atom_site_fract_z
 _atom_site_occupancy
  Li  Li0  1  0.68841366  0.15889142  0.74916281  1
  Li  Li1  1  0.64656545  0.50709211  0.91650825  1
  Li  Li2  1  0.31201255  0.83997702  0.25068145  1
  V  V3  1  0.66695940  0.83437229  0.83081267  1
  V  V4  1  0.33559036  0.16641379  0.17096938  1
  V  V5  1  0.99988096  0.50106062  0.49758251  1
  Fe  Fe6  1  0.66882749  0.33273445  0.33394785  1
  Fe  Fe7  1  0.32725883  0.66588518  0.66899354  1
  Fe  Fe8  1  0.00182025  0.99939324  0.00056151  1
  P  P9  1  0.92687883  0.30025003  0.94502738  1
  P  P10  1  0.74198526  0.03107937  0.38670676  1
  P  P11  1  0.40743459  0.36511030  0.72122331  1
  P  P12  1  0.59376886  0.63568252  0.27856433  1
  P  P13  1  0.25937182  0.96747974  0.61312703  1
  P  P14  1  0.07515315  0.69963714  0.05439368  1
  H  H15  1  0.33077801  0.01858102  0.95730928  1
  H  H16  1  0.00176128  0.34120103  0.31035301  1
  H  H17  1  0.66328419  0.68480910  0.62432229  1
  H  H18  1  0.33302440  0.32576046  0.35738266  1
  H  H19  1  0.99746021  0.65842165  0.69119681  1
  H  H20  1  0.67004588  0.98140654  0.04332321  1
  O  O21  1  0.92085299  0.18822526  0.85930320  1
  O  O22  1  0.91122325  0.42949752  0.77220983  1
  O  O23  1  0.42075484  0.23585749  0.89442657  1
  O  O24  1  0.89913467  0.72154808  0.91782163  1
  O  O25  1  0.73004691  0.14248835  0.47863914  1
  O  O26  1  0.90897778  0.02102139  0.26076428  1
  O  O27  1  0.41564886  0.47734296  0.80587745  1
  O  O28  1  0.91528901  0.36981275  0.40264304  1
  O  O29  1  0.57709988  0.34483163  0.59784539  1
  O  O30  1  0.57004338  0.05050214  0.24374032  1
  O  O31  1  0.74448367  0.97213680  0.92721573  1
  O  O32  1  0.25393912  0.09451187  0.43817131  1
  O  O33  1  0.58987103  0.69390398  0.74126769  1
  O  O34  1  0.24010368  0.68581788  0.92524383  1
  O  O35  1  0.23524979  0.38664862  0.58265981  1
  O  O36  1  0.76219413  0.61561563  0.42375826  1
  O  O37  1  0.75772510  0.32042187  0.06950632  1
  O  O38  1  0.41884555  0.29691840  0.26437439  1
  O  O39  1  0.74502094  0.90365449  0.56100890  1
  O  O40  1  0.25640530  0.02721565  0.07337365  1
  O  O41  1  0.43193889  0.94813293  0.75542925  1
  O  O42  1  0.42215731  0.65228111  0.39957588  1
  O  O43  1  0.08464861  0.62906956  0.60039604  1
  O  O44  1  0.60317869  0.52428448  0.18801859  1
  O  O45  1  0.09251952  0.97790982  0.73944089  1
  O  O46  1  0.27411745  0.85557711  0.52180095  1
  O  O47  1  0.09997244  0.27848721  0.08266390  1
  O  O48  1  0.58025358  0.76556465  0.10672612  1
  O  O49  1  0.07989324  0.57302178  0.22922953  1
  O  O50  1  0.07840701  0.81164257  0.14203638  1
