# generated using pymatgen
data_Na2MnO3
_symmetry_space_group_name_H-M   'P 1'
_cell_length_a   5.46712837
_cell_length_b   9.67704602
_cell_length_c   5.46784747
_cell_angle_alpha   101.24796189
_cell_angle_beta   71.94057969
_cell_angle_gamma   78.79963454
_symmetry_Int_Tables_number   1
_chemical_formula_structural   Na2MnO3
_chemical_formula_sum   'Na8 Mn4 O12'
_cell_volume   259.48780897
_cell_formula_units_Z   4
loop_
 _symmetry_equiv_pos_site_id
 _symmetry_equiv_pos_as_xyz
  1  'x, y, z'
loop_
 _atom_site_type_symbol
 _atom_site_label
 _atom_site_symmetry_multiplicity
 _atom_site_fract_x
 _atom_site_fract_y
 _atom_site_fract_z
 _atom_site_occupancy
  Na  Na0  1  0.00544328  0.98902386  0.49553260  1
  Na  Na1  1  0.57757472  0.84391428  0.42187873  1
  Na  Na2  1  0.17253988  0.65539125  0.32817565  1
  Na  Na3  1  0.74496615  0.51027440  0.25549106  1
  Na  Na4  1  0.25508480  0.48921098  0.74515040  1
  Na  Na5  1  0.32877931  0.34364385  0.17094826  1
  Na  Na6  1  0.42201219  0.15536523  0.57675657  1
  Na  Na7  1  0.49648647  0.01002625  0.00472406  1
  Mn  Mn8  1  0.08472287  0.83172542  0.91629910  1
  Mn  Mn9  1  0.66630950  0.66783146  0.83434084  1
  Mn  Mn10  1  0.83460833  0.33154488  0.66611988  1
  Mn  Mn11  1  0.91711543  0.16757092  0.08416963  1
  O  O12  1  0.34232689  0.81280800  0.10983550  1
  O  O13  1  0.84635779  0.81260124  0.70374996  1
  O  O14  1  0.40900978  0.68661483  0.64080086  1
  O  O15  1  0.90473917  0.68675215  0.04693218  1
  O  O16  1  0.55411184  0.49957387  0.94643543  1
  O  O17  1  0.94614616  0.49969671  0.55410495  1
  O  O18  1  0.04697965  0.31295581  0.90495566  1
  O  O19  1  0.64136184  0.31254847  0.40867397  1
  O  O20  1  0.70475384  0.18640158  0.84568331  1
  O  O21  1  0.11030435  0.18668425  0.34191775  1
  O  O22  1  0.19722196  0.99971972  0.80420742  1
  O  O23  1  0.80518981  0.99963260  0.19614320  1
