# generated using pymatgen
data_VOF3
_symmetry_space_group_name_H-M   'P 1'
_cell_length_a   8.76920572
_cell_length_b   8.76915621
_cell_length_c   4.02668919
_cell_angle_alpha   89.99950828
_cell_angle_beta   90.00045303
_cell_angle_gamma   90.00105403
_symmetry_Int_Tables_number   1
_chemical_formula_structural   VOF3
_chemical_formula_sum   'V4 O4 F12'
_cell_volume   309.64649876
_cell_formula_units_Z   4
loop_
 _symmetry_equiv_pos_site_id
 _symmetry_equiv_pos_as_xyz
  1  'x, y, z'
loop_
 _atom_site_type_symbol
 _atom_site_label
 _atom_site_symmetry_multiplicity
 _atom_site_fract_x
 _atom_site_fract_y
 _atom_site_fract_z
 _atom_site_occupancy
  V  V0  1  0.12736245  0.37263569  0.18524501  1
  V  V1  1  0.37263797  0.87263675  0.81476939  1
  V  V2  1  0.62737463  0.12737013  0.81476025  1
  V  V3  1  0.87263227  0.62736162  0.18526425  1
  O  O4  1  0.11996772  0.38003141  0.78412322  1
  O  O5  1  0.38002300  0.88002431  0.21588391  1
  O  O6  1  0.61998486  0.11998246  0.21586972  1
  O  O7  1  0.88001880  0.61997518  0.78415598  1
  F  F8  1  0.09431208  0.59431345  0.26909471  1
  F  F9  1  0.10398364  0.17782243  0.26937699  1
  F  F10  1  0.17783035  0.89599849  0.73059869  1
  F  F11  1  0.32217493  0.39601190  0.26938269  1
  F  F12  1  0.39600019  0.67782732  0.73061246  1
  F  F13  1  0.40569815  0.09431004  0.73087254  1
  F  F14  1  0.59430950  0.90569700  0.73088699  1
  F  F15  1  0.60400204  0.32217863  0.73059614  1
  F  F16  1  0.67782477  0.60397947  0.26940722  1
  F  F17  1  0.82218140  0.10400166  0.73060955  1
  F  F18  1  0.89600761  0.82217249  0.26939725  1
  F  F19  1  0.90568566  0.40568257  0.26909103  1
