# generated using pymatgen
data_LiVPO4
_symmetry_space_group_name_H-M   'P 1'
_cell_length_a   18.91778568
_cell_length_b   5.56350043
_cell_length_c   8.48212377
_cell_angle_alpha   90.00000000
_cell_angle_beta   90.00000000
_cell_angle_gamma   90.00000000
_symmetry_Int_Tables_number   1
_chemical_formula_structural   LiVPO4
_chemical_formula_sum   'Li12 V12 P12 O48'
_cell_volume   892.73596723
_cell_formula_units_Z   12
loop_
 _symmetry_equiv_pos_site_id
 _symmetry_equiv_pos_as_xyz
  1  'x, y, z'
loop_
 _atom_site_type_symbol
 _atom_site_label
 _atom_site_symmetry_multiplicity
 _atom_site_fract_x
 _atom_site_fract_y
 _atom_site_fract_z
 _atom_site_occupancy
  Li  Li0  1  0.08036548  0.25391975  0.08065187  1
  Li  Li1  1  0.08650138  0.72013921  0.58249959  1
  Li  Li2  1  0.24683192  0.23107048  0.41777597  1
  Li  Li3  1  0.25316808  0.73107048  0.91777597  1
  Li  Li4  1  0.41349862  0.22013921  0.08249959  1
  Li  Li5  1  0.41963452  0.75391975  0.58065187  1
  Li  Li6  1  0.58036548  0.25391975  0.41934813  1
  Li  Li7  1  0.58650138  0.72013921  0.91750041  1
  Li  Li8  1  0.74683192  0.23107048  0.08222403  1
  Li  Li9  1  0.75316808  0.73107048  0.58222403  1
  Li  Li10  1  0.91349862  0.22013921  0.41750041  1
  Li  Li11  1  0.91963452  0.75391975  0.91934813  1
  V  V12  1  0.00018660  0.23503684  0.74795758  1
  V  V13  1  0.16642782  0.73599961  0.24806551  1
  V  V14  1  0.16683833  0.23748113  0.75131561  1
  V  V15  1  0.33316167  0.73748113  0.25131561  1
  V  V16  1  0.33357218  0.23599961  0.74806551  1
  V  V17  1  0.49981340  0.73503684  0.24795758  1
  V  V18  1  0.50018660  0.23503684  0.75204242  1
  V  V19  1  0.66642782  0.73599961  0.25193449  1
  V  V20  1  0.66683833  0.23748113  0.74868439  1
  V  V21  1  0.83316167  0.73748113  0.24868439  1
  V  V22  1  0.83357218  0.23599961  0.75193449  1
  V  V23  1  0.99981340  0.73503684  0.25204242  1
  P  P24  1  0.08138097  0.23216717  0.39666325  1
  P  P25  1  0.08508561  0.73869906  0.89718866  1
  P  P26  1  0.24828794  0.23729240  0.10245525  1
  P  P27  1  0.25171206  0.73729240  0.60245525  1
  P  P28  1  0.41491439  0.23869906  0.39718866  1
  P  P29  1  0.41861903  0.73216717  0.89666325  1
  P  P30  1  0.58138097  0.23216717  0.10333675  1
  P  P31  1  0.58508561  0.73869906  0.60281134  1
  P  P32  1  0.74828794  0.23729240  0.39754475  1
  P  P33  1  0.75171206  0.73729240  0.89754475  1
  P  P34  1  0.91491439  0.23869906  0.10281134  1
  P  P35  1  0.91861903  0.73216717  0.60333675  1
  O  O36  1  0.01334730  0.23026569  0.49482608  1
  O  O37  1  0.01860045  0.73818105  0.00060537  1
  O  O38  1  0.08408980  0.96144388  0.78168801  1
  O  O39  1  0.08396441  0.51151455  0.78421548  1
  O  O40  1  0.08229318  0.45872479  0.28317832  1
  O  O41  1  0.08273324  0.00882930  0.28178366  1
  O  O42  1  0.14781446  0.23465423  0.50016372  1
  O  O43  1  0.15307795  0.73869609  0.99526514  1
  O  O44  1  0.18039278  0.23964306  0.00398507  1
  O  O45  1  0.18514213  0.73260705  0.49938215  1
  O  O46  1  0.25023296  0.96365708  0.71530869  1
  O  O47  1  0.25121128  0.51382258  0.71809487  1
  O  O48  1  0.24878872  0.01382258  0.21809487  1
  O  O49  1  0.24976704  0.46365708  0.21530869  1
  O  O50  1  0.31485787  0.23260705  0.99938215  1
  O  O51  1  0.31960722  0.73964306  0.50398507  1
  O  O52  1  0.34692205  0.23869609  0.49526514  1
  O  O53  1  0.35218554  0.73465423  0.00016372  1
  O  O54  1  0.41726676  0.50882830  0.78178366  1
  O  O55  1  0.41770682  0.95872479  0.78317832  1
  O  O56  1  0.41603559  0.01151455  0.28421548  1
  O  O57  1  0.41591020  0.46144388  0.28168801  1
  O  O58  1  0.48139955  0.23818105  0.50060537  1
  O  O59  1  0.48665270  0.73026569  0.99482608  1
  O  O60  1  0.51334730  0.23026569  0.00517392  1
  O  O61  1  0.51860045  0.73818105  0.49939463  1
  O  O62  1  0.58408980  0.96144388  0.71831199  1
  O  O63  1  0.58396441  0.51151455  0.71578452  1
  O  O64  1  0.58229318  0.45872479  0.21682168  1
  O  O65  1  0.58273324  0.00882930  0.21821634  1
  O  O66  1  0.64781446  0.23465423  -0.00016372  1
  O  O67  1  0.65307795  0.73869609  0.50473486  1
  O  O68  1  0.68039278  0.23964306  0.49601493  1
  O  O69  1  0.68514213  0.73260705  0.00061785  1
  O  O70  1  0.75023296  0.96365708  0.78469131  1
  O  O71  1  0.75121128  0.51382258  0.78190513  1
  O  O72  1  0.74878872  0.01382258  0.28190513  1
  O  O73  1  0.74976704  0.46365708  0.28469131  1
  O  O74  1  0.81485787  0.23260705  0.50061785  1
  O  O75  1  0.81960722  0.73964306  0.99601493  1
  O  O76  1  0.84692205  0.23869609  0.00473486  1
  O  O77  1  0.85218554  0.73465423  0.49983628  1
  O  O78  1  0.91726676  0.50882830  0.71821634  1
  O  O79  1  0.91770682  0.95872479  0.71682168  1
  O  O80  1  0.91603559  0.01151455  0.21578452  1
  O  O81  1  0.91591020  0.46144388  0.21831199  1
  O  O82  1  0.98139955  0.23818105  0.99939463  1
  O  O83  1  0.98665270  0.73026569  0.50517392  1
