# generated using pymatgen
data_Li2VCrO4
_symmetry_space_group_name_H-M   'P 1'
_cell_length_a   5.96142792
_cell_length_b   5.92519276
_cell_length_c   5.96320800
_cell_angle_alpha   119.45260164
_cell_angle_beta   120.27098817
_cell_angle_gamma   60.57302371
_symmetry_Int_Tables_number   1
_chemical_formula_structural   Li2VCrO4
_chemical_formula_sum   'Li4 V2 Cr2 O8'
_cell_volume   149.87586607
_cell_formula_units_Z   2
loop_
 _symmetry_equiv_pos_site_id
 _symmetry_equiv_pos_as_xyz
  1  'x, y, z'
loop_
 _atom_site_type_symbol
 _atom_site_label
 _atom_site_symmetry_multiplicity
 _atom_site_fract_x
 _atom_site_fract_y
 _atom_site_fract_z
 _atom_site_occupancy
  Li  Li0  1  0.50003651  0.50000970  0.50003122  1
  Li  Li1  1  0.49999375  0.50000122  0.00000541  1
  Li  Li2  1  0.00003789  0.49997604  0.00000646  1
  Li  Li3  1  0.50001725  0.99995210  0.99998359  1
  V  V4  1  0.99996539  0.50010142  0.50005521  1
  V  V5  1  0.99996396  -0.00000622  0.50005482  1
  Cr  Cr6  1  0.50006851  0.99995949  0.50002885  1
  Cr  Cr7  1  -0.00009697  -0.00001267  -0.00016422  1
  O  O8  1  0.75350078  0.76275398  0.74629629  1
  O  O9  1  0.22690632  0.75662431  0.74805496  1
  O  O10  1  0.75198716  0.75647326  0.27310772  1
  O  O11  1  0.23870772  0.77463014  0.26107171  1
  O  O12  1  0.76131615  0.22533298  0.73893056  1
  O  O13  1  0.24798359  0.24354065  0.72687157  1
  O  O14  1  0.77305671  0.24338661  0.25192816  1
  O  O15  1  0.24653626  0.23729498  0.25374067  1
