# generated using pymatgen
data_SrLiLa3FeO8
_symmetry_space_group_name_H-M   'P 1'
_cell_length_a   7.01739571
_cell_length_b   5.37866816
_cell_length_c   12.96214853
_cell_angle_alpha   90.00000000
_cell_angle_beta   22.54754818
_cell_angle_gamma   90.00000000
_symmetry_Int_Tables_number   1
_chemical_formula_structural   SrLiLa3FeO8
_chemical_formula_sum   'Sr1 Li1 La3 Fe1 O8'
_cell_volume   187.60156497
_cell_formula_units_Z   1
loop_
 _symmetry_equiv_pos_site_id
 _symmetry_equiv_pos_as_xyz
  1  'x, y, z'
loop_
 _atom_site_type_symbol
 _atom_site_label
 _atom_site_symmetry_multiplicity
 _atom_site_fract_x
 _atom_site_fract_y
 _atom_site_fract_z
 _atom_site_occupancy
  Sr  Sr0  1  -0.00001429  0.50000000  0.14109571  1
  Li  Li1  1  0.99994217  0.00000000  0.00584589  1
  La  La2  1  0.00000286  0.00000000  0.35754364  1
  La  La3  1  0.00001115  0.00000000  0.63984752  1
  La  La4  1  0.99982185  0.50000000  0.86141992  1
  Fe  Fe5  1  0.00030801  0.50000000  0.49732370  1
  O  O6  1  0.99999400  0.00000000  0.18023494  1
  O  O7  1  0.00006620  0.50000000  0.33264500  1
  O  O8  1  0.99995895  0.00000000  0.81864374  1
  O  O9  1  0.99989649  0.50000000  0.67753375  1
  O  O10  1  0.48217577  0.74446821  0.25609148  1
  O  O11  1  0.48217577  0.25553179  0.25609148  1
  O  O12  1  0.51738853  0.25544620  0.73839662  1
  O  O13  1  0.51738853  0.74455380  0.73839662  1
