# generated using pymatgen
data_BaTi10O20
_symmetry_space_group_name_H-M   'P 1'
_cell_length_a   8.49310069
_cell_length_b   10.38261418
_cell_length_c   10.38388454
_cell_angle_alpha   88.35210361
_cell_angle_beta   112.07436417
_cell_angle_gamma   112.21903344
_symmetry_Int_Tables_number   1
_chemical_formula_structural   BaTi10O20
_chemical_formula_sum   'Ba2 Ti20 O40'
_cell_volume   778.64097932
_cell_formula_units_Z   2
loop_
 _symmetry_equiv_pos_site_id
 _symmetry_equiv_pos_as_xyz
  1  'x, y, z'
loop_
 _atom_site_type_symbol
 _atom_site_label
 _atom_site_symmetry_multiplicity
 _atom_site_fract_x
 _atom_site_fract_y
 _atom_site_fract_z
 _atom_site_occupancy
  Ba  Ba0  1  0.99890956  0.89707695  0.89738818  1
  Ba  Ba1  1  0.00109044  0.30292305  0.30261182  1
  Ti  Ti2  1  0.81415960  0.99754912  0.49123401  1
  Ti  Ti3  1  0.82273256  0.80853096  0.28502747  1
  Ti  Ti4  1  0.81046453  0.59829180  0.08754001  1
  Ti  Ti5  1  0.82151842  0.40862781  0.88641553  1
  Ti  Ti6  1  0.81982058  0.20589211  0.68525415  1
  Ti  Ti7  1  0.18017942  0.99410789  0.51474585  1
  Ti  Ti8  1  0.17848158  0.79137219  0.31358447  1
  Ti  Ti9  1  0.18953547  0.60170820  0.11245999  1
  Ti  Ti10  1  0.17726744  0.39146904  0.91497253  1
  Ti  Ti11  1  0.18584040  0.20245088  0.70876599  1
  Ti  Ti12  1  0.47236357  0.15129949  0.33219998  1
  Ti  Ti13  1  0.49528845  0.95710906  0.14191653  1
  Ti  Ti14  1  0.47791547  0.75447312  0.93348950  1
  Ti  Ti15  1  0.47815436  0.55392880  0.73275431  1
  Ti  Ti16  1  0.49578481  0.35532547  0.54006321  1
  Ti  Ti17  1  0.50421519  0.84467453  0.65993679  1
  Ti  Ti18  1  0.52184564  0.64607120  0.46724569  1
  Ti  Ti19  1  0.52208453  0.44552688  0.26651050  1
  Ti  Ti20  1  0.50471155  0.24289094  0.05808347  1
  Ti  Ti21  1  0.52763643  0.04870051  0.86780002  1
  O  O22  1  0.04773750  0.79663968  0.43183298  1
  O  O23  1  0.04655275  0.59016225  0.23445976  1
  O  O24  1  0.04795147  0.39506579  0.03915076  1
  O  O25  1  0.04749316  0.18978050  0.83367243  1
  O  O26  1  0.04585215  0.99285417  0.63747958  1
  O  O27  1  0.95414785  0.20714583  0.56252042  1
  O  O28  1  0.95250684  0.01021950  0.36632757  1
  O  O29  1  0.95204853  0.80493421  0.16084924  1
  O  O30  1  0.95344725  0.60983775  0.96554024  1
  O  O31  1  0.95226250  0.40336032  0.76816702  1
  O  O32  1  0.64518671  0.91572736  0.86886277  1
  O  O33  1  0.64262020  0.71785645  0.66943446  1
  O  O34  1  0.63937978  0.51467631  0.46767105  1
  O  O35  1  0.63984050  0.31441820  0.26671247  1
  O  O36  1  0.64751735  0.11943706  0.07395599  1
  O  O37  1  0.35248265  0.08056294  0.12604401  1
  O  O38  1  0.36015950  0.88558180  0.93328753  1
  O  O39  1  0.36062022  0.68532369  0.73232895  1
  O  O40  1  0.35737980  0.48214355  0.53056554  1
  O  O41  1  0.35481329  0.28427264  0.33113723  1
  O  O42  1  0.62489078  0.23706611  0.53302434  1
  O  O43  1  0.62502961  0.44137369  0.73712474  1
  O  O44  1  0.62688187  0.64093207  0.93423879  1
  O  O45  1  0.62574281  0.83913386  0.13374064  1
  O  O46  1  0.62980362  0.04434564  0.33720597  1
  O  O47  1  0.37019638  0.15565436  0.86279403  1
  O  O48  1  0.37425719  0.36086614  0.06625936  1
  O  O49  1  0.37311813  0.55906793  0.26576121  1
  O  O50  1  0.37497039  0.75862631  0.46287526  1
  O  O51  1  0.37510922  0.96293389  0.66697566  1
  O  O52  1  0.29159680  0.20236841  0.57052676  1
  O  O53  1  0.29606765  0.40273782  0.77912591  1
  O  O54  1  0.29567873  0.59862457  0.97491481  1
  O  O55  1  0.29250245  0.80442572  0.17367973  1
  O  O56  1  0.29625752  0.99884150  0.37786562  1
  O  O57  1  0.70374248  0.20115850  0.82213438  1
  O  O58  1  0.70749755  0.39557428  0.02632027  1
  O  O59  1  0.70432127  0.60137543  0.22508519  1
  O  O60  1  0.70393235  0.79726218  0.42087409  1
  O  O61  1  0.70840320  0.99763159  0.62947324  1
