# generated using pymatgen
data_Ba3LiTi5Nb3O21
_symmetry_space_group_name_H-M   'P 1'
_cell_length_a   9.20039548
_cell_length_b   9.24078301
_cell_length_c   11.74593326
_cell_angle_alpha   89.99999494
_cell_angle_beta   90.00020245
_cell_angle_gamma   119.85584023
_symmetry_Int_Tables_number   1
_chemical_formula_structural   Ba3LiTi5Nb3O21
_chemical_formula_sum   'Ba6 Li2 Ti10 Nb6 O42'
_cell_volume   866.08890565
_cell_formula_units_Z   2
loop_
 _symmetry_equiv_pos_site_id
 _symmetry_equiv_pos_as_xyz
  1  'x, y, z'
loop_
 _atom_site_type_symbol
 _atom_site_label
 _atom_site_symmetry_multiplicity
 _atom_site_fract_x
 _atom_site_fract_y
 _atom_site_fract_z
 _atom_site_occupancy
  Ba  Ba0  1  0.99676394  0.59188815  0.24987334  1
  Ba  Ba1  1  0.00324355  0.40812377  0.74987006  1
  Ba  Ba2  1  0.40486806  0.40812670  0.24987303  1
  Ba  Ba3  1  0.59512705  0.59188440  0.74987234  1
  Ba  Ba4  1  0.40280116  0.00000550  0.74877764  1
  Ba  Ba5  1  0.59719433  0.00000299  0.24877799  1
  Li  Li6  1  0.99477847  0.00000153  0.24594393  1
  Li  Li7  1  0.00522274  0.00000087  0.74594323  1
  Ti  Ti8  1  -0.00004943  0.74853578  0.91061012  1
  Ti  Ti9  1  0.99532765  0.74939302  0.59331997  1
  Ti  Ti10  1  0.00004854  0.25147235  0.41060695  1
  Ti  Ti11  1  0.00466500  0.25061371  0.09332044  1
  Ti  Ti12  1  0.24593933  0.25061313  0.59331970  1
  Ti  Ti13  1  0.25141629  0.25146660  0.91060978  1
  Ti  Ti14  1  0.24807390  -0.00000037  0.08445955  1
  Ti  Ti15  1  0.74858117  0.74854337  0.41061264  1
  Ti  Ti16  1  0.75405538  0.74939002  0.09332010  1
  Ti  Ti17  1  0.75192066  0.00000840  0.58445960  1
  Nb  Nb18  1  0.33059668  0.66410401  0.00276320  1
  Nb  Nb19  1  0.33350063  0.66410567  0.50276774  1
  Nb  Nb20  1  0.24591856  0.00000366  0.40925682  1
  Nb  Nb21  1  0.66649381  0.33589650  0.00276474  1
  Nb  Nb22  1  0.66940015  0.33590693  0.50276353  1
  Nb  Nb23  1  0.75408601  0.99999969  0.90925535  1
  O  O24  1  0.99863840  0.79654364  0.07318043  1
  O  O25  1  0.00114723  0.79632606  0.42636755  1
  O  O26  1  0.99853555  0.79612505  0.75063322  1
  O  O27  1  0.16645117  0.68579210  0.89905150  1
  O  O28  1  0.16704196  0.68823749  0.59864300  1
  O  O29  1  0.00146434  0.20387637  0.25063292  1
  O  O30  1  0.00136111  0.20345707  0.57317867  1
  O  O31  1  0.99885608  0.20368125  0.92636755  1
  O  O32  1  0.31295312  0.83344156  0.10025837  1
  O  O33  1  0.31630242  0.83136590  0.39616050  1
  O  O34  1  0.16852748  0.48205435  0.10410929  1
  O  O35  1  0.16852140  0.48036490  0.40025297  1
  O  O36  1  0.31184694  0.48036467  0.90025367  1
  O  O37  1  0.31353002  0.48205548  0.60410985  1
  O  O38  1  0.52048966  0.83344136  0.60026078  1
  O  O39  1  0.51506223  0.83136444  0.89616183  1
  O  O40  1  0.20209586  0.20345400  0.07318056  1
  O  O41  1  0.20482159  0.20367512  0.42636715  1
  O  O42  1  0.20241156  0.20387617  0.75063168  1
  O  O43  1  0.52119530  0.68823902  0.09864539  1
  O  O44  1  0.51934238  0.68579546  0.39905326  1
  O  O45  1  0.19997518  0.00000073  0.57746952  1
  O  O46  1  0.20362442  0.99999896  0.92574638  1
  O  O47  1  0.19678631  0.99999824  0.24789263  1
  O  O48  1  0.48065920  0.31420512  0.89905301  1
  O  O49  1  0.47880525  0.31176375  0.59864305  1
  O  O50  1  0.79758930  0.79612172  0.25063320  1
  O  O51  1  0.79791142  0.79654822  0.57318226  1
  O  O52  1  0.79517733  0.79632306  0.92636592  1
  O  O53  1  0.47951199  0.16655569  0.10025971  1
  O  O54  1  0.48494211  0.16863869  0.39616037  1
  O  O55  1  0.68815313  0.51963911  0.40025775  1
  O  O56  1  0.68647064  0.51794588  0.10410809  1
  O  O57  1  0.83147387  0.51794954  0.60411021  1
  O  O58  1  0.83148215  0.51963397  0.90025488  1
  O  O59  1  0.68705116  0.16656268  0.60025937  1
  O  O60  1  0.68369560  0.16863383  0.89616414  1
  O  O61  1  0.83354776  0.31420789  0.39905094  1
  O  O62  1  0.83295739  0.31176064  0.09864737  1
  O  O63  1  0.80321285  0.99999959  0.74788869  1
  O  O64  1  0.79637360  0.99999560  0.42574459  1
  O  O65  1  0.80002990  0.00000025  0.07746700  1
