# generated using pymatgen
data_MgTi11O20
_symmetry_space_group_name_H-M   'P 1'
_cell_length_a   10.59808512
_cell_length_b   7.56104740
_cell_length_c   10.04690817
_cell_angle_alpha   90.00000000
_cell_angle_beta   90.00000000
_cell_angle_gamma   109.73300893
_symmetry_Int_Tables_number   1
_chemical_formula_structural   MgTi11O20
_chemical_formula_sum   'Mg2 Ti22 O40'
_cell_volume   757.80744278
_cell_formula_units_Z   2
loop_
 _symmetry_equiv_pos_site_id
 _symmetry_equiv_pos_as_xyz
  1  'x, y, z'
loop_
 _atom_site_type_symbol
 _atom_site_label
 _atom_site_symmetry_multiplicity
 _atom_site_fract_x
 _atom_site_fract_y
 _atom_site_fract_z
 _atom_site_occupancy
  Mg  Mg0  1  0.14675538  0.90246523  0.75000000  1
  Mg  Mg1  1  0.60324462  0.59753477  0.25000000  1
  Ti  Ti2  1  0.10185645  0.93235319  0.05897692  1
  Ti  Ti3  1  0.10185645  0.93235319  0.44102308  1
  Ti  Ti4  1  0.10472131  0.59837656  0.25000000  1
  Ti  Ti5  1  0.14987899  0.56902417  0.93907384  1
  Ti  Ti6  1  0.14987899  0.56902417  0.56092616  1
  Ti  Ti7  1  0.35180852  0.43457430  0.43903322  1
  Ti  Ti8  1  0.60012101  0.93097583  0.43907384  1
  Ti  Ti9  1  0.35180852  0.43457430  0.06096678  1
  Ti  Ti10  1  0.60012101  0.93097583  0.06092616  1
  Ti  Ti11  1  0.64527869  0.90162344  0.75000000  1
  Ti  Ti12  1  0.39537387  0.40024206  0.75000000  1
  Ti  Ti13  1  0.35462613  0.09975794  0.25000000  1
  Ti  Ti14  1  0.64814355  0.56764681  0.94102308  1
  Ti  Ti15  1  0.39819148  0.06542570  0.93903322  1
  Ti  Ti16  1  0.64814355  0.56764681  0.55897692  1
  Ti  Ti17  1  0.39819148  0.06542570  0.56096678  1
  Ti  Ti18  1  0.84946174  0.43336654  0.06107118  1
  Ti  Ti19  1  0.84946174  0.43336654  0.43892882  1
  Ti  Ti20  1  0.89855238  0.40533414  0.75000000  1
  Ti  Ti21  1  0.85144762  0.09466586  0.25000000  1
  Ti  Ti22  1  0.90053826  0.06663346  0.93892882  1
  Ti  Ti23  1  0.90053826  0.06663346  0.56107118  1
  O  O24  1  0.03405228  0.97741038  0.61421808  1
  O  O25  1  0.03405228  0.97741038  0.88578192  1
  O  O26  1  0.01387226  0.65560432  0.06985658  1
  O  O27  1  0.01387226  0.65560432  0.43014342  1
  O  O28  1  0.17507221  0.88421643  0.25000000  1
  O  O29  1  0.07380808  0.60842692  0.75000000  1
  O  O30  1  0.23466905  0.84333118  0.93307699  1
  O  O31  1  0.23466905  0.84333118  0.56692301  1
  O  O32  1  0.21338665  0.52398022  0.37958634  1
  O  O33  1  0.21338665  0.52398022  0.12041366  1
  O  O34  1  0.53661335  0.97601978  0.62041366  1
  O  O35  1  0.53661335  0.97601978  0.87958634  1
  O  O36  1  0.28659917  0.47481195  0.87936343  1
  O  O37  1  0.28659917  0.47481195  0.62063657  1
  O  O38  1  0.26485222  0.15719652  0.43093730  1
  O  O39  1  0.26485222  0.15719652  0.06906270  1
  O  O40  1  0.51533095  0.65666882  0.06692301  1
  O  O41  1  0.51533095  0.65666882  0.43307699  1
  O  O42  1  0.67619192  0.89157308  0.25000000  1
  O  O43  1  0.41961093  0.37794930  0.25000000  1
  O  O44  1  0.57492779  0.61578357  0.75000000  1
  O  O45  1  0.33038907  0.12205070  0.75000000  1
  O  O46  1  0.73612774  0.84439568  0.93014342  1
  O  O47  1  0.73612774  0.84439568  0.56985658  1
  O  O48  1  0.48514778  0.34280348  0.93093730  1
  O  O49  1  0.48514778  0.34280348  0.56906270  1
  O  O50  1  0.71594772  0.52258962  0.38578192  1
  O  O51  1  0.46340083  0.02518805  0.37936343  1
  O  O52  1  0.46340083  0.02518805  0.12063657  1
  O  O53  1  0.71594772  0.52258962  0.11421808  1
  O  O54  1  0.78690136  0.47588330  0.61994611  1
  O  O55  1  0.78690136  0.47588330  0.88005389  1
  O  O56  1  0.76594452  0.15729406  0.43095569  1
  O  O57  1  0.76594452  0.15729406  0.06904431  1
  O  O58  1  0.92408233  0.38279960  0.25000000  1
  O  O59  1  0.82591767  0.11720040  0.75000000  1
  O  O60  1  0.98405548  0.34270594  0.93095569  1
  O  O61  1  0.98405548  0.34270594  0.56904431  1
  O  O62  1  0.96309864  0.02411670  0.38005389  1
  O  O63  1  0.96309864  0.02411670  0.11994611  1
