# generated using pymatgen
data_Ba(WO3)6
_symmetry_space_group_name_H-M   'P 1'
_cell_length_a   7.52182218
_cell_length_b   7.52182317
_cell_length_c   7.73528811
_cell_angle_alpha   90.00000000
_cell_angle_beta   90.00000000
_cell_angle_gamma   120.00000003
_symmetry_Int_Tables_number   1
_chemical_formula_structural   Ba(WO3)6
_chemical_formula_sum   'Ba1 W6 O18'
_cell_volume   379.01230295
_cell_formula_units_Z   1
loop_
 _symmetry_equiv_pos_site_id
 _symmetry_equiv_pos_as_xyz
  1  'x, y, z'
loop_
 _atom_site_type_symbol
 _atom_site_label
 _atom_site_symmetry_multiplicity
 _atom_site_fract_x
 _atom_site_fract_y
 _atom_site_fract_z
 _atom_site_occupancy
  Ba  Ba0  1  0.00000000  0.00000000  0.56760170  1
  W  W1  1  1.00000000  0.50246340  0.75110951  1
  W  W2  1  0.00000000  0.49460686  0.24999785  1
  W  W3  1  0.49753660  0.49753660  0.75110951  1
  W  W4  1  0.50539314  0.50539314  0.24999785  1
  W  W5  1  0.49460686  1.00000000  0.24999785  1
  W  W6  1  0.50246340  0.00000000  0.75110951  1
  O  O7  1  0.00000000  0.49875864  0.00003516  1
  O  O8  1  0.00000000  0.49874276  0.50045911  1
  O  O9  1  0.20905857  0.78673967  0.25331861  1
  O  O10  1  0.20916639  0.79255434  0.74578063  1
  O  O11  1  0.20744566  0.41661306  0.74578063  1
  O  O12  1  0.21326033  0.42231790  0.25331861  1
  O  O13  1  0.57768210  0.79094143  0.25331861  1
  O  O14  1  0.58338694  0.79083361  0.74578063  1
  O  O15  1  0.50124136  0.50124136  0.00003516  1
  O  O16  1  0.50125724  0.50125724  0.50045911  1
  O  O17  1  0.42231790  0.21326033  0.25331861  1
  O  O18  1  0.41661306  0.20744566  0.74578063  1
  O  O19  1  0.49874276  1.00000000  0.50045911  1
  O  O20  1  0.79083361  0.58338694  0.74578063  1
  O  O21  1  0.79094143  0.57768210  0.25331861  1
  O  O22  1  0.49875864  1.00000000  0.00003516  1
  O  O23  1  0.78673967  0.20905857  0.25331861  1
  O  O24  1  0.79255434  0.20916639  0.74578063  1
