# generated using pymatgen
data_LiVSiO4
_symmetry_space_group_name_H-M   'P 1'
_cell_length_a   4.96980170
_cell_length_b   4.96980170
_cell_length_c   6.26470126
_cell_angle_alpha   90.00000000
_cell_angle_beta   90.00000000
_cell_angle_gamma   67.10081150
_symmetry_Int_Tables_number   1
_chemical_formula_structural   LiVSiO4
_chemical_formula_sum   'Li2 V2 Si2 O8'
_cell_volume   142.53717035
_cell_formula_units_Z   2
loop_
 _symmetry_equiv_pos_site_id
 _symmetry_equiv_pos_as_xyz
  1  'x, y, z'
loop_
 _atom_site_type_symbol
 _atom_site_label
 _atom_site_symmetry_multiplicity
 _atom_site_fract_x
 _atom_site_fract_y
 _atom_site_fract_z
 _atom_site_occupancy
  Li  Li0  1  0.32842074  0.32842074  0.25000000  1
  Li  Li1  1  0.67157926  0.67157926  0.75000000  1
  V  V2  1  0.00000000  0.00000000  0.00000000  1
  V  V3  1  0.00000000  0.00000000  0.50000000  1
  Si  Si4  1  0.34822723  0.34822723  0.75000000  1
  Si  Si5  1  0.65177277  0.65177277  0.25000000  1
  O  O6  1  0.28645937  0.76789786  0.25000000  1
  O  O7  1  0.23210214  0.71354063  0.75000000  1
  O  O8  1  0.76310235  0.76310235  0.03586131  1
  O  O9  1  0.23689765  0.23689765  0.53586131  1
  O  O10  1  0.76310235  0.76310235  0.46413869  1
  O  O11  1  0.23689765  0.23689765  0.96413869  1
  O  O12  1  0.71354063  0.23210214  0.75000000  1
  O  O13  1  0.76789786  0.28645937  0.25000000  1
