# generated using pymatgen
data_LiFePO4
_symmetry_space_group_name_H-M   'P 1'
_cell_length_a   10.18542334
_cell_length_b   13.73501574
_cell_length_c   5.11029293
_cell_angle_alpha   90.00000000
_cell_angle_beta   90.00000000
_cell_angle_gamma   90.00000000
_symmetry_Int_Tables_number   1
_chemical_formula_structural   LiFePO4
_chemical_formula_sum   'Li8 Fe8 P8 O32'
_cell_volume   714.91439397
_cell_formula_units_Z   8
loop_
 _symmetry_equiv_pos_site_id
 _symmetry_equiv_pos_as_xyz
  1  'x, y, z'
loop_
 _atom_site_type_symbol
 _atom_site_label
 _atom_site_symmetry_multiplicity
 _atom_site_fract_x
 _atom_site_fract_y
 _atom_site_fract_z
 _atom_site_occupancy
  Li  Li0  1  0.03064661  0.50229619  0.92866221  1
  Li  Li1  1  0.22044685  0.75018380  0.54908796  1
  Li  Li2  1  0.27955315  0.25018380  0.54908796  1
  Li  Li3  1  0.46935339  0.00229619  0.92866221  1
  Li  Li4  1  0.53064661  0.50229619  0.07133779  1
  Li  Li5  1  0.72044685  0.75018380  0.45091204  1
  Li  Li6  1  0.77955315  0.25018380  0.45091204  1
  Li  Li7  1  0.96935339  0.00229619  0.07133779  1
  Fe  Fe8  1  0.03404837  0.75261462  0.05935279  1
  Fe  Fe9  1  0.21503099  0.00072474  0.55592008  1
  Fe  Fe10  1  0.28496901  0.50072474  0.55592008  1
  Fe  Fe11  1  0.46595163  0.25261462  0.05935279  1
  Fe  Fe12  1  0.53404837  0.75261462  0.94064721  1
  Fe  Fe13  1  0.71503099  0.00072474  0.44407992  1
  Fe  Fe14  1  0.78496901  0.50072474  0.44407992  1
  Fe  Fe15  1  0.96595163  0.25261462  0.94064721  1
  P  P16  1  0.03205516  0.37632218  0.43409248  1
  P  P17  1  0.21615046  0.12767440  0.04952447  1
  P  P18  1  0.28384954  0.62767440  0.04952447  1
  P  P19  1  0.46794484  0.87632218  0.43409248  1
  P  P20  1  0.53205516  0.37632218  0.56590752  1
  P  P21  1  0.71615046  0.12767440  0.95047553  1
  P  P22  1  0.78384954  0.62767440  0.95047553  1
  P  P23  1  0.96794484  0.87632218  0.56590752  1
  O  O24  1  0.00040885  0.87957559  0.86468577  1
  O  O25  1  0.97238185  0.46900907  0.56337426  1
  O  O26  1  0.03266489  0.78297603  0.45087502  1
  O  O27  1  0.06641926  0.12639552  0.98914668  1
  O  O28  1  0.18203436  0.37503778  0.48737028  1
  O  O29  1  0.22180466  0.53488519  0.92468092  1
  O  O30  1  0.27837344  0.22093297  0.93142239  1
  O  O31  1  0.24196853  0.12697292  0.35021109  1
  O  O32  1  0.25803147  0.62697292  0.35021109  1
  O  O33  1  0.22162656  0.72093297  0.93142239  1
  O  O34  1  0.27819534  0.03488519  0.92468092  1
  O  O35  1  0.31796564  0.87503778  0.48737028  1
  O  O36  1  0.43358074  0.62639552  0.98914668  1
  O  O37  1  0.46733511  0.28297603  0.45087502  1
  O  O38  1  0.52761815  0.96900907  0.56337426  1
  O  O39  1  0.49959115  0.37957559  0.86468577  1
  O  O40  1  0.50040885  0.87957559  0.13531423  1
  O  O41  1  0.47238185  0.46900907  0.43662574  1
  O  O42  1  0.53266489  0.78297603  0.54912498  1
  O  O43  1  0.56641926  0.12639552  0.01085332  1
  O  O44  1  0.68203436  0.37503778  0.51262972  1
  O  O45  1  0.72180466  0.53488519  0.07531908  1
  O  O46  1  0.77837344  0.22093297  0.06857761  1
  O  O47  1  0.74196853  0.12697292  0.64978891  1
  O  O48  1  0.75803147  0.62697292  0.64978891  1
  O  O49  1  0.72162656  0.72093297  0.06857761  1
  O  O50  1  0.77819534  0.03488519  0.07531908  1
  O  O51  1  0.81796564  0.87503778  0.51262972  1
  O  O52  1  0.93358074  0.62639552  0.01085332  1
  O  O53  1  0.96733511  0.28297603  0.54912498  1
  O  O54  1  0.02761815  0.96900907  0.43662574  1
  O  O55  1  0.99959115  0.37957559  0.13531423  1
