# generated using pymatgen
data_SmH9C5(NO4)2
_symmetry_space_group_name_H-M   'P 1'
_cell_length_a   6.86700310
_cell_length_b   8.75846513
_cell_length_c   9.96672287
_cell_angle_alpha   90.00000000
_cell_angle_beta   110.15106578
_cell_angle_gamma   90.00000000
_symmetry_Int_Tables_number   1
_chemical_formula_structural   SmH9C5(NO4)2
_chemical_formula_sum   'Sm2 H18 C10 N4 O16'
_cell_volume   562.74930815
_cell_formula_units_Z   2
loop_
 _symmetry_equiv_pos_site_id
 _symmetry_equiv_pos_as_xyz
  1  'x, y, z'
loop_
 _atom_site_type_symbol
 _atom_site_label
 _atom_site_symmetry_multiplicity
 _atom_site_fract_x
 _atom_site_fract_y
 _atom_site_fract_z
 _atom_site_occupancy
  Sm  Sm0  1  0.35767419  0.25000000  0.71534837  1
  Sm  Sm1  1  0.64232581  0.75000000  0.28465163  1
  H  H2  1  0.15823747  0.32895210  0.01619651  1
  H  H3  1  0.14204097  0.67104790  0.98380349  1
  H  H4  1  0.84176253  0.82895210  0.98380349  1
  H  H5  1  0.85795903  0.17104790  0.01619651  1
  H  H6  1  0.32297465  0.39536793  0.18572707  1
  H  H7  1  0.13724759  0.60463207  0.81427293  1
  H  H8  1  0.67702535  0.89536793  0.81427293  1
  H  H9  1  0.86275241  0.10463207  0.18572707  1
  H  H10  1  0.81694955  0.25000000  0.63389911  1
  H  H11  1  0.18305045  0.75000000  0.36610089  1
  H  H12  1  0.15399738  0.25000000  0.30799477  1
  H  H13  1  0.84600262  0.75000000  0.69200523  1
  H  H14  1  0.72793681  0.50000000  0.00000000  1
  H  H15  1  0.27206319  0.00000000  0.00000000  1
  H  H16  1  0.00698081  0.44785925  0.42509181  1
  H  H17  1  0.58188900  0.55214075  0.57490819  1
  H  H18  1  0.99301919  0.94785925  0.57490819  1
  H  H19  1  0.41811100  0.05214075  0.42509181  1
  C  C20  1  0.87632160  0.25000000  0.75264320  1
  C  C21  1  0.12367840  0.75000000  0.24735680  1
  C  C22  1  0.09525701  0.25000000  0.19051403  1
  C  C23  1  0.90474299  0.75000000  0.80948597  1
  C  C24  1  0.56664725  0.50000000  0.00000000  1
  C  C25  1  0.43335275  -0.00000000  0.00000000  1
  C  C26  1  0.02206466  0.52754384  0.51497915  1
  C  C27  1  0.50708551  0.47245616  0.48502085  1
  C  C28  1  0.97793534  0.02754384  0.48502085  1
  C  C29  1  0.49291449  0.97245616  0.51497915  1
  N  N30  1  0.19693776  0.33211316  0.12563741  1
  N  N31  1  0.07130035  0.66788684  0.87436259  1
  N  N32  1  0.80306224  0.83211316  0.87436259  1
  N  N33  1  0.92869965  0.16788684  0.12563741  1
  O  O34  1  0.42999839  0.42797726  0.90225792  1
  O  O35  1  0.52774047  0.57202274  0.09774208  1
  O  O36  1  0.57000161  0.92797726  0.09774208  1
  O  O37  1  0.47225953  0.07202274  0.90225792  1
  O  O38  1  0.74551084  0.26445146  0.81602224  1
  O  O39  1  0.92948860  0.73554854  0.18397776  1
  O  O40  1  0.25448916  0.76445146  0.18397776  1
  O  O41  1  0.07051140  0.23554854  0.81602224  1
  O  O42  1  0.13977112  0.48771601  0.63831979  1
  O  O43  1  0.50145133  0.51228399  0.36168021  1
  O  O44  1  0.86022888  0.98771601  0.36168021  1
  O  O45  1  0.49854867  0.01228399  0.63831979  1
  O  O46  1  0.43267487  0.34871066  0.51327617  1
  O  O47  1  0.91939870  0.65128934  0.48672383  1
  O  O48  1  0.56732513  0.84871066  0.48672383  1
  O  O49  1  0.08060130  0.15128934  0.51327617  1
