# generated using pymatgen
data_K3Li2Nb5O15
_symmetry_space_group_name_H-M   'P 1'
_cell_length_a   12.74361911
_cell_length_b   12.74361911
_cell_length_c   4.17170591
_cell_angle_alpha   90.00000000
_cell_angle_beta   90.00000000
_cell_angle_gamma   90.00000000
_symmetry_Int_Tables_number   1
_chemical_formula_structural   K3Li2Nb5O15
_chemical_formula_sum   'K6 Li4 Nb10 O30'
_cell_volume   677.48432234
_cell_formula_units_Z   2
loop_
 _symmetry_equiv_pos_site_id
 _symmetry_equiv_pos_as_xyz
  1  'x, y, z'
loop_
 _atom_site_type_symbol
 _atom_site_label
 _atom_site_symmetry_multiplicity
 _atom_site_fract_x
 _atom_site_fract_y
 _atom_site_fract_z
 _atom_site_occupancy
  K  K0  1  0.00000000  0.00000000  0.49298248  1
  K  K1  1  0.17191922  0.67191922  0.49719534  1
  K  K2  1  0.32808078  0.17191922  0.49719534  1
  K  K3  1  0.50000000  0.50000000  0.49298248  1
  K  K4  1  0.67191922  0.82808078  0.49719534  1
  K  K5  1  0.82808078  0.32808078  0.49719534  1
  Li  Li6  1  0.12416608  0.37583392  0.54702910  1
  Li  Li7  1  0.37583392  0.87583392  0.54702910  1
  Li  Li8  1  0.62416608  0.12416608  0.54702910  1
  Li  Li9  1  0.87583392  0.62416608  0.54702910  1
  Nb  Nb10  1  0.00000000  0.50000000  0.00809561  1
  Nb  Nb11  1  0.07633876  0.20766528  0.01272649  1
  Nb  Nb12  1  0.20766528  0.92366124  0.01272649  1
  Nb  Nb13  1  0.29233472  0.42366124  0.01272649  1
  Nb  Nb14  1  0.42366124  0.70766528  0.01272649  1
  Nb  Nb15  1  0.50000000  0.00000000  0.00809561  1
  Nb  Nb16  1  0.57633876  0.29233472  0.01272649  1
  Nb  Nb17  1  0.70766528  0.57633876  0.01272649  1
  Nb  Nb18  1  0.79233472  0.07633876  0.01272649  1
  Nb  Nb19  1  0.92366124  0.79233472  0.01272649  1
  O  O20  1  0.00000000  0.50000000  0.45690398  1
  O  O21  1  0.00308328  0.34574965  0.94052936  1
  O  O22  1  0.06826699  0.85866418  0.96576922  1
  O  O23  1  0.08026391  0.21633190  0.45773781  1
  O  O24  1  0.14133582  0.06826699  0.96576922  1
  O  O25  1  0.15425035  0.49691672  0.94052936  1
  O  O26  1  0.21098644  0.28901356  0.95069425  1
  O  O27  1  0.21633190  0.91973609  0.45773781  1
  O  O28  1  0.28366810  0.41973609  0.45773781  1
  O  O29  1  0.28901356  0.78901356  0.95069425  1
  O  O30  1  0.34574965  0.99691672  0.94052936  1
  O  O31  1  0.35866418  0.56826699  0.96576922  1
  O  O32  1  0.41973609  0.71633190  0.45773781  1
  O  O33  1  0.43173301  0.35866418  0.96576922  1
  O  O34  1  0.49691672  0.84574965  0.94052936  1
  O  O35  1  0.50000000  0.00000000  0.45690398  1
  O  O36  1  0.50308328  0.15425035  0.94052936  1
  O  O37  1  0.56826699  0.64133582  0.96576922  1
  O  O38  1  0.58026391  0.28366810  0.45773781  1
  O  O39  1  0.64133582  0.43173301  0.96576922  1
  O  O40  1  0.65425035  0.00308328  0.94052936  1
  O  O41  1  0.71098644  0.21098644  0.95069425  1
  O  O42  1  0.71633190  0.58026391  0.45773781  1
  O  O43  1  0.78366810  0.08026391  0.45773781  1
  O  O44  1  0.78901356  0.71098644  0.95069425  1
  O  O45  1  0.84574965  0.50308328  0.94052936  1
  O  O46  1  0.85866418  0.93173301  0.96576922  1
  O  O47  1  0.91973609  0.78366810  0.45773781  1
  O  O48  1  0.93173301  0.14133582  0.96576922  1
  O  O49  1  0.99691672  0.65425035  0.94052936  1
