# generated using pymatgen
data_P3W2O13
_symmetry_space_group_name_H-M   'P 1'
_cell_length_a   6.47593721
_cell_length_b   22.74262593
_cell_length_c   7.10256111
_cell_angle_alpha   90.00000000
_cell_angle_beta   80.30586826
_cell_angle_gamma   90.00000000
_symmetry_Int_Tables_number   1
_chemical_formula_structural   P3W2O13
_chemical_formula_sum   'P12 W8 O52'
_cell_volume   1031.12686524
_cell_formula_units_Z   4
loop_
 _symmetry_equiv_pos_site_id
 _symmetry_equiv_pos_as_xyz
  1  'x, y, z'
loop_
 _atom_site_type_symbol
 _atom_site_label
 _atom_site_symmetry_multiplicity
 _atom_site_fract_x
 _atom_site_fract_y
 _atom_site_fract_z
 _atom_site_occupancy
  P  P0  1  0.11643926  0.08368531  0.35247483  1
  P  P1  1  0.27439962  0.79682573  0.08598054  1
  P  P2  1  0.22560038  0.29682573  0.41401946  1
  P  P3  1  0.22185788  0.59878951  0.79759779  1
  P  P4  1  0.27814212  0.09878951  0.70240221  1
  P  P5  1  0.38356074  0.58368531  0.14752517  1
  P  P6  1  0.61643926  0.41631469  0.85247483  1
  P  P7  1  0.72185788  0.90121049  0.29759779  1
  P  P8  1  0.77814212  0.40121049  0.20240221  1
  P  P9  1  0.77439962  0.70317427  0.58598054  1
  P  P10  1  0.72560038  0.20317427  0.91401946  1
  P  P11  1  0.88356074  0.91631469  0.64752517  1
  W  W12  1  0.21069173  0.20604231  0.04481645  1
  W  W13  1  0.22391922  0.93754657  0.22558834  1
  W  W14  1  0.27608078  0.43754657  0.27441166  1
  W  W15  1  0.28930827  0.70604231  0.45518355  1
  W  W16  1  0.71069173  0.29395769  0.54481645  1
  W  W17  1  0.72391922  0.56245343  0.72558834  1
  W  W18  1  0.77608078  0.06245343  0.77441166  1
  W  W19  1  0.78930827  0.79395769  0.95518355  1
  O  O20  1  0.01587121  0.30688996  0.55241802  1
  O  O21  1  0.01729978  0.56797936  0.79270863  1
  O  O22  1  0.13588645  0.12652845  0.18368525  1
  O  O23  1  0.09974237  0.92126895  0.52827798  1
  O  O24  1  0.22970516  0.61424584  0.01492497  1
  O  O25  1  0.09411442  0.05989538  0.78227086  1
  O  O26  1  0.19721830  0.23799066  0.30606417  1
  O  O27  1  0.21823554  0.02492862  0.29058096  1
  O  O28  1  0.22215810  0.84571732  0.23103346  1
  O  O29  1  0.09815962  0.79027445  0.96490381  1
  O  O30  1  0.20818856  0.44212487  0.52075581  1
  O  O31  1  0.27784190  0.34571732  0.26896654  1
  O  O32  1  0.28176446  0.52492862  0.20941904  1
  O  O33  1  0.30278170  0.73799066  0.19393583  1
  O  O34  1  0.23751320  0.66055047  0.69823053  1
  O  O35  1  0.27029484  0.11424584  0.48507503  1
  O  O36  1  0.25386807  0.77429217  0.56226925  1
  O  O37  1  0.24613193  0.27429217  0.93773075  1
  O  O38  1  0.26248680  0.16055047  0.80176947  1
  O  O39  1  0.36411355  0.62652845  0.31631475  1
  O  O40  1  0.29181144  0.94212487  0.97924419  1
  O  O41  1  0.40184038  0.29027445  0.53509619  1
  O  O42  1  0.51587121  0.19311004  0.05241802  1
  O  O43  1  0.40588558  0.55989538  0.71772914  1
  O  O44  1  0.40025763  0.42126895  0.97172202  1
  O  O45  1  0.51729978  0.93202064  0.29270863  1
  O  O46  1  0.48270022  0.06797936  0.70729137  1
  O  O47  1  0.59974237  0.57873105  0.02827798  1
  O  O48  1  0.59411442  0.44010462  0.28227086  1
  O  O49  1  0.48412879  0.80688996  0.94758198  1
  O  O50  1  0.59815962  0.70972555  0.46490381  1
  O  O51  1  0.70818856  0.05787513  0.02075581  1
  O  O52  1  0.63588645  0.37347155  0.68368525  1
  O  O53  1  0.73751320  0.83944953  0.19823053  1
  O  O54  1  0.75386807  0.72570783  0.06226925  1
  O  O55  1  0.74613193  0.22570783  0.43773075  1
  O  O56  1  0.72970516  0.88575416  0.51492497  1
  O  O57  1  0.76248680  0.33944953  0.30176947  1
  O  O58  1  0.69721830  0.26200934  0.80606417  1
  O  O59  1  0.71823554  0.47507138  0.79058096  1
  O  O60  1  0.72215810  0.65428268  0.73103346  1
  O  O61  1  0.79181144  0.55787513  0.47924419  1
  O  O62  1  0.90184038  0.20972555  0.03509619  1
  O  O63  1  0.77784190  0.15428268  0.76896654  1
  O  O64  1  0.78176446  0.97507138  0.70941904  1
  O  O65  1  0.80278170  0.76200934  0.69393583  1
  O  O66  1  0.90588558  0.94010462  0.21772914  1
  O  O67  1  0.77029484  0.38575416  0.98507503  1
  O  O68  1  0.90025763  0.07873105  0.47172202  1
  O  O69  1  0.86411355  0.87347155  0.81631475  1
  O  O70  1  0.98270022  0.43202064  0.20729137  1
  O  O71  1  0.98412879  0.69311004  0.44758198  1
