# generated using pymatgen
data_Li6Bi2O7
_symmetry_space_group_name_H-M   'P 1'
_cell_length_a   10.46406181
_cell_length_b   6.30793280
_cell_length_c   5.59324790
_cell_angle_alpha   90.00000000
_cell_angle_beta   79.08230697
_cell_angle_gamma   90.00000000
_symmetry_Int_Tables_number   1
_chemical_formula_structural   Li6Bi2O7
_chemical_formula_sum   'Li12 Bi4 O14'
_cell_volume   362.50900868
_cell_formula_units_Z   2
loop_
 _symmetry_equiv_pos_site_id
 _symmetry_equiv_pos_as_xyz
  1  'x, y, z'
loop_
 _atom_site_type_symbol
 _atom_site_label
 _atom_site_symmetry_multiplicity
 _atom_site_fract_x
 _atom_site_fract_y
 _atom_site_fract_z
 _atom_site_occupancy
  Li  Li0  1  0.14930069  0.78523402  0.64862981  1
  Li  Li1  1  0.14009818  0.24011978  0.64575069  1
  Li  Li2  1  0.12098257  0.49146689  0.03425474  1
  Li  Li3  1  0.35990182  0.74011978  0.85424931  1
  Li  Li4  1  0.35069931  0.28523402  0.85137019  1
  Li  Li5  1  0.37901743  0.99146689  0.46574526  1
  Li  Li6  1  0.62098257  0.00853311  0.53425474  1
  Li  Li7  1  0.64930069  0.71476598  0.14862981  1
  Li  Li8  1  0.64009818  0.25988022  0.14575069  1
  Li  Li9  1  0.87901743  0.50853311  0.96574526  1
  Li  Li10  1  0.85990182  0.75988022  0.35424931  1
  Li  Li11  1  0.85069931  0.21476598  0.35137019  1
  Bi  Bi12  1  0.13245694  0.00981109  0.13779853  1
  Bi  Bi13  1  0.36754306  0.50981109  0.36220147  1
  Bi  Bi14  1  0.63245694  0.49018891  0.63779853  1
  Bi  Bi15  1  0.86754306  0.99018891  0.86220147  1
  O  O16  1  0.00000000  0.00000000  0.50000000  1
  O  O17  1  0.00586928  0.75172381  0.01388585  1
  O  O18  1  0.25369597  0.01381879  0.77657715  1
  O  O19  1  0.24630403  0.51381879  0.72342285  1
  O  O20  1  0.22540714  0.30231369  0.23858504  1
  O  O21  1  0.27459286  0.80231369  0.26141496  1
  O  O22  1  0.49413072  0.25172381  0.48611415  1
  O  O23  1  0.50586928  0.74827619  0.51388585  1
  O  O24  1  0.50000000  0.50000000  0.00000000  1
  O  O25  1  0.72540714  0.19768631  0.73858404  1
  O  O26  1  0.77459286  0.69768631  0.76141596  1
  O  O27  1  0.75369597  0.48618121  0.27657715  1
  O  O28  1  0.74630403  0.98618121  0.22342285  1
  O  O29  1  0.99413072  0.24827619  0.98611415  1
