# generated using pymatgen
data_Dy2SO2
_symmetry_space_group_name_H-M   'P 1'
_cell_length_a   3.79924588
_cell_length_b   3.79921057
_cell_length_c   13.37774565
_cell_angle_alpha   89.99988705
_cell_angle_beta   90.00002629
_cell_angle_gamma   120.00017760
_symmetry_Int_Tables_number   1
_chemical_formula_structural   Dy2SO2
_chemical_formula_sum   'Dy4 S2 O4'
_cell_volume   167.22590503
_cell_formula_units_Z   2
loop_
 _symmetry_equiv_pos_site_id
 _symmetry_equiv_pos_as_xyz
  1  'x, y, z'
loop_
 _atom_site_type_symbol
 _atom_site_label
 _atom_site_symmetry_multiplicity
 _atom_site_fract_x
 _atom_site_fract_y
 _atom_site_fract_z
 _atom_site_occupancy
  Dy  Dy0  1  0.33333406  0.66671286  0.89204116  1
  Dy  Dy1  1  0.33333444  0.66666684  0.60795851  1
  Dy  Dy2  1  0.66666545  0.33333117  0.39204066  1
  Dy  Dy3  1  0.66666618  0.33337749  0.10795967  1
  S  S4  1  0.99999804  0.00000895  0.25000033  1
  S  S5  1  0.00000070  0.00001064  0.75000012  1
  O  O6  1  0.33333050  0.66671006  0.06488296  1
  O  O7  1  0.33332819  0.66666010  0.43511716  1
  O  O8  1  0.66667041  0.33338380  0.93511654  1
  O  O9  1  0.66667104  0.33333809  0.56488289  1
