# generated using pymatgen
data_P3W2O13
_symmetry_space_group_name_H-M   'P 1'
_cell_length_a   6.45195961
_cell_length_b   7.54633042
_cell_length_c   11.31834763
_cell_angle_alpha   76.40624468
_cell_angle_beta   86.24410067
_cell_angle_gamma   79.75387159
_symmetry_Int_Tables_number   1
_chemical_formula_structural   P3W2O13
_chemical_formula_sum   'P6 W4 O26'
_cell_volume   526.93348533
_cell_formula_units_Z   2
loop_
 _symmetry_equiv_pos_site_id
 _symmetry_equiv_pos_as_xyz
  1  'x, y, z'
loop_
 _atom_site_type_symbol
 _atom_site_label
 _atom_site_symmetry_multiplicity
 _atom_site_fract_x
 _atom_site_fract_y
 _atom_site_fract_z
 _atom_site_occupancy
  P  P0  1  0.11858902  0.47517371  0.31114884  1
  P  P1  1  0.26142803  0.79832332  0.33473001  1
  P  P2  1  0.26425236  0.93490945  0.89031662  1
  P  P3  1  0.73574764  0.06509055  0.10968338  1
  P  P4  1  0.73857197  0.20167668  0.66526999  1
  P  P5  1  0.88141098  0.52482629  0.68885116  1
  W  W6  1  0.21085912  0.20982421  0.09351126  1
  W  W7  1  0.23813347  0.20047906  0.59354621  1
  W  W8  1  0.76186653  0.79952094  0.40645379  1
  W  W9  1  0.78914088  0.79017579  0.90648874  1
  O  O10  1  0.14183825  0.37738379  0.20299675  1
  O  O11  1  0.08063714  0.78716266  0.42881832  1
  O  O12  1  0.10768497  0.45354134  0.65886747  1
  O  O13  1  0.22253073  0.09923107  0.78414000  1
  O  O14  1  0.09337233  0.80903840  0.90592483  1
  O  O15  1  0.24559852  0.34996165  0.41698582  1
  O  O16  1  0.24039708  0.64744116  0.25565118  1
  O  O17  1  0.21288537  0.37521058  0.95893881  1
  O  O18  1  0.26476671  0.00168265  0.01052084  1
  O  O19  1  0.24221105  0.98665180  0.24678664  1
  O  O20  1  0.30935200  0.97746025  0.57246459  1
  O  O21  1  0.51948052  0.19104299  0.11672690  1
  O  O22  1  0.47344546  0.73184369  0.39423354  1
  O  O23  1  0.52655454  0.26815631  0.60576646  1
  O  O24  1  0.48051948  0.80895701  0.88327310  1
  O  O25  1  0.69064800  0.02253975  0.42753541  1
  O  O26  1  0.75778895  0.01334820  0.75321336  1
  O  O27  1  0.73523329  0.99831735  0.98947916  1
  O  O28  1  0.78711463  0.62478942  0.04106119  1
  O  O29  1  0.75960292  0.35255884  0.74434882  1
  O  O30  1  0.75440148  0.65003835  0.58301418  1
  O  O31  1  0.90662767  0.19096160  0.09407517  1
  O  O32  1  0.77746927  0.90076893  0.21586000  1
  O  O33  1  0.89231503  0.54645866  0.34113253  1
  O  O34  1  0.91936286  0.21283734  0.57118168  1
  O  O35  1  0.85816175  0.62261621  0.79700325  1
