# generated using pymatgen
data_Sm2B4O9
_symmetry_space_group_name_H-M   'P 1'
_cell_length_a   6.27534080
_cell_length_b   6.56854340
_cell_length_c   7.61295240
_cell_angle_alpha   102.10195443
_cell_angle_beta   96.90533983
_cell_angle_gamma   102.46076336
_symmetry_Int_Tables_number   1
_chemical_formula_structural   Sm2B4O9
_chemical_formula_sum   'Sm4 B8 O18'
_cell_volume   295.06929589
_cell_formula_units_Z   2
loop_
 _symmetry_equiv_pos_site_id
 _symmetry_equiv_pos_as_xyz
  1  'x, y, z'
loop_
 _atom_site_type_symbol
 _atom_site_label
 _atom_site_symmetry_multiplicity
 _atom_site_fract_x
 _atom_site_fract_y
 _atom_site_fract_z
 _atom_site_occupancy
  Sm  Sm0  1  0.11310831  0.32327136  0.64240463  1
  Sm  Sm1  1  0.45291475  0.90769795  0.71583648  1
  Sm  Sm2  1  0.54708525  0.09230205  0.28416352  1
  Sm  Sm3  1  0.88689169  0.67672864  0.35759537  1
  B  B4  1  0.00501405  0.85013860  0.81351086  1
  B  B5  1  0.27129179  0.66494378  0.01911367  1
  B  B6  1  0.37381070  0.64239555  0.34650988  1
  B  B7  1  0.33841601  0.32250914  0.07448583  1
  B  B8  1  0.66158399  0.67749086  0.92551417  1
  B  B9  1  0.62618930  0.35760445  0.65349012  1
  B  B10  1  0.72870821  0.33505622  0.98088633  1
  B  B11  1  0.99498595  0.14986140  0.18648914  1
  O  O12  1  0.06517454  0.95006530  0.67871118  1
  O  O13  1  0.14049807  0.71883528  0.86140950  1
  O  O14  1  0.22832453  0.43211229  0.96182328  1
  O  O15  1  0.22242840  0.59408976  0.47415181  1
  O  O16  1  0.23957040  0.73464150  0.20852323  1
  O  O17  1  0.18597808  0.13774081  0.11842310  1
  O  O18  1  0.42454882  0.18636239  0.55975020  1
  O  O19  1  0.49537123  0.21613536  0.98378588  1
  O  O20  1  0.54294967  0.53693972  0.74887095  1
  O  O21  1  0.45705033  0.46306028  0.25112905  1
  O  O22  1  0.50462877  0.78386464  0.01621412  1
  O  O23  1  0.57545118  0.81363761  0.44024980  1
  O  O24  1  0.81402192  0.86225919  0.88157690  1
  O  O25  1  0.76042960  0.26535850  0.79147677  1
  O  O26  1  0.77757160  0.40591024  0.52584819  1
  O  O27  1  0.77167547  0.56788771  0.03817672  1
  O  O28  1  0.85950193  0.28116472  0.13859050  1
  O  O29  1  0.93482546  0.04993470  0.32128882  1
