# generated using pymatgen
data_LiVCrP2(O4F)2
_symmetry_space_group_name_H-M   'P 1'
_cell_length_a   5.16698432
_cell_length_b   10.69622311
_cell_length_c   7.35418614
_cell_angle_alpha   72.91271674
_cell_angle_beta   71.11128648
_cell_angle_gamma   98.06858934
_symmetry_Int_Tables_number   1
_chemical_formula_structural   LiVCrP2(O4F)2
_chemical_formula_sum   'Li2 V2 Cr2 P4 O16 F4'
_cell_volume   354.90400872
_cell_formula_units_Z   2
loop_
 _symmetry_equiv_pos_site_id
 _symmetry_equiv_pos_as_xyz
  1  'x, y, z'
loop_
 _atom_site_type_symbol
 _atom_site_label
 _atom_site_symmetry_multiplicity
 _atom_site_fract_x
 _atom_site_fract_y
 _atom_site_fract_z
 _atom_site_occupancy
  Li  Li0  1  0.25633999  0.30518291  0.82319524  1
  Li  Li1  1  0.74366001  0.69481709  0.17680476  1
  V  V2  1  0.00000000  0.50000000  0.00000000  1
  V  V3  1  0.00000000  0.00000000  0.00000000  1
  Cr  Cr4  1  0.00000000  0.50000000  0.50000000  1
  Cr  Cr5  1  0.00000000  0.00000000  0.50000000  1
  P  P6  1  0.31660372  0.82270035  0.24443502  1
  P  P7  1  0.32333122  0.31905809  0.24123908  1
  P  P8  1  0.67666878  0.68094191  0.75876092  1
  P  P9  1  0.68339628  0.17729965  0.75556498  1
  O  O10  1  0.11763540  0.83580141  0.12202083  1
  O  O11  1  0.15162046  0.34217745  0.09916876  1
  O  O12  1  0.25646080  0.89249844  0.39885881  1
  O  O13  1  0.31464244  0.67145971  0.33496516  1
  O  O14  1  0.25129381  0.39235545  0.39517718  1
  O  O15  1  0.30428655  0.17058414  0.33959741  1
  O  O16  1  0.63491027  0.88551098  0.08609619  1
  O  O17  1  0.64579678  0.38677758  0.09154570  1
  O  O18  1  0.35420422  0.61322242  0.90845430  1
  O  O19  1  0.36508973  0.11448902  0.91390381  1
  O  O20  1  0.69571345  0.82941586  0.66040259  1
  O  O21  1  0.74870619  0.60764455  0.60482282  1
  O  O22  1  0.68535756  0.32854029  0.66503484  1
  O  O23  1  0.74353920  0.10750156  0.60114119  1
  O  O24  1  0.84837954  0.65782255  0.90083124  1
  O  O25  1  0.88236460  0.16419859  0.87797917  1
  F  F26  1  0.11356723  0.97295013  0.74074476  1
  F  F27  1  0.12243543  0.46676789  0.73585852  1
  F  F28  1  0.87756457  0.53323211  0.26414148  1
  F  F29  1  0.88643277  0.02704987  0.25925524  1
