# generated using pymatgen
data_Bi2(SO4)3
_symmetry_space_group_name_H-M   'P 1'
_cell_length_a   9.43295216
_cell_length_b   9.43295216
_cell_length_c   9.43295205
_cell_angle_alpha   60.26616951
_cell_angle_beta   60.26616951
_cell_angle_gamma   60.26616539
_symmetry_Int_Tables_number   1
_chemical_formula_structural   Bi2(SO4)3
_chemical_formula_sum   'Bi4 S6 O24'
_cell_volume   597.08539041
_cell_formula_units_Z   2
loop_
 _symmetry_equiv_pos_site_id
 _symmetry_equiv_pos_as_xyz
  1  'x, y, z'
loop_
 _atom_site_type_symbol
 _atom_site_label
 _atom_site_symmetry_multiplicity
 _atom_site_fract_x
 _atom_site_fract_y
 _atom_site_fract_z
 _atom_site_occupancy
  Bi  Bi0  1  0.36068431  0.36068431  0.36068431  1
  Bi  Bi1  1  0.13931569  0.13931569  0.13931569  1
  Bi  Bi2  1  0.63931569  0.63931569  0.63931569  1
  Bi  Bi3  1  0.86068431  0.86068431  0.86068431  1
  S  S4  1  0.04547309  0.75000000  0.45452691  1
  S  S5  1  0.54547309  0.95452691  0.25000000  1
  S  S6  1  0.25000000  0.54547309  0.95452691  1
  S  S7  1  0.75000000  0.45452691  0.04547309  1
  S  S8  1  0.45452691  0.04547309  0.75000000  1
  S  S9  1  0.95452691  0.25000000  0.54547309  1
  O  O10  1  0.05783306  0.89332008  0.28470437  1
  O  O11  1  0.10667992  0.71529563  0.94216694  1
  O  O12  1  0.49315932  0.90811113  0.68931754  1
  O  O13  1  0.59188887  0.00684068  0.81068246  1
  O  O14  1  0.21529563  0.60667992  0.44216694  1
  O  O15  1  0.55783306  0.78470437  0.39332008  1
  O  O16  1  0.71529563  0.94216694  0.10667992  1
  O  O17  1  0.99315932  0.18931754  0.40811113  1
  O  O18  1  0.31068246  0.50684068  0.09188887  1
  O  O19  1  0.09188887  0.31068246  0.50684068  1
  O  O20  1  0.18931754  0.40811113  0.99315932  1
  O  O21  1  0.39332008  0.55783306  0.78470437  1
  O  O22  1  0.60667992  0.44216694  0.21529563  1
  O  O23  1  0.90811113  0.68931754  0.49315932  1
  O  O24  1  0.81068246  0.59188887  0.00684068  1
  O  O25  1  0.00684068  0.81068246  0.59188887  1
  O  O26  1  0.68931754  0.49315932  0.90811113  1
  O  O27  1  0.28470437  0.05783306  0.89332008  1
  O  O28  1  0.44216694  0.21529563  0.60667992  1
  O  O29  1  0.78470437  0.39332008  0.55783306  1
  O  O30  1  0.50684068  0.09188887  0.31068246  1
  O  O31  1  0.40811113  0.99315932  0.18931754  1
  O  O32  1  0.89332008  0.28470437  0.05783306  1
  O  O33  1  0.94216694  0.10667992  0.71529563  1
