# generated using pymatgen
data_Cs3TlO3
_symmetry_space_group_name_H-M   'P 1'
_cell_length_a   7.54646817
_cell_length_b   7.54641692
_cell_length_c   7.53436898
_cell_angle_alpha   83.64355295
_cell_angle_beta   96.35909733
_cell_angle_gamma   65.42378148
_symmetry_Int_Tables_number   1
_chemical_formula_structural   Cs3TlO3
_chemical_formula_sum   'Cs6 Tl2 O6'
_cell_volume   381.92318632
_cell_formula_units_Z   2
loop_
 _symmetry_equiv_pos_site_id
 _symmetry_equiv_pos_as_xyz
  1  'x, y, z'
loop_
 _atom_site_type_symbol
 _atom_site_label
 _atom_site_symmetry_multiplicity
 _atom_site_fract_x
 _atom_site_fract_y
 _atom_site_fract_z
 _atom_site_occupancy
  Cs  Cs0  1  0.36670621  0.63326335  0.65631233  1
  Cs  Cs1  1  0.19628349  0.19628095  0.49999786  1
  Cs  Cs2  1  0.80372459  0.80372581  0.50000184  1
  Cs  Cs3  1  0.25682892  0.25682693  0.00000347  1
  Cs  Cs4  1  0.74321057  0.74320458  0.99999958  1
  Cs  Cs5  1  0.63326284  0.36670909  0.34368983  1
  Tl  Tl6  1  0.17892487  0.82109908  0.15061465  1
  Tl  Tl7  1  0.82110279  0.17892040  0.84938483  1
  O  O8  1  0.09770075  0.90225749  0.84341058  1
  O  O9  1  0.44561654  0.83929132  0.27314744  1
  O  O10  1  0.16056378  0.55453092  0.27316386  1
  O  O11  1  0.83929102  0.44561937  0.72685780  1
  O  O12  1  0.55452643  0.16056651  0.72683057  1
  O  O13  1  0.90225721  0.09770418  0.15658535  1
