# generated using pymatgen
data_Na2MnPCO7
_symmetry_space_group_name_H-M   'P 1'
_cell_length_a   8.89076938
_cell_length_b   6.72661713
_cell_length_c   10.41127096
_cell_angle_alpha   90.29495656
_cell_angle_beta   88.62040995
_cell_angle_gamma   89.91899022
_symmetry_Int_Tables_number   1
_chemical_formula_structural   Na2MnPCO7
_chemical_formula_sum   'Na8 Mn4 P4 C4 O28'
_cell_volume   622.45452352
_cell_formula_units_Z   4
loop_
 _symmetry_equiv_pos_site_id
 _symmetry_equiv_pos_as_xyz
  1  'x, y, z'
loop_
 _atom_site_type_symbol
 _atom_site_label
 _atom_site_symmetry_multiplicity
 _atom_site_fract_x
 _atom_site_fract_y
 _atom_site_fract_z
 _atom_site_occupancy
  Na  Na0  1  0.25888051  0.46754405  0.62055101  1
  Na  Na1  1  0.24149513  0.00767957  0.12487433  1
  Na  Na2  1  0.24208565  0.49490060  0.12093663  1
  Na  Na3  1  0.75520048  0.50481829  0.88409175  1
  Na  Na4  1  0.75512528  0.99551207  0.88603906  1
  Na  Na5  1  0.75074559  0.50469268  0.36921783  1
  Na  Na6  1  0.75244471  0.99500391  0.36657062  1
  Na  Na7  1  0.93222733  0.76551160  0.61752215  1
  Mn  Mn8  1  0.35077264  0.75529984  0.88471326  1
  Mn  Mn9  1  0.35170951  0.75748747  0.39477538  1
  Mn  Mn10  1  0.64749671  0.24804132  0.60886888  1
  Mn  Mn11  1  0.64629308  0.25250194  0.10986688  1
  P  P12  1  0.42210649  0.25153812  0.85589822  1
  P  P13  1  0.41857428  0.25101913  0.35251834  1
  P  P14  1  0.58237334  0.74730451  0.64668983  1
  P  P15  1  0.57553223  0.75156316  0.14764854  1
  C  C16  1  0.07045407  0.74572588  0.85907926  1
  C  C17  1  0.07062481  0.74725956  0.36541313  1
  C  C18  1  0.92479053  0.25213297  0.63582151  1
  C  C19  1  0.92588981  0.25091998  0.13538800  1
  O  O20  1  0.06351354  0.26106022  0.64033620  1
  O  O21  1  0.06625950  0.25188679  0.13753890  1
  O  O22  1  0.14455753  0.75623651  0.96733327  1
  O  O23  1  0.14659799  0.74607188  0.47313021  1
  O  O24  1  0.15478077  0.73298868  0.75656121  1
  O  O25  1  0.15274991  0.74927779  0.26177321  1
  O  O26  1  0.33265149  0.06397783  0.89428432  1
  O  O27  1  0.32968373  0.43941248  0.89197622  1
  O  O28  1  0.32676197  0.06176063  0.37736135  1
  O  O29  1  0.32814062  0.43896949  0.38923779  1
  O  O30  1  0.45824015  0.25623221  0.70723515  1
  O  O31  1  0.43202868  0.73660652  0.57837568  1
  O  O32  1  0.45374412  0.25862231  0.20210799  1
  O  O33  1  0.42182161  0.75061586  0.08111051  1
  O  O34  1  0.57652025  0.25274552  0.92382820  1
  O  O35  1  0.54890559  0.75094029  0.79740236  1
  O  O36  1  0.57238339  0.24767303  0.42186192  1
  O  O37  1  0.54594663  0.75190047  0.29936393  1
  O  O38  1  0.68574001  0.56640883  0.61568176  1
  O  O39  1  0.67827468  0.93205069  0.61148342  1
  O  O40  1  0.67035196  0.56577569  0.11354592  1
  O  O41  1  0.66847364  0.93816925  0.11352594  1
  O  O42  1  0.83133273  0.24629994  0.73573077  1
  O  O43  1  0.83600648  0.25082652  0.23638138  1
  O  O44  1  0.85132133  0.24696246  0.52537771  1
  O  O45  1  0.85120420  0.25021836  0.02660841  1
  O  O46  1  0.92773450  0.74991270  0.85669276  1
  O  O47  1  0.92788880  0.74784242  0.37265795  1
