# generated using pymatgen
data_Lu2GeO5
_symmetry_space_group_name_H-M   'P 1'
_cell_length_a   6.76833370
_cell_length_b   8.08272622
_cell_length_c   9.59049213
_cell_angle_alpha   109.28106187
_cell_angle_beta   110.66276572
_cell_angle_gamma   65.24801102
_symmetry_Int_Tables_number   1
_chemical_formula_structural   Lu2GeO5
_chemical_formula_sum   'Lu8 Ge4 O20'
_cell_volume   435.41306403
_cell_formula_units_Z   4
loop_
 _symmetry_equiv_pos_site_id
 _symmetry_equiv_pos_as_xyz
  1  'x, y, z'
loop_
 _atom_site_type_symbol
 _atom_site_label
 _atom_site_symmetry_multiplicity
 _atom_site_fract_x
 _atom_site_fract_y
 _atom_site_fract_z
 _atom_site_occupancy
  Lu  Lu0  1  0.23925004  0.93555714  0.66119960  1
  Lu  Lu1  1  0.77526336  0.89777541  0.96790570  1
  Lu  Lu2  1  0.70513307  0.60222459  0.53209430  1
  Lu  Lu3  1  0.48639342  0.43555714  0.16119960  1
  Lu  Lu4  1  0.51360658  0.56444286  0.83880040  1
  Lu  Lu5  1  0.29486693  0.39777541  0.46790570  1
  Lu  Lu6  1  0.22473664  0.10222459  0.03209430  1
  Lu  Lu7  1  0.76074996  0.06444286  0.33880040  1
  Ge  Ge8  1  0.27865955  0.93765306  0.30847150  1
  Ge  Ge9  1  0.90784112  0.56234694  0.19152850  1
  Ge  Ge10  1  0.09215888  0.43765306  0.80847150  1
  Ge  Ge11  1  0.72134045  0.06234694  0.69152850  1
  O  O12  1  0.09104414  0.96472174  0.12846288  1
  O  O13  1  0.87737611  0.96116224  0.55318890  1
  O  O14  1  0.58400128  0.90621972  0.67259103  1
  O  O15  1  0.84717266  0.78936346  0.17588184  1
  O  O16  1  0.46065427  0.71063654  0.32411816  1
  O  O17  1  0.41919728  0.86303013  0.89692991  1
  O  O18  1  0.38529749  0.63696987  0.60307009  1
  O  O19  1  0.92730299  0.53527826  0.37153712  1
  O  O20  1  0.71465055  0.46116224  0.05318890  1
  O  O21  1  0.81762997  0.59378028  0.82740897  1
  O  O22  1  0.18237003  0.40621972  0.17259103  1
  O  O23  1  0.28534945  0.53883776  0.94681110  1
  O  O24  1  0.07269701  0.46472174  0.62846288  1
  O  O25  1  0.61470251  0.36303013  0.39692991  1
  O  O26  1  0.58080272  0.13696987  0.10307009  1
  O  O27  1  0.53934573  0.28936346  0.67588184  1
  O  O28  1  0.15282734  0.21063654  0.82411816  1
  O  O29  1  0.41599872  0.09378028  0.32740897  1
  O  O30  1  0.12262389  0.03883776  0.44681110  1
  O  O31  1  0.90895586  0.03527826  0.87153712  1
