# generated using pymatgen
data_Li2Cr3SnO8
_symmetry_space_group_name_H-M   'P 1'
_cell_length_a   5.95616150
_cell_length_b   5.95528529
_cell_length_c   9.68989512
_cell_angle_alpha   90.00283781
_cell_angle_beta   89.99857822
_cell_angle_gamma   119.99512730
_symmetry_Int_Tables_number   1
_chemical_formula_structural   Li2Cr3SnO8
_chemical_formula_sum   'Li4 Cr6 Sn2 O16'
_cell_volume   297.67342615
_cell_formula_units_Z   2
loop_
 _symmetry_equiv_pos_site_id
 _symmetry_equiv_pos_as_xyz
  1  'x, y, z'
loop_
 _atom_site_type_symbol
 _atom_site_label
 _atom_site_symmetry_multiplicity
 _atom_site_fract_x
 _atom_site_fract_y
 _atom_site_fract_z
 _atom_site_occupancy
  Li  Li0  1  0.33338574  0.66681593  0.89166835  1
  Li  Li1  1  0.00001101  0.99992173  0.99372740  1
  Li  Li2  1  0.99998899  0.99991172  0.49372740  1
  Li  Li3  1  0.66661426  0.33343019  0.39166835  1
  Cr  Cr4  1  0.17084150  0.82912583  0.21635287  1
  Cr  Cr5  1  0.17078524  0.34167022  0.21620392  1
  Cr  Cr6  1  0.65835765  0.82921799  0.21614903  1
  Cr  Cr7  1  0.34164235  0.17086034  0.71614903  1
  Cr  Cr8  1  0.82915850  0.65828433  0.71635287  1
  Cr  Cr9  1  0.82921476  0.17088497  0.71620392  1
  Sn  Sn10  1  0.33336443  0.66660868  0.49415850  1
  Sn  Sn11  1  0.66663557  0.33324426  0.99415850  1
  O  O12  1  0.15965859  0.84015882  0.60075201  1
  O  O13  1  0.03397020  0.51710726  0.33789751  1
  O  O14  1  0.33311678  0.66676874  0.10727151  1
  O  O15  1  0.00021606  0.99993327  0.30256297  1
  O  O16  1  0.99978394  0.99971720  0.80256297  1
  O  O17  1  0.15968705  0.31942714  0.60068083  1
  O  O18  1  0.48282259  0.96601352  0.33789435  1
  O  O19  1  0.48289030  0.51699643  0.33786477  1
  O  O20  1  0.31941679  0.15964491  0.10073698  1
  O  O21  1  0.68058321  0.84022712  0.60073698  1
  O  O22  1  0.51717741  0.48319094  0.83789435  1
  O  O23  1  0.51710970  0.03410713  0.83786477  1
  O  O24  1  0.66688322  0.33365196  0.60727151  1
  O  O25  1  0.84034141  0.68050022  0.10075201  1
  O  O26  1  0.96602980  0.48313806  0.83789751  1
  O  O27  1  0.84031295  0.15974009  0.10068083  1
