# generated using pymatgen
data_GdH22C7NCl2O9
_symmetry_space_group_name_H-M   'P 1'
_cell_length_a   9.31390910
_cell_length_b   12.33229926
_cell_length_c   15.44164400
_cell_angle_alpha   90.00000000
_cell_angle_beta   90.00000000
_cell_angle_gamma   110.05236198
_symmetry_Int_Tables_number   1
_chemical_formula_structural   GdH22C7NCl2O9
_chemical_formula_sum   'Gd4 H88 C28 N4 Cl8 O36'
_cell_volume   1666.13711183
_cell_formula_units_Z   4
loop_
 _symmetry_equiv_pos_site_id
 _symmetry_equiv_pos_as_xyz
  1  'x, y, z'
loop_
 _atom_site_type_symbol
 _atom_site_label
 _atom_site_symmetry_multiplicity
 _atom_site_fract_x
 _atom_site_fract_y
 _atom_site_fract_z
 _atom_site_occupancy
  Gd  Gd0  1  0.24704885  0.75211456  0.48936159  1
  Gd  Gd1  1  0.74704885  0.25211456  0.01063841  1
  Gd  Gd2  1  0.75295115  0.24788544  0.51063841  1
  Gd  Gd3  1  0.25295115  0.74788544  0.98936159  1
  H  H4  1  0.49642853  0.64240133  0.50495949  1
  H  H5  1  0.99642853  0.14240133  0.99504051  1
  H  H6  1  0.50357147  0.35759867  0.49504051  1
  H  H7  1  0.00357147  0.85759867  0.00495949  1
  H  H8  1  0.35488477  0.54229995  0.46465084  1
  H  H9  1  0.85488477  0.04229995  0.03534916  1
  H  H10  1  0.64511523  0.45770005  0.53534916  1
  H  H11  1  0.14511523  0.95770005  0.96465084  1
  H  H12  1  0.98107393  0.84630705  0.45838729  1
  H  H13  1  0.48107393  0.34630705  0.04161271  1
  H  H14  1  0.01892607  0.15369295  0.54161271  1
  H  H15  1  0.51892607  0.65369295  0.95838729  1
  H  H16  1  0.90716664  0.73014636  0.51304590  1
  H  H17  1  0.40716664  0.23014636  0.98695410  1
  H  H18  1  0.09283336  0.26985364  0.48695410  1
  H  H19  1  0.59283336  0.76985364  0.01304590  1
  H  H20  1  0.33453787  0.87417980  0.66903407  1
  H  H21  1  0.83453787  0.37417980  0.83096593  1
  H  H22  1  0.66546213  0.12582020  0.33096593  1
  H  H23  1  0.16546213  0.62582020  0.16903407  1
  H  H24  1  0.25168148  0.73999323  0.68503797  1
  H  H25  1  0.75168148  0.23999323  0.81496203  1
  H  H26  1  0.74831852  0.26000677  0.31496203  1
  H  H27  1  0.24831852  0.76000677  0.18503797  1
  H  H28  1  0.65987334  0.52595788  0.94016154  1
  H  H29  1  0.15987334  0.02595788  0.55983846  1
  H  H30  1  0.34012666  0.47404212  0.05983846  1
  H  H31  1  0.84012666  0.97404212  0.44016154  1
  H  H32  1  0.38702577  0.97397361  0.78931655  1
  H  H33  1  0.88702577  0.47397361  0.71068345  1
  H  H34  1  0.61297423  0.02602639  0.21068345  1
  H  H35  1  0.11297423  0.52602639  0.28931655  1
  H  H36  1  0.48311663  0.05187031  0.71433498  1
  H  H37  1  0.98311663  0.55187031  0.78566502  1
  H  H38  1  0.51688337  0.94812969  0.28566502  1
  H  H39  1  0.01688337  0.44812969  0.21433498  1
  H  H40  1  0.31645117  0.23424185  0.66066609  1
  H  H41  1  0.81645117  0.73424185  0.83933391  1
  H  H42  1  0.68354883  0.76575815  0.33933391  1
  H  H43  1  0.18354883  0.26575815  0.16066609  1
  H  H44  1  0.35292057  0.21636735  0.77321714  1
  H  H45  1  0.85292057  0.71636735  0.72678286  1
  H  H46  1  0.64707943  0.78363265  0.22678286  1
  H  H47  1  0.14707943  0.28363265  0.27321714  1
  H  H48  1  0.49538757  0.31961087  0.70720017  1
  H  H49  1  0.99538757  0.81961087  0.79279983  1
  H  H50  1  0.50461243  0.68038913  0.29279983  1
  H  H51  1  0.00461243  0.18038913  0.20720017  1
  H  H52  1  0.08564031  0.26922718  0.69400733  1
  H  H53  1  0.58564031  0.76922718  0.80599267  1
  H  H54  1  0.91435969  0.73077282  0.30599267  1
  H  H55  1  0.41435969  0.23077282  0.19400733  1
  H  H56  1  0.08525819  0.37542955  0.77337220  1
  H  H57  1  0.58525819  0.87542955  0.72662780  1
  H  H58  1  0.91474181  0.62457045  0.22662780  1
  H  H59  1  0.41474181  0.12457045  0.27337220  1
  H  H60  1  0.11694769  0.24570892  0.80707595  1
  H  H61  1  0.61694769  0.74570892  0.69292405  1
  H  H62  1  0.88305231  0.75429108  0.19292405  1
  H  H63  1  0.38305231  0.25429108  0.30707595  1
  H  H64  1  0.28130909  0.41004677  0.61211539  1
  H  H65  1  0.78130909  0.91004677  0.88788461  1
  H  H66  1  0.71869091  0.58995323  0.38788461  1
  H  H67  1  0.21869091  0.08995323  0.11211539  1
  H  H68  1  0.45442156  0.49904796  0.66213008  1
  H  H69  1  0.95442156  0.99904796  0.83786992  1
  H  H70  1  0.54557844  0.50095204  0.33786992  1
  H  H71  1  0.04557844  0.00095204  0.16213008  1
  H  H72  1  0.27678767  0.51832137  0.68962791  1
  H  H73  1  0.77678767  0.01832137  0.81037209  1
  H  H74  1  0.72321233  0.48167863  0.31037209  1
  H  H75  1  0.22321233  0.98167863  0.18962791  1
  H  H76  1  0.32969139  0.36029934  0.87853868  1
  H  H77  1  0.82969139  0.86029934  0.62146132  1
  H  H78  1  0.67030861  0.63970066  0.12146132  1
  H  H79  1  0.17030861  0.13970066  0.37853868  1
  H  H80  1  0.31702932  0.49339490  0.83903471  1
  H  H81  1  0.81702932  0.99339490  0.66096529  1
  H  H82  1  0.68297068  0.50660510  0.16096529  1
  H  H83  1  0.18297068  0.00660510  0.33903471  1
  H  H84  1  0.59821263  0.41573733  0.83154595  1
  H  H85  1  0.09821263  0.91573733  0.66845405  1
  H  H86  1  0.40178737  0.58426267  0.16845405  1
  H  H87  1  0.90178737  0.08426267  0.33154595  1
  H  H88  1  0.58780640  0.53643456  0.77291852  1
  H  H89  1  0.08780640  0.03643456  0.72708148  1
  H  H90  1  0.41219360  0.46356544  0.22708148  1
  H  H91  1  0.91219360  0.96356544  0.27291852  1
  C  C92  1  0.99889423  0.50664269  0.55006102  1
  C  C93  1  0.49889423  0.00664269  0.94993898  1
  C  C94  1  0.00110577  0.49335731  0.44993898  1
  C  C95  1  0.50110577  0.99335731  0.05006102  1
  C  C96  1  0.56199559  0.97107891  0.49411315  1
  C  C97  1  0.06199559  0.47107891  0.00588685  1
  C  C98  1  0.43800441  0.02892109  0.50588685  1
  C  C99  1  0.93800441  0.52892109  0.99411315  1
  C  C100  1  0.37304078  0.27817144  0.71961507  1
  C  C101  1  0.87304078  0.77817144  0.78038493  1
  C  C102  1  0.62695922  0.72182856  0.28038493  1
  C  C103  1  0.12695922  0.22182856  0.21961507  1
  C  C104  1  0.13512390  0.31008566  0.75535840  1
  C  C105  1  0.63512390  0.81008566  0.74464160  1
  C  C106  1  0.86487610  0.68991434  0.24464160  1
  C  C107  1  0.36487610  0.18991434  0.25535840  1
  C  C108  1  0.33144841  0.45567547  0.67177070  1
  C  C109  1  0.83144841  0.95567547  0.82822930  1
  C  C110  1  0.66855159  0.54432453  0.32822930  1
  C  C111  1  0.16855159  0.04432453  0.17177070  1
  C  C112  1  0.37006200  0.42734897  0.82864620  1
  C  C113  1  0.87006200  0.92734897  0.67135380  1
  C  C114  1  0.62993800  0.57265103  0.17135380  1
  C  C115  1  0.12993800  0.07265103  0.32864620  1
  C  C116  1  0.54425433  0.48200368  0.83030376  1
  C  C117  1  0.04425433  0.98200368  0.66969624  1
  C  C118  1  0.45574567  0.51799632  0.16969624  1
  C  C119  1  0.95574567  0.01799632  0.33030376  1
  N  N120  1  0.30493205  0.36858242  0.74351296  1
  N  N121  1  0.80493205  0.86858242  0.75648704  1
  N  N122  1  0.69506795  0.63141758  0.25648704  1
  N  N123  1  0.19506795  0.13141758  0.24351296  1
  Cl  Cl124  1  0.28723992  0.83074901  0.31857997  1
  Cl  Cl125  1  0.78723992  0.33074901  0.18142003  1
  Cl  Cl126  1  0.71276008  0.16925099  0.68142003  1
  Cl  Cl127  1  0.21276008  0.66925099  0.81857997  1
  Cl  Cl128  1  0.80084143  0.86758623  0.06623191  1
  Cl  Cl129  1  0.30084143  0.36758623  0.43376809  1
  Cl  Cl130  1  0.19915857  0.13241377  0.93376809  1
  Cl  Cl131  1  0.69915857  0.63241377  0.56623191  1
  O  O132  1  0.08919624  0.59926472  0.58183231  1
  O  O133  1  0.58919624  0.09926472  0.91816769  1
  O  O134  1  0.91080376  0.40073528  0.41816769  1
  O  O135  1  0.41080376  0.90073528  0.08183231  1
  O  O136  1  0.39265012  0.62576054  0.48018647  1
  O  O137  1  0.89265012  0.12576054  0.01981353  1
  O  O138  1  0.60734988  0.37423946  0.51981353  1
  O  O139  1  0.10734988  0.87423946  0.98018647  1
  O  O140  1  0.90686676  0.42327647  0.59229936  1
  O  O141  1  0.40686676  0.92327647  0.90770064  1
  O  O142  1  0.09313324  0.57672353  0.40770064  1
  O  O143  1  0.59313324  0.07672353  0.09229936  1
  O  O144  1  0.00446434  0.78213467  0.48698179  1
  O  O145  1  0.50446434  0.28213467  0.01301821  1
  O  O146  1  0.99553566  0.21786533  0.51301821  1
  O  O147  1  0.49553566  0.71786533  0.98698179  1
  O  O148  1  0.51634201  0.86266136  0.48850751  1
  O  O149  1  0.01634201  0.36266136  0.01149249  1
  O  O150  1  0.48365799  0.13733864  0.51149249  1
  O  O151  1  0.98365799  0.63733864  0.98850751  1
  O  O152  1  0.29590831  0.79688193  0.63895718  1
  O  O153  1  0.79590831  0.29688193  0.86104282  1
  O  O154  1  0.70409169  0.20311807  0.36104282  1
  O  O155  1  0.20409169  0.70311807  0.13895718  1
  O  O156  1  0.70054049  0.03814788  0.49087410  1
  O  O157  1  0.20054049  0.53814788  0.00912590  1
  O  O158  1  0.29945951  0.96185212  0.50912590  1
  O  O159  1  0.79945951  0.46185212  0.99087410  1
  O  O160  1  0.58656699  0.55169087  0.90687701  1
  O  O161  1  0.08656699  0.05169087  0.59312299  1
  O  O162  1  0.41343301  0.44830913  0.09312299  1
  O  O163  1  0.91343301  0.94830913  0.40687701  1
  O  O164  1  0.38276337  0.99306539  0.72745774  1
  O  O165  1  0.88276337  0.49306539  0.77254226  1
  O  O166  1  0.61723663  0.00693461  0.27254226  1
  O  O167  1  0.11723663  0.50693461  0.22745774  1
