# generated using pymatgen
data_Tm3TaO7
_symmetry_space_group_name_H-M   'P 1'
_cell_length_a   6.40425928
_cell_length_b   6.40425928
_cell_length_c   7.41193175
_cell_angle_alpha   90.00000000
_cell_angle_beta   90.00000000
_cell_angle_gamma   109.13385686
_symmetry_Int_Tables_number   1
_chemical_formula_structural   Tm3TaO7
_chemical_formula_sum   'Tm6 Ta2 O14'
_cell_volume   287.20275587
_cell_formula_units_Z   2
loop_
 _symmetry_equiv_pos_site_id
 _symmetry_equiv_pos_as_xyz
  1  'x, y, z'
loop_
 _atom_site_type_symbol
 _atom_site_label
 _atom_site_symmetry_multiplicity
 _atom_site_fract_x
 _atom_site_fract_y
 _atom_site_fract_z
 _atom_site_occupancy
  Tm  Tm0  1  0.99887528  0.46587982  0.49558254  1
  Tm  Tm1  1  0.53412018  0.00112472  0.50441746  1
  Tm  Tm2  1  0.47269599  0.47269599  0.75000000  1
  Tm  Tm3  1  0.52730401  0.52730401  0.25000000  1
  Tm  Tm4  1  0.00112472  0.53412018  0.99558254  1
  Tm  Tm5  1  0.46587982  0.99887528  0.00441746  1
  Ta  Ta6  1  0.00309206  0.00309206  0.25000000  1
  Ta  Ta7  1  0.99690794  0.99690794  0.75000000  1
  O  O8  1  0.07178031  0.92821969  0.00000000  1
  O  O9  1  0.36065359  0.63934641  0.00000000  1
  O  O10  1  0.06049705  0.31762461  0.21086016  1
  O  O11  1  0.68237539  0.93950295  0.78913984  1
  O  O12  1  0.37066387  0.62933613  0.50000000  1
  O  O13  1  0.67062743  0.91713317  0.22088956  1
  O  O14  1  0.08286683  0.32937257  0.77911044  1
  O  O15  1  0.32937257  0.08286683  0.72088956  1
  O  O16  1  0.91713317  0.67062743  0.27911044  1
  O  O17  1  0.62933613  0.37066387  0.00000000  1
  O  O18  1  0.93950295  0.68237539  0.71086016  1
  O  O19  1  0.31762461  0.06049705  0.28913984  1
  O  O20  1  0.63934641  0.36065359  0.50000000  1
  O  O21  1  0.92821969  0.07178031  0.50000000  1
