# generated using pymatgen
data_Li2MnPCO7
_symmetry_space_group_name_H-M   'P 1'
_cell_length_a   5.26418493
_cell_length_b   6.36799341
_cell_length_c   8.50581576
_cell_angle_alpha   89.27173337
_cell_angle_beta   86.53414842
_cell_angle_gamma   92.50890338
_symmetry_Int_Tables_number   1
_chemical_formula_structural   Li2MnPCO7
_chemical_formula_sum   'Li4 Mn2 P2 C2 O14'
_cell_volume   284.30641707
_cell_formula_units_Z   2
loop_
 _symmetry_equiv_pos_site_id
 _symmetry_equiv_pos_as_xyz
  1  'x, y, z'
loop_
 _atom_site_type_symbol
 _atom_site_label
 _atom_site_symmetry_multiplicity
 _atom_site_fract_x
 _atom_site_fract_y
 _atom_site_fract_z
 _atom_site_occupancy
  Li  Li0  1  0.08930938  0.11109292  0.20536782  1
  Li  Li1  1  0.07596887  0.62201101  0.26555285  1
  Li  Li2  1  0.66969088  0.48175641  0.73989628  1
  Li  Li3  1  0.65599998  0.99265484  0.80002686  1
  Mn  Mn4  1  0.65125252  0.30757905  0.35091867  1
  Mn  Mn5  1  0.09433626  0.79630111  0.65451919  1
  P  P6  1  0.58538353  0.79803817  0.43572556  1
  P  P7  1  0.16019813  0.30585978  0.56965696  1
  C  C8  1  0.60980387  0.28199177  0.05735494  1
  C  C9  1  0.13549635  0.82175823  0.94823944  1
  O  O10  1  0.12302823  0.83603145  0.09630150  1
  O  O11  1  0.82212355  0.30479984  0.13470769  1
  O  O12  1  0.40493888  0.27774808  0.14754715  1
  O  O13  1  0.68696971  0.00061844  0.34936805  1
  O  O14  1  0.68427285  0.61787536  0.33029186  1
  O  O15  1  0.28457170  0.78664231  0.44796535  1
  O  O16  1  0.06394601  0.32468446  0.40265717  1
  O  O17  1  0.68161693  0.77919334  0.60281264  1
  O  O18  1  0.46099330  0.31727136  0.55748956  1
  O  O19  1  0.06124330  0.48600196  0.67517462  1
  O  O20  1  0.05860633  0.10323928  0.65608104  1
  O  O21  1  0.34050617  0.82593887  0.85782116  1
  O  O22  1  0.92324011  0.79905314  0.87068834  1
  O  O23  1  0.62234918  0.26771883  0.90898727  1
