# generated using pymatgen
data_LiZnCr3(SO4)6
_symmetry_space_group_name_H-M   'P 1'
_cell_length_a   8.31210064
_cell_length_b   8.90014658
_cell_length_c   8.31728261
_cell_angle_alpha   117.79625355
_cell_angle_beta   60.36149720
_cell_angle_gamma   117.67196674
_symmetry_Int_Tables_number   1
_chemical_formula_structural   LiZnCr3(SO4)6
_chemical_formula_sum   'Li1 Zn1 Cr3 S6 O24'
_cell_volume   450.68711601
_cell_formula_units_Z   1
loop_
 _symmetry_equiv_pos_site_id
 _symmetry_equiv_pos_as_xyz
  1  'x, y, z'
loop_
 _atom_site_type_symbol
 _atom_site_label
 _atom_site_symmetry_multiplicity
 _atom_site_fract_x
 _atom_site_fract_y
 _atom_site_fract_z
 _atom_site_occupancy
  Li  Li0  1  0.77195816  0.37074849  0.41990913  1
  Zn  Zn1  1  0.16752648  0.45465457  0.13918698  1
  Cr  Cr2  1  0.35344824  0.06128142  0.35071302  1
  Cr  Cr3  1  0.64394141  0.93223949  0.64526765  1
  Cr  Cr4  1  0.85117012  0.55033282  0.85252908  1
  S  S5  1  0.03772837  0.25059983  0.46912756  1
  S  S6  1  0.54093955  0.75023946  0.25375736  1
  S  S7  1  0.25486044  0.75036754  0.95390577  1
  S  S8  1  0.74837308  0.25106632  0.03769247  1
  S  S9  1  0.46550196  0.24695551  0.74275811  1
  S  S10  1  0.95597000  0.75070905  0.54352425  1
  O  O11  1  0.29913865  0.92319050  0.10572099  1
  O  O12  1  0.10904436  0.91728690  0.50971294  1
  O  O13  1  0.00401183  0.29529914  0.33921222  1
  O  O14  1  0.02482852  0.39544842  0.65930238  1
  O  O15  1  0.35232564  0.61108338  0.28934788  1
  O  O16  1  0.04825261  0.70671262  0.98303035  1
  O  O17  1  0.51826972  0.92362353  0.29706323  1
  O  O18  1  0.23439247  0.23176896  0.37963554  1
  O  O19  1  0.67465207  0.70439324  0.04828140  1
  O  O20  1  0.38006088  0.77508394  0.75926800  1
  O  O21  1  0.63408444  0.77483825  0.38121954  1
  O  O22  1  0.29121226  0.61007602  0.96553960  1
  O  O23  1  0.71368570  0.39433025  0.02441251  1
  O  O24  1  0.38471646  0.23154477  0.60945180  1
  O  O25  1  0.61901311  0.23587628  0.24026416  1
  O  O26  1  0.33981777  0.29299113  0.94538251  1
  O  O27  1  0.76135606  0.77541758  0.63465353  1
  O  O28  1  0.49590952  0.07681839  0.68699116  1
  O  O29  1  0.94939235  0.29356544  0.01471669  1
  O  O30  1  0.66082771  0.39219606  0.70515746  1
  O  O31  1  0.96035863  0.60012924  0.35939374  1
  O  O32  1  0.98301656  0.70829589  0.67947587  1
  O  O33  1  0.89259313  0.07917866  0.49702374  1
  O  O34  1  0.68792173  0.07805790  0.89817140  1
