# generated using pymatgen
data_K5YO4
_symmetry_space_group_name_H-M   'P 1'
_cell_length_a   12.12346980
_cell_length_b   6.97483649
_cell_length_c   21.24204046
_cell_angle_alpha   90.00000000
_cell_angle_beta   90.00000000
_cell_angle_gamma   90.00000000
_symmetry_Int_Tables_number   1
_chemical_formula_structural   K5YO4
_chemical_formula_sum   'K40 Y8 O32'
_cell_volume   1796.21036287
_cell_formula_units_Z   8
loop_
 _symmetry_equiv_pos_site_id
 _symmetry_equiv_pos_as_xyz
  1  'x, y, z'
loop_
 _atom_site_type_symbol
 _atom_site_label
 _atom_site_symmetry_multiplicity
 _atom_site_fract_x
 _atom_site_fract_y
 _atom_site_fract_z
 _atom_site_occupancy
  K  K0  1  0.07118670  0.09963085  0.43562397  1
  K  K1  1  0.07118670  0.40036915  0.93562397  1
  K  K2  1  0.08523096  0.60768791  0.74923203  1
  K  K3  1  0.08523096  0.89231209  0.24923203  1
  K  K4  1  0.16617930  0.90499376  0.00258830  1
  K  K5  1  0.16617930  0.59500624  0.50258830  1
  K  K6  1  0.17543823  0.39198421  0.32616069  1
  K  K7  1  0.17543823  0.10801479  0.82616069  1
  K  K8  1  0.19581171  0.58404802  0.13755658  1
  K  K9  1  0.19581171  0.91595198  0.63755658  1
  K  K10  1  0.30418829  0.08404802  0.13755658  1
  K  K11  1  0.30418829  0.41595198  0.63755658  1
  K  K12  1  0.32456177  0.89198521  0.32616069  1
  K  K13  1  0.32456177  0.60801479  0.82616069  1
  K  K14  1  0.33382070  0.40499376  0.00258830  1
  K  K15  1  0.33382070  0.09500624  0.50258830  1
  K  K16  1  0.41476904  0.39231209  0.24923203  1
  K  K17  1  0.41476904  0.10768791  0.74923203  1
  K  K18  1  0.42881330  0.90036915  0.93562397  1
  K  K19  1  0.42881330  0.59963085  0.43562397  1
  K  K20  1  0.57118670  0.09963085  0.06437603  1
  K  K21  1  0.57118670  0.40036915  0.56437603  1
  K  K22  1  0.58523096  0.89231209  0.25076797  1
  K  K23  1  0.58523096  0.60768791  0.75076797  1
  K  K24  1  0.66617930  0.59500624  0.99741170  1
  K  K25  1  0.66617930  0.90499376  0.49741170  1
  K  K26  1  0.67543823  0.10801479  0.67383931  1
  K  K27  1  0.67543823  0.39198421  0.17383931  1
  K  K28  1  0.69581171  0.58404802  0.36244342  1
  K  K29  1  0.69581171  0.91595198  0.86244342  1
  K  K30  1  0.80418829  0.08404802  0.36244342  1
  K  K31  1  0.80418829  0.41595198  0.86244342  1
  K  K32  1  0.82456177  0.60801479  0.67383931  1
  K  K33  1  0.82456177  0.89198521  0.17383931  1
  K  K34  1  0.83382070  0.40499376  0.49741170  1
  K  K35  1  0.83382070  0.09500624  0.99741170  1
  K  K36  1  0.91476904  0.39231209  0.25076797  1
  K  K37  1  0.91476904  0.10768791  0.75076797  1
  K  K38  1  0.92881330  0.90036915  0.56437603  1
  K  K39  1  0.92881330  0.59963085  0.06437603  1
  Y  Y40  1  0.03740730  0.17686762  0.12283658  1
  Y  Y41  1  0.03740730  0.32313238  0.62283658  1
  Y  Y42  1  0.46259270  0.67686762  0.12283658  1
  Y  Y43  1  0.46259270  0.82313238  0.62283658  1
  Y  Y44  1  0.53740730  0.32313238  0.87716342  1
  Y  Y45  1  0.53740730  0.17686762  0.37716342  1
  Y  Y46  1  0.96259270  0.67686762  0.37716342  1
  Y  Y47  1  0.96259270  0.82313238  0.87716342  1
  O  O48  1  0.04707958  0.86829223  0.12001322  1
  O  O49  1  0.04707958  0.63170777  0.62001322  1
  O  O50  1  0.11904276  0.23443257  0.70918148  1
  O  O51  1  0.11904276  0.26556743  0.20918148  1
  O  O52  1  0.13398223  0.29858498  0.04703297  1
  O  O53  1  0.13398223  0.20141502  0.54703297  1
  O  O54  1  0.13499846  0.76164436  0.37561789  1
  O  O55  1  0.13499846  0.73835564  0.87561789  1
  O  O56  1  0.36500154  0.23835564  0.87561789  1
  O  O57  1  0.36500154  0.26164436  0.37561789  1
  O  O58  1  0.36601777  0.79858498  0.04703297  1
  O  O59  1  0.36601777  0.70141502  0.54703297  1
  O  O60  1  0.38095724  0.76556743  0.20918148  1
  O  O61  1  0.38095724  0.73443257  0.70918148  1
  O  O62  1  0.45292042  0.36829223  0.12001322  1
  O  O63  1  0.45292042  0.13170777  0.62001322  1
  O  O64  1  0.54707958  0.63170777  0.87998678  1
  O  O65  1  0.54707958  0.86829223  0.37998678  1
  O  O66  1  0.61904276  0.26556743  0.29081852  1
  O  O67  1  0.61904276  0.23443257  0.79081852  1
  O  O68  1  0.63398223  0.20141502  0.95296703  1
  O  O69  1  0.63398223  0.29858498  0.45296703  1
  O  O70  1  0.63499846  0.73835564  0.62438211  1
  O  O71  1  0.63499846  0.76164436  0.12438211  1
  O  O72  1  0.86500154  0.23835564  0.62438211  1
  O  O73  1  0.86500154  0.26164436  0.12438211  1
  O  O74  1  0.86601777  0.79858498  0.45296703  1
  O  O75  1  0.86601777  0.70141502  0.95296703  1
  O  O76  1  0.88095724  0.76556743  0.29081852  1
  O  O77  1  0.88095724  0.73443257  0.79081852  1
  O  O78  1  0.95292042  0.36829223  0.37998678  1
  O  O79  1  0.95292042  0.13170777  0.87998678  1
