# generated using pymatgen
data_Li4Cr3CoO8
_symmetry_space_group_name_H-M   'P 1'
_cell_length_a   5.11337262
_cell_length_b   5.86083177
_cell_length_c   5.86285742
_cell_angle_alpha   120.01149184
_cell_angle_beta   90.00011511
_cell_angle_gamma   73.37159028
_symmetry_Int_Tables_number   1
_chemical_formula_structural   Li4Cr3CoO8
_chemical_formula_sum   'Li4 Cr3 Co1 O8'
_cell_volume   143.59650781
_cell_formula_units_Z   1
loop_
 _symmetry_equiv_pos_site_id
 _symmetry_equiv_pos_as_xyz
  1  'x, y, z'
loop_
 _atom_site_type_symbol
 _atom_site_label
 _atom_site_symmetry_multiplicity
 _atom_site_fract_x
 _atom_site_fract_y
 _atom_site_fract_z
 _atom_site_occupancy
  Li  Li0  1  0.00912138  0.99341049  0.49670524  1
  Li  Li1  1  0.99087862  0.00658851  0.00329476  1
  Li  Li2  1  1.00000000  0.50000000  0.49525037  1
  Li  Li3  1  0.00000000  0.50000000  0.00474963  1
  Cr  Cr4  1  0.50000000  0.00000000  0.75000000  1
  Cr  Cr5  1  0.50000000  0.00000000  0.25000000  1
  Cr  Cr6  1  0.50000000  0.50000000  0.75000000  1
  Co  Co7  1  0.50000000  0.50000000  0.25000000  1
  O  O8  1  0.27348994  0.24164726  0.62082413  1
  O  O9  1  0.72246003  0.26231894  0.88615236  1
  O  O10  1  0.27822622  0.24686410  0.12343155  1
  O  O11  1  0.72246003  0.26231994  0.37616758  1
  O  O12  1  0.27753897  0.73768106  0.61384764  1
  O  O13  1  0.72651006  0.75835274  0.87917687  1
  O  O14  1  0.27753997  0.73768006  0.12383242  1
  O  O15  1  0.72177278  0.75313590  0.37656845  1
