# generated using pymatgen
data_Li2FePCO7
_symmetry_space_group_name_H-M   'P 1'
_cell_length_a   5.08550229
_cell_length_b   12.79722473
_cell_length_c   8.49206991
_cell_angle_alpha   96.39995012
_cell_angle_beta   94.72934612
_cell_angle_gamma   93.65228547
_symmetry_Int_Tables_number   1
_chemical_formula_structural   Li2FePCO7
_chemical_formula_sum   'Li8 Fe4 P4 C4 O28'
_cell_volume   545.86795668
_cell_formula_units_Z   4
loop_
 _symmetry_equiv_pos_site_id
 _symmetry_equiv_pos_as_xyz
  1  'x, y, z'
loop_
 _atom_site_type_symbol
 _atom_site_label
 _atom_site_symmetry_multiplicity
 _atom_site_fract_x
 _atom_site_fract_y
 _atom_site_fract_z
 _atom_site_occupancy
  Li  Li0  1  0.25019974  0.56078567  0.79557023  1
  Li  Li1  1  0.40425143  0.79320561  0.74940046  1
  Li  Li2  1  0.27856547  0.01813333  0.72865716  1
  Li  Li3  1  0.24289309  0.21663898  0.05412516  1
  Li  Li4  1  0.38074424  0.33292251  0.70138627  1
  Li  Li5  1  0.65044756  0.80170599  0.19335088  1
  Li  Li6  1  0.77777617  0.57365042  0.21994768  1
  Li  Li7  1  0.74161124  0.06997230  0.22173501  1
  Fe  Fe8  1  0.20569522  0.91342471  0.31912436  1
  Fe  Fe9  1  0.23245590  0.41104683  0.31031261  1
  Fe  Fe10  1  0.84079699  0.66967723  0.62675540  1
  Fe  Fe11  1  0.83086870  0.17071162  0.63345091  1
  P  P12  1  0.31014846  0.66901504  0.39573152  1
  P  P13  1  0.29643116  0.16838057  0.39938610  1
  P  P14  1  0.74122451  0.91445701  0.55042203  1
  P  P15  1  0.76771446  0.41444134  0.54900317  1
  C  C16  1  0.27941917  0.91780593  0.03090384  1
  C  C17  1  0.34654418  0.42677657  0.03048566  1
  C  C18  1  0.78281850  0.67267929  0.92094277  1
  C  C19  1  0.70852569  0.15621053  0.91477682  1
  O  O20  1  0.04876058  0.90057197  0.08171128  1
  O  O21  1  0.20086537  0.70415897  0.55912570  1
  O  O22  1  0.14417013  0.56980341  0.31271162  1
  O  O23  1  0.12931404  0.37777913  0.06929211  1
  O  O24  1  0.18645627  0.20814583  0.55958983  1
  O  O25  1  0.12728734  0.06811975  0.31992290  1
  O  O26  1  0.30377987  0.76062151  0.29128878  1
  O  O27  1  0.32316751  0.91786510  0.88616357  1
  O  O28  1  0.28029342  0.25262211  0.28320674  1
  O  O29  1  0.38221550  0.43879986  0.88695433  1
  O  O30  1  0.44459368  0.93948186  0.52506860  1
  O  O31  1  0.58205533  0.66287685  0.80776327  1
  O  O32  1  0.46619189  0.42984445  0.51494195  1
  O  O33  1  0.53909767  0.14755488  0.78574562  1
  O  O34  1  0.47645099  0.93451613  0.14799654  1
  O  O35  1  0.60570249  0.64273748  0.42535308  1
  O  O36  1  0.51630680  0.45930203  0.15227704  1
  O  O37  1  0.59087378  0.14238352  0.43075489  1
  O  O38  1  0.74508642  0.67683718  0.06630674  1
  O  O39  1  0.75640227  0.82456863  0.65760981  1
  O  O40  1  0.62739808  0.15362170  0.05122445  1
  O  O41  1  0.77692332  0.32587807  0.66133656  1
  O  O42  1  0.84845117  0.87857546  0.38750060  1
  O  O43  1  0.01469424  0.67876951  0.86573259  1
  O  O44  1  0.91316822  0.51720040  0.63794432  1
  O  O45  1  0.89220222  0.38307839  0.39341746  1
  O  O46  1  0.95604418  0.16955762  0.88532094  1
  O  O47  1  0.90905535  0.01464071  0.62949464  1
