# generated using pymatgen
data_LiFe2(SO4)3
_symmetry_space_group_name_H-M   'P 1'
_cell_length_a   8.52956861
_cell_length_b   8.81742986
_cell_length_c   12.12028818
_cell_angle_alpha   90.00000000
_cell_angle_beta   88.94377021
_cell_angle_gamma   90.00000000
_symmetry_Int_Tables_number   1
_chemical_formula_structural   LiFe2(SO4)3
_chemical_formula_sum   'Li4 Fe8 S12 O48'
_cell_volume   911.39832814
_cell_formula_units_Z   4
loop_
 _symmetry_equiv_pos_site_id
 _symmetry_equiv_pos_as_xyz
  1  'x, y, z'
loop_
 _atom_site_type_symbol
 _atom_site_label
 _atom_site_symmetry_multiplicity
 _atom_site_fract_x
 _atom_site_fract_y
 _atom_site_fract_z
 _atom_site_occupancy
  Li  Li0  1  0.19342398  0.72091267  0.81987615  1
  Li  Li1  1  0.30657602  0.22091267  0.68012385  1
  Li  Li2  1  0.69342398  0.77908733  0.31987615  1
  Li  Li3  1  0.80657602  0.27908733  0.18012385  1
  Fe  Fe4  1  0.24610141  0.96570916  0.38389477  1
  Fe  Fe5  1  0.24669040  0.53684776  0.60752459  1
  Fe  Fe6  1  0.25389859  0.46570916  0.11610523  1
  Fe  Fe7  1  0.25330960  0.03684776  0.89247541  1
  Fe  Fe8  1  0.74669040  0.96315224  0.10752459  1
  Fe  Fe9  1  0.74610141  0.53429084  0.88389477  1
  Fe  Fe10  1  0.75330960  0.46315224  0.39247541  1
  Fe  Fe11  1  0.75389859  0.03429084  0.61610523  1
  S  S12  1  0.03859805  0.24601746  0.50733597  1
  S  S13  1  0.10435522  0.12054186  0.15310168  1
  S  S14  1  0.10785204  0.39242552  0.85514621  1
  S  S15  1  0.39214796  0.89242552  0.64485379  1
  S  S16  1  0.39564478  0.62054186  0.34689832  1
  S  S17  1  0.46140195  0.74601746  0.99266403  1
  S  S18  1  0.53859805  0.25398254  0.00733597  1
  S  S19  1  0.60435522  0.37945814  0.65310168  1
  S  S20  1  0.60785204  0.10757448  0.35514621  1
  S  S21  1  0.89214796  0.60757448  0.14485379  1
  S  S22  1  0.89564478  0.87945814  0.84689832  1
  S  S23  1  0.96140195  0.75398254  0.49266403  1
  O  O24  1  0.03751322  0.63806960  0.55864937  1
  O  O25  1  0.06406224  0.61527770  0.12277703  1
  O  O26  1  0.06384913  0.90863680  0.82066162  1
  O  O27  1  0.06850163  0.81492894  0.40419527  1
  O  O28  1  0.09187219  0.12163061  0.43284863  1
  O  O29  1  0.12652514  0.28763101  0.17302735  1
  O  O30  1  0.14095062  0.08303501  0.03788412  1
  O  O31  1  0.14365058  0.51419701  0.77189510  1
  O  O32  1  0.17844732  0.30926980  0.56375596  1
  O  O33  1  0.16558644  0.24474756  0.81284418  1
  O  O34  1  0.19145948  0.43240745  0.95704164  1
  O  O35  1  0.20466023  0.02759071  0.22573587  1
  O  O36  1  0.29533977  0.52759071  0.27426413  1
  O  O37  1  0.30854052  0.93240745  0.54295836  1
  O  O38  1  0.33441356  0.74474756  0.68715582  1
  O  O39  1  0.32155268  0.80926980  0.93624404  1
  O  O40  1  0.35904938  0.58303501  0.46211588  1
  O  O41  1  0.35634942  0.01419701  0.72810490  1
  O  O42  1  0.37347486  0.78763101  0.32697265  1
  O  O43  1  0.40812781  0.62163061  0.06715137  1
  O  O44  1  0.43149837  0.31492894  0.09580473  1
  O  O45  1  0.43593776  0.11527770  0.37722297  1
  O  O46  1  0.43615087  0.40863680  0.67933838  1
  O  O47  1  0.46248678  0.13806960  0.94135063  1
  O  O48  1  0.53751322  0.86193040  0.05864937  1
  O  O49  1  0.56384913  0.59136320  0.32066162  1
  O  O50  1  0.56406224  0.88472230  0.62277703  1
  O  O51  1  0.56850163  0.68507106  0.90419527  1
  O  O52  1  0.59187219  0.37836939  0.93284863  1
  O  O53  1  0.62652514  0.21236899  0.67302735  1
  O  O54  1  0.64365058  0.98580299  0.27189510  1
  O  O55  1  0.64095062  0.41696499  0.53788412  1
  O  O56  1  0.67844732  0.19073020  0.06375596  1
  O  O57  1  0.66558644  0.25525244  0.31284418  1
  O  O58  1  0.69145948  0.06759255  0.45704164  1
  O  O59  1  0.70466023  0.47240929  0.72573587  1
  O  O60  1  0.79533977  0.97240929  0.77426413  1
  O  O61  1  0.80854052  0.56759255  0.04295836  1
  O  O62  1  0.83441356  0.75525244  0.18715582  1
  O  O63  1  0.82155268  0.69073020  0.43624404  1
  O  O64  1  0.85634942  0.48580299  0.22810490  1
  O  O65  1  0.85904938  0.91696499  0.96211588  1
  O  O66  1  0.87347486  0.71236899  0.82697265  1
  O  O67  1  0.90812781  0.87836939  0.56715137  1
  O  O68  1  0.93149837  0.18507106  0.59580473  1
  O  O69  1  0.93615087  0.09136320  0.17933838  1
  O  O70  1  0.93593776  0.38472230  0.87722297  1
  O  O71  1  0.96248678  0.36193040  0.44135063  1
