# generated using pymatgen
data_Li2FePCO7
_symmetry_space_group_name_H-M   'P 1'
_cell_length_a   5.07340241
_cell_length_b   12.83393652
_cell_length_c   8.45584857
_cell_angle_alpha   94.48551746
_cell_angle_beta   95.52513926
_cell_angle_gamma   93.64364106
_symmetry_Int_Tables_number   1
_chemical_formula_structural   Li2FePCO7
_chemical_formula_sum   'Li8 Fe4 P4 C4 O28'
_cell_volume   544.93496912
_cell_formula_units_Z   4
loop_
 _symmetry_equiv_pos_site_id
 _symmetry_equiv_pos_as_xyz
  1  'x, y, z'
loop_
 _atom_site_type_symbol
 _atom_site_label
 _atom_site_symmetry_multiplicity
 _atom_site_fract_x
 _atom_site_fract_y
 _atom_site_fract_z
 _atom_site_occupancy
  Li  Li0  1  0.28282161  0.51330556  0.71659792  1
  Li  Li1  1  0.24394200  0.69759668  0.05602889  1
  Li  Li2  1  0.31959921  0.01963905  0.72581383  1
  Li  Li3  1  0.40049374  0.28705709  0.75530606  1
  Li  Li4  1  0.81046072  0.89331486  0.89314636  1
  Li  Li5  1  0.65268137  0.30372400  0.19371555  1
  Li  Li6  1  0.73509473  0.57099338  0.22284406  1
  Li  Li7  1  0.77057862  0.07777661  0.23258376  1
  Fe  Fe8  1  0.22585039  0.91807625  0.31868670  1
  Fe  Fe9  1  0.20403821  0.41844851  0.31382093  1
  Fe  Fe10  1  0.82876106  0.67275070  0.63044861  1
  Fe  Fe11  1  0.84938108  0.17234023  0.63525062  1
  P  P12  1  0.28847523  0.67350665  0.39099963  1
  P  P13  1  0.31159597  0.17377021  0.39967974  1
  P  P14  1  0.76655232  0.91724761  0.55797528  1
  P  P15  1  0.74150304  0.41711785  0.54936905  1
  C  C16  1  0.35712429  0.93720631  0.03840945  1
  C  C17  1  0.27828303  0.41744373  0.02504402  1
  C  C18  1  0.69727004  0.65397899  0.91103138  1
  C  C19  1  0.77398404  0.17320582  0.92407483  1
  O  O20  1  0.10897089  0.91260248  0.05994805  1
  O  O21  1  0.16723362  0.70157040  0.54670135  1
  O  O22  1  0.13461421  0.57444299  0.29734651  1
  O  O23  1  0.04651778  0.40353942  0.07571861  1
  O  O24  1  0.20291022  0.20640593  0.56212890  1
  O  O25  1  0.14403984  0.07542060  0.32022438  1
  O  O26  1  0.26804022  0.76266507  0.27684150  1
  O  O27  1  0.44217756  0.93849274  0.90145314  1
  O  O28  1  0.30127766  0.26549190  0.29214767  1
  O  O29  1  0.32243111  0.41354573  0.87973785  1
  O  O30  1  0.46832567  0.93991619  0.52295886  1
  O  O31  1  0.53780211  0.63532348  0.77945744  1
  O  O32  1  0.44501779  0.44364827  0.51807314  1
  O  O33  1  0.57635659  0.15500076  0.80589288  1
  O  O34  1  0.51644507  0.95566361  0.16999181  1
  O  O35  1  0.58682204  0.65094009  0.42599112  1
  O  O36  1  0.47660443  0.43545459  0.14260636  1
  O  O37  1  0.60820042  0.14735479  0.43101114  1
  O  O38  1  0.61258870  0.65290622  0.04796828  1
  O  O39  1  0.78684546  0.82819501  0.67236960  1
  O  O40  1  0.72903702  0.17709404  0.06887324  1
  O  O41  1  0.75144178  0.32529508  0.65680427  1
  O  O42  1  0.88772261  0.88886188  0.40243996  1
  O  O43  1  0.94546083  0.67846113  0.88919787  1
  O  O44  1  0.90926084  0.51538969  0.62900245  1
  O  O45  1  0.85019026  0.38459394  0.38692711  1
  O  O46  1  0.00614955  0.18736254  0.87361445  1
  O  O47  1  0.92053004  0.01641736  0.65135940  1
