# generated using pymatgen
data_Cr2(SO4)3
_symmetry_space_group_name_H-M   'P 1'
_cell_length_a   8.27805559
_cell_length_b   11.72951426
_cell_length_c   8.62799908
_cell_angle_alpha   90.00000000
_cell_angle_beta   90.00000000
_cell_angle_gamma   90.63070348
_symmetry_Int_Tables_number   1
_chemical_formula_structural   Cr2(SO4)3
_chemical_formula_sum   'Cr8 S12 O48'
_cell_volume   837.70699774
_cell_formula_units_Z   4
loop_
 _symmetry_equiv_pos_site_id
 _symmetry_equiv_pos_as_xyz
  1  'x, y, z'
loop_
 _atom_site_type_symbol
 _atom_site_label
 _atom_site_symmetry_multiplicity
 _atom_site_fract_x
 _atom_site_fract_y
 _atom_site_fract_z
 _atom_site_occupancy
  Cr  Cr0  1  0.25128500  0.88818266  0.03034901  1
  Cr  Cr1  1  0.24871500  0.61181734  0.53034901  1
  Cr  Cr2  1  0.25231656  0.38463969  0.96696033  1
  Cr  Cr3  1  0.24768344  0.11536031  0.46696033  1
  Cr  Cr4  1  0.75231656  0.88463969  0.53303967  1
  Cr  Cr5  1  0.74768344  0.61536031  0.03303967  1
  Cr  Cr6  1  0.75128500  0.38818266  0.46965099  1
  Cr  Cr7  1  0.74871500  0.11181734  0.96965099  1
  S  S8  1  0.03962325  0.49246985  0.24757418  1
  S  S9  1  0.10708473  0.84905453  0.38017310  1
  S  S10  1  0.11512282  0.14543849  0.11310013  1
  S  S11  1  0.39291527  0.65094547  0.88017310  1
  S  S12  1  0.38487718  0.35456151  0.61310013  1
  S  S13  1  0.46037675  0.00753015  0.74757418  1
  S  S14  1  0.53962325  0.99246985  0.25242582  1
  S  S15  1  0.61512282  0.64543849  0.38689987  1
  S  S16  1  0.60708473  0.34905453  0.11982690  1
  S  S17  1  0.88487718  0.85456151  0.88689987  1
  S  S18  1  0.89291527  0.15094547  0.61982690  1
  S  S19  1  0.96037675  0.50753015  0.75242582  1
  O  O20  1  0.05389072  0.44715782  0.87132637  1
  O  O21  1  0.05390701  0.89859330  0.88627101  1
  O  O22  1  0.05544421  0.60111925  0.67798708  1
  O  O23  1  0.05869216  0.18604636  0.57427113  1
  O  O24  1  0.09359317  0.58000572  0.36019722  1
  O  O25  1  0.11938531  0.83100678  0.21012262  1
  O  O26  1  0.13220992  0.97075470  0.41578944  1
  O  O27  1  0.12535434  0.24174538  0.00324730  1
  O  O28  1  0.16212623  0.18503639  0.26989379  1
  O  O29  1  0.18479478  0.44139833  0.17634687  1
  O  O30  1  0.22639526  0.78015404  0.46704863  1
  O  O31  1  0.27360474  0.71984596  0.96704863  1
  O  O32  1  0.22924088  0.05574618  0.06235368  1
  O  O33  1  0.27075912  0.44425382  0.56235368  1
  O  O34  1  0.31520522  0.05860167  0.67634687  1
  O  O35  1  0.33787377  0.31496361  0.76989379  1
  O  O36  1  0.36779008  0.52924530  0.91578944  1
  O  O37  1  0.37464566  0.25825462  0.50324730  1
  O  O38  1  0.38061469  0.66899322  0.71012262  1
  O  O39  1  0.40640683  0.91999428  0.86019722  1
  O  O40  1  0.44455579  0.89888075  0.17798708  1
  O  O41  1  0.44609299  0.60140670  0.38627101  1
  O  O42  1  0.44130784  0.31395364  0.07427113  1
  O  O43  1  0.44610928  0.05284218  0.37132637  1
  O  O44  1  0.55389072  0.94715782  0.62867363  1
  O  O45  1  0.55869216  0.68604636  0.92572887  1
  O  O46  1  0.55390701  0.39859330  0.61372899  1
  O  O47  1  0.55544421  0.10111925  0.82201292  1
  O  O48  1  0.59359317  0.08000572  0.13980278  1
  O  O49  1  0.61938531  0.33100678  0.28987738  1
  O  O50  1  0.62535434  0.74174538  0.49675270  1
  O  O51  1  0.63220992  0.47075470  0.08421056  1
  O  O52  1  0.66212623  0.68503639  0.23010621  1
  O  O53  1  0.68479478  0.94139833  0.32365313  1
  O  O54  1  0.72924088  0.55574618  0.43764632  1
  O  O55  1  0.77075912  0.94425382  0.93764632  1
  O  O56  1  0.72639526  0.28015404  0.03295137  1
  O  O57  1  0.77360474  0.21984596  0.53295137  1
  O  O58  1  0.81520522  0.55860167  0.82365313  1
  O  O59  1  0.83787377  0.81496361  0.73010621  1
  O  O60  1  0.87464566  0.75825462  0.99675270  1
  O  O61  1  0.86779008  0.02924530  0.58421056  1
  O  O62  1  0.88061469  0.16899322  0.78987738  1
  O  O63  1  0.90640683  0.41999428  0.63980278  1
  O  O64  1  0.94130784  0.81395364  0.42572887  1
  O  O65  1  0.94455579  0.39888075  0.32201292  1
  O  O66  1  0.94609299  0.10140670  0.11372899  1
  O  O67  1  0.94610928  0.55284218  0.12867363  1
