# generated using pymatgen
data_Li5Mn3(PO4)4
_symmetry_space_group_name_H-M   'P 1'
_cell_length_a   4.78212547
_cell_length_b   10.50438871
_cell_length_c   6.02267181
_cell_angle_alpha   90.00000000
_cell_angle_beta   90.00000000
_cell_angle_gamma   90.50516155
_symmetry_Int_Tables_number   1
_chemical_formula_structural   Li5Mn3(PO4)4
_chemical_formula_sum   'Li5 Mn3 P4 O16'
_cell_volume   302.52695023
_cell_formula_units_Z   1
loop_
 _symmetry_equiv_pos_site_id
 _symmetry_equiv_pos_as_xyz
  1  'x, y, z'
loop_
 _atom_site_type_symbol
 _atom_site_label
 _atom_site_symmetry_multiplicity
 _atom_site_fract_x
 _atom_site_fract_y
 _atom_site_fract_z
 _atom_site_occupancy
  Li  Li0  1  0.99678945  0.00936962  0.00713054  1
  Li  Li1  1  0.99678945  0.00936962  0.49286946  1
  Li  Li2  1  0.49725871  0.49410665  0.49394660  1
  Li  Li3  1  0.49725871  0.49410665  0.00605340  1
  Li  Li4  1  0.97582345  0.27974563  0.25000000  1
  Mn  Mn5  1  0.01892434  0.72133553  0.75000000  1
  Mn  Mn6  1  0.49257722  0.22342223  0.75000000  1
  Mn  Mn7  1  0.51516113  0.78160482  0.25000000  1
  P  P8  1  0.08614441  0.59079799  0.25000000  1
  P  P9  1  0.42124911  0.09446725  0.25000000  1
  P  P10  1  0.58923260  0.90785736  0.75000000  1
  P  P11  1  0.90704582  0.40525938  0.75000000  1
  O  O12  1  0.20168719  0.45498881  0.25000000  1
  O  O13  1  0.22352428  0.66411170  0.04669198  1
  O  O14  1  0.22352428  0.66411170  0.45330802  1
  O  O15  1  0.22754422  0.40225337  0.75000000  1
  O  O16  1  0.26935191  0.90263267  0.75000000  1
  O  O17  1  0.29068107  0.16236827  0.04099732  1
  O  O18  1  0.29068107  0.16236827  0.45900268  1
  O  O19  1  0.28778063  0.95735404  0.25000000  1
  O  O20  1  0.71446173  0.04425521  0.75000000  1
  O  O21  1  0.72399803  0.83598524  0.54691271  1
  O  O22  1  0.72399803  0.83598524  0.95308729  1
  O  O23  1  0.74007530  0.09329495  0.25000000  1
  O  O24  1  0.76537170  0.59914019  0.25000000  1
  O  O25  1  0.76703146  0.33350939  0.54826557  1
  O  O26  1  0.76703146  0.33350939  0.95173443  1
  O  O27  1  0.78900325  0.54268884  0.75000000  1
