# generated using pymatgen
data_Na5LiNi2P2(CO7)2
_symmetry_space_group_name_H-M   'P 1'
_cell_length_a   8.73191249
_cell_length_b   5.15387484
_cell_length_c   6.70781828
_cell_angle_alpha   90.00000000
_cell_angle_beta   90.00000000
_cell_angle_gamma   87.76701631
_symmetry_Int_Tables_number   1
_chemical_formula_structural   Na5LiNi2P2(CO7)2
_chemical_formula_sum   'Na5 Li1 Ni2 P2 C2 O14'
_cell_volume   301.64395418
_cell_formula_units_Z   1
loop_
 _symmetry_equiv_pos_site_id
 _symmetry_equiv_pos_as_xyz
  1  'x, y, z'
loop_
 _atom_site_type_symbol
 _atom_site_label
 _atom_site_symmetry_multiplicity
 _atom_site_fract_x
 _atom_site_fract_y
 _atom_site_fract_z
 _atom_site_occupancy
  Na  Na0  1  0.27309531  0.25853154  0.00920146  1
  Na  Na1  1  0.27309531  0.25853154  0.49079854  1
  Na  Na2  1  0.72609503  0.74080718  0.50789563  1
  Na  Na3  1  0.72609503  0.74080718  0.99210437  1
  Na  Na4  1  0.91570205  0.22393362  0.75000000  1
  Li  Li5  1  0.09512963  0.76925995  0.25000000  1
  Ni  Ni6  1  0.34220615  0.77770282  0.75000000  1
  Ni  Ni7  1  0.65595641  0.22057717  0.25000000  1
  P  P8  1  0.41177434  0.72038385  0.25000000  1
  P  P9  1  0.58349627  0.27888322  0.75000000  1
  C  C10  1  0.05993082  0.71089883  0.75000000  1
  C  C11  1  0.94460841  0.29126702  0.25000000  1
  O  O12  1  0.08611707  0.35216809  0.25000000  1
  O  O13  1  0.11734834  0.93956547  0.75000000  1
  O  O14  1  0.15643550  0.51156746  0.75000000  1
  O  O15  1  0.30824325  0.79242796  0.06748499  1
  O  O16  1  0.30824325  0.79242796  0.43251501  1
  O  O17  1  0.43103387  0.13851800  0.75000000  1
  O  O18  1  0.45043100  0.42257961  0.25000000  1
  O  O19  1  0.54803195  0.57819504  0.75000000  1
  O  O20  1  0.56402147  0.86259375  0.25000000  1
  O  O21  1  0.68384393  0.20560648  0.56501469  1
  O  O22  1  0.68384393  0.20560648  0.93498531  1
  O  O23  1  0.83711451  0.47448948  0.25000000  1
  O  O24  1  0.90358369  0.05094027  0.25000000  1
  O  O25  1  0.91452646  0.68173005  0.75000000  1
