# generated using pymatgen
data_Sm(ClO4)3
_symmetry_space_group_name_H-M   'P 1'
_cell_length_a   9.38205876
_cell_length_b   9.38208497
_cell_length_c   5.82014455
_cell_angle_alpha   90.00000000
_cell_angle_beta   90.00000000
_cell_angle_gamma   119.99996962
_symmetry_Int_Tables_number   1
_chemical_formula_structural   Sm(ClO4)3
_chemical_formula_sum   'Sm2 Cl6 O24'
_cell_volume   443.67202543
_cell_formula_units_Z   2
loop_
 _symmetry_equiv_pos_site_id
 _symmetry_equiv_pos_as_xyz
  1  'x, y, z'
loop_
 _atom_site_type_symbol
 _atom_site_label
 _atom_site_symmetry_multiplicity
 _atom_site_fract_x
 _atom_site_fract_y
 _atom_site_fract_z
 _atom_site_occupancy
  Sm  Sm0  1  0.33336739  0.66667995  0.75000000  1
  Sm  Sm1  1  0.66668732  0.33332057  0.25000000  1
  Cl  Cl2  1  0.09072705  0.70911652  0.25000000  1
  Cl  Cl3  1  0.29088967  0.38161152  0.25000000  1
  Cl  Cl4  1  0.61839666  0.90927736  0.25000000  1
  Cl  Cl5  1  0.38160900  0.09072539  0.75000000  1
  Cl  Cl6  1  0.70911756  0.61838938  0.75000000  1
  Cl  Cl7  1  0.90928339  0.29088824  0.75000000  1
  O  O8  1  0.01976777  0.81153776  0.25000000  1
  O  O9  1  0.03252391  0.46744857  0.75000000  1
  O  O10  1  0.19588664  0.74257149  0.04647346  1
  O  O11  1  0.19588664  0.74257149  0.45352654  1
  O  O12  1  0.43492896  0.96747959  0.75000000  1
  O  O13  1  0.25742907  0.45331595  0.45352462  1
  O  O14  1  0.25742907  0.45331595  0.04647538  1
  O  O15  1  0.18845967  0.20822956  0.25000000  1
  O  O16  1  0.54669228  0.80411557  0.04647769  1
  O  O17  1  0.54669228  0.80411557  0.45352231  1
  O  O18  1  0.20822849  0.01976772  0.75000000  1
  O  O19  1  0.46744946  0.43492496  0.25000000  1
  O  O20  1  0.53255329  0.56507264  0.75000000  1
  O  O21  1  0.79177538  0.98023552  0.25000000  1
  O  O22  1  0.45331398  0.19588539  0.54647400  1
  O  O23  1  0.45331398  0.19588539  0.95352600  1
  O  O24  1  0.81153794  0.79177041  0.75000000  1
  O  O25  1  0.74257200  0.54668501  0.95352577  1
  O  O26  1  0.74257200  0.54668501  0.54647423  1
  O  O27  1  0.56507078  0.03251740  0.25000000  1
  O  O28  1  0.80411395  0.25742467  0.95352227  1
  O  O29  1  0.80411395  0.25742467  0.54647773  1
  O  O30  1  0.96747930  0.53255192  0.25000000  1
  O  O31  1  0.98023318  0.18845987  0.75000000  1
