# generated using pymatgen
data_Li24Mn7Cr5O36
_symmetry_space_group_name_H-M   'P 1'
_cell_length_a   5.01502439
_cell_length_b   13.27839337
_cell_length_c   9.74686046
_cell_angle_alpha   97.20789649
_cell_angle_beta   94.77815901
_cell_angle_gamma   100.76348899
_symmetry_Int_Tables_number   1
_chemical_formula_structural   Li24Mn7Cr5O36
_chemical_formula_sum   'Li24 Mn7 Cr5 O36'
_cell_volume   628.79508449
_cell_formula_units_Z   1
loop_
 _symmetry_equiv_pos_site_id
 _symmetry_equiv_pos_as_xyz
  1  'x, y, z'
loop_
 _atom_site_type_symbol
 _atom_site_label
 _atom_site_symmetry_multiplicity
 _atom_site_fract_x
 _atom_site_fract_y
 _atom_site_fract_z
 _atom_site_occupancy
  Li  Li0  1  0.83487106  0.16535296  0.00024006  1
  Li  Li1  1  0.95251809  0.38639288  0.99924873  1
  Li  Li2  1  0.99876225  0.74979998  0.24981361  1
  Li  Li3  1  0.67054788  0.08254415  0.24933601  1
  Li  Li4  1  0.95061101  0.88809147  0.50117083  1
  Li  Li5  1  0.62146740  0.22294960  0.50038052  1
  Li  Li6  1  0.83494544  0.66714559  0.50055403  1
  Li  Li7  1  0.49795449  0.99900715  0.49997622  1
  Li  Li8  1  0.72097087  0.44481114  0.49977440  1
  Li  Li9  1  0.67050024  0.58428537  0.74938520  1
  Li  Li10  1  0.49416761  0.50111753  0.00097786  1
  Li  Li11  1  0.71819402  0.94667627  -0.00002264  1
  Li  Li12  1  0.38060636  0.28012273  0.00001459  1
  Li  Li13  1  0.62026466  0.72136821  0.00109250  1
  Li  Li14  1  0.28115696  0.05266922  0.99918736  1
  Li  Li15  1  0.33094322  0.41617718  0.25122017  1
  Li  Li16  1  0.28066747  0.55361017  0.49930840  1
  Li  Li17  1  0.16392717  0.33312133  0.49933675  1
  Li  Li18  1  0.38067943  0.77877018  0.49783117  1
  Li  Li19  1  0.04687398  0.11247552  0.50071344  1
  Li  Li20  1  0.33530020  0.91672779  0.75092931  1
  Li  Li21  1  0.16762090  0.83311814  0.99976818  1
  Li  Li22  1  0.00195313  0.25044402  0.74993171  1
  Li  Li23  1  0.04743795  0.61370420  0.00172320  1
  Mn  Mn24  1  0.89052700  0.02691185  0.75092408  1
  Mn  Mn25  1  0.78193413  0.30599414  0.25277359  1
  Mn  Mn26  1  0.77994580  0.80660583  0.75159647  1
  Mn  Mn27  1  0.55518829  0.86117940  0.25022306  1
  Mn  Mn28  1  0.44285106  0.64001169  0.24850617  1
  Mn  Mn29  1  0.10615854  0.47170287  0.74820309  1
  Mn  Mn30  1  0.10751826  0.97126574  0.24860884  1
  Cr  Cr31  1  0.88267916  0.52638935  0.24975591  1
  Cr  Cr32  1  0.55328188  0.36336746  0.74859305  1
  Cr  Cr33  1  0.44927936  0.13905220  0.75072227  1
  Cr  Cr34  1  0.23032859  0.19283089  0.24950104  1
  Cr  Cr35  1  0.22963809  0.69400781  0.74973871  1
  O  O36  1  0.99680325  0.06821589  0.13635716  1
  O  O37  1  0.92936576  0.21432995  0.36357011  1
  O  O38  1  0.99437399  0.56888645  0.63588168  1
  O  O39  1  0.86230756  0.35679977  0.63715248  1
  O  O40  1  0.73553452  0.11654840  0.63577393  1
  O  O41  1  0.67197781  0.40499073  0.13845010  1
  O  O42  1  0.92925252  0.71526944  0.86412033  1
  O  O43  1  0.80747241  0.47488913  0.86171082  1
  O  O44  1  0.59925517  0.04729090  0.86477780  1
  O  O45  1  0.85571955  0.85651111  0.13864432  1
  O  O46  1  0.73186494  0.61981389  0.13396774  1
  O  O47  1  0.52139847  0.19123808  0.13861475  1
  O  O48  1  0.65867230  0.26119210  0.86219760  1
  O  O49  1  0.80860784  0.97634227  0.36168733  1
  O  O50  1  0.60143412  0.55011774  0.36309294  1
  O  O51  1  0.48389013  0.31197300  0.36295613  1
  O  O52  1  0.66676865  0.76236293  0.36153890  1
  O  O53  1  0.32777108  0.09595454  0.36164927  1
  O  O54  1  0.66592160  0.90432108  0.63850548  1
  O  O55  1  0.33796453  0.23982988  0.63694397  1
  O  O56  1  0.52228480  0.69138843  0.63810552  1
  O  O57  1  0.40284547  0.45215000  0.63655236  1
  O  O58  1  0.18885698  0.02452772  0.63756688  1
  O  O59  1  0.33120704  0.73866520  0.13803489  1
  O  O60  1  0.48312270  0.81119595  0.86336076  1
  O  O61  1  0.25763183  0.38292946  0.86554199  1
  O  O62  1  0.14045028  0.14207105  0.86261323  1
  O  O63  1  0.40276382  0.95200248  0.13697860  1
  O  O64  1  0.19017320  0.52470473  0.13804922  1
  O  O65  1  0.06947415  0.28395745  0.13626742  1
  O  O66  1  0.32727702  0.59635992  0.86139558  1
  O  O67  1  0.26304921  0.88154953  0.36401534  1
  O  O68  1  0.14508837  0.64260769  0.36194600  1
  O  O69  1  0.00450866  0.42687540  0.36288923  1
  O  O70  1  0.06830343  0.78379101  0.63624010  1
  O  O71  1  0.00433888  0.92854466  0.86181318  1
