# generated using pymatgen
data_Tm2P4O13
_symmetry_space_group_name_H-M   'P 1'
_cell_length_a   8.76291632
_cell_length_b   9.55392950
_cell_length_c   13.86195530
_cell_angle_alpha   90.00000000
_cell_angle_beta   106.23434063
_cell_angle_gamma   90.00000000
_symmetry_Int_Tables_number   1
_chemical_formula_structural   Tm2P4O13
_chemical_formula_sum   'Tm8 P16 O52'
_cell_volume   1114.25234356
_cell_formula_units_Z   4
loop_
 _symmetry_equiv_pos_site_id
 _symmetry_equiv_pos_as_xyz
  1  'x, y, z'
loop_
 _atom_site_type_symbol
 _atom_site_label
 _atom_site_symmetry_multiplicity
 _atom_site_fract_x
 _atom_site_fract_y
 _atom_site_fract_z
 _atom_site_occupancy
  Tm  Tm0  1  0.02771793  0.00347535  0.72136310  1
  Tm  Tm1  1  0.02771793  0.49652465  0.22136310  1
  Tm  Tm2  1  0.44652597  0.99859163  0.73745878  1
  Tm  Tm3  1  0.55347403  0.49859163  0.76254122  1
  Tm  Tm4  1  0.44652597  0.50140837  0.23745878  1
  Tm  Tm5  1  0.55347403  0.00140837  0.26254122  1
  Tm  Tm6  1  0.97228207  0.50347535  0.77863690  1
  Tm  Tm7  1  0.97228207  0.99652465  0.27863690  1
  P  P8  1  0.14534891  0.24000702  0.93687347  1
  P  P9  1  0.28788198  0.73025456  0.84607287  1
  P  P10  1  0.21643444  0.29489489  0.65722984  1
  P  P11  1  0.14534891  0.25999298  0.43687347  1
  P  P12  1  0.49584416  0.24978050  0.93951896  1
  P  P13  1  0.28788198  0.76974544  0.34607287  1
  P  P14  1  0.21643444  0.20510511  0.15722984  1
  P  P15  1  0.50415584  0.74978050  0.56048104  1
  P  P16  1  0.49584416  0.25021950  0.43951896  1
  P  P17  1  0.78356556  0.79489489  0.84277016  1
  P  P18  1  0.71211802  0.23025456  0.65392713  1
  P  P19  1  0.50415584  0.75021950  0.06048104  1
  P  P20  1  0.85465109  0.74000702  0.56312653  1
  P  P21  1  0.78356556  0.70510511  0.34277016  1
  P  P22  1  0.71211802  0.26974544  0.15392713  1
  P  P23  1  0.85465109  0.75999298  0.06312653  1
  O  O24  1  0.03991510  0.36728680  0.91182479  1
  O  O25  1  0.11046116  0.12129386  0.86260915  1
  O  O26  1  0.13777783  0.66320083  0.85833624  1
  O  O27  1  0.11878836  0.37107547  0.71491617  1
  O  O28  1  0.03991510  0.13271320  0.41182479  1
  O  O29  1  0.12921437  0.32327058  0.54008726  1
  O  O30  1  0.32802580  0.29437772  0.95996645  1
  O  O31  1  0.25246122  0.86494900  0.77989852  1
  O  O32  1  0.21922241  0.13274975  0.67305505  1
  O  O33  1  0.11046116  0.37870614  0.36260915  1
  O  O34  1  0.39191756  0.79241597  0.95317783  1
  O  O35  1  0.13777783  0.83679917  0.35833624  1
  O  O36  1  0.11878836  0.12892453  0.21491617  1
  O  O37  1  0.39015075  0.62770773  0.80865444  1
  O  O38  1  0.47014819  0.11965887  0.87597473  1
  O  O39  1  0.38399011  0.35180537  0.67647008  1
  O  O40  1  0.12921437  0.17672942  0.04008726  1
  O  O41  1  0.32802580  0.20562228  0.45996645  1
  O  O42  1  0.25246122  0.63505100  0.27989852  1
  O  O43  1  0.21922241  0.36725025  0.17305505  1
  O  O44  1  0.43592467  0.87550557  0.59955584  1
  O  O45  1  0.39191756  0.70758403  0.45317783  1
  O  O46  1  0.56407533  0.37550557  0.90044416  1
  O  O47  1  0.61600989  0.85180537  0.82352992  1
  O  O48  1  0.52985181  0.61965887  0.62402527  1
  O  O49  1  0.39015075  0.87229227  0.30865444  1
  O  O50  1  0.60984925  0.12770773  0.69134556  1
  O  O51  1  0.47014819  0.38034113  0.37597473  1
  O  O52  1  0.38399011  0.14819463  0.17647008  1
  O  O53  1  0.43592467  0.62449443  0.09955584  1
  O  O54  1  0.60808244  0.29241597  0.54682217  1
  O  O55  1  0.56407533  0.12449443  0.40044416  1
  O  O56  1  0.78077759  0.63274975  0.82694495  1
  O  O57  1  0.74753878  0.36494900  0.72010148  1
  O  O58  1  0.67197420  0.79437772  0.54003355  1
  O  O59  1  0.87078563  0.82327058  0.95991274  1
  O  O60  1  0.61600989  0.64819463  0.32352992  1
  O  O61  1  0.52985181  0.88034113  0.12402527  1
  O  O62  1  0.60984925  0.37229227  0.19134556  1
  O  O63  1  0.88121164  0.87107547  0.78508383  1
  O  O64  1  0.86222217  0.16320083  0.64166376  1
  O  O65  1  0.60808244  0.20758403  0.04682217  1
  O  O66  1  0.88953884  0.62129386  0.63739085  1
  O  O67  1  0.78077759  0.86725025  0.32694495  1
  O  O68  1  0.74753878  0.13505100  0.22010148  1
  O  O69  1  0.67197420  0.70562228  0.04003355  1
  O  O70  1  0.87078563  0.67672942  0.45991274  1
  O  O71  1  0.96008490  0.86728680  0.58817521  1
  O  O72  1  0.88121164  0.62892453  0.28508383  1
  O  O73  1  0.86222217  0.33679917  0.14166376  1
  O  O74  1  0.88953884  0.87870614  0.13739085  1
  O  O75  1  0.96008490  0.63271320  0.08817521  1
