# generated using pymatgen
data_Li24Mn7Cr5O36
_symmetry_space_group_name_H-M   'P 1'
_cell_length_a   5.01748570
_cell_length_b   13.25725832
_cell_length_c   9.74538432
_cell_angle_alpha   97.14662051
_cell_angle_beta   94.88923615
_cell_angle_gamma   100.72469838
_symmetry_Int_Tables_number   1
_chemical_formula_structural   Li24Mn7Cr5O36
_chemical_formula_sum   'Li24 Mn7 Cr5 O36'
_cell_volume   628.05571747
_cell_formula_units_Z   1
loop_
 _symmetry_equiv_pos_site_id
 _symmetry_equiv_pos_as_xyz
  1  'x, y, z'
loop_
 _atom_site_type_symbol
 _atom_site_label
 _atom_site_symmetry_multiplicity
 _atom_site_fract_x
 _atom_site_fract_y
 _atom_site_fract_z
 _atom_site_occupancy
  Li  Li0  1  0.82868244  0.16769510  0.00011366  1
  Li  Li1  1  0.95126303  0.38575838  0.00001767  1
  Li  Li2  1  0.99983647  0.74956889  0.25009934  1
  Li  Li3  1  0.66343404  0.08286715  0.25057121  1
  Li  Li4  1  0.95258851  0.88784948  0.50055943  1
  Li  Li5  1  0.61608191  0.22137594  0.50029124  1
  Li  Li6  1  0.83620134  0.66673979  0.49959432  1
  Li  Li7  1  0.49680762  0.00005669  0.49954874  1
  Li  Li8  1  0.71531962  0.44480745  0.49903208  1
  Li  Li9  1  0.66720912  0.58369807  0.74997999  1
  Li  Li10  1  0.49829147  0.50007699  0.00041068  1
  Li  Li11  1  0.71670105  0.94647248  0.00023293  1
  Li  Li12  1  0.38441048  0.28065844  0.00134583  1
  Li  Li13  1  0.61573711  0.71992730  0.00078347  1
  Li  Li14  1  0.28552732  0.05274130  0.99843433  1
  Li  Li15  1  0.33411520  0.41580039  0.24935072  1
  Li  Li16  1  0.28501103  0.55582337  0.50057150  1
  Li  Li17  1  0.16518365  0.33328171  0.50076395  1
  Li  Li18  1  0.37945320  0.77798948  0.49886496  1
  Li  Li19  1  0.05402302  0.11206035  0.50024765  1
  Li  Li20  1  0.33324442  0.91698197  0.75003029  1
  Li  Li21  1  0.16770174  0.83339870  0.99975733  1
  Li  Li22  1  0.00209328  0.25141099  0.74986607  1
  Li  Li23  1  0.04963623  0.61355892  0.99977110  1
  Mn  Mn24  1  0.77387970  0.30541928  0.24721356  1
  Mn  Mn25  1  0.44463393  0.13866914  0.74915966  1
  Mn  Mn26  1  0.55686412  0.86100973  0.24979413  1
  Mn  Mn27  1  0.44613009  0.64021057  0.25159026  1
  Mn  Mn28  1  0.22014047  0.69380231  0.74903733  1
  Mn  Mn29  1  0.11270411  0.47236253  0.75083257  1
  Mn  Mn30  1  0.11237908  0.97130276  0.25117776  1
  Cr  Cr31  1  0.89375872  0.03001228  0.75224757  1
  Cr  Cr32  1  0.89548051  0.52687097  0.24979536  1
  Cr  Cr33  1  0.77071736  0.80507655  0.74897749  1
  Cr  Cr34  1  0.56029477  0.36276574  0.75012927  1
  Cr  Cr35  1  0.21621231  0.19256144  0.25027849  1
  O  O36  1  0.00480101  0.07192727  0.13867801  1
  O  O37  1  0.93540944  0.21594637  0.36303230  1
  O  O38  1  0.99760486  0.57075824  0.63822366  1
  O  O39  1  0.86186309  0.35763760  0.63701106  1
  O  O40  1  0.73620185  0.11680446  0.63675883  1
  O  O41  1  0.66178630  0.40241922  0.13648976  1
  O  O42  1  0.93142697  0.71598949  0.86360276  1
  O  O43  1  0.81099514  0.47605490  0.86177885  1
  O  O44  1  0.59127273  0.04940299  0.86581478  1
  O  O45  1  0.85589538  0.85681721  0.13842170  1
  O  O46  1  0.73426248  0.61766088  0.13612601  1
  O  O47  1  0.52191673  0.19062777  0.13875714  1
  O  O48  1  0.66280283  0.26256763  0.86127045  1
  O  O49  1  0.81088726  0.97657058  0.36144300  1
  O  O50  1  0.59764065  0.54909910  0.36374093  1
  O  O51  1  0.47772203  0.30935716  0.36164073  1
  O  O52  1  0.66863376  0.76263782  0.36179752  1
  O  O53  1  0.33490230  0.09297140  0.36283936  1
  O  O54  1  0.67177898  0.90328483  0.63773841  1
  O  O55  1  0.33174851  0.23718007  0.63745264  1
  O  O56  1  0.52095135  0.68921828  0.63805372  1
  O  O57  1  0.40218641  0.44988641  0.63635519  1
  O  O58  1  0.19570967  0.02395857  0.63725863  1
  O  O59  1  0.33274879  0.73812746  0.13853957  1
  O  O60  1  0.47363979  0.80844093  0.86212448  1
  O  O61  1  0.25869697  0.38247831  0.86538145  1
  O  O62  1  0.14265099  0.14273699  0.86149621  1
  O  O63  1  0.40378611  0.95180972  0.13646996  1
  O  O64  1  0.18687756  0.52544696  0.13855490  1
  O  O65  1  0.06547446  0.28660785  0.13466450  1
  O  O66  1  0.33563345  0.59534531  0.86170367  1
  O  O67  1  0.26356308  0.88092480  0.36347693  1
  O  O68  1  0.14926508  0.64479703  0.36322883  1
  O  O69  1  0.99665387  0.42917645  0.36116604  1
  O  O70  1  0.07347803  0.78417900  0.63522254  1
  O  O71  1  0.99738565  0.93048431  0.86321152  1
