# generated using pymatgen
data_Ta3AgO8
_symmetry_space_group_name_H-M   'P 1'
_cell_length_a   15.47649528
_cell_length_b   5.26462179
_cell_length_c   7.76365344
_cell_angle_alpha   90.00000000
_cell_angle_beta   78.30547199
_cell_angle_gamma   90.00000000
_symmetry_Int_Tables_number   1
_chemical_formula_structural   Ta3AgO8
_chemical_formula_sum   'Ta12 Ag4 O32'
_cell_volume   619.43543577
_cell_formula_units_Z   4
loop_
 _symmetry_equiv_pos_site_id
 _symmetry_equiv_pos_as_xyz
  1  'x, y, z'
loop_
 _atom_site_type_symbol
 _atom_site_label
 _atom_site_symmetry_multiplicity
 _atom_site_fract_x
 _atom_site_fract_y
 _atom_site_fract_z
 _atom_site_occupancy
  Ta  Ta0  1  0.16535804  0.25902289  0.82499431  1
  Ta  Ta1  1  0.08368629  0.76192643  0.15906140  1
  Ta  Ta2  1  0.16511770  0.26487435  0.33468006  1
  Ta  Ta3  1  0.33464196  0.75902289  0.67500569  1
  Ta  Ta4  1  0.33488230  0.76487435  0.16531994  1
  Ta  Ta5  1  0.41631371  0.26192643  0.34093860  1
  Ta  Ta6  1  0.58368629  0.73807357  0.65906140  1
  Ta  Ta7  1  0.66511770  0.23512565  0.83468006  1
  Ta  Ta8  1  0.66535804  0.24097711  0.32499431  1
  Ta  Ta9  1  0.83488230  0.73512565  0.66531994  1
  Ta  Ta10  1  0.91631371  0.23807357  0.84093860  1
  Ta  Ta11  1  0.83464196  0.74097711  0.17500569  1
  Ag  Ag12  1  0.07798496  0.75944797  0.65366612  1
  Ag  Ag13  1  0.42201504  0.25944797  0.84633388  1
  Ag  Ag14  1  0.57798496  0.74055203  0.15366612  1
  Ag  Ag15  1  0.92201504  0.24055203  0.34633388  1
  O  O16  1  0.03485233  0.14768357  0.83263467  1
  O  O17  1  0.11041986  0.57527380  0.94131976  1
  O  O18  1  0.05855572  0.45767191  0.29761595  1
  O  O19  1  0.09869377  0.95691573  0.37688461  1
  O  O20  1  0.15699584  0.35244793  0.57059383  1
  O  O21  1  0.22540201  0.94250834  0.71556263  1
  O  O22  1  0.15461857  0.09062608  0.05685234  1
  O  O23  1  0.27459799  0.44250834  0.78443737  1
  O  O24  1  0.21820072  0.59583245  0.20601076  1
  O  O25  1  0.34300416  0.85244793  0.92940617  1
  O  O26  1  0.28179928  0.09583245  0.29398924  1
  O  O27  1  0.34538143  0.59062608  0.44314766  1
  O  O28  1  0.38958014  0.07527380  0.55868024  1
  O  O29  1  0.46514767  0.64768357  0.66736533  1
  O  O30  1  0.40130623  0.45691573  0.12311539  1
  O  O31  1  0.55855572  0.04232809  0.79761595  1
  O  O32  1  0.44144428  0.95767191  0.20238405  1
  O  O33  1  0.59869377  0.54308427  0.87688461  1
  O  O34  1  0.53485233  0.35231643  0.33263467  1
  O  O35  1  0.61041986  0.92472620  0.44131976  1
  O  O36  1  0.65461857  0.40937392  0.55685234  1
  O  O37  1  0.71820072  0.90416755  0.70601076  1
  O  O38  1  0.65699584  0.14755207  0.07059383  1
  O  O39  1  0.78179928  0.40416755  0.79398924  1
  O  O40  1  0.72540201  0.55749166  0.21556263  1
  O  O41  1  0.84538143  0.90937392  0.94314766  1
  O  O42  1  0.77459799  0.05749066  0.28443737  1
  O  O43  1  0.84300416  0.64755207  0.42940617  1
  O  O44  1  0.90130623  0.04308427  0.62311539  1
  O  O45  1  0.94144428  0.54232809  0.70238405  1
  O  O46  1  0.88958014  0.42472620  0.05868024  1
  O  O47  1  0.96514767  0.85231643  0.16736533  1
