# generated using pymatgen
data_Fe2As2PbO10
_symmetry_space_group_name_H-M   'P 1'
_cell_length_a   7.84169695
_cell_length_b   9.32688962
_cell_length_c   11.96307783
_cell_angle_alpha   90.00000000
_cell_angle_beta   90.00000000
_cell_angle_gamma   114.85865597
_symmetry_Int_Tables_number   1
_chemical_formula_structural   Fe2As2PbO10
_chemical_formula_sum   'Fe8 As8 Pb4 O40'
_cell_volume   793.89581252
_cell_formula_units_Z   4
loop_
 _symmetry_equiv_pos_site_id
 _symmetry_equiv_pos_as_xyz
  1  'x, y, z'
loop_
 _atom_site_type_symbol
 _atom_site_label
 _atom_site_symmetry_multiplicity
 _atom_site_fract_x
 _atom_site_fract_y
 _atom_site_fract_z
 _atom_site_occupancy
  Fe  Fe0  1  0.24328278  0.74993959  0.36955277  1
  Fe  Fe1  1  0.75671722  0.25006041  0.36955277  1
  Fe  Fe2  1  0.49334320  0.25006041  0.13044723  1
  Fe  Fe3  1  0.50665680  0.74993959  0.13044723  1
  Fe  Fe4  1  0.75671722  0.25006041  0.63044723  1
  Fe  Fe5  1  0.24328278  0.74993959  0.63044723  1
  Fe  Fe6  1  0.50665680  0.74993959  0.86955277  1
  Fe  Fe7  1  0.49334320  0.25006041  0.86955277  1
  As  As8  1  0.30837550  0.08048041  0.50000000  1
  As  As9  1  0.69162450  0.91951959  0.50000000  1
  As  As10  1  0.22789509  0.91951959  -0.00000000  1
  As  As11  1  0.77210491  0.08048041  -0.00000000  1
  As  As12  1  0.21168069  0.42336138  0.25000000  1
  As  As13  1  0.78831931  0.57663862  0.25000000  1
  As  As14  1  0.78831931  0.57663862  0.75000000  1
  As  As15  1  0.21168069  0.42336138  0.75000000  1
  Pb  Pb16  1  -0.00000000  -0.00000000  0.25000000  1
  Pb  Pb17  1  -0.00000000  -0.00000000  0.75000000  1
  Pb  Pb18  1  0.50000000  0.50000000  0.50000000  1
  Pb  Pb19  1  -0.00000000  0.50000000  -0.00000000  1
  O  O20  1  0.76931680  0.03894863  0.38270641  1
  O  O21  1  0.23068320  0.96105137  0.38270641  1
  O  O22  1  0.73036817  0.96105137  0.11729359  1
  O  O23  1  0.26963183  0.03894863  0.11729359  1
  O  O24  1  0.23068320  0.96105137  0.61729359  1
  O  O25  1  0.76931680  0.03894863  0.61729359  1
  O  O26  1  0.26963183  0.03894863  0.88270641  1
  O  O27  1  0.73036817  0.96105137  0.88270641  1
  O  O28  1  0.62024484  0.17450415  -0.00000000  1
  O  O29  1  0.37975516  0.82549585  -0.00000000  1
  O  O30  1  0.44574069  0.82549585  0.50000000  1
  O  O31  1  0.55425931  0.17450415  0.50000000  1
  O  O32  1  0.22777456  0.22249917  0.50000000  1
  O  O33  1  0.77222544  0.77750083  0.50000000  1
  O  O34  1  0.00527539  0.77750083  -0.00000000  1
  O  O35  1  0.99472461  0.22249917  -0.00000000  1
  O  O36  1  0.97521682  0.30454584  0.25672956  1
  O  O37  1  0.02478318  0.69545416  0.25672956  1
  O  O38  1  0.67067097  0.69545416  0.24327044  1
  O  O39  1  0.32932903  0.30454584  0.24327044  1
  O  O40  1  0.02478318  0.69545416  0.74327044  1
  O  O41  1  0.97521682  0.30454584  0.74327044  1
  O  O42  1  0.32932903  0.30454584  0.75672956  1
  O  O43  1  0.67067097  0.69545416  0.75672956  1
  O  O44  1  0.28147320  0.54736299  0.36535429  1
  O  O45  1  0.71852680  0.45263701  0.36535429  1
  O  O46  1  0.73411020  0.45263701  0.13464571  1
  O  O47  1  0.26588980  0.54736299  0.13464571  1
  O  O48  1  0.71852680  0.45263701  0.63464571  1
  O  O49  1  0.28147320  0.54736299  0.63464571  1
  O  O50  1  0.26588980  0.54736299  0.86535429  1
  O  O51  1  0.73411020  0.45263701  0.86535429  1
  O  O52  1  0.90129076  0.32144143  0.50000000  1
  O  O53  1  0.09870924  0.67855857  0.50000000  1
  O  O54  1  0.57984933  0.67855857  -0.00000000  1
  O  O55  1  0.42015067  0.32144143  -0.00000000  1
  O  O56  1  0.41285379  0.82570758  0.25000000  1
  O  O57  1  0.58714621  0.17429242  0.25000000  1
  O  O58  1  0.58714621  0.17429242  0.75000000  1
  O  O59  1  0.41285379  0.82570758  0.75000000  1
