# generated using pymatgen
data_Li24Mn7Cr5O36
_symmetry_space_group_name_H-M   'P 1'
_cell_length_a   5.00582004
_cell_length_b   13.27877842
_cell_length_c   9.74171271
_cell_angle_alpha   97.20807832
_cell_angle_beta   94.71588606
_cell_angle_gamma   100.67776970
_symmetry_Int_Tables_number   1
_chemical_formula_structural   Li24Mn7Cr5O36
_chemical_formula_sum   'Li24 Mn7 Cr5 O36'
_cell_volume   627.59716115
_cell_formula_units_Z   1
loop_
 _symmetry_equiv_pos_site_id
 _symmetry_equiv_pos_as_xyz
  1  'x, y, z'
loop_
 _atom_site_type_symbol
 _atom_site_label
 _atom_site_symmetry_multiplicity
 _atom_site_fract_x
 _atom_site_fract_y
 _atom_site_fract_z
 _atom_site_occupancy
  Li  Li0  1  0.83523507  0.16635894  0.99967432  1
  Li  Li1  1  0.94861882  0.38581887  0.99955213  1
  Li  Li2  1  0.00018676  0.74945697  0.25038587  1
  Li  Li3  1  0.66818974  0.08246678  0.24975104  1
  Li  Li4  1  0.95167273  0.88821599  0.49955600  1
  Li  Li5  1  0.61976353  0.22326136  0.50020956  1
  Li  Li6  1  0.83319863  0.66642331  0.49977223  1
  Li  Li7  1  0.49940191  0.99936181  0.49947469  1
  Li  Li8  1  0.71398203  0.44441856  0.49953565  1
  Li  Li9  1  0.66703384  0.58469336  0.74977286  1
  Li  Li10  1  0.49905537  0.50022884  0.00031048  1
  Li  Li11  1  0.71996759  0.94789726  0.00162662  1
  Li  Li12  1  0.38184547  0.28124831  0.00130911  1
  Li  Li13  1  0.61788415  0.71932208  0.00068964  1
  Li  Li14  1  0.27970711  0.05253496  0.99816919  1
  Li  Li15  1  0.33598229  0.41565236  0.25005661  1
  Li  Li16  1  0.28737628  0.55685151  0.50151395  1
  Li  Li17  1  0.16630975  0.33289229  0.50080859  1
  Li  Li18  1  0.37939395  0.77643134  0.49844469  1
  Li  Li19  1  0.04863606  0.11236780  0.50079755  1
  Li  Li20  1  0.33311909  0.91711912  0.75050524  1
  Li  Li21  1  0.16638525  0.83244424  0.00018892  1
  Li  Li22  1  0.00278124  0.25099047  0.74969933  1
  Li  Li23  1  0.04904391  0.61402809  0.99913673  1
  Mn  Mn24  1  0.89170292  0.02785127  0.75194731  1
  Mn  Mn25  1  0.77638343  0.30577889  0.24954267  1
  Mn  Mn26  1  0.55551253  0.86091005  0.25009771  1
  Mn  Mn27  1  0.44606049  0.64023288  0.25128101  1
  Mn  Mn28  1  0.22171495  0.69335615  0.74931633  1
  Mn  Mn29  1  0.10915673  0.47263214  0.74974965  1
  Mn  Mn30  1  0.10837188  0.97108328  0.24892114  1
  Cr  Cr31  1  0.89508014  0.52652524  0.24966404  1
  Cr  Cr32  1  0.77346592  0.80698783  0.74996015  1
  Cr  Cr33  1  0.55393258  0.36350806  0.74848503  1
  Cr  Cr34  1  0.44964054  0.13960819  0.75069510  1
  Cr  Cr35  1  0.22646296  0.19236805  0.25031804  1
  O  O36  1  0.99694900  0.06849276  0.13721067  1
  O  O37  1  0.93120433  0.21564278  0.36355280  1
  O  O38  1  0.99717821  0.57097562  0.63842392  1
  O  O39  1  0.86300600  0.35775126  0.63736888  1
  O  O40  1  0.73518167  0.11742954  0.63622631  1
  O  O41  1  0.66300106  0.40197279  0.13637918  1
  O  O42  1  0.93212649  0.71475835  0.86462696  1
  O  O43  1  0.80929111  0.47470047  0.86189180  1
  O  O44  1  0.59941554  0.04718031  0.86492423  1
  O  O45  1  0.85627947  0.85643957  0.13823319  1
  O  O46  1  0.73454936  0.61764918  0.13584837  1
  O  O47  1  0.51952818  0.19109678  0.13836794  1
  O  O48  1  0.65875736  0.26088758  0.86139965  1
  O  O49  1  0.80900735  0.97629650  0.36173504  1
  O  O50  1  0.59767045  0.54943202  0.36330742  1
  O  O51  1  0.48191593  0.31156667  0.36339124  1
  O  O52  1  0.66868166  0.76292128  0.36181357  1
  O  O53  1  0.32979039  0.09519609  0.36156135  1
  O  O54  1  0.66904281  0.90464158  0.63858858  1
  O  O55  1  0.33835460  0.24003565  0.63691237  1
  O  O56  1  0.51827744  0.68869047  0.63694982  1
  O  O57  1  0.40221886  0.45161284  0.63614563  1
  O  O58  1  0.18914984  0.02430778  0.63790749  1
  O  O59  1  0.33361721  0.73840509  0.13854963  1
  O  O60  1  0.47964000  0.80765223  0.86168702  1
  O  O61  1  0.25848653  0.38289461  0.86476096  1
  O  O62  1  0.14084598  0.14292536  0.86195006  1
  O  O63  1  0.40317491  0.95148739  0.13645965  1
  O  O64  1  0.18765391  0.52570064  0.13830953  1
  O  O65  1  0.06828673  0.28473898  0.13574831  1
  O  O66  1  0.33439655  0.59528873  0.86160654  1
  O  O67  1  0.26329155  0.88161263  0.36387408  1
  O  O68  1  0.14912462  0.64476969  0.36320791  1
  O  O69  1  0.99717130  0.42943987  0.36095293  1
  O  O70  1  0.06775981  0.78369299  0.63663317  1
  O  O71  1  0.00371813  0.93038629  0.86257563  1
