# generated using pymatgen
data_Rb4PbO4
_symmetry_space_group_name_H-M   'P 1'
_cell_length_a   11.51072144
_cell_length_b   7.21497395
_cell_length_c   11.52555573
_cell_angle_alpha   90.00000000
_cell_angle_beta   111.01656589
_cell_angle_gamma   90.00000000
_symmetry_Int_Tables_number   1
_chemical_formula_structural   Rb4PbO4
_chemical_formula_sum   'Rb16 Pb4 O16'
_cell_volume   893.51675859
_cell_formula_units_Z   4
loop_
 _symmetry_equiv_pos_site_id
 _symmetry_equiv_pos_as_xyz
  1  'x, y, z'
loop_
 _atom_site_type_symbol
 _atom_site_label
 _atom_site_symmetry_multiplicity
 _atom_site_fract_x
 _atom_site_fract_y
 _atom_site_fract_z
 _atom_site_occupancy
  Rb  Rb0  1  0.07056781  0.41666061  0.70011785  1
  Rb  Rb1  1  0.15800521  0.89023487  0.58216370  1
  Rb  Rb2  1  0.07056781  0.08333939  0.20011785  1
  Rb  Rb3  1  0.37218739  0.66660974  0.89380110  1
  Rb  Rb4  1  0.15800521  0.60976513  0.08216370  1
  Rb  Rb5  1  0.42342331  0.18273808  0.78959151  1
  Rb  Rb6  1  0.37218739  0.83339026  0.39380110  1
  Rb  Rb7  1  0.42342331  0.31726192  0.28959151  1
  Rb  Rb8  1  0.57657669  0.68273808  0.71040849  1
  Rb  Rb9  1  0.62781261  0.16660974  0.60619890  1
  Rb  Rb10  1  0.57657669  0.81726192  0.21040849  1
  Rb  Rb11  1  0.84199479  0.39023487  0.91783630  1
  Rb  Rb12  1  0.62781261  0.33339026  0.10619890  1
  Rb  Rb13  1  0.92943219  0.91666061  0.79988215  1
  Rb  Rb14  1  0.84199479  0.10976513  0.41783630  1
  Rb  Rb15  1  0.92943219  0.58333939  0.29988215  1
  Pb  Pb16  1  0.24177691  0.12252929  0.99024122  1
  Pb  Pb17  1  0.24177691  0.37747071  0.49024122  1
  Pb  Pb18  1  0.75822309  0.62252929  0.50975878  1
  Pb  Pb19  1  0.75822309  0.87747071  0.00975878  1
  O  O20  1  0.07063029  0.24030387  0.97337612  1
  O  O21  1  0.07063029  0.25969613  0.47337612  1
  O  O22  1  0.21505939  0.97807141  0.82579437  1
  O  O23  1  0.31511927  0.54263635  0.65249638  1
  O  O24  1  0.21505939  0.52192859  0.32579437  1
  O  O25  1  0.36923207  0.16090660  0.51262273  1
  O  O26  1  0.31511927  0.95736365  0.15249638  1
  O  O27  1  0.63076793  0.66090660  0.98737727  1
  O  O28  1  0.36923207  0.33909340  0.01262273  1
  O  O29  1  0.68488073  0.04263635  0.84750362  1
  O  O30  1  0.63076793  0.83909340  0.48737727  1
  O  O31  1  0.78494061  0.47807141  0.67420563  1
  O  O32  1  0.68488073  0.45736365  0.34750362  1
  O  O33  1  0.78494061  0.02192859  0.17420563  1
  O  O34  1  0.92936971  0.74030387  0.52662388  1
  O  O35  1  0.92936971  0.75969613  0.02662388  1
