# generated using pymatgen
data_V4Cd(SeO6)3
_symmetry_space_group_name_H-M   'P 1'
_cell_length_a   6.41383432
_cell_length_b   7.62635859
_cell_length_c   16.02688994
_cell_angle_alpha   101.26911748
_cell_angle_beta   98.90375474
_cell_angle_gamma   93.62935649
_symmetry_Int_Tables_number   1
_chemical_formula_structural   V4Cd(SeO6)3
_chemical_formula_sum   'V8 Cd2 Se6 O36'
_cell_volume   756.01501891
_cell_formula_units_Z   2
loop_
 _symmetry_equiv_pos_site_id
 _symmetry_equiv_pos_as_xyz
  1  'x, y, z'
loop_
 _atom_site_type_symbol
 _atom_site_label
 _atom_site_symmetry_multiplicity
 _atom_site_fract_x
 _atom_site_fract_y
 _atom_site_fract_z
 _atom_site_occupancy
  V  V0  1  0.15770174  0.37932487  0.51920443  1
  V  V1  1  0.84229826  0.62067513  0.48079557  1
  V  V2  1  0.46088190  0.54601610  0.70957480  1
  V  V3  1  0.53911810  0.45398390  0.29042520  1
  V  V4  1  0.56533349  0.64461049  0.93909989  1
  V  V5  1  0.43466651  0.35538951  0.06090011  1
  V  V6  1  0.32821433  0.22851891  0.83482048  1
  V  V7  1  0.67178567  0.77148109  0.16517952  1
  Cd  Cd8  1  0.67820145  0.20701346  0.57486819  1
  Cd  Cd9  1  0.32179855  0.79298654  0.42513181  1
  Se  Se10  1  0.81490794  0.27680630  0.94230431  1
  Se  Se11  1  0.18509206  0.72319370  0.05769569  1
  Se  Se12  1  0.20673988  0.03730911  0.62922097  1
  Se  Se13  1  0.79326012  0.96269089  0.37077903  1
  Se  Se14  1  0.99680974  0.53129260  0.77173077  1
  Se  Se15  1  0.00319026  0.46870740  0.22826923  1
  O  O16  1  0.41381186  0.41552468  0.59350349  1
  O  O17  1  0.58618814  0.58447532  0.40649651  1
  O  O18  1  0.85419325  0.39284871  0.50377386  1
  O  O19  1  0.14580675  0.60715129  0.49622614  1
  O  O20  1  0.61093491  0.00588921  0.43672708  1
  O  O21  1  0.38906509  0.99411079  0.56327292  1
  O  O22  1  0.05166716  0.17968317  0.57754712  1
  O  O23  1  0.94833284  0.82031683  0.42245288  1
  O  O24  1  0.74944635  0.45323185  0.70794963  1
  O  O25  1  0.25055365  0.54676815  0.29205037  1
  O  O26  1  0.70255371  0.27248390  0.03463660  1
  O  O27  1  0.29744629  0.72751610  0.96536340  1
  O  O28  1  0.62239118  0.17459795  0.85552836  1
  O  O29  1  0.37760882  0.82540205  0.14447164  1
  O  O30  1  0.80848030  0.50116629  0.93180894  1
  O  O31  1  0.19151970  0.49883371  0.06819106  1
  O  O32  1  0.36670767  0.19463859  0.71339832  1
  O  O33  1  0.63329233  0.80536141  0.28660168  1
  O  O34  1  0.14470752  0.53924028  0.68980857  1
  O  O35  1  0.85529248  0.46075972  0.31019143  1
  O  O36  1  0.05407043  0.32859477  0.80006881  1
  O  O37  1  0.94592957  0.67140523  0.19993119  1
  O  O38  1  0.45585301  0.52998517  0.82167798  1
  O  O39  1  0.54414699  0.47001483  0.17832202  1
  O  O40  1  0.62424068  0.63293377  0.05717384  1
  O  O41  1  0.37575932  0.36706623  0.94282616  1
  O  O42  1  0.21126775  0.03826189  0.84000091  1
  O  O43  1  0.78873225  0.96173811  0.15999909  1
  O  O44  1  0.21047368  0.25554129  0.43215828  1
  O  O45  1  0.78952632  0.74445871  0.56784172  1
  O  O46  1  0.51681306  0.75503373  0.71010905  1
  O  O47  1  0.48318694  0.24496627  0.28989095  1
  O  O48  1  0.68934970  0.83006405  0.93128900  1
  O  O49  1  0.31065030  0.16993595  0.06871100  1
  O  O50  1  0.79892394  0.05608648  0.68999833  1
  O  O51  1  0.20107606  0.94391352  0.31000167  1
