# generated using pymatgen
data_Sm2WO6
_symmetry_space_group_name_H-M   'P 1'
_cell_length_a   7.84558845
_cell_length_b   5.50656659
_cell_length_c   11.68730140
_cell_angle_alpha   90.00000000
_cell_angle_beta   104.09378834
_cell_angle_gamma   90.00000000
_symmetry_Int_Tables_number   1
_chemical_formula_structural   Sm2WO6
_chemical_formula_sum   'Sm8 W4 O24'
_cell_volume   489.71895544
_cell_formula_units_Z   4
loop_
 _symmetry_equiv_pos_site_id
 _symmetry_equiv_pos_as_xyz
  1  'x, y, z'
loop_
 _atom_site_type_symbol
 _atom_site_label
 _atom_site_symmetry_multiplicity
 _atom_site_fract_x
 _atom_site_fract_y
 _atom_site_fract_z
 _atom_site_occupancy
  Sm  Sm0  1  0.00000000  0.26266567  0.75000000  1
  Sm  Sm1  1  0.00000000  0.73733433  0.25000000  1
  Sm  Sm2  1  0.20339880  0.80980882  0.57686461  1
  Sm  Sm3  1  0.20339880  0.19019118  0.07686461  1
  Sm  Sm4  1  0.50000000  0.31679746  0.75000000  1
  Sm  Sm5  1  0.50000000  0.68320254  0.25000000  1
  Sm  Sm6  1  0.79660120  0.80980882  0.92313539  1
  Sm  Sm7  1  0.79660120  0.19019118  0.42313539  1
  W  W8  1  0.27818921  0.74657475  0.88608505  1
  W  W9  1  0.27818921  0.25342525  0.38608505  1
  W  W10  1  0.72181079  0.74657475  0.61391495  1
  W  W11  1  0.72181079  0.25342525  0.11391495  1
  O  O12  1  0.06454579  0.95904093  0.89606469  1
  O  O13  1  0.14901660  0.48168603  0.93049573  1
  O  O14  1  0.06454579  0.04095907  0.39606469  1
  O  O15  1  0.21628733  0.53871479  0.73106420  1
  O  O16  1  0.14901660  0.51831397  0.43049573  1
  O  O17  1  0.29120794  0.01009795  0.77311505  1
  O  O18  1  0.21628733  0.46128521  0.23106420  1
  O  O19  1  0.36399896  0.15047094  0.54507197  1
  O  O20  1  0.50626890  0.63808179  0.88808941  1
  O  O21  1  0.29120794  0.98990205  0.27311505  1
  O  O22  1  0.49373110  0.63808179  0.61191059  1
  O  O23  1  0.63600104  0.15047094  0.95492803  1
  O  O24  1  0.36399896  0.84952906  0.04507197  1
  O  O25  1  0.50626890  0.36191821  0.38808841  1
  O  O26  1  0.70879206  0.01009795  0.72688495  1
  O  O27  1  0.49373110  0.36191821  0.11191159  1
  O  O28  1  0.63600104  0.84952906  0.45492803  1
  O  O29  1  0.78371267  0.53871479  0.76893580  1
  O  O30  1  0.70879206  0.98990205  0.22688495  1
  O  O31  1  0.85098340  0.48168603  0.56950427  1
  O  O32  1  0.78371267  0.46128521  0.26893580  1
  O  O33  1  0.93545421  0.95904093  0.60393531  1
  O  O34  1  0.85098340  0.51831397  0.06950427  1
  O  O35  1  0.93545421  0.04095907  0.10393531  1
