# generated using pymatgen
data_La16Mn15O48
_symmetry_space_group_name_H-M   'P 1'
_cell_length_a   5.53402496
_cell_length_b   14.82429315
_cell_length_c   12.42825816
_cell_angle_alpha   94.32448242
_cell_angle_beta   101.63697939
_cell_angle_gamma   79.60414282
_symmetry_Int_Tables_number   1
_chemical_formula_structural   La16Mn15O48
_chemical_formula_sum   'La16 Mn15 O48'
_cell_volume   981.43364417
_cell_formula_units_Z   1
loop_
 _symmetry_equiv_pos_site_id
 _symmetry_equiv_pos_as_xyz
  1  'x, y, z'
loop_
 _atom_site_type_symbol
 _atom_site_label
 _atom_site_symmetry_multiplicity
 _atom_site_fract_x
 _atom_site_fract_y
 _atom_site_fract_z
 _atom_site_occupancy
  La  La0  1  0.84712052  0.20534186  0.90965989  1
  La  La1  1  0.40428777  0.02725354  0.85641047  1
  La  La2  1  0.28061982  0.40537091  0.96768503  1
  La  La3  1  0.65623053  0.28045528  0.59522765  1
  La  La4  1  0.21855146  0.09373260  0.53216289  1
  La  La5  1  0.96413977  0.85319871  0.79238076  1
  La  La6  1  0.53008023  0.65699364  0.71884525  1
  La  La7  1  0.90660530  0.53160381  0.34336122  1
  La  La8  1  0.09339470  0.46839619  0.65663878  1
  La  La9  1  0.46991977  0.34300636  0.28115475  1
  La  La10  1  0.03586023  0.14680129  0.20761924  1
  La  La11  1  0.78144854  0.90626740  0.46783711  1
  La  La12  1  0.71938018  0.59462909  0.03231497  1
  La  La13  1  0.34376947  0.71954472  0.40477235  1
  La  La14  1  0.59571223  0.97274646  0.14358953  1
  La  La15  1  0.15287948  0.79465814  0.09034011  1
  Mn  Mn16  1  0.81131648  0.06241430  0.68693386  1
  Mn  Mn17  1  0.68859458  0.43622162  0.81337815  1
  Mn  Mn18  1  0.25103755  0.24994477  0.75039211  1
  Mn  Mn19  1  0.62581845  0.12511335  0.37484451  1
  Mn  Mn20  1  0.87663622  0.37443908  0.12586436  1
  Mn  Mn21  1  0.56280748  0.81018997  0.93652088  1
  Mn  Mn22  1  0.93771877  0.68862353  0.56384324  1
  Mn  Mn23  1  0.12336378  0.62556092  0.87413564  1
  Mn  Mn24  1  0.50000000  0.50000000  0.50000000  1
  Mn  Mn25  1  0.06228123  0.31137647  0.43615676  1
  Mn  Mn26  1  0.43719252  0.18981003  0.06347912  1
  Mn  Mn27  1  0.37418155  0.87488665  0.62515549  1
  Mn  Mn28  1  0.31140542  0.56377838  0.18662185  1
  Mn  Mn29  1  0.74896245  0.75005623  0.24960789  1
  Mn  Mn30  1  0.18868352  0.93758570  0.31306614  1
  O  O31  1  0.88539656  0.05364512  0.83994354  1
  O  O32  1  0.98144898  0.17283503  0.69988461  1
  O  O33  1  0.73149922  0.06723197  0.52468979  1
  O  O34  1  0.35160586  0.19398579  0.89766567  1
  O  O35  1  0.77399928  0.43280450  0.97826327  1
  O  O36  1  0.48976010  0.15054658  0.68997072  1
  O  O37  1  0.86189771  0.02248567  0.31683288  1
  O  O38  1  0.52458259  0.32515029  0.80017715  1
  O  O39  1  0.89294763  0.20250090  0.42597219  1
  O  O40  1  0.85551959  0.54774450  0.82599066  1
  O  O41  1  0.35714390  0.04778150  0.32934555  1
  O  O42  1  0.88524624  0.72847286  0.93273429  1
  O  O43  1  0.60169230  0.44311559  0.64824924  1
  O  O44  1  0.97844167  0.31618706  0.27151261  1
  O  O45  1  0.01409325  0.35395580  0.80475685  1
  O  O46  1  0.38755785  0.22774799  0.43263167  1
  O  O47  1  0.73895583  0.11026592  0.05274389  1
  O  O48  1  0.74031250  0.39761490  0.44256306  1
  O  O49  1  0.36556621  0.52218068  0.81809304  1
  O  O50  1  0.14868691  0.30705467  0.60266071  1
  O  O51  1  0.52218980  0.18209696  0.22680657  1
  O  O52  1  0.40343054  0.70003804  0.92172095  1
  O  O53  1  0.77027598  0.57676552  0.54863092  1
  O  O54  1  0.27508058  0.08681905  0.05043372  1
  O  O55  1  0.72491942  0.91318095  0.94956628  1
  O  O56  1  0.22972402  0.42323448  0.45136908  1
  O  O57  1  0.59656946  0.29996196  0.07827905  1
  O  O58  1  0.47781020  0.81790304  0.77319343  1
  O  O59  1  0.85131309  0.69294533  0.39733929  1
  O  O60  1  0.25968750  0.60238510  0.55743694  1
  O  O61  1  0.63443379  0.47781932  0.18190696  1
  O  O62  1  0.26104417  0.88973408  0.94725611  1
  O  O63  1  0.61244215  0.77225201  0.56736833  1
  O  O64  1  0.98590675  0.64604420  0.19524315  1
  O  O65  1  0.02155833  0.68381294  0.72848739  1
  O  O66  1  0.39830770  0.55688441  0.35175076  1
  O  O67  1  0.11475376  0.27152714  0.06726571  1
  O  O68  1  0.64285610  0.95221850  0.67065445  1
  O  O69  1  0.14448041  0.45225550  0.17400934  1
  O  O70  1  0.47541741  0.67484971  0.19982285  1
  O  O71  1  0.10705237  0.79749910  0.57402781  1
  O  O72  1  0.22600072  0.56719550  0.02173673  1
  O  O73  1  0.13810229  0.97751433  0.68316712  1
  O  O74  1  0.51023990  0.84945342  0.31002928  1
  O  O75  1  0.26850078  0.93276803  0.47531021  1
  O  O76  1  0.64839414  0.80601421  0.10233433  1
  O  O77  1  0.01855102  0.82716497  0.30011539  1
  O  O78  1  0.11460344  0.94635488  0.16005646  1
