# generated using pymatgen
data_VBiO3
_symmetry_space_group_name_H-M   'P 1'
_cell_length_a   5.48766651
_cell_length_b   5.76989024
_cell_length_c   7.86692410
_cell_angle_alpha   90.00000000
_cell_angle_beta   90.25944190
_cell_angle_gamma   90.00000000
_symmetry_Int_Tables_number   1
_chemical_formula_structural   VBiO3
_chemical_formula_sum   'V4 Bi4 O12'
_cell_volume   249.08970031
_cell_formula_units_Z   4
loop_
 _symmetry_equiv_pos_site_id
 _symmetry_equiv_pos_as_xyz
  1  'x, y, z'
loop_
 _atom_site_type_symbol
 _atom_site_label
 _atom_site_symmetry_multiplicity
 _atom_site_fract_x
 _atom_site_fract_y
 _atom_site_fract_z
 _atom_site_occupancy
  V  V0  1  0.00000000  0.50000000  0.50000000  1
  V  V1  1  0.00000000  0.50000000  0.00000000  1
  V  V2  1  0.50000000  0.00000000  0.50000000  1
  V  V3  1  0.50000000  0.00000000  0.00000000  1
  Bi  Bi4  1  0.01189565  0.95596978  0.74857204  1
  Bi  Bi5  1  0.48810435  0.45596978  0.75142796  1
  Bi  Bi6  1  0.51189565  0.54403022  0.24857204  1
  Bi  Bi7  1  0.98810435  0.04403022  0.25142796  1
  O  O8  1  0.10007022  0.46863562  0.24829355  1
  O  O9  1  0.19182890  0.19982198  0.95070168  1
  O  O10  1  0.18786608  0.19916809  0.54833385  1
  O  O11  1  0.31213392  0.69916809  0.95166615  1
  O  O12  1  0.30817110  0.69982198  0.54929832  1
  O  O13  1  0.39992978  0.96863562  0.25170645  1
  O  O14  1  0.60007022  0.03136438  0.74829355  1
  O  O15  1  0.69182890  0.30017802  0.45070168  1
  O  O16  1  0.68786608  0.30083191  0.04833385  1
  O  O17  1  0.81213392  0.80083191  0.45166615  1
  O  O18  1  0.80817110  0.80017802  0.04929832  1
  O  O19  1  0.89992978  0.53136438  0.75170645  1
