# generated using pymatgen
data_Li2Ni3TeO8
_symmetry_space_group_name_H-M   'P 1'
_cell_length_a   5.88355921
_cell_length_b   5.87275769
_cell_length_c   9.59835066
_cell_angle_alpha   89.99527901
_cell_angle_beta   90.00236084
_cell_angle_gamma   119.93928802
_symmetry_Int_Tables_number   1
_chemical_formula_structural   Li2Ni3TeO8
_chemical_formula_sum   'Li4 Ni6 Te2 O16'
_cell_volume   287.39209501
_cell_formula_units_Z   2
loop_
 _symmetry_equiv_pos_site_id
 _symmetry_equiv_pos_as_xyz
  1  'x, y, z'
loop_
 _atom_site_type_symbol
 _atom_site_label
 _atom_site_symmetry_multiplicity
 _atom_site_fract_x
 _atom_site_fract_y
 _atom_site_fract_z
 _atom_site_occupancy
  Li  Li0  1  0.33304125  0.66657991  0.90616711  1
  Li  Li1  1  0.99989864  0.99993018  0.98742909  1
  Li  Li2  1  0.00010136  0.00003154  0.48742909  1
  Li  Li3  1  0.66695875  0.33353767  0.40616711  1
  Ni  Ni4  1  0.17066229  0.82938460  0.21323805  1
  Ni  Ni5  1  0.17067834  0.34127431  0.21323920  1
  Ni  Ni6  1  0.65892466  0.82944817  0.21333584  1
  Ni  Ni7  1  0.34107534  0.17052451  0.71333584  1
  Ni  Ni8  1  0.82933771  0.65872231  0.71323805  1
  Ni  Ni9  1  0.82932166  0.17059596  0.71323920  1
  Te  Te10  1  0.33303533  0.66652609  0.48378413  1
  Te  Te11  1  0.66696467  0.33349076  0.98378413  1
  O  O12  1  0.16855921  0.83031961  0.59062680  1
  O  O13  1  0.03333620  0.51673510  0.35104627  1
  O  O14  1  0.33155154  0.66590855  0.11557651  1
  O  O15  1  0.00170635  0.00073139  0.29521664  1
  O  O16  1  0.99829365  0.99902504  0.79521664  1
  O  O17  1  0.16857408  0.33822965  0.59060397  1
  O  O18  1  0.48252345  0.96685433  0.35159291  1
  O  O19  1  0.48255958  0.51577417  0.35157847  1
  O  O20  1  0.33822855  0.16909417  0.09048501  1
  O  O21  1  0.66177145  0.83086562  0.59048501  1
  O  O22  1  0.51747655  0.48433088  0.85159291  1
  O  O23  1  0.51744042  0.03321459  0.85157847  1
  O  O24  1  0.66844846  0.33435701  0.61557651  1
  O  O25  1  0.83144079  0.66175940  0.09062680  1
  O  O26  1  0.96666380  0.48339890  0.85104627  1
  O  O27  1  0.83142592  0.16965557  0.09060397  1
