# generated using pymatgen
data_Sm2Ge2O7
_symmetry_space_group_name_H-M   'P 1'
_cell_length_a   12.58647148
_cell_length_b   6.95693784
_cell_length_c   6.93726096
_cell_angle_alpha   91.82011171
_cell_angle_beta   91.58688290
_cell_angle_gamma   93.80639140
_symmetry_Int_Tables_number   1
_chemical_formula_structural   Sm2Ge2O7
_chemical_formula_sum   'Sm8 Ge8 O28'
_cell_volume   605.53313423
_cell_formula_units_Z   4
loop_
 _symmetry_equiv_pos_site_id
 _symmetry_equiv_pos_as_xyz
  1  'x, y, z'
loop_
 _atom_site_type_symbol
 _atom_site_label
 _atom_site_symmetry_multiplicity
 _atom_site_fract_x
 _atom_site_fract_y
 _atom_site_fract_z
 _atom_site_occupancy
  Sm  Sm0  1  0.11332678  0.83157989  0.32015907  1
  Sm  Sm1  1  0.11380881  0.32937191  0.05185433  1
  Sm  Sm2  1  0.37142116  0.76328368  0.63314312  1
  Sm  Sm3  1  0.35840158  0.08226333  0.11572177  1
  Sm  Sm4  1  0.64159842  0.91773667  0.88427823  1
  Sm  Sm5  1  0.62857884  0.23671632  0.36685688  1
  Sm  Sm6  1  0.88619119  0.67062809  0.94814567  1
  Sm  Sm7  1  0.88667322  0.16842011  0.67984093  1
  Ge  Ge8  1  0.11635167  0.85179425  0.83627810  1
  Ge  Ge9  1  0.16679328  0.32993311  0.51340884  1
  Ge  Ge10  1  0.38084533  0.61609155  0.14540979  1
  Ge  Ge11  1  0.40051735  0.26443321  0.61876786  1
  Ge  Ge12  1  0.59948265  0.73556679  0.38123214  1
  Ge  Ge13  1  0.61915467  0.38390845  0.85459021  1
  Ge  Ge14  1  0.83320672  0.67006689  0.48659116  1
  Ge  Ge15  1  0.88364833  0.14820575  0.16372190  1
  O  O16  1  0.01165141  0.09919488  0.24688535  1
  O  O17  1  0.08094865  0.66569058  0.00368243  1
  O  O18  1  0.08434471  0.28074640  0.70700741  1
  O  O19  1  0.12100945  0.49315629  0.34805245  1
  O  O20  1  0.19033478  0.78770445  0.63936797  1
  O  O21  1  0.18349953  0.01548102  0.00810542  1
  O  O22  1  0.21653908  0.13411867  0.38161926  1
  O  O23  1  0.30002228  0.43473849  0.60757583  1
  O  O24  1  0.31435021  0.78428855  0.29279254  1
  O  O25  1  0.30820834  0.40325503  0.06931299  1
  O  O26  1  0.37707301  0.07790332  0.77579880  1
  O  O27  1  0.42644147  0.77368079  0.96367956  1
  O  O28  1  0.44825164  0.16120831  0.40621525  1
  O  O29  1  0.49310562  0.55960834  0.29829454  1
  O  O30  1  0.50689438  0.44039166  0.70170546  1
  O  O31  1  0.55174836  0.83879169  0.59378475  1
  O  O32  1  0.57355853  0.22631921  0.03632044  1
  O  O33  1  0.62292699  0.92209668  0.22420120  1
  O  O34  1  0.69179166  0.59674497  0.93068701  1
  O  O35  1  0.68564979  0.21571145  0.70720746  1
  O  O36  1  0.69997772  0.56526151  0.39242417  1
  O  O37  1  0.78346092  0.86588133  0.61838074  1
  O  O38  1  0.81650047  0.98451898  0.99189458  1
  O  O39  1  0.80966522  0.21229555  0.36063203  1
  O  O40  1  0.87899055  0.50684371  0.65194755  1
  O  O41  1  0.91565529  0.71925360  0.29299259  1
  O  O42  1  0.91905135  0.33430942  0.99631757  1
  O  O43  1  0.98834859  0.90080512  0.75311465  1
