# generated using pymatgen
data_Li2NbV3O8
_symmetry_space_group_name_H-M   'P 1'
_cell_length_a   8.59038697
_cell_length_b   8.59077136
_cell_length_c   8.59124259
_cell_angle_alpha   90.00218944
_cell_angle_beta   90.00264361
_cell_angle_gamma   90.00123625
_symmetry_Int_Tables_number   1
_chemical_formula_structural   Li2NbV3O8
_chemical_formula_sum   'Li8 Nb4 V12 O32'
_cell_volume   634.01695261
_cell_formula_units_Z   4
loop_
 _symmetry_equiv_pos_site_id
 _symmetry_equiv_pos_as_xyz
  1  'x, y, z'
loop_
 _atom_site_type_symbol
 _atom_site_label
 _atom_site_symmetry_multiplicity
 _atom_site_fract_x
 _atom_site_fract_y
 _atom_site_fract_z
 _atom_site_occupancy
  Li  Li0  1  0.99992162  0.99995801  0.99987363  1
  Li  Li1  1  0.25006903  0.25012222  0.25009802  1
  Li  Li2  1  0.24988631  0.74995285  0.75005712  1
  Li  Li3  1  0.50008591  0.00011268  0.49993436  1
  Li  Li4  1  0.49995199  0.50013373  0.00014265  1
  Li  Li5  1  0.75007922  0.24986507  0.74991116  1
  Li  Li6  1  0.74984684  0.75005787  0.24986907  1
  Li  Li7  1  0.00010081  0.49996392  0.50004521  1
  Nb  Nb8  1  0.12493363  0.87506187  0.37498888  1
  Nb  Nb9  1  0.37506283  0.12494078  0.87509135  1
  Nb  Nb10  1  0.62496040  0.62490034  0.62500658  1
  Nb  Nb11  1  0.87507716  0.37500060  0.12500352  1
  V  V12  1  0.12020212  0.12979865  0.62502071  1
  V  V13  1  0.12505962  0.37979679  0.87020601  1
  V  V14  1  0.12978240  0.62508498  0.12021698  1
  V  V15  1  0.37021308  0.37495632  0.62023592  1
  V  V16  1  0.37494740  0.62021607  0.37024587  1
  V  V17  1  0.37976896  0.87023590  0.12504213  1
  V  V18  1  0.62021823  0.37021149  0.37495573  1
  V  V19  1  0.62504023  0.12023111  0.12977763  1
  V  V20  1  0.62978874  0.87496312  0.87978047  1
  V  V21  1  0.87021737  0.12504084  0.37978506  1
  V  V22  1  0.87494687  0.87975244  0.62977955  1
  V  V23  1  0.87980843  0.62976597  0.87496580  1
  O  O24  1  0.11044799  0.11077987  0.38090141  1
  O  O25  1  0.11905604  0.88958454  0.61072020  1
  O  O26  1  0.11391334  0.61388438  0.88615724  1
  O  O27  1  0.13929170  0.13963101  0.86914829  1
  O  O28  1  0.11080743  0.38095045  0.11042707  1
  O  O29  1  0.13612065  0.36388240  0.63614933  1
  O  O30  1  0.13080820  0.63935161  0.36038034  1
  O  O31  1  0.13957776  0.86922142  0.13929597  1
  O  O32  1  0.36037358  0.13083657  0.63932964  1
  O  O33  1  0.36920490  0.36068178  0.86043166  1
  O  O34  1  0.36384855  0.63617119  0.13617253  1
  O  O35  1  0.38922776  0.61904399  0.61046796  1
  O  O36  1  0.36066101  0.86038284  0.36919751  1
  O  O37  1  0.38611674  0.38610619  0.38617943  1
  O  O38  1  0.38089346  0.11046795  0.11075076  1
  O  O39  1  0.38955763  0.88927285  0.88089699  1
  O  O40  1  0.61043993  0.38921016  0.61910550  1
  O  O41  1  0.61906911  0.61042591  0.38928502  1
  O  O42  1  0.61384746  0.88614471  0.11383666  1
  O  O43  1  0.63934351  0.36039027  0.13083196  1
  O  O44  1  0.61076776  0.11906641  0.88957621  1
  O  O45  1  0.63616237  0.13613875  0.36383972  1
  O  O46  1  0.63081054  0.86062880  0.63959685  1
  O  O47  1  0.63963969  0.63080524  0.86070863  1
  O  O48  1  0.86040703  0.36918501  0.36068059  1
  O  O49  1  0.86922273  0.13932807  0.13960062  1
  O  O50  1  0.86388261  0.86383607  0.86385258  1
  O  O51  1  0.88921225  0.88089789  0.38955530  1
  O  O52  1  0.86070234  0.63957633  0.63084969  1
  O  O53  1  0.88610534  0.11385573  0.61382913  1
  O  O54  1  0.88094693  0.38953146  0.88926288  1
  O  O55  1  0.88956345  0.61074453  0.11908992  1
