# generated using pymatgen
data_Tm2WO6
_symmetry_space_group_name_H-M   'P 1'
_cell_length_a   5.21930513
_cell_length_b   9.04790783
_cell_length_c   9.89000372
_cell_angle_alpha   90.00000000
_cell_angle_beta   90.00000000
_cell_angle_gamma   90.00000000
_symmetry_Int_Tables_number   1
_chemical_formula_structural   Tm2WO6
_chemical_formula_sum   'Tm8 W4 O24'
_cell_volume   467.04347611
_cell_formula_units_Z   4
loop_
 _symmetry_equiv_pos_site_id
 _symmetry_equiv_pos_as_xyz
  1  'x, y, z'
loop_
 _atom_site_type_symbol
 _atom_site_label
 _atom_site_symmetry_multiplicity
 _atom_site_fract_x
 _atom_site_fract_y
 _atom_site_fract_z
 _atom_site_occupancy
  Tm  Tm0  1  0.01880643  0.39705059  0.03457574  1
  Tm  Tm1  1  0.03916626  0.28054560  0.62789817  1
  Tm  Tm2  1  0.46083374  0.71945440  0.12789817  1
  Tm  Tm3  1  0.48119357  0.60294941  0.53457574  1
  Tm  Tm4  1  0.51880643  0.10294941  0.96542426  1
  Tm  Tm5  1  0.53916626  0.21945440  0.37210183  1
  Tm  Tm6  1  0.96083374  0.78054560  0.87210183  1
  Tm  Tm7  1  0.98119357  0.89705059  0.46542426  1
  W  W8  1  0.03890543  0.00524080  0.15265108  1
  W  W9  1  0.46109457  0.99475920  0.65265108  1
  W  W10  1  0.53890543  0.49475920  0.84734892  1
  W  W11  1  0.96109457  0.50524080  0.34734892  1
  O  O12  1  0.08898863  0.65888754  0.47018839  1
  O  O13  1  0.17823896  0.54693147  0.19910723  1
  O  O14  1  0.17621428  0.86044159  0.68143047  1
  O  O15  1  0.19516236  0.85794365  0.26555887  1
  O  O16  1  0.23461491  0.38430804  0.43301311  1
  O  O17  1  0.25057084  0.08997352  0.50441245  1
  O  O18  1  0.24942916  0.91002648  0.00441245  1
  O  O19  1  0.26538509  0.61569196  0.93301311  1
  O  O20  1  0.30483764  0.14205635  0.76555887  1
  O  O21  1  0.32378572  0.13955841  0.18143047  1
  O  O22  1  0.32176104  0.45306853  0.69910723  1
  O  O23  1  0.41101137  0.34111246  0.97018839  1
  O  O24  1  0.58898863  0.84111246  0.52981161  1
  O  O25  1  0.67823896  0.95306853  0.80089277  1
  O  O26  1  0.67621428  0.63955841  0.31856953  1
  O  O27  1  0.69516236  0.64205635  0.73444113  1
  O  O28  1  0.73461491  0.11569196  0.56698689  1
  O  O29  1  0.75057084  0.41002648  0.49558755  1
  O  O30  1  0.74942916  0.58997352  0.99558755  1
  O  O31  1  0.76538509  0.88430804  0.06698689  1
  O  O32  1  0.80483764  0.35794365  0.23444113  1
  O  O33  1  0.82378572  0.36044159  0.81856953  1
  O  O34  1  0.82176104  0.04693147  0.30089277  1
  O  O35  1  0.91101137  0.15888754  0.02981161  1
