# generated using pymatgen
data_K3SrPCO7
_symmetry_space_group_name_H-M   'P 1'
_cell_length_a   10.03172418
_cell_length_b   7.59896549
_cell_length_c   5.76335199
_cell_angle_alpha   90.00000000
_cell_angle_beta   90.84597021
_cell_angle_gamma   90.00000000
_symmetry_Int_Tables_number   1
_chemical_formula_structural   K3SrPCO7
_chemical_formula_sum   'K6 Sr2 P2 C2 O14'
_cell_volume   439.29661725
_cell_formula_units_Z   2
loop_
 _symmetry_equiv_pos_site_id
 _symmetry_equiv_pos_as_xyz
  1  'x, y, z'
loop_
 _atom_site_type_symbol
 _atom_site_label
 _atom_site_symmetry_multiplicity
 _atom_site_fract_x
 _atom_site_fract_y
 _atom_site_fract_z
 _atom_site_occupancy
  K  K0  1  0.08363260  0.25000000  0.76112749  1
  K  K1  1  0.25802287  0.00537661  0.25185315  1
  K  K2  1  0.25802287  0.49462339  0.25185315  1
  K  K3  1  0.74197713  0.50537661  0.74814685  1
  K  K4  1  0.74197713  0.99462339  0.74814685  1
  K  K5  1  0.91636740  0.75000000  0.23887251  1
  Sr  Sr6  1  0.36556778  0.75000000  0.77411098  1
  Sr  Sr7  1  0.63443222  0.25000000  0.22588902  1
  P  P8  1  0.41064165  0.25000000  0.70128600  1
  P  P9  1  0.58935835  0.75000000  0.29871400  1
  C  C10  1  0.06306808  0.75000000  0.73662739  1
  C  C11  1  0.93693192  0.25000000  0.26337261  1
  O  O12  1  0.06647910  0.25000000  0.27957248  1
  O  O13  1  0.12221438  0.75000000  0.94033664  1
  O  O14  1  0.13555263  0.75000000  0.54961850  1
  O  O15  1  0.33103657  0.08253853  0.77562556  1
  O  O16  1  0.33103657  0.41746147  0.77562556  1
  O  O17  1  0.42401370  0.25000000  0.43144135  1
  O  O18  1  0.44632863  0.75000000  0.18689303  1
  O  O19  1  0.55367137  0.25000000  0.81310697  1
  O  O20  1  0.57598630  0.75000000  0.56855865  1
  O  O21  1  0.66896343  0.58253853  0.22437444  1
  O  O22  1  0.66896343  0.91746147  0.22437444  1
  O  O23  1  0.86444737  0.25000000  0.45038150  1
  O  O24  1  0.87778562  0.25000000  0.05966336  1
  O  O25  1  0.93352090  0.75000000  0.72042752  1
