# generated using pymatgen
data_LiZr2(PO4)3
_symmetry_space_group_name_H-M   'P 1'
_cell_length_a   9.08579670
_cell_length_b   9.05235553
_cell_length_c   9.08579681
_cell_angle_alpha   59.51951694
_cell_angle_beta   60.02577003
_cell_angle_gamma   59.51951532
_symmetry_Int_Tables_number   1
_chemical_formula_structural   LiZr2(PO4)3
_chemical_formula_sum   'Li2 Zr4 P6 O24'
_cell_volume   524.64235806
_cell_formula_units_Z   2
loop_
 _symmetry_equiv_pos_site_id
 _symmetry_equiv_pos_as_xyz
  1  'x, y, z'
loop_
 _atom_site_type_symbol
 _atom_site_label
 _atom_site_symmetry_multiplicity
 _atom_site_fract_x
 _atom_site_fract_y
 _atom_site_fract_z
 _atom_site_occupancy
  Li  Li0  1  0.64953260  0.53893258  0.35008941  1
  Li  Li1  1  0.85008941  0.03893258  0.14953260  1
  Zr  Zr2  1  0.35320513  0.36111923  0.36471109  1
  Zr  Zr3  1  0.14651144  0.14078794  0.13555505  1
  Zr  Zr4  1  0.63555505  0.64078794  0.64651144  1
  Zr  Zr5  1  0.86471109  0.86111923  0.85320513  1
  P  P6  1  0.03085970  0.75421890  0.45950048  1
  P  P7  1  0.54271417  0.95897721  0.24878444  1
  P  P8  1  0.25009353  0.53705920  0.96344981  1
  P  P9  1  0.74878444  0.45897721  0.04271417  1
  P  P10  1  0.46344981  0.03705920  0.75009453  1
  P  P11  1  0.95950048  0.25421890  0.53085970  1
  O  O12  1  0.03898466  0.92199010  0.28173009  1
  O  O13  1  0.99943612  0.79769786  0.61873504  1
  O  O14  1  0.08610736  0.71416024  0.94266787  1
  O  O15  1  0.38268376  0.99976577  0.20166439  1
  O  O16  1  0.49750764  0.87725840  0.70449869  1
  O  O17  1  0.21163835  0.59588402  0.43185646  1
  O  O18  1  0.72442428  0.94267805  0.08854076  1
  O  O19  1  0.56781694  0.76980506  0.40214247  1
  O  O20  1  0.29690546  0.49656573  0.12451488  1
  O  O21  1  0.11873504  0.29769786  0.49943612  1
  O  O22  1  0.20449869  0.37725840  0.99750764  1
  O  O23  1  0.41168211  0.56013278  0.78823314  1
  O  O24  1  0.58854076  0.44267805  0.22442428  1
  O  O25  1  0.80044333  0.61094160  0.01651281  1
  O  O26  1  0.87192448  0.70662632  0.49804605  1
  O  O27  1  0.70166439  0.49976577  0.88268376  1
  O  O28  1  0.28823314  0.06013278  0.91168211  1
  O  O29  1  0.44266787  0.21416024  0.58610736  1
  O  O30  1  0.78173009  0.42199010  0.53898366  1
  O  O31  1  0.51651281  0.11094160  0.30044333  1
  O  O32  1  0.62451488  0.99656573  0.79690546  1
  O  O33  1  0.90214247  0.26980506  0.06781694  1
  O  O34  1  0.99804605  0.20662632  0.37192448  1
  O  O35  1  0.93185646  0.09588402  0.71163835  1
