# generated using pymatgen
data_Li3Fe3NiO8
_symmetry_space_group_name_H-M   'P 1'
_cell_length_a   10.32990584
_cell_length_b   10.33143679
_cell_length_c   14.62666143
_cell_angle_alpha   19.26058373
_cell_angle_beta   19.26202000
_cell_angle_gamma   33.20051623
_symmetry_Int_Tables_number   1
_chemical_formula_structural   Li3Fe3NiO8
_chemical_formula_sum   'Li3 Fe3 Ni1 O8'
_cell_volume   147.09685069
_cell_formula_units_Z   1
loop_
 _symmetry_equiv_pos_site_id
 _symmetry_equiv_pos_as_xyz
  1  'x, y, z'
loop_
 _atom_site_type_symbol
 _atom_site_label
 _atom_site_symmetry_multiplicity
 _atom_site_fract_x
 _atom_site_fract_y
 _atom_site_fract_z
 _atom_site_occupancy
  Li  Li0  1  0.99999981  0.49999891  0.50000120  1
  Li  Li1  1  0.49999985  0.99999990  0.50000020  1
  Li  Li2  1  0.49999980  0.49999982  0.50000029  1
  Fe  Fe3  1  0.00000110  0.50000058  0.99999882  1
  Fe  Fe4  1  0.50000023  0.00000038  0.99999944  1
  Fe  Fe5  1  0.50000022  0.49999983  0.99999983  1
  Ni  Ni6  1  0.99999985  0.99999928  0.00000092  1
  O  O7  1  -0.00025168  -0.00033113  0.25766285  1
  O  O8  1  0.00027220  0.53423166  0.23826147  1
  O  O9  1  0.53441985  0.00041108  0.23803271  1
  O  O10  1  0.00025166  0.00033185  0.74233688  1
  O  O11  1  0.46545369  0.46558932  0.30719592  1
  O  O12  1  0.99972888  0.46576594  0.76173989  1
  O  O13  1  0.46558058  0.99958945  0.76196698  1
  O  O14  1  0.53454597  0.53441314  0.69280359  1
