# generated using pymatgen
data_Li2Cr3SnO8
_symmetry_space_group_name_H-M   'P 1'
_cell_length_a   8.50565824
_cell_length_b   8.51116471
_cell_length_c   8.61057168
_cell_angle_alpha   90.01183693
_cell_angle_beta   89.98570836
_cell_angle_gamma   90.02015824
_symmetry_Int_Tables_number   1
_chemical_formula_structural   Li2Cr3SnO8
_chemical_formula_sum   'Li8 Cr12 Sn4 O32'
_cell_volume   623.34554578
_cell_formula_units_Z   4
loop_
 _symmetry_equiv_pos_site_id
 _symmetry_equiv_pos_as_xyz
  1  'x, y, z'
loop_
 _atom_site_type_symbol
 _atom_site_label
 _atom_site_symmetry_multiplicity
 _atom_site_fract_x
 _atom_site_fract_y
 _atom_site_fract_z
 _atom_site_occupancy
  Li  Li0  1  0.00035780  0.00132186  0.00128422  1
  Li  Li1  1  0.24860640  0.24916004  0.24817314  1
  Li  Li2  1  0.25156930  0.75084076  0.74823845  1
  Li  Li3  1  0.49949498  0.99861904  0.50121323  1
  Li  Li4  1  0.50037486  0.49882208  0.99875055  1
  Li  Li5  1  0.74877249  0.25086766  0.75175048  1
  Li  Li6  1  0.75150371  0.74921622  0.25171569  1
  Li  Li7  1  0.99939547  0.50125807  0.49889176  1
  Cr  Cr8  1  0.11565555  0.13410621  0.62545936  1
  Cr  Cr9  1  0.12339051  0.38011992  0.86831336  1
  Cr  Cr10  1  0.13037669  0.62771137  0.11818428  1
  Cr  Cr11  1  0.36991891  0.37182642  0.61783282  1
  Cr  Cr12  1  0.37661965  0.61957569  0.36822149  1
  Cr  Cr13  1  0.38428933  0.86580974  0.12552211  1
  Cr  Cr14  1  0.61550291  0.36558287  0.37440560  1
  Cr  Cr15  1  0.62334178  0.11974735  0.13184088  1
  Cr  Cr16  1  0.62991446  0.87222145  0.88195217  1
  Cr  Cr17  1  0.87011311  0.12811816  0.38210978  1
  Cr  Cr18  1  0.87649201  0.88077660  0.63162870  1
  Cr  Cr19  1  0.88416386  0.63423672  0.87449783  1
  Sn  Sn20  1  0.12604851  0.87661497  0.37529486  1
  Sn  Sn21  1  0.37386191  0.12328311  0.87526863  1
  Sn  Sn22  1  0.62602605  0.62358982  0.62475200  1
  Sn  Sn23  1  0.87407248  0.37663285  0.12476324  1
  O  O24  1  0.10817749  0.12329208  0.39241642  1
  O  O25  1  0.11654795  0.90100471  0.61960148  1
  O  O26  1  0.10690010  0.61897651  0.88436142  1
  O  O27  1  0.12728040  0.14205010  0.85839161  1
  O  O28  1  0.11912841  0.39027188  0.10508340  1
  O  O29  1  0.13106372  0.35616440  0.63428056  1
  O  O30  1  0.13921413  0.63187005  0.35497258  1
  O  O31  1  0.15101681  0.86758985  0.13095906  1
  O  O32  1  0.34912042  0.13219661  0.63091774  1
  O  O33  1  0.36087589  0.36797040  0.85471990  1
  O  O34  1  0.36917343  0.64364541  0.13420850  1
  O  O35  1  0.38091130  0.60913376  0.60492895  1
  O  O36  1  0.37276189  0.85759191  0.35842592  1
  O  O37  1  0.39288844  0.38062878  0.38313884  1
  O  O38  1  0.38348612  0.09911377  0.11965891  1
  O  O39  1  0.39188492  0.87670369  0.89245541  1
  O  O40  1  0.60796806  0.37676359  0.60765083  1
  O  O41  1  0.61643885  0.59887161  0.38040008  1
  O  O42  1  0.60674174  0.88097479  0.11632949  1
  O  O43  1  0.62740179  0.35788131  0.14127978  1
  O  O44  1  0.61886458  0.10963423  0.89506611  1
  O  O45  1  0.63123478  0.14346283  0.36623060  1
  O  O46  1  0.63896028  0.86829296  0.64506977  1
  O  O47  1  0.65056757  0.63266940  0.86899251  1
  O  O48  1  0.84887097  0.36776030  0.36897528  1
  O  O49  1  0.86073934  0.13190760  0.14527821  1
  O  O50  1  0.86874004  0.85657195  0.86521588  1
  O  O51  1  0.88113607  0.89081094  0.39501138  1
  O  O52  1  0.87264900  0.64280797  0.64133543  1
  O  O53  1  0.89322678  0.11946850  0.61655098  1
  O  O54  1  0.88371996  0.40066071  0.88039852  1
  O  O55  1  0.89244700  0.62334044  0.10777182  1
