# generated using pymatgen
data_VSb3(PO4)6
_symmetry_space_group_name_H-M   'P 1'
_cell_length_a   8.90879363
_cell_length_b   8.90879381
_cell_length_c   8.90879408
_cell_angle_alpha   58.18117466
_cell_angle_beta   58.18117680
_cell_angle_gamma   58.18117538
_symmetry_Int_Tables_number   1
_chemical_formula_structural   VSb3(PO4)6
_chemical_formula_sum   'V1 Sb3 P6 O24'
_cell_volume   479.12843724
_cell_formula_units_Z   1
loop_
 _symmetry_equiv_pos_site_id
 _symmetry_equiv_pos_as_xyz
  1  'x, y, z'
loop_
 _atom_site_type_symbol
 _atom_site_label
 _atom_site_symmetry_multiplicity
 _atom_site_fract_x
 _atom_site_fract_y
 _atom_site_fract_z
 _atom_site_occupancy
  V  V0  1  0.85817369  0.85817369  0.85817369  1
  Sb  Sb1  1  0.14327021  0.14327021  0.14327021  1
  Sb  Sb2  1  0.35672930  0.35672930  0.35672930  1
  Sb  Sb3  1  0.64422861  0.64422861  0.64422861  1
  P  P4  1  0.03776801  0.75130145  0.46487113  1
  P  P5  1  0.46487113  0.03776801  0.75130145  1
  P  P6  1  0.75130145  0.46487113  0.03776801  1
  P  P7  1  0.24972278  0.53939715  0.96118370  1
  P  P8  1  0.53939715  0.96118370  0.24972278  1
  P  P9  1  0.96118370  0.24972278  0.53939715  1
  O  O10  1  0.13255374  0.28035481  0.51085426  1
  O  O11  1  0.28035481  0.51085426  0.13255374  1
  O  O12  1  0.06199240  0.92245618  0.27862003  1
  O  O13  1  0.51085426  0.13255374  0.28035481  1
  O  O14  1  0.21945868  0.57721499  0.43625869  1
  O  O15  1  0.00926957  0.77789015  0.63218086  1
  O  O16  1  0.27862003  0.06199240  0.92245618  1
  O  O17  1  0.43625869  0.21945868  0.57721499  1
  O  O18  1  0.57721499  0.43625869  0.21945868  1
  O  O19  1  0.23221556  0.36176952  0.98595142  1
  O  O20  1  0.07991351  0.71358787  0.93880485  1
  O  O21  1  0.36176952  0.98595142  0.23221556  1
  O  O22  1  0.63218086  0.00926957  0.77789015  1
  O  O23  1  0.92245618  0.27862003  0.06199240  1
  O  O24  1  0.77789015  0.63218086  0.00926957  1
  O  O25  1  0.42899123  0.55463606  0.78331001  1
  O  O26  1  0.55463606  0.78331001  0.42899123  1
  O  O27  1  0.71358787  0.93880485  0.07991351  1
  O  O28  1  0.98595142  0.23221556  0.36176952  1
  O  O29  1  0.78331001  0.42899123  0.55463606  1
  O  O30  1  0.48152290  0.86906490  0.72448280  1
  O  O31  1  0.93880485  0.07991351  0.71358787  1
  O  O32  1  0.72448280  0.48152290  0.86906490  1
  O  O33  1  0.86906490  0.72448280  0.48152290  1
