# generated using pymatgen
data_Li2NbFe3O8
_symmetry_space_group_name_H-M   'P 1'
_cell_length_a   6.00691772
_cell_length_b   6.00738234
_cell_length_c   9.81189567
_cell_angle_alpha   89.98405382
_cell_angle_beta   90.00796804
_cell_angle_gamma   120.00255933
_symmetry_Int_Tables_number   1
_chemical_formula_structural   Li2NbFe3O8
_chemical_formula_sum   'Li4 Nb2 Fe6 O16'
_cell_volume   306.62622231
_cell_formula_units_Z   2
loop_
 _symmetry_equiv_pos_site_id
 _symmetry_equiv_pos_as_xyz
  1  'x, y, z'
loop_
 _atom_site_type_symbol
 _atom_site_label
 _atom_site_symmetry_multiplicity
 _atom_site_fract_x
 _atom_site_fract_y
 _atom_site_fract_z
 _atom_site_occupancy
  Li  Li0  1  0.33334324  0.66660057  0.90201896  1
  Li  Li1  1  0.99996351  0.00006431  0.99049902  1
  Li  Li2  1  0.00003649  0.00010080  0.49049902  1
  Li  Li3  1  0.66665676  0.33325732  0.40201896  1
  Nb  Nb4  1  0.33334535  0.66668973  0.49350006  1
  Nb  Nb5  1  0.66665465  0.33334438  0.99350106  1
  Fe  Fe6  1  0.17118742  0.82868780  0.21705880  1
  Fe  Fe7  1  0.17131905  0.34262725  0.21690265  1
  Fe  Fe8  1  0.65744412  0.82862883  0.21705675  1
  Fe  Fe9  1  0.34255588  0.17118471  0.71705675  1
  Fe  Fe10  1  0.82881258  0.65750039  0.71705880  1
  Fe  Fe11  1  0.82868095  0.17130920  0.71690265  1
  O  O12  1  0.16761644  0.83236230  0.59140017  1
  O  O13  1  0.03678660  0.51847913  0.34371801  1
  O  O14  1  0.33325091  0.66640870  0.10782243  1
  O  O15  1  0.00011977  0.00038123  0.30374181  1
  O  O16  1  0.99988023  0.00026146  0.80374181  1
  O  O17  1  0.16772311  0.33538016  0.59133826  1
  O  O18  1  0.48156403  0.96314006  0.34376112  1
  O  O19  1  0.48170234  0.51843581  0.34373148  1
  O  O20  1  0.33531807  0.16760511  0.09137049  1
  O  O21  1  0.66468193  0.83228803  0.59137049  1
  O  O22  1  0.51843597  0.48157603  0.84376112  1
  O  O23  1  0.51829766  0.03673347  0.84373148  1
  O  O24  1  0.66674909  0.33315779  0.60782243  1
  O  O25  1  0.83238356  0.66474485  0.09140017  1
  O  O26  1  0.96321340  0.48169153  0.84371801  1
  O  O27  1  0.83227689  0.16765705  0.09133826  1
