# generated using pymatgen
data_Fe5(BO3)6
_symmetry_space_group_name_H-M   'P 1'
_cell_length_a   3.91203676
_cell_length_b   11.96928410
_cell_length_c   15.93255865
_cell_angle_alpha   90.00000000
_cell_angle_beta   90.01589142
_cell_angle_gamma   90.00000000
_symmetry_Int_Tables_number   1
_chemical_formula_structural   Fe5(BO3)6
_chemical_formula_sum   'Fe10 B12 O36'
_cell_volume   746.03054956
_cell_formula_units_Z   2
loop_
 _symmetry_equiv_pos_site_id
 _symmetry_equiv_pos_as_xyz
  1  'x, y, z'
loop_
 _atom_site_type_symbol
 _atom_site_label
 _atom_site_symmetry_multiplicity
 _atom_site_fract_x
 _atom_site_fract_y
 _atom_site_fract_z
 _atom_site_occupancy
  Fe  Fe0  1  0.24998014  0.62988925  0.86613378  1
  Fe  Fe1  1  0.25001986  0.62988925  0.63386622  1
  Fe  Fe2  1  0.75001986  0.37011075  0.13386622  1
  Fe  Fe3  1  0.74998014  0.37011075  0.36613378  1
  Fe  Fe4  1  0.25004635  0.55325700  0.05967110  1
  Fe  Fe5  1  0.24995365  0.55325700  0.44032890  1
  Fe  Fe6  1  0.74995365  0.44674300  0.94032890  1
  Fe  Fe7  1  0.75004635  0.44674300  0.55967110  1
  Fe  Fe8  1  0.25000000  0.50904242  0.25000000  1
  Fe  Fe9  1  0.75000000  0.49095758  0.75000000  1
  B  B10  1  0.24999177  0.87925563  0.87518535  1
  B  B11  1  0.25000823  0.87925563  0.62481465  1
  B  B12  1  0.75000823  0.12074437  0.12481465  1
  B  B13  1  0.74999177  0.12074437  0.37518535  1
  B  B14  1  0.24966527  0.79842644  0.01749290  1
  B  B15  1  0.25033473  0.79842644  0.48250710  1
  B  B16  1  0.75033473  0.20157356  0.98250710  1
  B  B17  1  0.74966527  0.20157356  0.51749290  1
  B  B18  1  0.25026363  0.75418102  0.17260970  1
  B  B19  1  0.24973637  0.75418102  0.32739030  1
  B  B20  1  0.74973637  0.24581898  0.82739030  1
  B  B21  1  0.75026363  0.24581898  0.67260970  1
  O  O22  1  0.75000000  0.45642652  0.25000000  1
  O  O23  1  0.25000000  0.54357348  0.75000000  1
  O  O24  1  0.75003750  0.51840160  0.05716440  1
  O  O25  1  0.74996250  0.51840160  0.44283560  1
  O  O26  1  0.24996250  0.48159840  0.94283560  1
  O  O27  1  0.25003750  0.48159840  0.55716440  1
  O  O28  1  0.75001002  0.58438237  0.85981312  1
  O  O29  1  0.74998998  0.58438237  0.64018688  1
  O  O30  1  0.24998998  0.41561763  0.14018688  1
  O  O31  1  0.25001002  0.41561763  0.35981312  1
  O  O32  1  0.25117064  0.63889621  0.16579272  1
  O  O33  1  0.24882936  0.63889621  0.33420728  1
  O  O34  1  0.74882936  0.36110379  0.83420728  1
  O  O35  1  0.75117064  0.36110379  0.66579272  1
  O  O36  1  0.24961969  0.69013353  0.98825738  1
  O  O37  1  0.25038031  0.69013353  0.51174262  1
  O  O38  1  0.75038031  0.30986647  0.01174262  1
  O  O39  1  0.74961969  0.30986647  0.48825738  1
  O  O40  1  0.24992572  0.78175804  0.83129048  1
  O  O41  1  0.25007428  0.78175804  0.66870952  1
  O  O42  1  0.75007428  0.21824196  0.16870952  1
  O  O43  1  0.74992572  0.21824196  0.33129048  1
  O  O44  1  0.25000000  0.80483925  0.25000000  1
  O  O45  1  0.75000000  0.19516075  0.75000000  1
  O  O46  1  0.24962871  0.88629491  0.96243890  1
  O  O47  1  0.25037129  0.88629491  0.53756110  1
  O  O48  1  0.75037129  0.11370509  0.03756110  1
  O  O49  1  0.74962871  0.11370509  0.46243890  1
  O  O50  1  0.24980252  0.82139054  0.10232220  1
  O  O51  1  0.25019748  0.82139054  0.39767780  1
  O  O52  1  0.75019748  0.17860946  0.89767780  1
  O  O53  1  0.74980252  0.17860946  0.60232220  1
  O  O54  1  0.25058159  0.97998503  0.83426499  1
  O  O55  1  0.24941841  0.97998503  0.66573501  1
  O  O56  1  0.74941841  0.02001497  0.16573501  1
  O  O57  1  0.75058159  0.02001497  0.33426499  1
