# generated using pymatgen
data_Li2NbV3O8
_symmetry_space_group_name_H-M   'P 1'
_cell_length_a   6.09703210
_cell_length_b   6.09703238
_cell_length_c   6.09703234
_cell_angle_alpha   59.60911191
_cell_angle_beta   59.60910898
_cell_angle_gamma   59.60911005
_symmetry_Int_Tables_number   1
_chemical_formula_structural   Li2NbV3O8
_chemical_formula_sum   'Li2 Nb1 V3 O8'
_cell_volume   158.84186690
_cell_formula_units_Z   1
loop_
 _symmetry_equiv_pos_site_id
 _symmetry_equiv_pos_as_xyz
  1  'x, y, z'
loop_
 _atom_site_type_symbol
 _atom_site_label
 _atom_site_symmetry_multiplicity
 _atom_site_fract_x
 _atom_site_fract_y
 _atom_site_fract_z
 _atom_site_occupancy
  Li  Li0  1  0.12794724  0.12794724  0.12794724  1
  Li  Li1  1  0.87205276  0.87205276  0.87205276  1
  Nb  Nb2  1  0.50000000  0.50000000  0.50000000  1
  V  V3  1  0.00000000  0.50000000  0.50000000  1
  V  V4  1  0.50000000  0.00000000  0.50000000  1
  V  V5  1  0.50000000  0.50000000  0.00000000  1
  O  O6  1  0.26515815  0.26515815  0.26515815  1
  O  O7  1  0.26427573  0.26427573  0.71942883  1
  O  O8  1  0.26427573  0.71942883  0.26427573  1
  O  O9  1  0.71942883  0.26427573  0.26427573  1
  O  O10  1  0.28057117  0.73572427  0.73572427  1
  O  O11  1  0.73572427  0.28057117  0.73572427  1
  O  O12  1  0.73572427  0.73572427  0.28057117  1
  O  O13  1  0.73484185  0.73484185  0.73484185  1
