# generated using pymatgen
data_Na2NiPCO7
_symmetry_space_group_name_H-M   'P 1'
_cell_length_a   8.72018113
_cell_length_b   5.10316366
_cell_length_c   6.81101340
_cell_angle_alpha   90.00000000
_cell_angle_beta   90.00000000
_cell_angle_gamma   88.33003247
_symmetry_Int_Tables_number   1
_chemical_formula_structural   Na2NiPCO7
_chemical_formula_sum   'Na4 Ni2 P2 C2 O14'
_cell_volume   302.96484782
_cell_formula_units_Z   2
loop_
 _symmetry_equiv_pos_site_id
 _symmetry_equiv_pos_as_xyz
  1  'x, y, z'
loop_
 _atom_site_type_symbol
 _atom_site_label
 _atom_site_symmetry_multiplicity
 _atom_site_fract_x
 _atom_site_fract_y
 _atom_site_fract_z
 _atom_site_occupancy
  Na  Na0  1  0.25665281  0.24714311  0.01400301  1
  Na  Na1  1  0.25665281  0.24714311  0.48599699  1
  Na  Na2  1  0.74334719  0.75285689  0.51400301  1
  Na  Na3  1  0.74334719  0.75285689  0.98599699  1
  Ni  Ni4  1  0.34824310  0.78048606  0.75000000  1
  Ni  Ni5  1  0.65175690  0.21951394  0.25000000  1
  P  P6  1  0.41797539  0.72099588  0.25000000  1
  P  P7  1  0.58202461  0.27900412  0.75000000  1
  C  C8  1  0.07371373  0.71470695  0.75000000  1
  C  C9  1  0.92628627  0.28529305  0.25000000  1
  O  O10  1  0.06767307  0.31556940  0.25000000  1
  O  O11  1  0.13676811  0.94221032  0.75000000  1
  O  O12  1  0.17524563  0.52178898  0.75000000  1
  O  O13  1  0.32386267  0.78712259  0.06545886  1
  O  O14  1  0.32386267  0.78712259  0.43454114  1
  O  O15  1  0.42618617  0.13898419  0.75000000  1
  O  O16  1  0.45806782  0.41785656  0.25000000  1
  O  O17  1  0.54193218  0.58214344  0.75000000  1
  O  O18  1  0.57381383  0.86101581  0.25000000  1
  O  O19  1  0.67613733  0.21287741  0.56545886  1
  O  O20  1  0.67613733  0.21287741  0.93454114  1
  O  O21  1  0.82475437  0.47821102  0.25000000  1
  O  O22  1  0.86323189  0.05778968  0.25000000  1
  O  O23  1  0.93232693  0.68443060  0.75000000  1
