# generated using pymatgen
data_Li5Ti2V5O12
_symmetry_space_group_name_H-M   'P 1'
_cell_length_a   5.21740157
_cell_length_b   5.21740230
_cell_length_c   10.04908845
_cell_angle_alpha   84.58322915
_cell_angle_beta   95.41677412
_cell_angle_gamma   59.12177943
_symmetry_Int_Tables_number   1
_chemical_formula_structural   Li5Ti2V5O12
_chemical_formula_sum   'Li5 Ti2 V5 O12'
_cell_volume   230.43824781
_cell_formula_units_Z   1
loop_
 _symmetry_equiv_pos_site_id
 _symmetry_equiv_pos_as_xyz
  1  'x, y, z'
loop_
 _atom_site_type_symbol
 _atom_site_label
 _atom_site_symmetry_multiplicity
 _atom_site_fract_x
 _atom_site_fract_y
 _atom_site_fract_z
 _atom_site_occupancy
  Li  Li0  1  0.15912162  0.67090480  0.50539822  1
  Li  Li1  1  0.32484646  0.83534663  0.99451434  1
  Li  Li2  1  0.67090480  0.15912162  0.99460178  1
  Li  Li3  1  0.83534663  0.32484646  0.50548566  1
  Li  Li4  1  0.91950820  0.91950820  0.75000000  1
  Ti  Ti5  1  0.25194624  0.25194624  0.75000000  1
  Ti  Ti6  1  0.75085950  0.75085950  0.25000000  1
  V  V7  1  0.99686425  0.50567969  0.99555317  1
  V  V8  1  0.50567969  0.99686425  0.50444683  1
  V  V9  1  0.42216170  0.42216170  0.25000000  1
  V  V10  1  0.57967396  0.57967396  0.75000000  1
  V  V11  1  0.08287383  0.08287383  0.25000000  1
  O  O12  1  0.96575974  0.21989854  0.86524519  1
  O  O13  1  0.21989854  0.96575974  0.63475481  1
  O  O14  1  0.11766426  0.38711014  0.36837417  1
  O  O15  1  0.38711014  0.11766426  0.13162583  1
  O  O16  1  0.29963648  0.51719070  0.86567784  1
  O  O17  1  0.51719070  0.29963648  0.63432216  1
  O  O18  1  0.48502410  0.70539255  0.37094970  1
  O  O19  1  0.70539255  0.48502410  0.12905030  1
  O  O20  1  0.60402730  0.88101320  0.86393986  1
  O  O21  1  0.88101320  0.60402730  0.63606014  1
  O  O22  1  0.79576576  0.02172835  0.37233273  1
  O  O23  1  0.02172835  0.79576576  0.12766727  1
