# generated using pymatgen
data_LiCo(SO4)2
_symmetry_space_group_name_H-M   'P 1'
_cell_length_a   8.95159953
_cell_length_b   8.84975159
_cell_length_c   8.97613275
_cell_angle_alpha   56.10392669
_cell_angle_beta   55.59013068
_cell_angle_gamma   55.52429625
_symmetry_Int_Tables_number   1
_chemical_formula_structural   LiCo(SO4)2
_chemical_formula_sum   'Li3 Co3 S6 O24'
_cell_volume   453.09296559
_cell_formula_units_Z   3
loop_
 _symmetry_equiv_pos_site_id
 _symmetry_equiv_pos_as_xyz
  1  'x, y, z'
loop_
 _atom_site_type_symbol
 _atom_site_label
 _atom_site_symmetry_multiplicity
 _atom_site_fract_x
 _atom_site_fract_y
 _atom_site_fract_z
 _atom_site_occupancy
  Li  Li0  1  0.16354488  0.13628866  0.15364858  1
  Li  Li1  1  0.17943074  0.41574586  0.77771906  1
  Li  Li2  1  0.77623382  0.18116865  0.41599842  1
  Co  Co3  1  0.35869539  0.35330013  0.34666918  1
  Co  Co4  1  0.64055835  0.64239334  0.65070092  1
  Co  Co5  1  0.84543615  0.85394722  0.85842974  1
  S  S6  1  0.03601249  0.74222101  0.46808122  1
  S  S7  1  0.46403279  0.03814691  0.74892116  1
  S  S8  1  0.74962458  0.46821442  0.03376819  1
  S  S9  1  0.25239864  0.54311442  0.95461649  1
  S  S10  1  0.53658037  0.95543084  0.25534592  1
  S  S11  1  0.95709365  0.25217238  0.54103409  1
  O  O12  1  0.10946923  0.29764513  0.51071556  1
  O  O13  1  0.29991024  0.51252635  0.10401163  1
  O  O14  1  0.00586068  0.94709447  0.34547723  1
  O  O15  1  0.50927523  0.11492442  0.29975190  1
  O  O16  1  0.02699179  0.70120709  0.66022327  1
  O  O17  1  0.23463230  0.60965894  0.38036985  1
  O  O18  1  0.37815405  0.24088011  0.61988151  1
  O  O19  1  0.33926716  0.01191537  0.94814119  1
  O  O20  1  0.62944866  0.37298301  0.23686274  1
  O  O21  1  0.04615009  0.68326260  0.97990945  1
  O  O22  1  0.27763241  0.36079527  0.96083008  1
  O  O23  1  0.35229002  0.97656318  0.28125581  1
  O  O24  1  0.66209298  0.02553797  0.70322477  1
  O  O25  1  0.70914329  0.66325985  0.02025675  1
  O  O26  1  0.95498470  0.34043520  0.00075281  1
  O  O27  1  0.38183945  0.63244853  0.75962323  1
  O  O28  1  0.67670881  0.98429443  0.05062469  1
  O  O29  1  0.62773808  0.76516191  0.38293081  1
  O  O30  1  0.76030693  0.38611971  0.63118391  1
  O  O31  1  0.96297087  0.27650067  0.36213621  1
  O  O32  1  0.49329832  0.89650152  0.68688750  1
  O  O33  1  0.97947406  0.04779066  0.67851474  1
  O  O34  1  0.68585455  0.49175706  0.90010651  1
  O  O35  1  0.89026225  0.68879369  0.49659389  1
