# generated using pymatgen
data_MgTi14O25
_symmetry_space_group_name_H-M   'P 1'
_cell_length_a   9.88898467
_cell_length_b   10.73355783
_cell_length_c   11.33051436
_cell_angle_alpha   69.72494187
_cell_angle_beta   64.63093096
_cell_angle_gamma   62.58988993
_symmetry_Int_Tables_number   1
_chemical_formula_structural   MgTi14O25
_chemical_formula_sum   'Mg2 Ti28 O50'
_cell_volume   947.83559730
_cell_formula_units_Z   2
loop_
 _symmetry_equiv_pos_site_id
 _symmetry_equiv_pos_as_xyz
  1  'x, y, z'
loop_
 _atom_site_type_symbol
 _atom_site_label
 _atom_site_symmetry_multiplicity
 _atom_site_fract_x
 _atom_site_fract_y
 _atom_site_fract_z
 _atom_site_occupancy
  Mg  Mg0  1  0.09609475  0.44986909  0.75049323  1
  Mg  Mg1  1  0.70390525  0.95013091  0.24950677  1
  Ti  Ti2  1  0.10561848  0.15138385  0.24795915  1
  Ti  Ti3  1  0.04258006  0.08834416  0.56048290  1
  Ti  Ti4  1  0.16098744  0.51178031  0.44012498  1
  Ti  Ti5  1  0.36177793  0.11136210  0.43756176  1
  Ti  Ti6  1  0.31029533  0.58780478  0.05664452  1
  Ti  Ti7  1  0.51014469  0.18693504  0.05868288  1
  Ti  Ti8  1  0.10826298  0.98858772  0.05781561  1
  Ti  Ti9  1  0.29541137  0.05160408  0.75031950  1
  Ti  Ti10  1  0.30601548  0.74983055  0.24833934  1
  Ti  Ti11  1  0.50458863  0.34839592  0.24968050  1
  Ti  Ti12  1  0.09107834  0.60948604  0.94186010  1
  Ti  Ti13  1  0.28985531  0.21306496  0.94131712  1
  Ti  Ti14  1  0.23988884  0.68635759  0.56367470  1
  Ti  Ti15  1  0.43822207  0.28863790  0.56243824  1
  Ti  Ti16  1  0.56011116  0.71364241  0.43632530  1
  Ti  Ti17  1  0.75741994  0.31165584  0.43951710  1
  Ti  Ti18  1  0.70892166  0.79051396  0.05813990  1
  Ti  Ti19  1  0.91028031  0.38862321  0.05737281  1
  Ti  Ti20  1  0.49398452  0.65016945  0.75166066  1
  Ti  Ti21  1  0.69438152  0.24861615  0.75204085  1
  Ti  Ti22  1  0.90446174  0.55149789  0.24804180  1
  Ti  Ti23  1  0.88971969  0.01137679  0.94262719  1
  Ti  Ti24  1  0.69173702  0.41141228  0.94218439  1
  Ti  Ti25  1  0.48970467  0.81219522  0.94335548  1
  Ti  Ti26  1  0.84176132  0.48710171  0.56231001  1
  Ti  Ti27  1  0.63901256  0.88821969  0.55987502  1
  Ti  Ti28  1  0.95823868  0.91289829  0.43768999  1
  Ti  Ti29  1  0.89553826  0.84850211  0.75195820  1
  O  O30  1  0.05665054  0.18565847  0.06857165  1
  O  O31  1  0.19749488  0.12412882  0.38151945  1
  O  O32  1  0.10127322  0.57608784  0.12341134  1
  O  O33  1  0.30221199  0.17552059  0.12317554  1
  O  O34  1  0.09737721  0.02516301  0.87701095  1
  O  O35  1  0.00077804  0.47823857  0.61157670  1
  O  O36  1  0.20238976  0.07619194  0.61901483  1
  O  O37  1  0.25652302  0.78720199  0.06778107  1
  O  O38  1  0.45642792  0.38659954  0.06737267  1
  O  O39  1  0.11653259  0.71553404  0.42803053  1
  O  O40  1  0.31386431  0.31425362  0.43033930  1
  O  O41  1  0.33275532  0.54969989  0.24879868  1
  O  O42  1  0.13257037  0.95012330  0.25010721  1
  O  O43  1  0.52614975  0.15598508  0.24997790  1
  O  O44  1  0.06744264  0.65650434  0.74941460  1
  O  O45  1  0.27385025  0.24401492  0.75002210  1
  O  O46  1  0.28453207  0.48667374  0.56813904  1
  O  O47  1  0.48613569  0.08574638  0.56966070  1
  O  O48  1  0.08235676  0.88671963  0.57045554  1
  O  O49  1  0.14014298  0.41338880  0.93449961  1
  O  O50  1  0.34357208  0.01340046  0.93262733  1
  O  O51  1  0.39823576  0.72232157  0.38256149  1
  O  O52  1  0.59761024  0.32380806  0.38098517  1
  O  O53  1  0.50275309  0.77507591  0.12359748  1
  O  O54  1  0.70262279  0.37483699  0.12298905  1
  O  O55  1  0.29724691  0.62492409  0.87640252  1
  O  O56  1  0.49778801  0.22447941  0.87682446  1
  O  O57  1  0.40176424  0.67767843  0.61743851  1
  O  O58  1  0.60250512  0.27587118  0.61848055  1
  O  O59  1  0.65985702  0.98661120  0.06550039  1
  O  O60  1  0.85619629  0.58642941  0.06813572  1
  O  O61  1  0.91550756  0.11398771  0.42848297  1
  O  O62  1  0.71764324  0.51328037  0.42954446  1
  O  O63  1  0.51546793  0.91332626  0.43186096  1
  O  O64  1  0.73255736  0.74349566  0.25058540  1
  O  O65  1  0.93455941  0.35042920  0.25126870  1
  O  O66  1  0.86544059  0.04957080  0.74873130  1
  O  O67  1  0.46724468  0.85030011  0.75120132  1
  O  O68  1  0.66742963  0.44987670  0.74989279  1
  O  O69  1  0.68346741  0.68446596  0.57196947  1
  O  O70  1  0.88449244  0.28601229  0.57151703  1
  O  O71  1  0.54347698  0.61279801  0.93221893  1
  O  O72  1  0.74334946  0.21434153  0.93142835  1
  O  O73  1  0.79922196  0.92176143  0.38842330  1
  O  O74  1  0.99712016  0.52400674  0.38223342  1
  O  O75  1  0.90778243  0.97697909  0.11647604  1
  O  O76  1  0.69872678  0.82391216  0.87658866  1
  O  O77  1  0.89221757  0.42302091  0.88352396  1
  O  O78  1  0.80287984  0.87599326  0.61776658  1
  O  O79  1  0.94380371  0.81357059  0.93186428  1
