# generated using pymatgen
data_Na2MnPCO7
_symmetry_space_group_name_H-M   'P 1'
_cell_length_a   8.88033170
_cell_length_b   8.53902089
_cell_length_c   8.49170294
_cell_angle_alpha   104.70731425
_cell_angle_beta   89.16747547
_cell_angle_gamma   89.17215998
_symmetry_Int_Tables_number   1
_chemical_formula_structural   Na2MnPCO7
_chemical_formula_sum   'Na8 Mn4 P4 C4 O28'
_cell_volume   622.64712853
_cell_formula_units_Z   4
loop_
 _symmetry_equiv_pos_site_id
 _symmetry_equiv_pos_as_xyz
  1  'x, y, z'
loop_
 _atom_site_type_symbol
 _atom_site_label
 _atom_site_symmetry_multiplicity
 _atom_site_fract_x
 _atom_site_fract_y
 _atom_site_fract_z
 _atom_site_occupancy
  Na  Na0  1  0.75957127  0.37799894  0.37114075  1
  Na  Na1  1  0.75083451  0.11553202  0.64204617  1
  Na  Na2  1  0.74552281  0.62253417  0.13567076  1
  Na  Na3  1  0.24729891  0.13098098  0.13574937  1
  Na  Na4  1  0.24471456  0.36538424  0.86101175  1
  Na  Na5  1  0.24520946  0.61208139  0.61627693  1
  Na  Na6  1  0.24883614  0.88673681  0.38141027  1
  Na  Na7  1  0.06818079  0.76745430  0.99712161  1
  Mn  Mn8  1  0.64961663  0.49226463  0.73630979  1
  Mn  Mn9  1  0.64821821  0.98489717  0.22744558  1
  Mn  Mn10  1  0.35156645  0.51750149  0.26431850  1
  Mn  Mn11  1  0.35415091  0.01450051  0.76691280  1
  P  P12  1  0.58064616  0.27395252  0.02170663  1
  P  P13  1  0.57888422  0.76868281  0.51793000  1
  P  P14  1  0.42454797  0.22849647  0.47760428  1
  P  P15  1  0.41715938  0.72731219  0.97931660  1
  C  C16  1  0.92895941  0.00777505  0.26163167  1
  C  C17  1  0.93045379  0.51390726  0.76760551  1
  C  C18  1  0.07344875  0.49018308  0.23857876  1
  C  C19  1  0.07557155  0.98979534  0.73929897  1
  O  O20  1  0.93331722  0.48997314  0.23313376  1
  O  O21  1  0.93716032  0.98648991  0.73342599  1
  O  O22  1  0.85574836  0.41095379  0.65410065  1
  O  O23  1  0.85304183  0.89876778  0.15397786  1
  O  O24  1  0.84575874  0.11174013  0.36402633  1
  O  O25  1  0.84665151  0.61035480  0.87694057  1
  O  O26  1  0.67360563  0.15735517  0.09387036  1
  O  O27  1  0.66662451  0.63495157  0.57261768  1
  O  O28  1  0.67017195  0.33011722  0.88947708  1
  O  O29  1  0.67213129  0.82645917  0.38963380  1
  O  O30  1  0.54447672  0.43018026  0.16630444  1
  O  O31  1  0.57915795  0.29329776  0.54422193  1
  O  O32  1  0.56714743  0.79217438  0.05389332  1
  O  O33  1  0.54251424  0.91832032  0.66521373  1
  O  O34  1  0.45386294  0.07655038  0.32526113  1
  O  O35  1  0.42750230  0.20081823  0.95506592  1
  O  O36  1  0.42380027  0.70242164  0.44739170  1
  O  O37  1  0.45177929  0.57856003  0.82691260  1
  O  O38  1  0.33029140  0.17049505  0.60496480  1
  O  O39  1  0.33239113  0.35587989  0.41772301  1
  O  O40  1  0.31372245  0.66705571  0.09969304  1
  O  O41  1  0.32073625  0.85446970  0.92267592  1
  O  O42  1  0.16446683  0.38961416  0.13768282  1
  O  O43  1  0.16984539  0.88734706  0.64180309  1
  O  O44  1  0.15007924  0.09849230  0.85121077  1
  O  O45  1  0.14736477  0.59861093  0.34951376  1
  O  O46  1  0.07156472  0.00154786  0.25379862  1
  O  O47  1  0.07325544  0.51798628  0.76743260  1
