# generated using pymatgen
data_Li8TiFe7(PO4)12
_symmetry_space_group_name_H-M   'P 1'
_cell_length_a   8.67242165
_cell_length_b   8.78938267
_cell_length_c   12.22126931
_cell_angle_alpha   90.04147994
_cell_angle_beta   90.05067737
_cell_angle_gamma   90.01762189
_symmetry_Int_Tables_number   1
_chemical_formula_structural   Li8TiFe7(PO4)12
_chemical_formula_sum   'Li8 Ti1 Fe7 P12 O48'
_cell_volume   931.56844233
_cell_formula_units_Z   1
loop_
 _symmetry_equiv_pos_site_id
 _symmetry_equiv_pos_as_xyz
  1  'x, y, z'
loop_
 _atom_site_type_symbol
 _atom_site_label
 _atom_site_symmetry_multiplicity
 _atom_site_fract_x
 _atom_site_fract_y
 _atom_site_fract_z
 _atom_site_occupancy
  Li  Li0  1  0.21670570  0.72267478  0.18219427  1
  Li  Li1  1  0.21696109  0.77711618  0.81758908  1
  Li  Li2  1  0.28334886  0.22279598  0.31851518  1
  Li  Li3  1  0.28303230  0.27757633  0.68227283  1
  Li  Li4  1  0.71672597  0.72366198  0.31727423  1
  Li  Li5  1  0.71583250  0.77981675  0.68165791  1
  Li  Li6  1  0.78328557  0.22243307  0.18259216  1
  Li  Li7  1  0.78366976  0.27772860  0.81924022  1
  Ti  Ti8  1  0.75321101  0.46003389  0.61091189  1
  Fe  Fe9  1  0.24835841  0.95955404  0.61299096  1
  Fe  Fe10  1  0.24902912  0.54106184  0.38767089  1
  Fe  Fe11  1  0.25113060  0.04070815  0.11285452  1
  Fe  Fe12  1  0.25107699  0.45948132  0.88707571  1
  Fe  Fe13  1  0.74914438  0.54080146  0.11228129  1
  Fe  Fe14  1  0.74878825  0.95971488  0.88759986  1
  Fe  Fe15  1  0.75147492  0.03919911  0.38767507  1
  P  P16  1  0.03982342  0.24914753  0.49889504  1
  P  P17  1  0.46077681  0.74987057  0.00003954  1
  P  P18  1  0.53943057  0.25017694  0.00034257  1
  P  P19  1  0.96053350  0.74958661  0.49951332  1
  P  P20  1  0.10569119  0.39281591  0.14688246  1
  P  P21  1  0.10560049  0.10732096  0.85331695  1
  P  P22  1  0.39457612  0.60611168  0.64703837  1
  P  P23  1  0.39427429  0.89269508  0.35332370  1
  P  P24  1  0.60516364  0.10745715  0.64620392  1
  P  P25  1  0.60508054  0.39261415  0.35344772  1
  P  P26  1  0.89470399  0.60737246  0.85212478  1
  P  P27  1  0.89443079  0.89267852  0.14689426  1
  O  O28  1  0.05600801  0.64184170  0.42908241  1
  O  O29  1  0.05516778  0.85600272  0.57240366  1
  O  O30  1  0.07311702  0.89541490  0.15583205  1
  O  O31  1  0.07292438  0.60417133  0.84331343  1
  O  O32  1  0.14487252  0.16459105  0.58147858  1
  O  O33  1  0.14657258  0.33819759  0.42070951  1
  O  O34  1  0.15604464  0.43443503  0.03072735  1
  O  O35  1  0.15569789  0.06606911  0.96952974  1
  O  O36  1  0.16223447  0.23238027  0.17966568  1
  O  O37  1  0.16176480  0.26792516  0.82060250  1
  O  O38  1  0.17381767  0.51403935  0.22589293  1
  O  O39  1  0.17399334  0.98596472  0.77433366  1
  O  O40  1  0.32627067  0.01393629  0.27405093  1
  O  O41  1  0.32687826  0.48544213  0.72603488  1
  O  O42  1  0.34098773  0.76761793  0.68016283  1
  O  O43  1  0.33785334  0.73234009  0.32057231  1
  O  O44  1  0.34506890  0.56582147  0.53057533  1
  O  O45  1  0.34387498  0.93507703  0.46962317  1
  O  O46  1  0.35253194  0.83730298  0.07955233  1
  O  O47  1  0.35272230  0.66249632  0.92038133  1
  O  O48  1  0.42721484  0.10778445  0.65630988  1
  O  O49  1  0.42750885  0.39528632  0.34669012  1
  O  O50  1  0.44357355  0.14264637  0.07111921  1
  O  O51  1  0.44385156  0.35750919  0.92890258  1
  O  O52  1  0.55639521  0.64276390  0.07148915  1
  O  O53  1  0.55660031  0.85702060  0.92874873  1
  O  O54  1  0.57476656  0.60038198  0.65467212  1
  O  O55  1  0.57295489  0.89578610  0.34378152  1
  O  O56  1  0.64691296  0.33774576  0.08036494  1
  O  O57  1  0.64744065  0.16323926  0.92034610  1
  O  O58  1  0.65557646  0.06610864  0.53045175  1
  O  O59  1  0.65839931  0.43103581  0.47324709  1
  O  O60  1  0.66286507  0.23275376  0.32182775  1
  O  O61  1  0.66466653  0.27076959  0.67666122  1
  O  O62  1  0.67551257  0.51473013  0.27744360  1
  O  O63  1  0.67496328  0.98912136  0.72607316  1
  O  O64  1  0.82618825  0.01370841  0.22609247  1
  O  O65  1  0.82650961  0.48706697  0.77040136  1
  O  O66  1  0.83796087  0.73199981  0.17914343  1
  O  O67  1  0.83718788  0.76751932  0.81933398  1
  O  O68  1  0.84210463  0.56358596  0.96728372  1
  O  O69  1  0.84409244  0.93403800  0.03060781  1
  O  O70  1  0.85121139  0.65728259  0.57826090  1
  O  O71  1  0.85070478  0.83602393  0.42127788  1
  O  O72  1  0.92679194  0.10488519  0.84431517  1
  O  O73  1  0.92681741  0.39545249  0.15527461  1
  O  O74  1  0.94379420  0.14181855  0.42891329  1
  O  O75  1  0.93717100  0.35866346  0.56802613  1
