# generated using pymatgen
data_Li2Fe3SbO8
_symmetry_space_group_name_H-M   'P 1'
_cell_length_a   6.13859998
_cell_length_b   6.13860051
_cell_length_c   6.13860005
_cell_angle_alpha   59.01340460
_cell_angle_beta   59.01340454
_cell_angle_gamma   59.01340298
_symmetry_Int_Tables_number   1
_chemical_formula_structural   Li2Fe3SbO8
_chemical_formula_sum   'Li2 Fe3 Sb1 O8'
_cell_volume   159.88528635
_cell_formula_units_Z   1
loop_
 _symmetry_equiv_pos_site_id
 _symmetry_equiv_pos_as_xyz
  1  'x, y, z'
loop_
 _atom_site_type_symbol
 _atom_site_label
 _atom_site_symmetry_multiplicity
 _atom_site_fract_x
 _atom_site_fract_y
 _atom_site_fract_z
 _atom_site_occupancy
  Li  Li0  1  0.13178698  0.13178698  0.13178698  1
  Li  Li1  1  0.86821302  0.86821302  0.86821302  1
  Fe  Fe2  1  0.00000000  0.50000000  0.50000000  1
  Fe  Fe3  1  0.50000000  0.00000000  0.50000000  1
  Fe  Fe4  1  0.50000000  0.50000000  0.00000000  1
  Sb  Sb5  1  0.50000000  0.50000000  0.50000000  1
  O  O6  1  0.26633859  0.26633859  0.26633859  1
  O  O7  1  0.26543618  0.26543618  0.71907397  1
  O  O8  1  0.26543618  0.71907397  0.26543618  1
  O  O9  1  0.71907397  0.26543618  0.26543618  1
  O  O10  1  0.28092603  0.73456382  0.73456382  1
  O  O11  1  0.73456382  0.28092603  0.73456382  1
  O  O12  1  0.73456382  0.73456382  0.28092603  1
  O  O13  1  0.73366141  0.73366141  0.73366141  1
