# generated using pymatgen
data_Na7Li3V10O30
_symmetry_space_group_name_H-M   'P 1'
_cell_length_a   16.57240768
_cell_length_b   11.10118725
_cell_length_c   8.02983298
_cell_angle_alpha   102.48741414
_cell_angle_beta   76.51860350
_cell_angle_gamma   85.98661289
_symmetry_Int_Tables_number   1
_chemical_formula_structural   Na7Li3V10O30
_chemical_formula_sum   'Na14 Li6 V20 O60'
_cell_volume   1391.26321481
_cell_formula_units_Z   2
loop_
 _symmetry_equiv_pos_site_id
 _symmetry_equiv_pos_as_xyz
  1  'x, y, z'
loop_
 _atom_site_type_symbol
 _atom_site_label
 _atom_site_symmetry_multiplicity
 _atom_site_fract_x
 _atom_site_fract_y
 _atom_site_fract_z
 _atom_site_occupancy
  Na  Na0  1  0.96725307  0.15016933  0.09964722  1
  Na  Na1  1  0.90771792  0.47321709  0.27674452  1
  Na  Na2  1  0.69240455  0.32681302  0.92342088  1
  Na  Na3  1  0.89235775  0.92695733  0.32301264  1
  Na  Na4  1  0.76596132  0.54973020  0.70045381  1
  Na  Na5  1  0.70774601  0.87325805  0.87674708  1
  Na  Na6  1  0.50652527  0.27353539  0.47822021  1
  Na  Na7  1  0.49212566  0.72657326  0.52262791  1
  Na  Na8  1  0.56636695  0.95054147  0.29946443  1
  Na  Na9  1  0.29285899  0.12877512  0.12199619  1
  Na  Na10  1  0.30834944  0.67137369  0.07629961  1
  Na  Na11  1  0.10796370  0.07353879  0.67691971  1
  Na  Na12  1  0.09221972  0.52685449  0.72309152  1
  Na  Na13  1  0.16705394  0.74932374  0.50063330  1
  Li  Li14  1  0.83185662  0.24557315  0.50438508  1
  Li  Li15  1  0.63165640  0.64567190  0.10467669  1
  Li  Li16  1  0.43132790  0.04780416  0.70574266  1
  Li  Li17  1  0.36758719  0.35282630  0.89705280  1
  Li  Li18  1  0.23298490  0.44462631  0.30145458  1
  Li  Li19  1  0.03194697  0.84557012  0.90437620  1
  V  V20  1  0.89474926  0.01143643  0.73253803  1
  V  V21  1  0.90524862  0.38806562  0.86150563  1
  V  V22  1  0.95870548  0.70360199  0.54660308  1
  V  V23  1  0.75873740  0.10380915  0.14673257  1
  V  V24  1  0.64204441  0.09975585  0.65623213  1
  V  V25  1  0.84224612  0.69963818  0.05637726  1
  V  V26  1  0.69403283  0.41140877  0.33384534  1
  V  V27  1  0.70515272  0.78813718  0.46163087  1
  V  V28  1  0.55572408  0.50192937  0.74858495  1
  V  V29  1  0.49472190  0.81156588  0.93255447  1
  V  V30  1  0.50383158  0.19058757  0.06005591  1
  V  V31  1  0.44160706  0.49828100  0.25324351  1
  V  V32  1  0.29530871  0.21263005  0.53581515  1
  V  V33  1  0.30645430  0.58461192  0.66431913  1
  V  V34  1  0.16118419  0.30451188  0.94523006  1
  V  V35  1  0.35884414  0.90400227  0.34679326  1
  V  V36  1  0.24257454  0.89837291  0.85638469  1
  V  V37  1  0.04242948  0.29968030  0.45605889  1
  V  V38  1  0.09490765  0.61136661  0.13273281  1
  V  V39  1  0.10528619  0.98795937  0.26147925  1
  O  O40  1  0.97924232  0.01555094  0.81596855  1
  O  O41  1  0.90432040  0.54661801  0.98665899  1
  O  O42  1  0.89895429  0.10112444  0.58869539  1
  O  O43  1  0.95964512  0.30107942  0.36768661  1
  O  O44  1  0.79787280  0.06000749  0.90691557  1
  O  O45  1  0.99787694  0.65975558  0.30685662  1
  O  O46  1  0.90117453  0.59222081  0.59200010  1
  O  O47  1  0.82388636  0.37164045  0.76879052  1
  O  O48  1  0.89292207  0.85382371  0.60803058  1
  O  O49  1  0.75950072  0.70076265  0.96767422  1
  O  O50  1  0.83577092  0.10753653  0.25230449  1
  O  O51  1  0.89767654  0.30398142  0.01168524  1
  O  O52  1  0.77879396  0.41541505  0.41620508  1
  O  O53  1  0.90345885  0.80644652  0.00364506  1
  O  O54  1  0.70333022  0.20661556  0.60402715  1
  O  O55  1  0.60470656  0.14245459  0.89591720  1
  O  O56  1  0.80560711  0.74178162  0.29635434  1
  O  O57  1  0.63332839  0.50463161  0.85287414  1
  O  O58  1  0.69770025  0.70411085  0.61170016  1
  O  O59  1  0.70420281  0.94669172  0.58680934  1
  O  O60  1  0.69299032  0.25396887  0.20822454  1
  O  O61  1  0.69834779  0.50122919  0.19002864  1
  O  O62  1  0.55953050  0.10112323  0.56703493  1
  O  O63  1  0.59686426  0.45788561  0.50912142  1
  O  O64  1  0.70117910  0.99233663  0.19196750  1
  O  O65  1  0.49437409  0.39453783  0.79699814  1
  O  O66  1  0.62390286  0.77146024  0.36858855  1
  O  O67  1  0.42222829  0.18132763  0.96704028  1
  O  O68  1  0.49285936  0.65405157  0.80738401  1
  O  O69  1  0.49875419  0.90174232  0.78944547  1
  O  O70  1  0.49532545  0.10459947  0.20817361  1
  O  O71  1  0.50535585  0.34710723  0.18811910  1
  O  O72  1  0.37741861  0.22100653  0.62709807  1
  O  O73  1  0.57917843  0.81514912  0.01601491  1
  O  O74  1  0.50251084  0.60594318  0.20244439  1
  O  O75  1  0.30384332  0.00501428  0.80338915  1
  O  O76  1  0.40487377  0.54157253  0.49370953  1
  O  O77  1  0.43586373  0.90747530  0.45220562  1
  O  O78  1  0.30319098  0.49725109  0.81056242  1
  O  O79  1  0.30398043  0.74420628  0.78855238  1
  O  O80  1  0.29398498  0.05472162  0.41015022  1
  O  O81  1  0.29969141  0.30142884  0.39072264  1
  O  O82  1  0.36097109  0.49437663  0.15756817  1
  O  O83  1  0.19685657  0.25976991  0.70527447  1
  O  O84  1  0.39796278  0.85997790  0.10691432  1
  O  O85  1  0.30118970  0.79220992  0.39153193  1
  O  O86  1  0.10380345  0.19360434  0.99456271  1
  O  O87  1  0.22446312  0.56936262  0.57337227  1
  O  O88  1  0.09909060  0.70087404  0.98859020  1
  O  O89  1  0.15982371  0.90062184  0.76790036  1
  O  O90  1  0.24137650  0.30941910  0.04249181  1
  O  O91  1  0.10423728  0.14659374  0.38655542  1
  O  O92  1  0.17932193  0.61547851  0.21637658  1
  O  O93  1  0.10393622  0.40611982  0.40266167  1
  O  O94  1  0.20567159  0.94160199  0.09627751  1
  O  O95  1  0.00559479  0.34182463  0.69617974  1
  O  O96  1  0.03577623  0.70743293  0.65222840  1
  O  O97  1  0.09766899  0.90400583  0.41171431  1
  O  O98  1  0.09396045  0.45379517  0.00787660  1
  O  O99  1  0.02402435  0.97145929  0.16847060  1
