# generated using pymatgen
data_Li2V3FeO8
_symmetry_space_group_name_H-M   'P 1'
_cell_length_a   8.40319873
_cell_length_b   8.41882257
_cell_length_c   8.45123214
_cell_angle_alpha   90.24168145
_cell_angle_beta   90.00099898
_cell_angle_gamma   90.00174758
_symmetry_Int_Tables_number   1
_chemical_formula_structural   Li2V3FeO8
_chemical_formula_sum   'Li8 V12 Fe4 O32'
_cell_volume   597.87742936
_cell_formula_units_Z   4
loop_
 _symmetry_equiv_pos_site_id
 _symmetry_equiv_pos_as_xyz
  1  'x, y, z'
loop_
 _atom_site_type_symbol
 _atom_site_label
 _atom_site_symmetry_multiplicity
 _atom_site_fract_x
 _atom_site_fract_y
 _atom_site_fract_z
 _atom_site_occupancy
  Li  Li0  1  0.12412001  0.87543235  0.37380290  1
  Li  Li1  1  0.25219906  0.74914217  0.74984873  1
  Li  Li2  1  0.24934986  0.25027832  0.24937128  1
  Li  Li3  1  0.37459766  0.12794873  0.87438563  1
  Li  Li4  1  0.62504847  0.62450867  0.62580719  1
  Li  Li5  1  0.75225654  0.75098333  0.24958911  1
  Li  Li6  1  0.74923810  0.24965908  0.75077168  1
  Li  Li7  1  0.87486919  0.37186076  0.12596124  1
  V  V8  1  0.11400618  0.62081667  0.12369284  1
  V  V9  1  0.11362517  0.37451901  0.88177351  1
  V  V10  1  0.12451158  0.11439965  0.61969080  1
  V  V11  1  0.37615935  0.87588096  0.12787825  1
  V  V12  1  0.37200590  0.62197545  0.37501301  1
  V  V13  1  0.38079246  0.38480666  0.62543768  1
  V  V14  1  0.61378883  0.87888281  0.87638332  1
  V  V15  1  0.61341916  0.12544652  0.11819377  1
  V  V16  1  0.62440996  0.38584910  0.38030195  1
  V  V17  1  0.87679170  0.62410444  0.87197603  1
  V  V18  1  0.87199998  0.87820598  0.62501132  1
  V  V19  1  0.88047645  0.11531150  0.37484083  1
  Fe  Fe20  1  0.99953158  0.49650524  0.49957314  1
  Fe  Fe21  1  0.50061094  0.49792152  0.99740351  1
  Fe  Fe22  1  0.49930153  0.00342442  0.50028270  1
  Fe  Fe23  1  0.00033434  0.00230975  0.00243433  1
  O  O24  1  0.10482273  0.13482394  0.39370176  1
  O  O25  1  0.11683043  0.90212447  0.63043588  1
  O  O26  1  0.11852533  0.61289672  0.88837679  1
  O  O27  1  0.13373583  0.39302974  0.10405717  1
  O  O28  1  0.12235751  0.13990004  0.86650526  1
  O  O29  1  0.13295096  0.36286542  0.63457527  1
  O  O30  1  0.12946253  0.62109844  0.36063431  1
  O  O31  1  0.13863913  0.86577571  0.12133927  1
  O  O32  1  0.35968192  0.14028958  0.62008769  1
  O  O33  1  0.36254719  0.37826696  0.85782837  1
  O  O34  1  0.36308040  0.62928795  0.13011619  1
  O  O35  1  0.37894017  0.86040755  0.36652844  1
  O  O36  1  0.36979897  0.59982491  0.61195760  1
  O  O37  1  0.38755396  0.38319760  0.38675909  1
  O  O38  1  0.39882336  0.11462889  0.12896389  1
  O  O39  1  0.40045034  0.87126263  0.88706726  1
  O  O40  1  0.60511188  0.36537549  0.60636571  1
  O  O41  1  0.61712444  0.59807909  0.36971954  1
  O  O42  1  0.61768243  0.88675252  0.11175213  1
  O  O43  1  0.63368796  0.10676235  0.89607519  1
  O  O44  1  0.62209451  0.36004772  0.13345895  1
  O  O45  1  0.63270852  0.13723419  0.36547747  1
  O  O46  1  0.62975467  0.87908370  0.63930563  1
  O  O47  1  0.63879236  0.63412537  0.87809426  1
  O  O48  1  0.85957905  0.35978471  0.38007128  1
  O  O49  1  0.86216601  0.12156749  0.14230237  1
  O  O50  1  0.86286524  0.87056102  0.87020264  1
  O  O51  1  0.87982299  0.63980721  0.63364409  1
  O  O52  1  0.86969111  0.90027267  0.38796270  1
  O  O53  1  0.88754593  0.11695270  0.61345084  1
  O  O54  1  0.89904624  0.38528827  0.87114213  1
  O  O55  1  0.90068285  0.62852988  0.11269709  1
