# generated using pymatgen
data_CoH5SeClO5
_symmetry_space_group_name_H-M   'P 1'
_cell_length_a   9.47725612
_cell_length_b   17.36121525
_cell_length_c   7.38482617
_cell_angle_alpha   90.00000000
_cell_angle_beta   90.00000000
_cell_angle_gamma   90.00000000
_symmetry_Int_Tables_number   1
_chemical_formula_structural   CoH5SeClO5
_chemical_formula_sum   'Co8 H40 Se8 Cl8 O40'
_cell_volume   1215.07480608
_cell_formula_units_Z   8
loop_
 _symmetry_equiv_pos_site_id
 _symmetry_equiv_pos_as_xyz
  1  'x, y, z'
loop_
 _atom_site_type_symbol
 _atom_site_label
 _atom_site_symmetry_multiplicity
 _atom_site_fract_x
 _atom_site_fract_y
 _atom_site_fract_z
 _atom_site_occupancy
  Co  Co0  1  0.00000000  0.00000000  0.00000000  1
  Co  Co1  1  0.00000000  0.50000000  0.00000000  1
  Co  Co2  1  0.15150063  0.75000000  0.93645411  1
  Co  Co3  1  0.34849937  0.25000000  0.43645411  1
  Co  Co4  1  0.50000000  0.00000000  0.50000000  1
  Co  Co5  1  0.50000000  0.50000000  0.50000000  1
  Co  Co6  1  0.65150063  0.75000000  0.56354589  1
  Co  Co7  1  0.84849937  0.25000000  0.06354589  1
  H  H8  1  0.04569020  0.56290035  0.60287156  1
  H  H9  1  0.04569020  0.93709965  0.60287156  1
  H  H10  1  0.08578691  0.70306619  0.59821143  1
  H  H11  1  0.08578691  0.79693381  0.59821143  1
  H  H12  1  0.15395331  0.16551757  0.26181029  1
  H  H13  1  0.15395331  0.33448243  0.26181029  1
  H  H14  1  0.20145142  0.20590320  0.73584122  1
  H  H15  1  0.20145142  0.29409680  0.73584122  1
  H  H16  1  0.23305989  0.10933844  0.39728087  1
  H  H17  1  0.23305989  0.39066156  0.39728087  1
  H  H18  1  0.26694011  0.60933844  0.89728087  1
  H  H19  1  0.26694011  0.89066156  0.89728087  1
  H  H20  1  0.29854858  0.79409680  0.23584122  1
  H  H21  1  0.29854858  0.70590320  0.23584122  1
  H  H22  1  0.34604669  0.83448343  0.76181029  1
  H  H23  1  0.34604669  0.66551657  0.76181029  1
  H  H24  1  0.41421309  0.29693381  0.09821143  1
  H  H25  1  0.41421309  0.20306619  0.09821143  1
  H  H26  1  0.45430980  0.06290035  0.10287156  1
  H  H27  1  0.45430980  0.43709965  0.10287156  1
  H  H28  1  0.54569020  0.56290035  0.89712844  1
  H  H29  1  0.54569020  0.93709965  0.89712844  1
  H  H30  1  0.58578691  0.70306619  0.90178857  1
  H  H31  1  0.58578691  0.79693381  0.90178857  1
  H  H32  1  0.65395331  0.16551757  0.23818971  1
  H  H33  1  0.65395331  0.33448243  0.23818971  1
  H  H34  1  0.70145142  0.20590320  0.76415878  1
  H  H35  1  0.70145142  0.29409680  0.76415878  1
  H  H36  1  0.73305989  0.10933844  0.10271913  1
  H  H37  1  0.73305989  0.39066156  0.10271913  1
  H  H38  1  0.76694011  0.60933844  0.60271913  1
  H  H39  1  0.76694011  0.89066156  0.60271913  1
  H  H40  1  0.79854858  0.70590320  0.26415878  1
  H  H41  1  0.79854858  0.79409680  0.26415878  1
  H  H42  1  0.84604669  0.66551657  0.73818971  1
  H  H43  1  0.84604669  0.83448343  0.73818971  1
  H  H44  1  0.91421309  0.20306619  0.40178857  1
  H  H45  1  0.91421309  0.29693381  0.40178857  1
  H  H46  1  0.95430980  0.06290035  0.39712844  1
  H  H47  1  0.95430980  0.43709965  0.39712844  1
  Se  Se48  1  0.18487682  0.55137655  0.34208683  1
  Se  Se49  1  0.18487682  0.94862345  0.34208683  1
  Se  Se50  1  0.31512318  0.05137655  0.84208683  1
  Se  Se51  1  0.31512318  0.44862345  0.84208683  1
  Se  Se52  1  0.68487682  0.55137655  0.15791317  1
  Se  Se53  1  0.68487682  0.94862345  0.15791317  1
  Se  Se54  1  0.81512318  0.05137655  0.65791317  1
  Se  Se55  1  0.81512318  0.44862345  0.65791317  1
  Cl  Cl56  1  0.02449092  0.14885039  0.97889092  1
  Cl  Cl57  1  0.02449092  0.35114961  0.97889092  1
  Cl  Cl58  1  0.47550908  0.85114961  0.47889092  1
  Cl  Cl59  1  0.47550908  0.64885039  0.47889092  1
  Cl  Cl60  1  0.52449092  0.14885039  0.52110908  1
  Cl  Cl61  1  0.52449092  0.35114961  0.52110908  1
  Cl  Cl62  1  0.97550908  0.64885039  0.02110908  1
  Cl  Cl63  1  0.97550908  0.85114961  0.02110908  1
  O  O64  1  0.04353469  0.00293441  0.27087289  1
  O  O65  1  0.04353469  0.49706559  0.27087289  1
  O  O66  1  0.08338473  0.75000000  0.67325911  1
  O  O67  1  0.10669934  0.60036757  0.53123465  1
  O  O68  1  0.10669934  0.89963243  0.53123465  1
  O  O69  1  0.20100847  0.16379181  0.37985650  1
  O  O70  1  0.20100847  0.33620819  0.37985650  1
  O  O71  1  0.21537498  0.51808302  0.94747315  1
  O  O72  1  0.21537498  0.98191698  0.94747315  1
  O  O73  1  0.23777339  0.75000000  0.20775980  1
  O  O74  1  0.26222661  0.25000000  0.70775980  1
  O  O75  1  0.28462502  0.01808302  0.44747315  1
  O  O76  1  0.28462502  0.48191698  0.44747315  1
  O  O77  1  0.29899153  0.83620819  0.87985650  1
  O  O78  1  0.29899153  0.66379181  0.87985650  1
  O  O79  1  0.39330066  0.10036757  0.03123465  1
  O  O80  1  0.39330066  0.39963243  0.03123465  1
  O  O81  1  0.41661527  0.25000000  0.17325911  1
  O  O82  1  0.45646531  0.99706559  0.77087289  1
  O  O83  1  0.45646531  0.50293441  0.77087289  1
  O  O84  1  0.54353469  0.00293441  0.22912711  1
  O  O85  1  0.54353469  0.49706559  0.22912711  1
  O  O86  1  0.58338473  0.75000000  0.82674089  1
  O  O87  1  0.60669934  0.60036757  0.96876535  1
  O  O88  1  0.60669934  0.89963243  0.96876535  1
  O  O89  1  0.70100847  0.16379181  0.12014350  1
  O  O90  1  0.70100847  0.33620819  0.12014350  1
  O  O91  1  0.71537498  0.51808302  0.55252685  1
  O  O92  1  0.71537498  0.98191698  0.55252685  1
  O  O93  1  0.73777339  0.75000000  0.29224020  1
  O  O94  1  0.76222661  0.25000000  0.79224020  1
  O  O95  1  0.78462502  0.01808302  0.05252685  1
  O  O96  1  0.78462502  0.48191698  0.05252685  1
  O  O97  1  0.79899153  0.66379181  0.62014350  1
  O  O98  1  0.79899153  0.83620819  0.62014350  1
  O  O99  1  0.89330066  0.10036757  0.46876535  1
  O  O100  1  0.89330066  0.39963243  0.46876535  1
  O  O101  1  0.91661527  0.25000000  0.32674089  1
  O  O102  1  0.95646531  0.50293441  0.72912711  1
  O  O103  1  0.95646531  0.99706559  0.72912711  1
