# generated using pymatgen
data_LiV2F7
_symmetry_space_group_name_H-M   'P 1'
_cell_length_a   13.24839794
_cell_length_b   5.10711096
_cell_length_c   7.49443117
_cell_angle_alpha   90.00000000
_cell_angle_beta   95.96350190
_cell_angle_gamma   90.00000000
_symmetry_Int_Tables_number   1
_chemical_formula_structural   LiV2F7
_chemical_formula_sum   'Li4 V8 F28'
_cell_volume   504.33681392
_cell_formula_units_Z   4
loop_
 _symmetry_equiv_pos_site_id
 _symmetry_equiv_pos_as_xyz
  1  'x, y, z'
loop_
 _atom_site_type_symbol
 _atom_site_label
 _atom_site_symmetry_multiplicity
 _atom_site_fract_x
 _atom_site_fract_y
 _atom_site_fract_z
 _atom_site_occupancy
  Li  Li0  1  0.07297129  0.75891592  0.85130802  1
  Li  Li1  1  0.07297129  0.74108408  0.35130802  1
  Li  Li2  1  0.92702871  0.25891592  0.64869198  1
  Li  Li3  1  0.92702871  0.24108408  0.14869198  1
  V  V4  1  0.18234553  0.24445716  0.66530537  1
  V  V5  1  0.18234553  0.25554284  0.16530537  1
  V  V6  1  0.39389142  0.74915535  0.72767449  1
  V  V7  1  0.39389142  0.75084465  0.22767449  1
  V  V8  1  0.60610858  0.24915535  0.77232551  1
  V  V9  1  0.60610858  0.25084465  0.27232551  1
  V  V10  1  0.81765447  0.74445716  0.83469463  1
  V  V11  1  0.81765447  0.75554284  0.33469463  1
  F  F12  1  0.10774505  0.93788434  0.58402236  1
  F  F13  1  0.05910853  0.43827908  0.69442365  1
  F  F14  1  0.17630017  0.09596816  0.91588633  1
  F  F15  1  0.10774505  0.56211566  0.08402236  1
  F  F16  1  0.05910853  0.06172092  0.19442365  1
  F  F17  1  0.17630017  0.40403184  0.41588633  1
  F  F18  1  0.31128527  0.05330073  0.64563871  1
  F  F19  1  0.26788487  0.54367893  0.75785795  1
  F  F20  1  0.31128527  0.44669927  0.14563871  1
  F  F21  1  0.26788487  0.95632107  0.25785795  1
  F  F22  1  0.39355340  0.62960354  0.47740763  1
  F  F23  1  0.39355340  0.87039646  0.97740763  1
  F  F24  1  0.48015753  0.45097424  0.80456852  1
  F  F25  1  0.51984247  0.95097424  0.69543148  1
  F  F26  1  0.48015753  0.04902576  0.30456852  1
  F  F27  1  0.51984247  0.54902576  0.19543148  1
  F  F28  1  0.60644660  0.12960354  0.02259237  1
  F  F29  1  0.60644660  0.37039646  0.52259237  1
  F  F30  1  0.73211513  0.04367893  0.74214205  1
  F  F31  1  0.68871473  0.55330073  0.85436129  1
  F  F32  1  0.73211513  0.45632107  0.24214205  1
  F  F33  1  0.68871473  0.94669927  0.35436129  1
  F  F34  1  0.82369983  0.59596816  0.58411367  1
  F  F35  1  0.94089147  0.93827908  0.80557635  1
  F  F36  1  0.89225495  0.43788434  0.91597764  1
  F  F37  1  0.82369983  0.90403184  0.08411367  1
  F  F38  1  0.94089147  0.56172092  0.30557635  1
  F  F39  1  0.89225495  0.06211566  0.41597764  1
