# generated using pymatgen
data_LiNi9O10
_symmetry_space_group_name_H-M   'P 1'
_cell_length_a   5.92045712
_cell_length_b   5.13022860
_cell_length_c   6.64479679
_cell_angle_alpha   97.57266387
_cell_angle_beta   77.12847340
_cell_angle_gamma   73.21164011
_symmetry_Int_Tables_number   1
_chemical_formula_structural   LiNi9O10
_chemical_formula_sum   'Li1 Ni9 O10'
_cell_volume   184.16107187
_cell_formula_units_Z   1
loop_
 _symmetry_equiv_pos_site_id
 _symmetry_equiv_pos_as_xyz
  1  'x, y, z'
loop_
 _atom_site_type_symbol
 _atom_site_label
 _atom_site_symmetry_multiplicity
 _atom_site_fract_x
 _atom_site_fract_y
 _atom_site_fract_z
 _atom_site_occupancy
  Li  Li0  1  0.10000000  0.20000000  0.40000000  1
  Ni  Ni1  1  0.70330397  0.39917713  0.79649198  1
  Ni  Ni2  1  0.19881111  0.39978021  0.79706745  1
  Ni  Ni3  1  0.90280939  0.79852574  0.59703958  1
  Ni  Ni4  1  0.39778918  0.80356264  0.59936997  1
  Ni  Ni5  1  0.60000000  0.20000000  0.40000000  1
  Ni  Ni6  1  0.80221082  0.59643736  0.20063003  1
  Ni  Ni7  1  0.00118889  0.00021979  0.00293255  1
  Ni  Ni8  1  0.29719061  0.60147426  0.20296042  1
  Ni  Ni9  1  0.49669603  0.00082287  0.00350802  1
  O  O10  1  0.35067062  0.69897459  0.90197020  1
  O  O11  1  0.84932938  0.70102541  0.89802980  1
  O  O12  1  0.54901012  0.09682932  0.69923530  1
  O  O13  1  0.05191778  0.09340082  0.70702695  1
  O  O14  1  0.73839667  0.50763804  0.50423451  1
  O  O15  1  0.25524298  0.50702539  0.50354497  1
  O  O16  1  0.94475702  0.89297461  0.29645503  1
  O  O17  1  0.46160333  0.89236196  0.29576549  1
  O  O18  1  0.65098988  0.30317068  0.10076470  1
  O  O19  1  0.14808222  0.30659918  0.09297305  1
