# generated using pymatgen
data_SbPH2F10
_symmetry_space_group_name_H-M   'P 1'
_cell_length_a   5.78971167
_cell_length_b   10.81565626
_cell_length_c   13.22395443
_cell_angle_alpha   90.00000000
_cell_angle_beta   100.98987655
_cell_angle_gamma   90.00000000
_symmetry_Int_Tables_number   1
_chemical_formula_structural   SbPH2F10
_chemical_formula_sum   'Sb4 P4 H8 F40'
_cell_volume   812.89161030
_cell_formula_units_Z   4
loop_
 _symmetry_equiv_pos_site_id
 _symmetry_equiv_pos_as_xyz
  1  'x, y, z'
loop_
 _atom_site_type_symbol
 _atom_site_label
 _atom_site_symmetry_multiplicity
 _atom_site_fract_x
 _atom_site_fract_y
 _atom_site_fract_z
 _atom_site_occupancy
  Sb  Sb0  1  0.38783038  0.24617808  0.53625130  1
  Sb  Sb1  1  0.61216962  0.74617808  0.96374870  1
  Sb  Sb2  1  0.61216962  0.75382192  0.46374870  1
  Sb  Sb3  1  0.38783038  0.25382192  0.03625130  1
  P  P4  1  0.93335296  0.46413099  0.78581131  1
  P  P5  1  0.06664704  0.96413099  0.71418869  1
  P  P6  1  0.06664704  0.53586901  0.21418869  1
  P  P7  1  0.93335296  0.03586901  0.28581131  1
  H  H8  1  0.78101232  0.39376910  0.38395271  1
  H  H9  1  0.21898768  0.89376910  0.11604729  1
  H  H10  1  0.21898768  0.60623090  0.61604729  1
  H  H11  1  0.78101232  0.10623090  0.88395271  1
  H  H12  1  0.12889304  0.52718671  0.84058557  1
  H  H13  1  0.87110696  0.02718671  0.65941443  1
  H  H14  1  0.87110696  0.47281329  0.15941443  1
  H  H15  1  0.12889304  0.97281329  0.34058557  1
  F  F16  1  0.27649872  0.17399745  0.40249903  1
  F  F17  1  0.72350128  0.67399745  0.09750097  1
  F  F18  1  0.72350128  0.82600255  0.59750097  1
  F  F19  1  0.27649872  0.32600255  0.90249903  1
  F  F20  1  0.48987965  0.31677183  0.66964573  1
  F  F21  1  0.51012035  0.81677183  0.83035427  1
  F  F22  1  0.51012035  0.68322817  0.33035427  1
  F  F23  1  0.48987965  0.18322817  0.16964573  1
  F  F24  1  0.61669255  0.34060297  0.48021675  1
  F  F25  1  0.38330745  0.84060297  0.01978325  1
  F  F26  1  0.38330745  0.65939703  0.51978325  1
  F  F27  1  0.61669255  0.15939703  0.98021675  1
  F  F28  1  0.16181816  0.37518420  0.50258501  1
  F  F29  1  0.83818184  0.87518420  0.99741499  1
  F  F30  1  0.83818184  0.62481580  0.49741499  1
  F  F31  1  0.16181816  0.12481580  0.00258501  1
  F  F32  1  0.16128390  0.14593795  0.58909838  1
  F  F33  1  0.83871610  0.64593795  0.91090162  1
  F  F34  1  0.83871610  0.85406205  0.41090162  1
  F  F35  1  0.16128390  0.35406205  0.08909838  1
  F  F36  1  0.61244888  0.11471644  0.56999636  1
  F  F37  1  0.38755112  0.61471644  0.93000364  1
  F  F38  1  0.38755112  0.88528356  0.43000364  1
  F  F39  1  0.61244888  0.38528356  0.06999636  1
  F  F40  1  0.80869660  0.40378850  0.31573577  1
  F  F41  1  0.19130340  0.90378850  0.18426423  1
  F  F42  1  0.19130340  0.59621150  0.68426423  1
  F  F43  1  0.80869660  0.09621150  0.81573577  1
  F  F44  1  0.80233994  0.39694473  0.85902281  1
  F  F45  1  0.19766006  0.89694473  0.64097719  1
  F  F46  1  0.19766006  0.60305527  0.14097719  1
  F  F47  1  0.80233994  0.10305527  0.35902281  1
  F  F48  1  0.75256807  0.54662705  0.71929325  1
  F  F49  1  0.24743193  0.04662705  0.78070675  1
  F  F50  1  0.24743193  0.45337295  0.28070675  1
  F  F51  1  0.75256807  0.95337295  0.21929325  1
  F  F52  1  0.99471011  0.36522911  0.71357494  1
  F  F53  1  0.00528989  0.86522911  0.78642506  1
  F  F54  1  0.00528989  0.63477089  0.28642506  1
  F  F55  1  0.99471011  0.13477089  0.21357494  1
