# generated using pymatgen
data_Li8Fe7Sb(PO4)12
_symmetry_space_group_name_H-M   'P 1'
_cell_length_a   8.66837025
_cell_length_b   8.79565297
_cell_length_c   12.23361333
_cell_angle_alpha   90.22298589
_cell_angle_beta   90.00900645
_cell_angle_gamma   90.09081053
_symmetry_Int_Tables_number   1
_chemical_formula_structural   Li8Fe7Sb(PO4)12
_chemical_formula_sum   'Li8 Fe7 Sb1 P12 O48'
_cell_volume   932.73108057
_cell_formula_units_Z   1
loop_
 _symmetry_equiv_pos_site_id
 _symmetry_equiv_pos_as_xyz
  1  'x, y, z'
loop_
 _atom_site_type_symbol
 _atom_site_label
 _atom_site_symmetry_multiplicity
 _atom_site_fract_x
 _atom_site_fract_y
 _atom_site_fract_z
 _atom_site_occupancy
  Li  Li0  1  0.21711037  0.72294307  0.18240593  1
  Li  Li1  1  0.21888200  0.77739165  0.81781863  1
  Li  Li2  1  0.28250707  0.22245031  0.31778602  1
  Li  Li3  1  0.28050090  0.27667222  0.68267956  1
  Li  Li4  1  0.71597859  0.72404330  0.31581157  1
  Li  Li5  1  0.71719060  0.78886178  0.68260598  1
  Li  Li6  1  0.78389738  0.22214159  0.18196654  1
  Li  Li7  1  0.78637490  0.27427900  0.82565495  1
  Fe  Fe8  1  0.24748094  0.95997709  0.61256027  1
  Fe  Fe9  1  0.24884936  0.54026228  0.38663146  1
  Fe  Fe10  1  0.25104768  0.04081901  0.11264176  1
  Fe  Fe11  1  0.25147761  0.45846313  0.88754106  1
  Fe  Fe12  1  0.74868487  0.54065145  0.11145593  1
  Fe  Fe13  1  0.74801440  0.96038101  0.88936008  1
  Fe  Fe14  1  0.75091874  0.03795649  0.38596544  1
  Sb  Sb15  1  0.75219420  0.46164181  0.61301607  1
  P  P16  1  0.04186505  0.24761310  0.49844904  1
  P  P17  1  0.46113947  0.74963797  0.00005766  1
  P  P18  1  0.53900368  0.25022648  0.00094647  1
  P  P19  1  0.96162390  0.75051390  0.49789869  1
  P  P20  1  0.10520264  0.39254868  0.14656586  1
  P  P21  1  0.10611860  0.10620734  0.85321421  1
  P  P22  1  0.39206272  0.60419547  0.64620840  1
  P  P23  1  0.39374587  0.89293699  0.35372550  1
  P  P24  1  0.60298478  0.10615284  0.64511216  1
  P  P25  1  0.60408890  0.39220682  0.34993199  1
  P  P26  1  0.89616395  0.60935031  0.85207930  1
  P  P27  1  0.89515339  0.89209428  0.14652158  1
  O  O28  1  0.05373020  0.63705505  0.43079459  1
  O  O29  1  0.05460085  0.85511099  0.57197195  1
  O  O30  1  0.07370401  0.89536917  0.15559307  1
  O  O31  1  0.07282875  0.60435503  0.84063326  1
  O  O32  1  0.14549207  0.16306144  0.58052012  1
  O  O33  1  0.14657035  0.33796151  0.42061733  1
  O  O34  1  0.15452039  0.43442814  0.03030603  1
  O  O35  1  0.15607154  0.06582573  0.96925256  1
  O  O36  1  0.16182677  0.23248085  0.17927212  1
  O  O37  1  0.16176462  0.26729946  0.82074785  1
  O  O38  1  0.17315979  0.51430560  0.22543893  1
  O  O39  1  0.17438825  0.98535084  0.77385563  1
  O  O40  1  0.32601348  0.01352966  0.27456160  1
  O  O41  1  0.32898694  0.48350497  0.72514994  1
  O  O42  1  0.34460208  0.76639728  0.68015476  1
  O  O43  1  0.33636058  0.73221801  0.32067821  1
  O  O44  1  0.34869763  0.56541777  0.52915549  1
  O  O45  1  0.34405932  0.93448206  0.47005969  1
  O  O46  1  0.35240443  0.83710217  0.07948260  1
  O  O47  1  0.35223383  0.66184886  0.92089419  1
  O  O48  1  0.42663353  0.10968528  0.65636496  1
  O  O49  1  0.42695358  0.39404015  0.34411647  1
  O  O50  1  0.44334399  0.14254828  0.07122388  1
  O  O51  1  0.44407980  0.35765904  0.92960791  1
  O  O52  1  0.55676347  0.64282286  0.07109740  1
  O  O53  1  0.55653288  0.85695974  0.92892060  1
  O  O54  1  0.57779568  0.60398802  0.65674209  1
  O  O55  1  0.57247265  0.89556157  0.34405414  1
  O  O56  1  0.64708467  0.33805435  0.08051979  1
  O  O57  1  0.64744166  0.16265996  0.92137445  1
  O  O58  1  0.65557663  0.07251211  0.52943040  1
  O  O59  1  0.65259945  0.43448204  0.47071211  1
  O  O60  1  0.66432186  0.23292093  0.32051980  1
  O  O61  1  0.66413593  0.27215907  0.68154687  1
  O  O62  1  0.67558305  0.51472919  0.27583810  1
  O  O63  1  0.67518450  0.99286732  0.72580214  1
  O  O64  1  0.82656536  0.01302014  0.22572842  1
  O  O65  1  0.82526430  0.48216990  0.77062151  1
  O  O66  1  0.83839097  0.73132545  0.17834866  1
  O  O67  1  0.83493746  0.76625710  0.81793317  1
  O  O68  1  0.84128924  0.56033523  0.96462415  1
  O  O69  1  0.84525174  0.93254976  0.03034982  1
  O  O70  1  0.85000318  0.66269488  0.58246414  1
  O  O71  1  0.84907313  0.83502329  0.42185552  1
  O  O72  1  0.92717159  0.10335160  0.84485858  1
  O  O73  1  0.92632682  0.39560905  0.15497919  1
  O  O74  1  0.93987326  0.14339448  0.43092108  1
  O  O75  1  0.94707018  0.36089626  0.57369259  1
