# generated using pymatgen
data_Li4V3Cr3(SbO8)2
_symmetry_space_group_name_H-M   'P 1'
_cell_length_a   5.98422861
_cell_length_b   5.99008934
_cell_length_c   9.69718897
_cell_angle_alpha   89.83651690
_cell_angle_beta   90.56728836
_cell_angle_gamma   119.71869172
_symmetry_Int_Tables_number   1
_chemical_formula_structural   Li4V3Cr3(SbO8)2
_chemical_formula_sum   'Li4 V3 Cr3 Sb2 O16'
_cell_volume   301.86973196
_cell_formula_units_Z   1
loop_
 _symmetry_equiv_pos_site_id
 _symmetry_equiv_pos_as_xyz
  1  'x, y, z'
loop_
 _atom_site_type_symbol
 _atom_site_label
 _atom_site_symmetry_multiplicity
 _atom_site_fract_x
 _atom_site_fract_y
 _atom_site_fract_z
 _atom_site_occupancy
  Li  Li0  1  0.33405281  0.66630109  0.90349308  1
  Li  Li1  1  0.00091539  0.00093852  0.99041798  1
  Li  Li2  1  0.00112456  0.00027095  0.49069313  1
  Li  Li3  1  0.66587386  0.33255534  0.40031270  1
  V  V4  1  0.65948347  0.83007295  0.21657500  1
  V  V5  1  0.83282835  0.65712331  0.71527055  1
  V  V6  1  0.82676118  0.16971676  0.71420815  1
  Cr  Cr7  1  0.17106678  0.83030619  0.21360547  1
  Cr  Cr8  1  0.17110726  0.34103296  0.21383077  1
  Cr  Cr9  1  0.33895062  0.16944144  0.71338128  1
  Sb  Sb10  1  0.33350853  0.66688458  0.48772549  1
  Sb  Sb11  1  0.66613239  0.33483119  0.98917616  1
  O  O12  1  0.17075617  0.83637616  0.59381944  1
  O  O13  1  0.03815232  0.51944017  0.34212123  1
  O  O14  1  0.33461509  0.66714412  0.10902599  1
  O  O15  1  0.00141954  0.00101160  0.30425100  1
  O  O16  1  0.99936880  0.99916275  0.80380977  1
  O  O17  1  0.16377513  0.33195235  0.59458056  1
  O  O18  1  0.47878849  0.96246858  0.34529651  1
  O  O19  1  0.47832821  0.51575887  0.34591080  1
  O  O20  1  0.33204598  0.16567162  0.09609447  1
  O  O21  1  0.66899377  0.83085334  0.59169253  1
  O  O22  1  0.51201039  0.47452167  0.84510496  1
  O  O23  1  0.52117791  0.03779864  0.84373566  1
  O  O24  1  0.66409795  0.33457904  0.60709929  1
  O  O25  1  0.83561611  0.66938689  0.09433718  1
  O  O26  1  0.96331773  0.48716861  0.84830962  1
  O  O27  1  0.83573122  0.16753229  0.09395920  1
