# generated using pymatgen
data_Na7Li3V10O30
_symmetry_space_group_name_H-M   'P 1'
_cell_length_a   7.07003712
_cell_length_b   12.21719001
_cell_length_c   16.63120558
_cell_angle_alpha   89.52389504
_cell_angle_beta   101.01394745
_cell_angle_gamma   99.82739159
_symmetry_Int_Tables_number   1
_chemical_formula_structural   Na7Li3V10O30
_chemical_formula_sum   'Na14 Li6 V20 O60'
_cell_volume   1388.94737258
_cell_formula_units_Z   2
loop_
 _symmetry_equiv_pos_site_id
 _symmetry_equiv_pos_as_xyz
  1  'x, y, z'
loop_
 _atom_site_type_symbol
 _atom_site_label
 _atom_site_symmetry_multiplicity
 _atom_site_fract_x
 _atom_site_fract_y
 _atom_site_fract_z
 _atom_site_occupancy
  Na  Na0  1  0.91646936  0.11671560  0.01653272  1
  Na  Na1  1  0.71138823  0.35827154  0.03558977  1
  Na  Na2  1  0.71232927  0.75671939  0.23409656  1
  Na  Na3  1  0.91637088  0.91676051  0.41659593  1
  Na  Na4  1  0.28909574  0.04213013  0.16575809  1
  Na  Na5  1  0.71072172  0.15806393  0.43416009  1
  Na  Na6  1  0.28608237  0.44264901  0.36458173  1
  Na  Na7  1  0.91637183  0.31695512  0.61589549  1
  Na  Na8  1  0.71080323  0.55785560  0.63441038  1
  Na  Na9  1  0.91645892  0.71645979  0.81726001  1
  Na  Na10  1  0.28876438  0.84222605  0.56544802  1
  Na  Na11  1  0.71084934  0.95781521  0.83431526  1
  Na  Na12  1  0.28890896  0.24234380  0.76549163  1
  Na  Na13  1  0.28932841  0.64221651  0.96554568  1
  Li  Li14  1  0.91200532  0.51762996  0.21483409  1
  Li  Li15  1  0.08935830  0.28361064  0.18635817  1
  Li  Li16  1  0.08908724  0.68092772  0.38492104  1
  Li  Li17  1  0.09007365  0.08199040  0.58598310  1
  Li  Li18  1  0.09011292  0.48199104  0.78609904  1
  Li  Li19  1  0.09012399  0.88197527  0.98621585  1
  V  V20  1  0.80231555  0.62298222  0.00459449  1
  V  V21  1  0.61611641  0.85810372  0.02852304  1
  V  V22  1  0.80203822  0.02476447  0.20162656  1
  V  V23  1  0.61848008  0.26044901  0.22843730  1
  V  V24  1  0.38094096  0.53946529  0.17099818  1
  V  V25  1  0.80182135  0.42533293  0.39943258  1
  V  V26  1  0.19772348  0.77607226  0.19762246  1
  V  V27  1  0.61642996  0.65822292  0.42841009  1
  V  V28  1  0.37831820  0.93902436  0.37049025  1
  V  V29  1  0.80178406  0.82441237  0.60173173  1
  V  V30  1  0.19893419  0.17883094  0.39741877  1
  V  V31  1  0.61619819  0.05820337  0.62846398  1
  V  V32  1  0.37886048  0.33936543  0.57048181  1
  V  V33  1  0.80173703  0.22457266  0.80163563  1
  V  V34  1  0.19859350  0.57878920  0.59734613  1
  V  V35  1  0.61680451  0.45835156  0.82927152  1
  V  V36  1  0.37868950  0.73936783  0.77048050  1
  V  V37  1  0.19882771  0.97885281  0.79756484  1
  V  V38  1  0.37899260  0.13949221  0.97065697  1
  V  V39  1  0.19852884  0.37882450  0.99765762  1
  O  O40  1  0.89801145  0.55380813  0.08505550  1
  O  O41  1  0.64647376  0.71279812  0.03629303  1
  O  O42  1  0.98090475  0.09966635  0.16002913  1
  O  O43  1  0.60534267  0.14540331  0.02379110  1
  O  O44  1  0.64494039  0.91773842  0.13142475  1
  O  O45  1  0.90180705  0.95330146  0.27922934  1
  O  O46  1  0.78424269  0.33494820  0.17939091  1
  O  O47  1  0.35811376  0.48588278  0.06652027  1
  O  O48  1  0.97456794  0.49910699  0.35348599  1
  O  O49  1  0.60990711  0.54147987  0.22156962  1
  O  O50  1  0.22066846  0.06008299  0.02036504  1
  O  O51  1  0.35065581  0.68501080  0.16502854  1
  O  O52  1  0.64887971  0.11464682  0.23573256  1
  O  O53  1  0.78051663  0.72824054  0.37678626  1
  O  O54  1  0.09891601  0.84438680  0.11717885  1
  O  O55  1  0.38928648  0.25816746  0.17791781  1
  O  O56  1  0.02538650  0.31055641  0.04561779  1
  O  O57  1  0.35684217  0.88407330  0.26651608  1
  O  O58  1  0.64243284  0.31638276  0.33193502  1
  O  O59  1  0.98055101  0.89962988  0.56014628  1
  O  O60  1  0.60491363  0.94496364  0.42336222  1
  O  O61  1  0.90563502  0.35610407  0.47759505  1
  O  O62  1  0.21567854  0.46460969  0.22021809  1
  O  O63  1  0.64789064  0.51313277  0.43562155  1
  O  O64  1  0.38719322  0.65646014  0.37813545  1
  O  O65  1  0.02404809  0.70347344  0.24364194  1
  O  O66  1  0.64505110  0.71738416  0.53153726  1
  O  O67  1  0.34512590  0.08418216  0.36449320  1
  O  O68  1  0.90208695  0.75335614  0.67941369  1
  O  O69  1  0.22022102  0.86002089  0.42042934  1
  O  O70  1  0.78039900  0.12821075  0.57685043  1
  O  O71  1  0.09981274  0.24613258  0.31646501  1
  O  O72  1  0.64702044  0.91291253  0.63642503  1
  O  O73  1  0.35994300  0.28572676  0.46632085  1
  O  O74  1  0.98055130  0.29972973  0.76001051  1
  O  O75  1  0.60522395  0.34507618  0.62350605  1
  O  O76  1  0.34556353  0.48447043  0.56465905  1
  O  O77  1  0.78039928  0.52805322  0.77728586  1
  O  O78  1  0.09921896  0.64566551  0.51621207  1
  O  O79  1  0.38712264  0.05654887  0.57804804  1
  O  O80  1  0.02581532  0.11077258  0.44552443  1
  O  O81  1  0.35962333  0.68573344  0.66621794  1
  O  O82  1  0.64479997  0.11755989  0.73147111  1
  O  O83  1  0.98129255  0.69728963  0.96241259  1
  O  O84  1  0.60512412  0.74513845  0.82340927  1
  O  O85  1  0.90209924  0.15338909  0.87926379  1
  O  O86  1  0.22047864  0.26016221  0.62029334  1
  O  O87  1  0.34538081  0.88445799  0.76462783  1
  O  O88  1  0.64711847  0.31302684  0.83642249  1
  O  O89  1  0.78061734  0.92793318  0.97700617  1
  O  O90  1  0.38778509  0.45684288  0.77874046  1
  O  O91  1  0.02584854  0.51068745  0.64558297  1
  O  O92  1  0.64744629  0.51677687  0.93300106  1
  O  O93  1  0.22050007  0.66017573  0.82039632  1
  O  O94  1  0.09959140  0.04619201  0.71670141  1
  O  O95  1  0.36000526  0.08578337  0.86642404  1
  O  O96  1  0.38708225  0.85643074  0.97809547  1
  O  O97  1  0.02590966  0.91053737  0.84565971  1
  O  O98  1  0.34541845  0.28450620  0.96476863  1
  O  O99  1  0.09967614  0.44629471  0.91680132  1
