# generated using pymatgen
data_LiFeF4
_symmetry_space_group_name_H-M   'P 1'
_cell_length_a   4.56432164
_cell_length_b   11.70080997
_cell_length_c   4.89268983
_cell_angle_alpha   90.00000000
_cell_angle_beta   90.00000000
_cell_angle_gamma   90.00000000
_symmetry_Int_Tables_number   1
_chemical_formula_structural   LiFeF4
_chemical_formula_sum   'Li4 Fe4 F16'
_cell_volume   261.30026590
_cell_formula_units_Z   4
loop_
 _symmetry_equiv_pos_site_id
 _symmetry_equiv_pos_as_xyz
  1  'x, y, z'
loop_
 _atom_site_type_symbol
 _atom_site_label
 _atom_site_symmetry_multiplicity
 _atom_site_fract_x
 _atom_site_fract_y
 _atom_site_fract_z
 _atom_site_occupancy
  Li  Li0  1  0.00000000  0.05786166  0.25000000  1
  Li  Li1  1  0.00000000  0.94213834  0.75000000  1
  Li  Li2  1  0.50000000  0.55786166  0.25000000  1
  Li  Li3  1  0.50000000  0.44213834  0.75000000  1
  Fe  Fe4  1  0.00000000  0.32479373  0.25000000  1
  Fe  Fe5  1  0.00000000  0.67520627  0.75000000  1
  Fe  Fe6  1  0.50000000  0.82479373  0.25000000  1
  Fe  Fe7  1  0.50000000  0.17520627  0.75000000  1
  F  F8  1  0.22975102  0.19382007  0.42686180  1
  F  F9  1  0.22975102  0.80617993  0.92686180  1
  F  F10  1  0.25170315  0.06584696  0.91596868  1
  F  F11  1  0.25170315  0.93415304  0.41596868  1
  F  F12  1  0.24829685  0.56584696  0.91596868  1
  F  F13  1  0.24829685  0.43415304  0.41596868  1
  F  F14  1  0.27024898  0.30617993  0.92686180  1
  F  F15  1  0.27024898  0.69382007  0.42686180  1
  F  F16  1  0.72975102  0.69382007  0.07313820  1
  F  F17  1  0.72975102  0.30617993  0.57313820  1
  F  F18  1  0.75170315  0.43415304  0.08403132  1
  F  F19  1  0.75170315  0.56584696  0.58403132  1
  F  F20  1  0.74829685  0.06584696  0.58403132  1
  F  F21  1  0.74829685  0.93415304  0.08403132  1
  F  F22  1  0.77024898  0.19382007  0.07313820  1
  F  F23  1  0.77024898  0.80617993  0.57313820  1
