# generated using pymatgen
data_V4O5F7
_symmetry_space_group_name_H-M   'P 1'
_cell_length_a   5.20223695
_cell_length_b   7.50826889
_cell_length_c   5.38830417
_cell_angle_alpha   92.09016537
_cell_angle_beta   89.79468165
_cell_angle_gamma   89.74271644
_symmetry_Int_Tables_number   1
_chemical_formula_structural   V4O5F7
_chemical_formula_sum   'V4 O5 F7'
_cell_volume   210.32242121
_cell_formula_units_Z   1
loop_
 _symmetry_equiv_pos_site_id
 _symmetry_equiv_pos_as_xyz
  1  'x, y, z'
loop_
 _atom_site_type_symbol
 _atom_site_label
 _atom_site_symmetry_multiplicity
 _atom_site_fract_x
 _atom_site_fract_y
 _atom_site_fract_z
 _atom_site_occupancy
  V  V0  1  0.47993627  0.49589736  0.51197004  1
  V  V1  1  0.46779901  0.98348414  0.52975831  1
  V  V2  1  0.02898081  0.49455341  0.01152213  1
  V  V3  1  0.96690402  0.99558837  0.02047912  1
  O  O4  1  0.71821809  0.96155581  0.20419560  1
  O  O5  1  0.42392938  0.76103017  0.49870126  1
  O  O6  1  0.27739764  0.45995139  0.20766892  1
  O  O7  1  0.29159074  0.04108628  0.78027929  1
  O  O8  1  0.22870479  0.46388863  0.70721971  1
  F  F9  1  0.90404847  0.24995995  0.98091716  1
  F  F10  1  0.77817677  0.54027959  0.28679484  1
  F  F11  1  0.79550142  0.95588111  0.69535623  1
  F  F12  1  0.73010517  0.54543205  0.78731218  1
  F  F13  1  0.59177727  0.24390517  0.49281138  1
  F  F14  1  0.21704956  0.05498525  0.28785635  1
  F  F15  1  0.09987960  0.75251933  0.99715948  1
