# generated using pymatgen
data_Na8Co2O7
_symmetry_space_group_name_H-M   'P 1'
_cell_length_a   8.65290518
_cell_length_b   11.01503420
_cell_length_c   10.10181917
_cell_angle_alpha   90.00000000
_cell_angle_beta   106.61458803
_cell_angle_gamma   90.00000000
_symmetry_Int_Tables_number   1
_chemical_formula_structural   Na8Co2O7
_chemical_formula_sum   'Na32 Co8 O28'
_cell_volume   922.62692449
_cell_formula_units_Z   4
loop_
 _symmetry_equiv_pos_site_id
 _symmetry_equiv_pos_as_xyz
  1  'x, y, z'
loop_
 _atom_site_type_symbol
 _atom_site_label
 _atom_site_symmetry_multiplicity
 _atom_site_fract_x
 _atom_site_fract_y
 _atom_site_fract_z
 _atom_site_occupancy
  Na  Na0  1  0.12156702  0.47624845  0.92284497  1
  Na  Na1  1  0.08046106  0.45906908  0.64560286  1
  Na  Na2  1  0.10566205  0.74113514  0.53253337  1
  Na  Na3  1  0.12156702  0.02375155  0.42284497  1
  Na  Na4  1  0.25558096  0.94503340  0.71498824  1
  Na  Na5  1  0.08046106  0.04093092  0.14560286  1
  Na  Na6  1  0.28571264  0.24988616  0.56887361  1
  Na  Na7  1  0.10566205  0.75886486  0.03253337  1
  Na  Na8  1  0.43208072  0.47342422  0.85618093  1
  Na  Na9  1  0.33948242  0.50463986  0.51575776  1
  Na  Na10  1  0.25558096  0.55496660  0.21498824  1
  Na  Na11  1  0.49896821  0.23180962  0.87346522  1
  Na  Na12  1  0.28571264  0.25011384  0.06887361  1
  Na  Na13  1  0.50103179  0.73180962  0.62653478  1
  Na  Na14  1  0.43208072  0.02657578  0.35618093  1
  Na  Na15  1  0.66051758  0.00463986  0.98424224  1
  Na  Na16  1  0.33948242  0.99536014  0.01575776  1
  Na  Na17  1  0.56791928  0.97342322  0.64381907  1
  Na  Na18  1  0.49896821  0.26819038  0.37346522  1
  Na  Na19  1  0.71428736  0.74988616  0.93112639  1
  Na  Na20  1  0.50103179  0.76819038  0.12653478  1
  Na  Na21  1  0.74441904  0.44503340  0.78501176  1
  Na  Na22  1  0.66051758  0.49536014  0.48424224  1
  Na  Na23  1  0.56791928  0.52657678  0.14381907  1
  Na  Na24  1  0.89433795  0.24113514  0.96746663  1
  Na  Na25  1  0.71428736  0.75011384  0.43112639  1
  Na  Na26  1  0.91953894  0.95906908  0.85439714  1
  Na  Na27  1  0.74441904  0.05496660  0.28501176  1
  Na  Na28  1  0.87843298  0.97624845  0.57715503  1
  Na  Na29  1  0.89433795  0.25886486  0.46746663  1
  Na  Na30  1  0.91953894  0.54093092  0.35439714  1
  Na  Na31  1  0.87843298  0.52375155  0.07715503  1
  Co  Co32  1  0.09299553  0.19852025  0.77305570  1
  Co  Co33  1  0.09299553  0.30147975  0.27305570  1
  Co  Co34  1  0.30943342  0.71397109  0.84544793  1
  Co  Co35  1  0.30943342  0.78602891  0.34544793  1
  Co  Co36  1  0.69056658  0.21397109  0.65455207  1
  Co  Co37  1  0.69056658  0.28602891  0.15455207  1
  Co  Co38  1  0.90700447  0.69852025  0.72694430  1
  Co  Co39  1  0.90700447  0.80147975  0.22694430  1
  O  O40  1  0.10776051  0.11153599  0.93404972  1
  O  O41  1  0.10197241  0.79944011  0.78433480  1
  O  O42  1  0.10145565  0.11093028  0.62104235  1
  O  O43  1  0.10776051  0.38846401  0.43404972  1
  O  O44  1  0.24902923  0.32530758  0.81905018  1
  O  O45  1  0.10197241  0.70055989  0.28433480  1
  O  O46  1  0.10145565  0.38906972  0.12104235  1
  O  O47  1  0.31795598  0.61869655  0.69905639  1
  O  O48  1  0.24902923  0.17469242  0.31905018  1
  O  O49  1  0.45681307  0.84923148  0.89574637  1
  O  O50  1  0.32994267  0.88310455  0.50535205  1
  O  O51  1  0.31795598  0.88130345  0.19905639  1
  O  O52  1  0.45681307  0.65076852  0.39574637  1
  O  O53  1  0.67005733  0.38310455  0.99464795  1
  O  O54  1  0.32994267  0.61689545  0.00535205  1
  O  O55  1  0.54318693  0.34923148  0.60425363  1
  O  O56  1  0.68204402  0.11869655  0.80094361  1
  O  O57  1  0.67005733  0.11689545  0.49464795  1
  O  O58  1  0.54318693  0.15076852  0.10425363  1
  O  O59  1  0.75097077  0.82530758  0.68094982  1
  O  O60  1  0.68204402  0.38130345  0.30094361  1
  O  O61  1  0.89854435  0.61093028  0.87895765  1
  O  O62  1  0.89802759  0.29944011  0.71566520  1
  O  O63  1  0.75097077  0.67469242  0.18094982  1
  O  O64  1  0.89223949  0.61153599  0.56595028  1
  O  O65  1  0.89854435  0.88906972  0.37895765  1
  O  O66  1  0.89802759  0.20055989  0.21566520  1
  O  O67  1  0.89223949  0.88846401  0.06595028  1
