# generated using pymatgen
data_Ti3NiSn2(PO4)6
_symmetry_space_group_name_H-M   'P 1'
_cell_length_a   9.02905757
_cell_length_b   9.02905735
_cell_length_c   9.02905738
_cell_angle_alpha   57.00993479
_cell_angle_beta   57.00993573
_cell_angle_gamma   57.00993316
_symmetry_Int_Tables_number   1
_chemical_formula_structural   Ti3NiSn2(PO4)6
_chemical_formula_sum   'Ti3 Ni1 Sn2 P6 O24'
_cell_volume   484.60692142
_cell_formula_units_Z   1
loop_
 _symmetry_equiv_pos_site_id
 _symmetry_equiv_pos_as_xyz
  1  'x, y, z'
loop_
 _atom_site_type_symbol
 _atom_site_label
 _atom_site_symmetry_multiplicity
 _atom_site_fract_x
 _atom_site_fract_y
 _atom_site_fract_z
 _atom_site_occupancy
  Ti  Ti0  1  0.14440170  0.14440170  0.14440170  1
  Ti  Ti1  1  0.35203590  0.35203590  0.35203590  1
  Ti  Ti2  1  0.65197543  0.65197543  0.65197543  1
  Ni  Ni3  1  0.84972055  0.84972055  0.84972055  1
  Sn  Sn4  1  0.98589973  0.98589973  0.98589973  1
  Sn  Sn5  1  0.50342448  0.50342448  0.50342448  1
  P  P6  1  0.04199486  0.75016401  0.46458162  1
  P  P7  1  0.46458162  0.04199486  0.75016401  1
  P  P8  1  0.25290330  0.53400560  0.96193858  1
  P  P9  1  0.53400560  0.96193858  0.25290330  1
  P  P10  1  0.96193858  0.25290330  0.53400560  1
  P  P11  1  0.75016401  0.46458162  0.04199486  1
  O  O12  1  0.12483928  0.29652057  0.49625136  1
  O  O13  1  0.29652057  0.49625136  0.12483928  1
  O  O14  1  0.06326887  0.92624044  0.28238854  1
  O  O15  1  0.49625136  0.12483928  0.29652057  1
  O  O16  1  0.02609422  0.76735292  0.62935273  1
  O  O17  1  0.22186606  0.57813171  0.42246529  1
  O  O18  1  0.28238854  0.06326887  0.92624044  1
  O  O19  1  0.42246529  0.22186606  0.57813171  1
  O  O20  1  0.21653098  0.36930361  0.99399204  1
  O  O21  1  0.57813171  0.42246529  0.22186606  1
  O  O22  1  0.08099827  0.71850088  0.94225497  1
  O  O23  1  0.36930361  0.99399204  0.21653098  1
  O  O24  1  0.62935273  0.02609422  0.76735292  1
  O  O25  1  0.92624044  0.28238854  0.06326887  1
  O  O26  1  0.42893079  0.55802788  0.77768231  1
  O  O27  1  0.76735292  0.62935273  0.02609422  1
  O  O28  1  0.55802788  0.77768231  0.42893079  1
  O  O29  1  0.71850088  0.94225497  0.08099827  1
  O  O30  1  0.77768231  0.42893079  0.55802788  1
  O  O31  1  0.99399204  0.21653098  0.36930361  1
  O  O32  1  0.49705647  0.86863608  0.72026997  1
  O  O33  1  0.94225497  0.08099827  0.71850088  1
  O  O34  1  0.72026997  0.49705647  0.86863608  1
  O  O35  1  0.86863608  0.72026997  0.49705647  1
