# generated using pymatgen
data_SbAsO4
_symmetry_space_group_name_H-M   'P 1'
_cell_length_a   4.94454161
_cell_length_b   5.66557495
_cell_length_c   7.10932949
_cell_angle_alpha   90.00000000
_cell_angle_beta   90.00000000
_cell_angle_gamma   96.35041612
_symmetry_Int_Tables_number   1
_chemical_formula_structural   SbAsO4
_chemical_formula_sum   'Sb2 As2 O8'
_cell_volume   197.93638425
_cell_formula_units_Z   2
loop_
 _symmetry_equiv_pos_site_id
 _symmetry_equiv_pos_as_xyz
  1  'x, y, z'
loop_
 _atom_site_type_symbol
 _atom_site_label
 _atom_site_symmetry_multiplicity
 _atom_site_fract_x
 _atom_site_fract_y
 _atom_site_fract_z
 _atom_site_occupancy
  O  O0  1  0.18289415  0.71845955  0.55953542  1
  O  O1  1  0.81710585  0.28154045  0.05953542  1
  O  O2  1  0.81710585  0.28154045  0.44046458  1
  O  O3  1  0.18289415  0.71845955  0.94046458  1
  O  O4  1  0.18470359  0.17559116  0.75000000  1
  O  O5  1  0.81529641  0.82440884  0.25000000  1
  O  O6  1  0.63690975  0.95524202  0.75000000  1
  O  O7  1  0.36309025  0.04475798  0.25000000  1
  As  As8  1  0.28388590  0.88829589  0.75000000  1
  As  As9  1  0.71611410  0.11170411  0.25000000  1
  Sb  Sb10  1  0.81545920  0.30104645  0.75000000  1
  Sb  Sb11  1  0.18454080  0.69895355  0.25000000  1
