# generated using pymatgen
data_Li8Fe7Sn(PO4)12
_symmetry_space_group_name_H-M   'P 1'
_cell_length_a   8.67976448
_cell_length_b   8.81660247
_cell_length_c   12.26096517
_cell_angle_alpha   90.04042820
_cell_angle_beta   89.96785046
_cell_angle_gamma   90.02698804
_symmetry_Int_Tables_number   1
_chemical_formula_structural   Li8Fe7Sn(PO4)12
_chemical_formula_sum   'Li8 Fe7 Sn1 P12 O48'
_cell_volume   938.28253932
_cell_formula_units_Z   1
loop_
 _symmetry_equiv_pos_site_id
 _symmetry_equiv_pos_as_xyz
  1  'x, y, z'
loop_
 _atom_site_type_symbol
 _atom_site_label
 _atom_site_symmetry_multiplicity
 _atom_site_fract_x
 _atom_site_fract_y
 _atom_site_fract_z
 _atom_site_occupancy
  Li  Li0  1  0.21712388  0.72240058  0.18191455  1
  Li  Li1  1  0.21714414  0.77764310  0.81872127  1
  Li  Li2  1  0.28329635  0.22193170  0.31767976  1
  Li  Li3  1  0.28148946  0.27749302  0.68176315  1
  Li  Li4  1  0.71711688  0.72243204  0.31771143  1
  Li  Li5  1  0.71719798  0.78401212  0.68211886  1
  Li  Li6  1  0.78284738  0.22202271  0.18122985  1
  Li  Li7  1  0.78405602  0.27476508  0.82385282  1
  Fe  Fe8  1  0.24913491  0.95861481  0.61257562  1
  Fe  Fe9  1  0.24934901  0.54085838  0.38754614  1
  Fe  Fe10  1  0.25065738  0.04102935  0.11279600  1
  Fe  Fe11  1  0.25103292  0.45923785  0.88653046  1
  Fe  Fe12  1  0.74886588  0.54110722  0.11259644  1
  Fe  Fe13  1  0.74901808  0.95875408  0.88803290  1
  Fe  Fe14  1  0.75131595  0.04004848  0.38664833  1
  Sn  Sn15  1  0.75088322  0.46076145  0.61396652  1
  P  P16  1  0.04229981  0.24807512  0.49884939  1
  P  P17  1  0.46031024  0.74987676  -0.00002583  1
  P  P18  1  0.53926684  0.24992217  0.00043485  1
  P  P19  1  0.96129696  0.75216242  0.49839858  1
  P  P20  1  0.10608552  0.39269529  0.14678061  1
  P  P21  1  0.10615284  0.10695874  0.85327315  1
  P  P22  1  0.39134316  0.60660888  0.64701912  1
  P  P23  1  0.39405788  0.89234674  0.35283977  1
  P  P24  1  0.60432180  0.10454390  0.64698196  1
  P  P25  1  0.60351823  0.39201815  0.34972251  1
  P  P26  1  0.89539984  0.60782314  0.85422230  1
  P  P27  1  0.89418709  0.89263177  0.14689416  1
  O  O28  1  0.05532907  0.64109082  0.42979858  1
  O  O29  1  0.05709324  0.85871146  0.56926387  1
  O  O30  1  0.07283265  0.89590501  0.15563549  1
  O  O31  1  0.07292167  0.60477146  0.84399527  1
  O  O32  1  0.15030264  0.16152877  0.57807886  1
  O  O33  1  0.14946925  0.33605762  0.41979599  1
  O  O34  1  0.15653338  0.43376025  0.03068708  1
  O  O35  1  0.15642392  0.06601155  0.96923839  1
  O  O36  1  0.16271050  0.23274689  0.17954408  1
  O  O37  1  0.16225931  0.26714068  0.82037338  1
  O  O38  1  0.17303822  0.51397777  0.22562167  1
  O  O39  1  0.17369727  0.98608349  0.77422083  1
  O  O40  1  0.32625473  0.01329982  0.27386810  1
  O  O41  1  0.32620011  0.48508495  0.72570234  1
  O  O42  1  0.33681523  0.76683877  0.68028403  1
  O  O43  1  0.33702030  0.73252285  0.32010215  1
  O  O44  1  0.34519791  0.56573072  0.53040137  1
  O  O45  1  0.34473000  0.93402578  0.46901336  1
  O  O46  1  0.35178154  0.83746943  0.07901273  1
  O  O47  1  0.35219632  0.66246878  0.92095753  1
  O  O48  1  0.42666401  0.10463233  0.65612477  1
  O  O49  1  0.42573867  0.39526318  0.34098637  1
  O  O50  1  0.44309692  0.14279412  0.07096560  1
  O  O51  1  0.44351609  0.35708048  0.92957085  1
  O  O52  1  0.55630345  0.64324402  0.07089437  1
  O  O53  1  0.55664705  0.85702780  0.92932683  1
  O  O54  1  0.57242468  0.60886745  0.65728320  1
  O  O55  1  0.57278891  0.89559504  0.34384590  1
  O  O56  1  0.64791220  0.33751747  0.07909919  1
  O  O57  1  0.64757039  0.16179243  0.92159614  1
  O  O58  1  0.65706258  0.06915048  0.53091393  1
  O  O59  1  0.65149168  0.43488110  0.46658129  1
  O  O60  1  0.66207903  0.23205971  0.31900347  1
  O  O61  1  0.66204843  0.26555382  0.68400055  1
  O  O62  1  0.67378913  0.51335656  0.27255506  1
  O  O63  1  0.67352489  0.98667108  0.72647801  1
  O  O64  1  0.82609379  0.01387670  0.22551750  1
  O  O65  1  0.82544921  0.48292982  0.77671490  1
  O  O66  1  0.83758414  0.73272271  0.17965449  1
  O  O67  1  0.83623832  0.76603534  0.81954588  1
  O  O68  1  0.84360537  0.56630512  0.96950805  1
  O  O69  1  0.84406082  0.93320659  0.03067892  1
  O  O70  1  0.85211990  0.66763606  0.58097518  1
  O  O71  1  0.85188700  0.83795928  0.41978446  1
  O  O72  1  0.92733618  0.10380136  0.84469658  1
  O  O73  1  0.92729946  0.39525754  0.15518831  1
  O  O74  1  0.94320438  0.14303068  0.42943765  1
  O  O75  1  0.95088741  0.35775181  0.57239877  1
