# generated using pymatgen
data_V3OF11
_symmetry_space_group_name_H-M   'P 1'
_cell_length_a   5.45710823
_cell_length_b   5.25500638
_cell_length_c   14.75627110
_cell_angle_alpha   90.00000000
_cell_angle_beta   100.36809807
_cell_angle_gamma   90.00000000
_symmetry_Int_Tables_number   1
_chemical_formula_structural   V3OF11
_chemical_formula_sum   'V6 O2 F22'
_cell_volume   416.25807784
_cell_formula_units_Z   2
loop_
 _symmetry_equiv_pos_site_id
 _symmetry_equiv_pos_as_xyz
  1  'x, y, z'
loop_
 _atom_site_type_symbol
 _atom_site_label
 _atom_site_symmetry_multiplicity
 _atom_site_fract_x
 _atom_site_fract_y
 _atom_site_fract_z
 _atom_site_occupancy
  V  V0  1  0.99988003  -0.00001528  0.00006337  1
  V  V1  1  0.11722938  0.47941390  0.33083214  1
  V  V2  1  0.33353866  0.99992351  0.66658780  1
  V  V3  1  0.49988003  0.50001528  0.00006337  1
  V  V4  1  0.61723038  0.02058610  0.33083214  1
  V  V5  1  0.83353866  0.50007649  0.66658780  1
  O  O6  1  0.37757648  0.22002800  0.31085605  1
  O  O7  1  0.87757648  0.27997200  0.31085605  1
  F  F8  1  0.02116306  0.19538541  0.64182852  1
  F  F9  1  0.18749049  0.30435977  0.97510094  1
  F  F10  1  0.14648043  0.69568902  0.69163127  1
  F  F11  1  0.04173310  0.08859720  0.11753804  1
  F  F12  1  0.23018134  0.42858715  0.44968496  1
  F  F13  1  0.37497597  0.08785369  0.78403303  1
  F  F14  1  0.13567210  0.58673169  0.21800931  1
  F  F15  1  0.29378125  0.91393027  0.54919246  1
  F  F16  1  0.45913818  0.58772428  0.88287808  1
  F  F17  1  0.52116306  0.30461459  0.64182852  1
  F  F18  1  0.68749049  0.19564023  0.97510094  1
  F  F19  1  0.31265038  0.80421691  0.02525053  1
  F  F20  1  0.46850815  0.72367347  0.35651352  1
  F  F21  1  0.64648043  0.80431098  0.69163127  1
  F  F22  1  0.54173310  0.41140280  0.11753804  1
  F  F23  1  0.73018134  0.07141285  0.44968496  1
  F  F24  1  0.87497597  0.41214631  0.78403303  1
  F  F25  1  0.63567210  0.91326831  0.21800931  1
  F  F26  1  0.79378125  0.58606973  0.54919246  1
  F  F27  1  0.95913818  0.91227572  0.88287808  1
  F  F28  1  0.81265038  0.69578309  0.02525053  1
  F  F29  1  0.96850815  0.77632653  0.35651352  1
