# generated using pymatgen
data_BaP4O11
_symmetry_space_group_name_H-M   'P 1'
_cell_length_a   6.35096971
_cell_length_b   23.42396410
_cell_length_c   8.15421523
_cell_angle_alpha   90.00000079
_cell_angle_beta   106.78932612
_cell_angle_gamma   89.99999756
_symmetry_Int_Tables_number   1
_chemical_formula_structural   BaP4O11
_chemical_formula_sum   'Ba4 P16 O44'
_cell_volume   1161.35215050
_cell_formula_units_Z   4
loop_
 _symmetry_equiv_pos_site_id
 _symmetry_equiv_pos_as_xyz
  1  'x, y, z'
loop_
 _atom_site_type_symbol
 _atom_site_label
 _atom_site_symmetry_multiplicity
 _atom_site_fract_x
 _atom_site_fract_y
 _atom_site_fract_z
 _atom_site_occupancy
  Ba  Ba0  1  0.00734330  0.11354937  0.87032060  1
  Ba  Ba1  1  0.00734330  0.38645063  0.37032160  1
  Ba  Ba2  1  0.99265670  0.61354937  0.62967940  1
  Ba  Ba3  1  0.99265670  0.88645063  0.12967940  1
  P  P4  1  0.34425038  0.42623763  0.84420028  1
  P  P5  1  0.41008177  0.79725989  0.95083173  1
  P  P6  1  0.35920974  0.81974797  0.56737956  1
  P  P7  1  0.41603801  0.02935559  0.69992579  1
  P  P8  1  0.34425038  0.07376237  0.34420028  1
  P  P9  1  0.41008177  0.70274011  0.45083173  1
  P  P10  1  0.58396199  0.52935559  0.80007421  1
  P  P11  1  0.64079026  0.31974797  0.93262044  1
  P  P12  1  0.35920974  0.68025203  0.06737956  1
  P  P13  1  0.41603801  0.47064441  0.19992579  1
  P  P14  1  0.58991823  0.29725989  0.54916827  1
  P  P15  1  0.65574962  0.92623763  0.65579972  1
  P  P16  1  0.58396199  0.97064441  0.30007421  1
  P  P17  1  0.64079026  0.18025203  0.43262044  1
  P  P18  1  0.58991823  0.20274011  0.04916827  1
  P  P19  1  0.65574962  0.57376237  0.15579972  1
  O  O20  1  0.15215707  0.65639115  0.95715361  1
  O  O21  1  0.15116670  0.42491620  0.69137922  1
  O  O22  1  0.27747536  0.44949996  0.00391409  1
  O  O23  1  0.25755581  0.03290357  0.80198124  1
  O  O24  1  0.38063867  0.17048490  0.99012054  1
  O  O25  1  0.15215707  0.84360885  0.45715361  1
  O  O26  1  0.33418112  0.79537411  0.73996349  1
  O  O27  1  0.21224988  0.69034288  0.50723127  1
  O  O28  1  0.36419754  0.55697967  0.75469314  1
  O  O29  1  0.47103845  0.72905757  0.98658848  1
  O  O30  1  0.43724269  0.36308988  0.88964467  1
  O  O31  1  0.15116670  0.07508380  0.19137922  1
  O  O32  1  0.27747536  0.05050004  0.50391409  1
  O  O33  1  0.25755581  0.46709643  0.30198124  1
  O  O34  1  0.44412773  0.96027616  0.66601626  1
  O  O35  1  0.38063867  0.32951510  0.49012054  1
  O  O36  1  0.33418112  0.70462589  0.23996349  1
  O  O37  1  0.21224988  0.80965712  0.00723127  1
  O  O38  1  0.55587227  0.46027616  0.83398374  1
  O  O39  1  0.36419854  0.94302033  0.25469314  1
  O  O40  1  0.47103845  0.77094243  0.48658848  1
  O  O41  1  0.43724269  0.13691012  0.38964467  1
  O  O42  1  0.56275731  0.86308988  0.61035533  1
  O  O43  1  0.52896155  0.22905757  0.51341152  1
  O  O44  1  0.63580146  0.05697967  0.74530686  1
  O  O45  1  0.44412773  0.53972384  0.16601626  1
  O  O46  1  0.78775012  0.19034288  0.99276873  1
  O  O47  1  0.66581888  0.29537411  0.76003651  1
  O  O48  1  0.61936133  0.67048490  0.50987946  1
  O  O49  1  0.55587227  0.03972384  0.33398374  1
  O  O50  1  0.74244419  0.53290357  0.69801876  1
  O  O51  1  0.72252464  0.94949996  0.49608591  1
  O  O52  1  0.84883330  0.92491620  0.80862078  1
  O  O53  1  0.56275731  0.63691012  0.11035533  1
  O  O54  1  0.52896155  0.27094243  0.01341152  1
  O  O55  1  0.63580246  0.44302033  0.24530686  1
  O  O56  1  0.78775012  0.30965712  0.49276873  1
  O  O57  1  0.66581888  0.20462589  0.26003651  1
  O  O58  1  0.84784293  0.15639115  0.54284639  1
  O  O59  1  0.61936133  0.82951510  0.00987946  1
  O  O60  1  0.74244419  0.96709643  0.19801876  1
  O  O61  1  0.72252464  0.55050004  0.99608591  1
  O  O62  1  0.84883330  0.57508380  0.30862078  1
  O  O63  1  0.84784293  0.34360885  0.04284639  1
