# generated using pymatgen
data_Hf2N2O
_symmetry_space_group_name_H-M   'P 1'
_cell_length_a   8.74461049
_cell_length_b   8.74565977
_cell_length_c   8.71262826
_cell_angle_alpha   109.33063701
_cell_angle_beta   109.49587272
_cell_angle_gamma   109.63246374
_symmetry_Int_Tables_number   1
_chemical_formula_structural   Hf2N2O
_chemical_formula_sum   'Hf16 N16 O8'
_cell_volume   512.64293671
_cell_formula_units_Z   8
loop_
 _symmetry_equiv_pos_site_id
 _symmetry_equiv_pos_as_xyz
  1  'x, y, z'
loop_
 _atom_site_type_symbol
 _atom_site_label
 _atom_site_symmetry_multiplicity
 _atom_site_fract_x
 _atom_site_fract_y
 _atom_site_fract_z
 _atom_site_occupancy
  Hf  Hf0  1  0.49086237  0.99045830  0.98882561  1
  Hf  Hf1  1  0.74861810  0.28370369  0.54174977  1
  Hf  Hf2  1  0.71952377  0.46578172  0.24199095  1
  Hf  Hf3  1  0.21297089  0.96449281  0.25064703  1
  Hf  Hf4  1  0.24858981  0.21324604  0.95247548  1
  Hf  Hf5  1  0.99917744  0.51241882  0.99829077  1
  Hf  Hf6  1  0.97300841  0.25821066  0.22410415  1
  Hf  Hf7  1  0.00264300  0.00115201  0.49998901  1
  Hf  Hf8  1  0.49357474  0.49841355  0.51027260  1
  Hf  Hf9  1  0.53013068  0.74523836  0.28313149  1
  Hf  Hf10  1  0.03252920  0.74735347  0.78031665  1
  Hf  Hf11  1  0.47224050  0.25861921  0.71926519  1
  Hf  Hf12  1  0.75214755  0.78488181  0.04484586  1
  Hf  Hf13  1  0.28618608  0.53899818  0.75446044  1
  Hf  Hf14  1  0.78080891  0.02858280  0.74664331  1
  Hf  Hf15  1  0.25131187  0.70857018  0.46217082  1
  N  N16  1  0.51176225  0.23965841  0.97179208  1
  N  N17  1  0.77088161  0.72628310  0.26586722  1
  N  N18  1  0.49224786  0.76888132  0.03731664  1
  N  N19  1  0.72842452  0.25401896  0.77130223  1
  N  N20  1  0.46478758  0.22671169  0.45017643  1
  N  N21  1  0.00946988  0.04584205  0.27399294  1
  N  N22  1  0.96336325  0.50615547  0.23593876  1
  N  N23  1  0.22970808  0.45652221  0.46627645  1
  N  N24  1  0.95514841  0.72913001  0.98558310  1
  N  N25  1  0.27273638  0.74100092  0.22878726  1
  N  N26  1  0.54093352  0.77306492  0.54731383  1
  N  N27  1  0.98759699  0.95519646  0.72836599  1
  N  N28  1  0.22629906  0.27154588  0.73834392  1
  N  N29  1  0.55027818  0.53537014  0.77472066  1
  N  N30  1  0.02952201  0.48719748  0.75579646  1
  N  N31  1  0.26386948  0.78173605  0.72738714  1
  O  O32  1  0.72803566  0.99800529  0.95770528  1
  O  O33  1  0.74240349  0.22341222  0.27730297  1
  O  O34  1  0.76242438  0.03589514  0.48586825  1
  O  O35  1  0.27378129  0.00691947  0.04417530  1
  O  O36  1  0.77061944  0.53958124  0.52500043  1
  O  O37  1  0.05123667  0.26905634  0.02037672  1
  O  O38  1  0.44625193  0.46414614  0.22317313  1
  O  O39  1  0.23389275  0.96454845  0.50825865  1
