# generated using pymatgen
data_Na2Ge2O5
_symmetry_space_group_name_H-M   'P 1'
_cell_length_a   5.03515601
_cell_length_b   24.77624174
_cell_length_c   8.53919385
_cell_angle_alpha   90.00000000
_cell_angle_beta   90.24272697
_cell_angle_gamma   90.00000000
_symmetry_Int_Tables_number   1
_chemical_formula_structural   Na2Ge2O5
_chemical_formula_sum   'Na16 Ge16 O40'
_cell_volume   1065.27402323
_cell_formula_units_Z   8
loop_
 _symmetry_equiv_pos_site_id
 _symmetry_equiv_pos_as_xyz
  1  'x, y, z'
loop_
 _atom_site_type_symbol
 _atom_site_label
 _atom_site_symmetry_multiplicity
 _atom_site_fract_x
 _atom_site_fract_y
 _atom_site_fract_z
 _atom_site_occupancy
  Na  Na0  1  0.22416278  0.26093677  0.52402410  1
  Na  Na1  1  0.22416278  0.23906323  0.02402410  1
  Na  Na2  1  0.24076065  0.72050562  0.72361913  1
  Na  Na3  1  0.24076065  0.77949438  0.22361913  1
  Na  Na4  1  0.25723482  0.47387258  0.89905032  1
  Na  Na5  1  0.25723482  0.02612742  0.39905032  1
  Na  Na6  1  0.28041898  0.98650333  0.85221117  1
  Na  Na7  1  0.28041898  0.51349667  0.35221117  1
  Na  Na8  1  0.71958102  0.48650333  0.64778883  1
  Na  Na9  1  0.71958102  0.01349667  0.14778883  1
  Na  Na10  1  0.74276518  0.97387258  0.60094968  1
  Na  Na11  1  0.74276518  0.52612742  0.10094968  1
  Na  Na12  1  0.75923935  0.22050562  0.77638087  1
  Na  Na13  1  0.75923935  0.27949438  0.27638087  1
  Na  Na14  1  0.77583722  0.76093677  0.97597590  1
  Na  Na15  1  0.77583722  0.73906323  0.47597590  1
  Ge  Ge16  1  0.18116142  0.41039737  0.54111203  1
  Ge  Ge17  1  0.18116142  0.08960263  0.04111203  1
  Ge  Ge18  1  0.20326555  0.88957487  0.52042382  1
  Ge  Ge19  1  0.20326555  0.61042513  0.02042382  1
  Ge  Ge20  1  0.29868846  0.13693237  0.69827498  1
  Ge  Ge21  1  0.29868846  0.36306763  0.19827498  1
  Ge  Ge22  1  0.31728647  0.83867805  0.86009836  1
  Ge  Ge23  1  0.31728647  0.66132195  0.36009836  1
  Ge  Ge24  1  0.68271353  0.33867805  0.63990164  1
  Ge  Ge25  1  0.68271353  0.16132195  0.13990164  1
  Ge  Ge26  1  0.70131154  0.63693237  0.80172502  1
  Ge  Ge27  1  0.70131154  0.86306763  0.30172502  1
  Ge  Ge28  1  0.79673445  0.38957487  0.97957618  1
  Ge  Ge29  1  0.79673445  0.11042513  0.47957618  1
  Ge  Ge30  1  0.81883858  0.91039737  0.95888797  1
  Ge  Ge31  1  0.81883858  0.58960263  0.45888797  1
  O  O32  1  0.14987977  0.11216411  0.52063790  1
  O  O33  1  0.14987977  0.38783589  0.02063790  1
  O  O34  1  0.17021428  0.89795136  0.94062207  1
  O  O35  1  0.17021428  0.60204864  0.44062207  1
  O  O36  1  0.22605045  0.20225804  0.75427961  1
  O  O37  1  0.22605045  0.29774196  0.25427961  1
  O  O38  1  0.24378429  0.08318495  0.83491491  1
  O  O39  1  0.25184222  0.47150899  0.62635039  1
  O  O40  1  0.24378429  0.41681505  0.33491491  1
  O  O41  1  0.25184222  0.02849101  0.12635039  1
  O  O42  1  0.24765264  0.77744735  0.94633266  1
  O  O43  1  0.24765264  0.72255265  0.44633266  1
  O  O44  1  0.25687478  0.83446502  0.65388203  1
  O  O45  1  0.25687478  0.66553498  0.15388203  1
  O  O46  1  0.27488400  0.95450142  0.58098133  1
  O  O47  1  0.27488400  0.54549858  0.08098133  1
  O  O48  1  0.33006503  0.34999698  0.61617504  1
  O  O49  1  0.33006503  0.15000302  0.11617504  1
  O  O50  1  0.34960064  0.63395431  0.84192502  1
  O  O51  1  0.34960064  0.86604569  0.34192502  1
  O  O52  1  0.65039936  0.13395431  0.65807498  1
  O  O53  1  0.65039936  0.36604569  0.15807498  1
  O  O54  1  0.66993497  0.84999698  0.88382496  1
  O  O55  1  0.66993497  0.65000302  0.38382496  1
  O  O56  1  0.72511600  0.45450142  0.91901867  1
  O  O57  1  0.72511600  0.04549858  0.41901867  1
  O  O58  1  0.74312522  0.33446502  0.84611797  1
  O  O59  1  0.74312522  0.16553498  0.34611797  1
  O  O60  1  0.75234736  0.27744735  0.55366734  1
  O  O61  1  0.75234736  0.22255265  0.05366734  1
  O  O62  1  0.74815778  0.97150899  0.87364961  1
  O  O63  1  0.75621571  0.58318495  0.66508509  1
  O  O64  1  0.74815778  0.52849101  0.37364961  1
  O  O65  1  0.75621571  0.91681505  0.16508509  1
  O  O66  1  0.77394955  0.70225804  0.74572039  1
  O  O67  1  0.77394955  0.79774196  0.24572039  1
  O  O68  1  0.82978572  0.39795136  0.55937793  1
  O  O69  1  0.82978572  0.10204864  0.05937793  1
  O  O70  1  0.85012023  0.61216411  0.97936210  1
  O  O71  1  0.85012023  0.88783589  0.47936210  1
