# generated using pymatgen
data_Ti3O5
_symmetry_space_group_name_H-M   'P 1'
_cell_length_a   3.79649257
_cell_length_b   5.29929508
_cell_length_c   10.07120822
_cell_angle_alpha   90.00000000
_cell_angle_beta   90.00000000
_cell_angle_gamma   110.99014207
_symmetry_Int_Tables_number   1
_chemical_formula_structural   Ti3O5
_chemical_formula_sum   'Ti6 O10'
_cell_volume   189.17452198
_cell_formula_units_Z   2
loop_
 _symmetry_equiv_pos_site_id
 _symmetry_equiv_pos_as_xyz
  1  'x, y, z'
loop_
 _atom_site_type_symbol
 _atom_site_label
 _atom_site_symmetry_multiplicity
 _atom_site_fract_x
 _atom_site_fract_y
 _atom_site_fract_z
 _atom_site_occupancy
  O  O0  1  0.26748272  0.53496544  0.75000000  1
  O  O1  1  0.73251728  0.46503456  0.25000000  1
  O  O2  1  0.55148268  0.10296536  0.87731292  1
  O  O3  1  0.44851732  0.89703464  0.12268708  1
  O  O4  1  0.44851732  0.89703464  0.37731292  1
  O  O5  1  0.55148268  0.10296536  0.62268708  1
  O  O6  1  0.18292839  0.36585677  0.43097961  1
  O  O7  1  0.81707161  0.63414323  0.56902039  1
  O  O8  1  0.81707161  0.63414323  0.93097961  1
  O  O9  1  0.18292839  0.36585677  0.06902039  1
  Ti  Ti10  1  0.30171161  0.60342323  0.25000000  1
  Ti  Ti11  1  0.69828839  0.39657677  0.75000000  1
  Ti  Ti12  1  0.63060202  0.26120405  0.05727678  1
  Ti  Ti13  1  0.36939798  0.73879595  0.94272322  1
  Ti  Ti14  1  0.36939798  0.73879595  0.55727678  1
  Ti  Ti15  1  0.63060202  0.26120405  0.44272322  1
