# generated using pymatgen
data_SiO2
_symmetry_space_group_name_H-M   'P 1'
_cell_length_a   14.28056842
_cell_length_b   14.28056843
_cell_length_c   11.46893633
_cell_angle_alpha   90.00000000
_cell_angle_beta   90.00000000
_cell_angle_gamma   119.99999998
_symmetry_Int_Tables_number   1
_chemical_formula_structural   SiO2
_chemical_formula_sum   'Si34 O68'
_cell_volume   2025.55836871
_cell_formula_units_Z   34
loop_
 _symmetry_equiv_pos_site_id
 _symmetry_equiv_pos_as_xyz
  1  'x, y, z'
loop_
 _atom_site_type_symbol
 _atom_site_label
 _atom_site_symmetry_multiplicity
 _atom_site_fract_x
 _atom_site_fract_y
 _atom_site_fract_z
 _atom_site_occupancy
  O  O0  1  0.66666667  0.33333333  0.00000000  1
  O  O1  1  0.33333333  0.66666667  0.00000000  1
  O  O2  1  0.00000000  0.50000000  0.67486668  1
  O  O3  1  0.50000000  0.50000000  0.67486668  1
  O  O4  1  0.50000000  0.00000000  0.67486668  1
  O  O5  1  0.00000000  0.50000000  0.32513332  1
  O  O6  1  0.50000000  0.50000000  0.32513332  1
  O  O7  1  0.50000000  0.00000000  0.32513332  1
  O  O8  1  0.81516668  0.00000000  0.00000000  1
  O  O9  1  0.81516668  0.81516668  0.00000000  1
  O  O10  1  0.00000000  0.18483332  0.00000000  1
  O  O11  1  0.00000000  0.81516668  0.00000000  1
  O  O12  1  0.18483332  0.18483332  0.00000000  1
  O  O13  1  0.18483332  0.00000000  0.00000000  1
  O  O14  1  0.62312809  0.00000000  0.50000000  1
  O  O15  1  0.62312809  0.62312809  0.50000000  1
  O  O16  1  0.00000000  0.37687191  0.50000000  1
  O  O17  1  0.00000000  0.62312809  0.50000000  1
  O  O18  1  0.37687191  0.37687191  0.50000000  1
  O  O19  1  0.37687191  0.00000000  0.50000000  1
  O  O20  1  0.33818438  0.16909219  0.88559285  1
  O  O21  1  0.83090781  0.16909219  0.88559285  1
  O  O22  1  0.83090781  0.66181562  0.88559285  1
  O  O23  1  0.16909219  0.33818438  0.88559285  1
  O  O24  1  0.66181562  0.83090781  0.11440715  1
  O  O25  1  0.66181562  0.83090781  0.88559285  1
  O  O26  1  0.16909219  0.83090781  0.88559285  1
  O  O27  1  0.83090781  0.66181562  0.11440715  1
  O  O28  1  0.83090781  0.16909219  0.11440715  1
  O  O29  1  0.16909219  0.83090781  0.11440715  1
  O  O30  1  0.16909219  0.33818438  0.11440715  1
  O  O31  1  0.33818438  0.16909219  0.11440715  1
  O  O32  1  0.54298946  0.27149473  0.18636632  1
  O  O33  1  0.72850527  0.27149473  0.18636632  1
  O  O34  1  0.10604499  0.39340458  0.30641867  1
  O  O35  1  0.71264041  0.10604499  0.30641867  1
  O  O36  1  0.39340458  0.28735959  0.30641867  1
  O  O37  1  0.60659542  0.71264041  0.30641867  1
  O  O38  1  0.28735959  0.89395501  0.30641867  1
  O  O39  1  0.71264041  0.60659542  0.69358133  1
  O  O40  1  0.89395501  0.28735959  0.69358133  1
  O  O41  1  0.89395501  0.60659542  0.30641867  1
  O  O42  1  0.39340458  0.10604499  0.69358133  1
  O  O43  1  0.60659542  0.89395501  0.69358133  1
  O  O44  1  0.28735959  0.39340458  0.69358133  1
  O  O45  1  0.10604499  0.71264041  0.69358133  1
  O  O46  1  0.89395501  0.60659542  0.69358133  1
  O  O47  1  0.28735959  0.89395501  0.69358133  1
  O  O48  1  0.60659542  0.71264041  0.69358133  1
  O  O49  1  0.39340458  0.28735959  0.69358133  1
  O  O50  1  0.71264041  0.10604499  0.69358133  1
  O  O51  1  0.28735959  0.39340458  0.30641867  1
  O  O52  1  0.10604499  0.71264041  0.30641867  1
  O  O53  1  0.10604499  0.39340458  0.69358133  1
  O  O54  1  0.60659542  0.89395501  0.30641867  1
  O  O55  1  0.39340458  0.10604499  0.30641867  1
  O  O56  1  0.71264041  0.60659542  0.30641867  1
  O  O57  1  0.89395501  0.28735959  0.30641867  1
  O  O58  1  0.54298946  0.27149473  0.81363368  1
  O  O59  1  0.27149473  0.54298946  0.81363368  1
  O  O60  1  0.27149473  0.72850527  0.81363368  1
  O  O61  1  0.72850527  0.27149473  0.81363368  1
  O  O62  1  0.72850527  0.45701054  0.81363368  1
  O  O63  1  0.27149473  0.72850527  0.18636632  1
  O  O64  1  0.45701054  0.72850527  0.18636632  1
  O  O65  1  0.45701054  0.72850527  0.81363368  1
  O  O66  1  0.27149473  0.54298946  0.18636632  1
  O  O67  1  0.72850527  0.45701054  0.18636632  1
  Si  Si68  1  0.33333333  0.66666667  0.85953640  1
  Si  Si69  1  0.66666667  0.33333333  0.85953640  1
  Si  Si70  1  0.66666667  0.33333333  0.14046360  1
  Si  Si71  1  0.33333333  0.66666667  0.14046360  1
  Si  Si72  1  0.73875158  0.86937579  0.00000000  1
  Si  Si73  1  0.86937579  0.73875158  0.00000000  1
  Si  Si74  1  0.86937579  0.13062421  0.00000000  1
  Si  Si75  1  0.13062421  0.86937579  0.00000000  1
  Si  Si76  1  0.13062421  0.26124842  0.00000000  1
  Si  Si77  1  0.26124842  0.13062421  0.00000000  1
  Si  Si78  1  0.38982955  0.38982955  0.64000658  1
  Si  Si79  1  0.61017045  0.00000000  0.64000658  1
  Si  Si80  1  0.00000000  0.61017045  0.64000658  1
  Si  Si81  1  0.00000000  0.38982955  0.64000658  1
  Si  Si82  1  0.61017045  0.00000000  0.35999342  1
  Si  Si83  1  0.61017045  0.61017045  0.64000658  1
  Si  Si84  1  0.38982955  0.00000000  0.64000658  1
  Si  Si85  1  0.61017045  0.61017045  0.35999342  1
  Si  Si86  1  0.00000000  0.38982955  0.35999342  1
  Si  Si87  1  0.00000000  0.61017045  0.35999342  1
  Si  Si88  1  0.38982955  0.38982955  0.35999342  1
  Si  Si89  1  0.38982955  0.00000000  0.35999342  1
  Si  Si90  1  0.41750331  0.20875165  0.77330996  1
  Si  Si91  1  0.79124835  0.20875165  0.77330996  1
  Si  Si92  1  0.79124835  0.58249669  0.77330996  1
  Si  Si93  1  0.20875165  0.41750331  0.77330996  1
  Si  Si94  1  0.58249669  0.79124835  0.22669004  1
  Si  Si95  1  0.58249669  0.79124835  0.77330996  1
  Si  Si96  1  0.20875165  0.79124835  0.77330996  1
  Si  Si97  1  0.79124835  0.58249669  0.22669004  1
  Si  Si98  1  0.79124835  0.20875165  0.22669004  1
  Si  Si99  1  0.20875165  0.79124835  0.22669004  1
  Si  Si100  1  0.20875165  0.41750331  0.22669004  1
  Si  Si101  1  0.41750331  0.20875165  0.22669004  1
