# generated using pymatgen
data_Li24Mn7Cr5O36
_symmetry_space_group_name_H-M   'P 1'
_cell_length_a   5.01038645
_cell_length_b   5.00586538
_cell_length_c   29.22390694
_cell_angle_alpha   85.31596123
_cell_angle_beta   94.78400759
_cell_angle_gamma   60.34334550
_symmetry_Int_Tables_number   1
_chemical_formula_structural   Li24Mn7Cr5O36
_chemical_formula_sum   'Li24 Mn7 Cr5 O36'
_cell_volume   628.31231883
_cell_formula_units_Z   1
loop_
 _symmetry_equiv_pos_site_id
 _symmetry_equiv_pos_as_xyz
  1  'x, y, z'
loop_
 _atom_site_type_symbol
 _atom_site_label
 _atom_site_symmetry_multiplicity
 _atom_site_fract_x
 _atom_site_fract_y
 _atom_site_fract_z
 _atom_site_occupancy
  Li  Li0  1  0.00004465  0.49938320  0.66672343  1
  Li  Li1  1  0.25008469  0.25008208  0.91665705  1
  Li  Li2  1  0.16342954  0.66195725  0.83327389  1
  Li  Li3  1  0.99778319  0.50062647  0.33332713  1
  Li  Li4  1  0.24816282  0.24796288  0.58334834  1
  Li  Li5  1  0.50037150  0.99913569  0.83342492  1
  Li  Li6  1  0.16012280  0.66396525  0.49984467  1
  Li  Li7  1  0.00039335  0.49899325  0.99987635  1
  Li  Li8  1  0.25254791  0.24882025  0.24999548  1
  Li  Li9  1  0.49906757  0.99992691  0.50001507  1
  Li  Li10  1  0.33868403  0.83824360  0.99972128  1
  Li  Li11  1  0.16588981  0.65965156  0.16651001  1
  Li  Li12  1  0.49856515  0.00052042  0.16664948  1
  Li  Li13  1  0.66421991  0.15937397  0.66686093  1
  Li  Li14  1  0.33712453  0.84158340  0.66659408  1
  Li  Li15  1  0.66040389  0.16354605  0.33344940  1
  Li  Li16  1  0.34110637  0.83634751  0.33322448  1
  Li  Li17  1  0.83706124  0.33836217  0.83359700  1
  Li  Li18  1  0.66080397  0.16366588  -0.00000154  1
  Li  Li19  1  0.74722761  0.75004035  0.75003925  1
  Li  Li20  1  0.84149398  0.33702974  0.50015940  1
  Li  Li21  1  0.74926447  0.74751490  0.41667592  1
  Li  Li22  1  0.83559526  0.34026424  0.16682202  1
  Li  Li23  1  0.74772954  0.74842641  0.08329675  1
  Mn  Mn24  1  0.41678752  0.41768935  0.74999825  1
  Mn  Mn25  1  0.41768506  0.41694542  0.41669265  1
  Mn  Mn26  1  0.58274063  0.58276710  0.91667586  1
  Mn  Mn27  1  0.41729153  0.41762803  0.08328270  1
  Mn  Mn28  1  0.58348424  0.58242176  0.25001053  1
  Mn  Mn29  1  0.91711387  0.91695266  0.91667697  1
  Mn  Mn30  1  0.91743925  0.91734903  0.58330875  1
  Cr  Cr31  1  0.07833207  0.08234042  0.75001760  1
  Cr  Cr32  1  0.08116394  0.07895093  0.41667829  1
  Cr  Cr33  1  0.07930066  0.08045869  0.08333074  1
  Cr  Cr34  1  0.57946905  0.57962133  0.58330693  1
  Cr  Cr35  1  0.92218971  0.91537837  0.25001214  1
  O  O36  1  0.14805608  0.35157135  0.78787413  1
  O  O37  1  0.35606710  0.14676742  0.71182336  1
  O  O38  1  0.14704502  0.35538968  0.45473933  1
  O  O39  1  0.28587151  0.57138905  0.95381857  1
  O  O40  1  0.07436665  0.78798852  0.71280725  1
  O  O41  1  0.35212411  0.14763400  0.37872887  1
  O  O42  1  0.21359967  0.92886445  0.87940249  1
  O  O43  1  0.14722101  0.35364570  0.12128857  1
  O  O44  1  0.28825372  0.57363281  0.62042846  1
  O  O45  1  0.07297894  0.78707917  0.37937538  1
  O  O46  1  0.57124887  0.28564497  0.87951236  1
  O  O47  1  0.43380381  0.70800008  0.78767274  1
  O  O48  1  0.35418179  0.14712807  0.04535460  1
  O  O49  1  0.20666002  0.93474489  0.54551404  1
  O  O50  1  0.28845424  0.56954550  0.28732172  1
  O  O51  1  0.78632633  0.07270515  0.78722869  1
  O  O52  1  0.07370949  0.78832321  0.04615578  1
  O  O53  1  0.57345387  0.28800925  0.54619495  1
  O  O54  1  0.43337494  0.70844655  0.45430649  1
  O  O55  1  0.92880056  0.21377652  0.95395349  1
  O  O56  1  0.21535156  0.92755676  0.21258776  1
  O  O57  1  0.70899455  0.43280989  0.71242044  1
  O  O58  1  0.78808258  0.07401122  0.45379223  1
  O  O59  1  0.64556011  0.85463774  0.95459198  1
  O  O60  1  0.56753689  0.29041497  0.21248376  1
  O  O61  1  0.43452784  0.70772893  0.12101912  1
  O  O62  1  0.93458592  0.20690390  0.62114337  1
  O  O63  1  0.70766535  0.43395731  0.37902702  1
  O  O64  1  0.85467809  0.64508712  0.87875393  1
  O  O65  1  0.78812410  0.07292378  0.12059167  1
  O  O66  1  0.64750571  0.85361669  0.62128323  1
  O  O67  1  0.92586509  0.21227786  0.28727677  1
  O  O68  1  0.70760385  0.43398641  0.04569312  1
  O  O69  1  0.85362275  0.64712395  0.54536593  1
  O  O70  1  0.64256637  0.85368001  0.28825552  1
  O  O71  1  0.85195524  0.64907059  0.21213969  1
