# generated using pymatgen
data_SrTaNO2
_symmetry_space_group_name_H-M   'P 1'
_cell_length_a   5.74288606
_cell_length_b   8.18981046
_cell_length_c   5.73112144
_cell_angle_alpha   89.98304448
_cell_angle_beta   89.90627815
_cell_angle_gamma   90.05389848
_symmetry_Int_Tables_number   1
_chemical_formula_structural   SrTaNO2
_chemical_formula_sum   'Sr4 Ta4 N4 O8'
_cell_volume   269.55219297
_cell_formula_units_Z   4
loop_
 _symmetry_equiv_pos_site_id
 _symmetry_equiv_pos_as_xyz
  1  'x, y, z'
loop_
 _atom_site_type_symbol
 _atom_site_label
 _atom_site_symmetry_multiplicity
 _atom_site_fract_x
 _atom_site_fract_y
 _atom_site_fract_z
 _atom_site_occupancy
  Sr  Sr0  1  0.99671538  0.75122302  0.00391972  1
  Sr  Sr1  1  0.49172194  0.75145286  0.51381597  1
  Sr  Sr2  1  0.49437435  0.27502634  0.48899086  1
  Sr  Sr3  1  0.99703469  0.27439455  0.97883142  1
  Ta  Ta4  1  0.99614662  0.00189149  0.49715630  1
  Ta  Ta5  1  0.98253965  0.51472251  0.49478866  1
  Ta  Ta6  1  0.49484625  0.02630581  0.99953284  1
  Ta  Ta7  1  0.51163239  0.50815941  0.99701579  1
  N  N8  1  0.46080239  0.26227387  0.00281592  1
  N  N9  1  0.73123155  0.49814853  0.73226662  1
  N  N10  1  0.77065200  0.49677013  0.23161424  1
  N  N11  1  0.96868221  0.76965442  0.49648426  1
  O  O12  1  0.05130144  0.26400216  0.51048261  1
  O  O13  1  0.22757571  0.53798949  0.77900531  1
  O  O14  1  0.22301260  0.99559541  0.77955946  1
  O  O15  1  0.28244630  0.99626268  0.27981934  1
  O  O16  1  0.27668378  0.53666445  0.27868649  1
  O  O17  1  0.53740161  0.77083103  0.99371545  1
  O  O18  1  0.72379983  0.03812974  0.72094823  1
  O  O19  1  0.78139834  0.03850108  0.22055051  1
