# generated using pymatgen
data_LiMnPO4
_symmetry_space_group_name_H-M   'P 1'
_cell_length_a   8.49945615
_cell_length_b   5.24614138
_cell_length_c   8.81843328
_cell_angle_alpha   90.00000000
_cell_angle_beta   108.88067746
_cell_angle_gamma   90.00000000
_symmetry_Int_Tables_number   1
_chemical_formula_structural   LiMnPO4
_chemical_formula_sum   'Li4 Mn4 P4 O16'
_cell_volume   372.05144915
_cell_formula_units_Z   4
loop_
 _symmetry_equiv_pos_site_id
 _symmetry_equiv_pos_as_xyz
  1  'x, y, z'
loop_
 _atom_site_type_symbol
 _atom_site_label
 _atom_site_symmetry_multiplicity
 _atom_site_fract_x
 _atom_site_fract_y
 _atom_site_fract_z
 _atom_site_occupancy
  Li  Li0  1  0.10387299  0.82692501  0.98206176  1
  Li  Li1  1  0.25735793  0.31563176  0.50120540  1
  Li  Li2  1  0.60387299  0.17307499  0.98206176  1
  Li  Li3  1  0.75735793  0.68436824  0.50120540  1
  Mn  Mn4  1  0.99626229  0.67656682  0.25449679  1
  Mn  Mn5  1  0.33046119  0.81905188  0.73226125  1
  Mn  Mn6  1  0.49626229  0.32343318  0.25449679  1
  Mn  Mn7  1  0.83046119  0.18094812  0.73226125  1
  P  P8  1  0.22610370  0.31539767  0.86462982  1
  P  P9  1  0.36750157  0.81895505  0.36978945  1
  P  P10  1  0.72610370  0.68460233  0.86462982  1
  P  P11  1  0.86750157  0.18104495  0.36978945  1
  O  O12  1  0.07428078  0.17494402  0.88694325  1
  O  O13  1  0.02479280  0.31263469  0.35319674  1
  O  O14  1  0.18871667  0.60550547  0.83892633  1
  O  O15  1  0.26404602  0.20464658  0.71522354  1
  O  O16  1  0.21910292  0.77981591  0.21335930  1
  O  O17  1  0.31576197  0.69008952  0.50675478  1
  O  O18  1  0.57428078  0.82505598  0.88694325  1
  O  O19  1  0.40378721  0.10699397  0.40753368  1
  O  O20  1  0.38175095  0.26572492  0.01241693  1
  O  O21  1  0.52479280  0.68736531  0.35319674  1
  O  O22  1  0.68871667  0.39449453  0.83892633  1
  O  O23  1  0.76404602  0.79535342  0.71522354  1
  O  O24  1  0.71910292  0.22018409  0.21335930  1
  O  O25  1  0.81576197  0.30991048  0.50675478  1
  O  O26  1  0.90378721  0.89300603  0.40753368  1
  O  O27  1  0.88175095  0.73427508  0.01241693  1
