# generated using pymatgen
data_YbP3(HO)6
_symmetry_space_group_name_H-M   'P 1'
_cell_length_a   5.87635719
_cell_length_b   8.02201257
_cell_length_c   11.02419674
_cell_angle_alpha   81.49809080
_cell_angle_beta   74.54265675
_cell_angle_gamma   68.51457573
_symmetry_Int_Tables_number   1
_chemical_formula_structural   YbP3(HO)6
_chemical_formula_sum   'Yb2 P6 H12 O12'
_cell_volume   465.34800658
_cell_formula_units_Z   2
loop_
 _symmetry_equiv_pos_site_id
 _symmetry_equiv_pos_as_xyz
  1  'x, y, z'
loop_
 _atom_site_type_symbol
 _atom_site_label
 _atom_site_symmetry_multiplicity
 _atom_site_fract_x
 _atom_site_fract_y
 _atom_site_fract_z
 _atom_site_occupancy
  Yb  Yb0  1  0.50000000  0.00000000  0.00000000  1
  Yb  Yb1  1  0.50000000  0.50000000  0.50000000  1
  P  P2  1  0.82259138  0.26733926  0.08747798  1
  P  P3  1  0.17740862  0.73266074  0.91252202  1
  P  P4  1  0.90713656  0.47151967  0.71420721  1
  P  P5  1  0.09286344  0.52848033  0.28579279  1
  P  P6  1  0.65829598  0.03791352  0.64549451  1
  P  P7  1  0.34170402  0.96208648  0.35450549  1
  H  H8  1  0.72083667  0.45621503  0.10211163  1
  H  H9  1  0.27916333  0.54378497  0.89788837  1
  H  H10  1  0.79625068  0.19310576  0.21439288  1
  H  H11  1  0.20374932  0.80689424  0.78560712  1
  H  H12  1  0.98921608  0.28215258  0.73941526  1
  H  H13  1  0.01078392  0.71784742  0.26058474  1
  H  H14  1  0.81176489  0.53950740  0.83696282  1
  H  H15  1  0.18823511  0.46049260  0.16303718  1
  H  H16  1  0.53584604  0.92745507  0.61869858  1
  H  H17  1  0.91800032  0.92745507  0.61869858  1
  H  H18  1  0.46415396  0.07254493  0.38130142  1
  H  H19  1  0.08199968  0.07254493  0.38130142  1
  O  O20  1  0.10229437  0.21713842  0.02870509  1
  O  O21  1  0.65186211  0.21713842  0.02870509  1
  O  O22  1  0.89770563  0.78286158  0.97129491  1
  O  O23  1  0.34813789  0.78286158  0.97129491  1
  O  O24  1  0.68725051  0.52477381  0.65190811  1
  O  O25  1  0.13606756  0.52477381  0.65190811  1
  O  O26  1  0.31274949  0.47522619  0.34809189  1
  O  O27  1  0.86393244  0.47522619  0.34809189  1
  O  O28  1  0.57299691  0.06899123  0.78501496  1
  O  O29  1  0.42700309  0.93100877  0.21498504  1
  O  O30  1  0.63184942  0.19127854  0.54502262  1
  O  O31  1  0.36815058  0.80872146  0.45497738  1
