# generated using pymatgen
data_Li2MnSiO4
_symmetry_space_group_name_H-M   'P 1'
_cell_length_a   11.03729988
_cell_length_b   5.16775370
_cell_length_c   6.40281017
_cell_angle_alpha   90.00000000
_cell_angle_beta   90.00000000
_cell_angle_gamma   90.00000000
_symmetry_Int_Tables_number   1
_chemical_formula_structural   Li2MnSiO4
_chemical_formula_sum   'Li8 Mn4 Si4 O16'
_cell_volume   365.20378928
_cell_formula_units_Z   4
loop_
 _symmetry_equiv_pos_site_id
 _symmetry_equiv_pos_as_xyz
  1  'x, y, z'
loop_
 _atom_site_type_symbol
 _atom_site_label
 _atom_site_symmetry_multiplicity
 _atom_site_fract_x
 _atom_site_fract_y
 _atom_site_fract_z
 _atom_site_occupancy
  Li  Li0  1  0.07537000  0.77783468  0.86846335  1
  Li  Li1  1  0.15988186  0.18399804  0.11908108  1
  Li  Li2  1  0.34011814  0.68399804  0.61908108  1
  Li  Li3  1  0.42463000  0.27783468  0.36846335  1
  Li  Li4  1  0.57537000  0.72216532  0.86846335  1
  Li  Li5  1  0.65988186  0.31600196  0.11908108  1
  Li  Li6  1  0.84011814  0.81600196  0.61908108  1
  Li  Li7  1  0.92463000  0.22216532  0.36846335  1
  Mn  Mn8  1  0.16769387  0.18784815  0.61662790  1
  Mn  Mn9  1  0.33230613  0.68784815  0.11662790  1
  Mn  Mn10  1  0.66769387  0.31215185  0.61662790  1
  Mn  Mn11  1  0.83230613  0.81215185  0.11662790  1
  Si  Si12  1  0.08559490  0.68382272  0.36800728  1
  Si  Si13  1  0.41440510  0.18382272  0.86800728  1
  Si  Si14  1  0.58559490  0.81617728  0.36800728  1
  Si  Si15  1  0.91440510  0.31617728  0.86800728  1
  O  O16  1  0.05515011  0.21018152  0.87312223  1
  O  O17  1  0.08900205  0.36439003  0.36196424  1
  O  O18  1  0.16031634  0.78086575  0.58052375  1
  O  O19  1  0.15368342  0.79517283  0.15431017  1
  O  O20  1  0.34631658  0.29517283  0.65431017  1
  O  O21  1  0.33968366  0.28086575  0.08052375  1
  O  O22  1  0.41099795  0.86439003  0.86196424  1
  O  O23  1  0.44484989  0.71018152  0.37312223  1
  O  O24  1  0.55515011  0.28981848  0.87312223  1
  O  O25  1  0.58900205  0.13560997  0.36196424  1
  O  O26  1  0.66031634  0.71913425  0.58052375  1
  O  O27  1  0.65368342  0.70482717  0.15431017  1
  O  O28  1  0.84631658  0.20482717  0.65431017  1
  O  O29  1  0.83968366  0.21913425  0.08052375  1
  O  O30  1  0.91099795  0.63560997  0.86196424  1
  O  O31  1  0.94484989  0.78981848  0.37312223  1
