# generated using pymatgen
data_Co2P2H12O13
_symmetry_space_group_name_H-M   'P 1'
_cell_length_a   7.24528014
_cell_length_b   18.52900133
_cell_length_c   7.66783181
_cell_angle_alpha   90.00000000
_cell_angle_beta   92.35042229
_cell_angle_gamma   90.00000000
_symmetry_Int_Tables_number   1
_chemical_formula_structural   Co2P2H12O13
_chemical_formula_sum   'Co8 P8 H48 O52'
_cell_volume   1028.52355776
_cell_formula_units_Z   4
loop_
 _symmetry_equiv_pos_site_id
 _symmetry_equiv_pos_as_xyz
  1  'x, y, z'
loop_
 _atom_site_type_symbol
 _atom_site_label
 _atom_site_symmetry_multiplicity
 _atom_site_fract_x
 _atom_site_fract_y
 _atom_site_fract_z
 _atom_site_occupancy
  Co  Co0  1  0.00000000  0.00000000  0.00000000  1
  Co  Co1  1  0.00000000  0.50000000  0.00000000  1
  Co  Co2  1  0.19974196  0.75563730  0.52438930  1
  Co  Co3  1  0.30025804  0.25563730  0.97561070  1
  Co  Co4  1  0.50000000  0.00000000  0.50000000  1
  Co  Co5  1  0.50000000  0.50000000  0.50000000  1
  Co  Co6  1  0.69974196  0.74436270  0.02438930  1
  Co  Co7  1  0.80025804  0.24436270  0.47561070  1
  P  P8  1  0.16696516  0.60408217  0.31828032  1
  P  P9  1  0.20232673  0.59764000  0.70080235  1
  P  P10  1  0.29767327  0.09764000  0.79919765  1
  P  P11  1  0.33303484  0.10408217  0.18171968  1
  P  P12  1  0.66696516  0.89591783  0.81828032  1
  P  P13  1  0.70232673  0.90236000  0.20080235  1
  P  P14  1  0.79767327  0.40236000  0.29919765  1
  P  P15  1  0.83303484  0.39591783  0.68171968  1
  H  H16  1  0.99509905  0.67339525  0.92747210  1
  H  H17  1  0.00045756  0.83550985  0.29570505  1
  H  H18  1  0.04231704  0.71219226  0.10641069  1
  H  H19  1  0.10637066  0.85334599  0.79014924  1
  H  H20  1  0.15149613  0.23281359  0.34767574  1
  H  H21  1  0.13966814  0.88903379  0.40433629  1
  H  H22  1  0.15932245  0.00872615  0.37979544  1
  H  H23  1  0.16556496  0.26739470  0.53779034  1
  H  H24  1  0.16321212  0.99696727  0.58963182  1
  H  H25  1  0.16794927  0.42817011  0.47687468  1
  H  H26  1  0.19460223  0.36916359  0.77639531  1
  H  H27  1  0.19586974  0.88658967  0.14238248  1
  H  H28  1  0.30539777  0.86916359  0.72360469  1
  H  H29  1  0.30413026  0.38658967  0.35761752  1
  H  H30  1  0.33678788  0.49696727  0.91036818  1
  H  H31  1  0.33443504  0.76739470  0.96220966  1
  H  H32  1  0.33205073  0.92817011  0.02312532  1
  H  H33  1  0.34067755  0.50872615  0.12020456  1
  H  H34  1  0.36033186  0.38903379  0.09566371  1
  H  H35  1  0.39362934  0.35334599  0.70985076  1
  H  H36  1  0.34850387  0.73281359  0.15232426  1
  H  H37  1  0.45768296  0.21219226  0.39358931  1
  H  H38  1  0.50490095  0.17339625  0.57252790  1
  H  H39  1  0.49954244  0.33550985  0.20429495  1
  H  H40  1  0.50045756  0.66449015  0.79570505  1
  H  H41  1  0.49509905  0.82660475  0.42747210  1
  H  H42  1  0.54231704  0.78780774  0.60641069  1
  H  H43  1  0.65149613  0.26718641  0.84767574  1
  H  H44  1  0.60637066  0.64665401  0.29014924  1
  H  H45  1  0.63966814  0.61096621  0.90433629  1
  H  H46  1  0.65932245  0.49127385  0.87979544  1
  H  H47  1  0.66794927  0.07182989  0.97687468  1
  H  H48  1  0.66556496  0.23260530  0.03779034  1
  H  H49  1  0.66321212  0.50303273  0.08963182  1
  H  H50  1  0.69586974  0.61341033  0.64238248  1
  H  H51  1  0.69460223  0.13083641  0.27639531  1
  H  H52  1  0.80413026  0.11341033  0.85761752  1
  H  H53  1  0.80539777  0.63083641  0.22360469  1
  H  H54  1  0.83205073  0.57182989  0.52312532  1
  H  H55  1  0.83678788  0.00303273  0.41036818  1
  H  H56  1  0.83443504  0.73260530  0.46220966  1
  H  H57  1  0.84067755  0.99127385  0.62020456  1
  H  H58  1  0.86033186  0.11096621  0.59566371  1
  H  H59  1  0.84850387  0.76718641  0.65232426  1
  H  H60  1  0.89362934  0.14665401  0.20985076  1
  H  H61  1  0.95768296  0.28780774  0.89358931  1
  H  H62  1  0.99954244  0.16449015  0.70429495  1
  H  H63  1  0.00490095  0.32660475  0.07252790  1
  O  O64  1  0.00868808  0.57520015  0.20015733  1
  O  O65  1  0.05480077  0.59009976  0.83579944  1
  O  O66  1  0.02384636  0.28053168  0.00764087  1
  O  O67  1  0.09000638  0.58727702  0.51233685  1
  O  O68  1  0.08299514  0.26030524  0.43454536  1
  O  O69  1  0.13070427  0.84132359  0.34374360  1
  O  O70  1  0.15106273  0.03794096  0.78669804  1
  O  O71  1  0.14721060  0.06569555  0.19572598  1
  O  O72  1  0.18479873  0.68702985  0.30164701  1
  O  O73  1  0.21310869  0.83009411  0.73933863  1
  O  O74  1  0.20386411  0.97613377  0.47653324  1
  O  O75  1  0.20983311  0.17326051  0.80485525  1
  O  O76  1  0.20038366  0.91971947  0.04122821  1
  O  O77  1  0.29016689  0.67326051  0.69514475  1
  O  O78  1  0.28689131  0.33009411  0.76066137  1
  O  O79  1  0.29961634  0.41971947  0.45877179  1
  O  O80  1  0.29613589  0.47613377  0.02346676  1
  O  O81  1  0.31520127  0.18702985  0.19835299  1
  O  O82  1  0.34893727  0.53794096  0.71330196  1
  O  O83  1  0.35278940  0.56569555  0.30427402  1
  O  O84  1  0.40999362  0.08727702  0.98766315  1
  O  O85  1  0.36929573  0.34132359  0.15625640  1
  O  O86  1  0.41700486  0.76030524  0.06545464  1
  O  O87  1  0.44519923  0.09009976  0.66420056  1
  O  O88  1  0.47615364  0.78053168  0.49235913  1
  O  O89  1  0.49131192  0.07520015  0.29984267  1
  O  O90  1  0.50868808  0.92479985  0.70015733  1
  O  O91  1  0.52384636  0.21946832  0.50764087  1
  O  O92  1  0.55480077  0.90990024  0.33579944  1
  O  O93  1  0.58299514  0.23969476  0.93454536  1
  O  O94  1  0.63070427  0.65867641  0.84374360  1
  O  O95  1  0.59000638  0.91272298  0.01233685  1
  O  O96  1  0.64721060  0.43430445  0.69572598  1
  O  O97  1  0.65106273  0.46205904  0.28669804  1
  O  O98  1  0.68479873  0.81297015  0.80164701  1
  O  O99  1  0.70386411  0.52386623  0.97653324  1
  O  O100  1  0.70038366  0.58028053  0.54122821  1
  O  O101  1  0.71310869  0.66990589  0.23933863  1
  O  O102  1  0.70983311  0.32673949  0.30485525  1
  O  O103  1  0.79961634  0.08028053  0.95877179  1
  O  O104  1  0.79016689  0.82673949  0.19514475  1
  O  O105  1  0.79613589  0.02386623  0.52346676  1
  O  O106  1  0.78689131  0.16990589  0.26066137  1
  O  O107  1  0.81520127  0.31297015  0.69835299  1
  O  O108  1  0.85278940  0.93430445  0.80427402  1
  O  O109  1  0.84893727  0.96205904  0.21330196  1
  O  O110  1  0.86929573  0.15867641  0.65625640  1
  O  O111  1  0.91700486  0.73969476  0.56545464  1
  O  O112  1  0.90999362  0.41272298  0.48766315  1
  O  O113  1  0.97615364  0.71946832  0.99235913  1
  O  O114  1  0.94519923  0.40990024  0.16420056  1
  O  O115  1  0.99131192  0.42479985  0.79984267  1
