# generated using pymatgen
data_Cu2CO5
_symmetry_space_group_name_H-M   'P 1'
_cell_length_a   2.99053861
_cell_length_b   8.94087241
_cell_length_c   12.66605964
_cell_angle_alpha   90.00000000
_cell_angle_beta   93.50341932
_cell_angle_gamma   90.00000000
_symmetry_Int_Tables_number   1
_chemical_formula_structural   Cu2CO5
_chemical_formula_sum   'Cu8 C4 O20'
_cell_volume   338.03249461
_cell_formula_units_Z   4
loop_
 _symmetry_equiv_pos_site_id
 _symmetry_equiv_pos_as_xyz
  1  'x, y, z'
loop_
 _atom_site_type_symbol
 _atom_site_label
 _atom_site_symmetry_multiplicity
 _atom_site_fract_x
 _atom_site_fract_y
 _atom_site_fract_z
 _atom_site_occupancy
  Cu  Cu0  1  0.26097927  0.50972614  0.27946228  1
  Cu  Cu1  1  0.23902073  0.00972614  0.22053772  1
  Cu  Cu2  1  0.73902073  0.49027386  0.72053772  1
  Cu  Cu3  1  0.76097927  0.99027386  0.77946228  1
  Cu  Cu4  1  0.71517920  0.74146014  0.12053924  1
  Cu  Cu5  1  0.78482080  0.24146014  0.37946076  1
  Cu  Cu6  1  0.28482080  0.25853986  0.87946076  1
  Cu  Cu7  1  0.21517920  0.75853986  0.62053924  1
  C  C8  1  0.00329694  0.78292441  0.37113454  1
  C  C9  1  0.49670306  0.28292441  0.12886546  1
  C  C10  1  0.99670306  0.21707559  0.62886546  1
  C  C11  1  0.50329694  0.71707559  0.87113454  1
  O  O12  1  0.92152198  0.63814259  0.36554569  1
  O  O13  1  0.57847802  0.13814259  0.13445431  1
  O  O14  1  0.07847802  0.36185741  0.63445431  1
  O  O15  1  0.42152198  0.86185741  0.86554569  1
  O  O16  1  0.88756165  0.85726732  0.28284333  1
  O  O17  1  0.61243835  0.35726732  0.21715667  1
  O  O18  1  0.11243835  0.14273268  0.71715667  1
  O  O19  1  0.38756165  0.64273268  0.78284333  1
  O  O20  1  0.16426298  0.84530159  0.45230231  1
  O  O21  1  0.33573702  0.34530159  0.04769769  1
  O  O22  1  0.83573702  0.15469841  0.54769769  1
  O  O23  1  0.66426298  0.65469841  0.95230231  1
  O  O24  1  0.22133706  0.61631861  0.15287545  1
  O  O25  1  0.27866294  0.11631861  0.34712455  1
  O  O26  1  0.77866294  0.38368139  0.84712455  1
  O  O27  1  0.72133706  0.88368139  0.65287545  1
  O  O28  1  0.21325462  0.87442156  0.10296825  1
  O  O29  1  0.28674538  0.37442156  0.39703175  1
  O  O30  1  0.78674538  0.12557844  0.89703175  1
  O  O31  1  0.71325462  0.62557844  0.60296825  1
