# generated using pymatgen
data_LiFeSiO4
_symmetry_space_group_name_H-M   'P 1'
_cell_length_a   4.80850767
_cell_length_b   10.20232501
_cell_length_c   5.88527722
_cell_angle_alpha   90.00004111
_cell_angle_beta   89.99978038
_cell_angle_gamma   90.00012348
_symmetry_Int_Tables_number   1
_chemical_formula_structural   LiFeSiO4
_chemical_formula_sum   'Li4 Fe4 Si4 O16'
_cell_volume   288.71968304
_cell_formula_units_Z   4
loop_
 _symmetry_equiv_pos_site_id
 _symmetry_equiv_pos_as_xyz
  1  'x, y, z'
loop_
 _atom_site_type_symbol
 _atom_site_label
 _atom_site_symmetry_multiplicity
 _atom_site_fract_x
 _atom_site_fract_y
 _atom_site_fract_z
 _atom_site_occupancy
  Li  Li0  1  0.00000024  0.99999868  0.99999897  1
  Li  Li1  1  0.99999968  0.99999880  0.50000020  1
  Li  Li2  1  0.50000032  0.50000076  0.49999850  1
  Li  Li3  1  0.49999985  0.50000110  0.00000111  1
  Fe  Fe4  1  0.00674280  0.72682946  0.75000335  1
  Fe  Fe5  1  0.49326189  0.22683371  0.74999931  1
  Fe  Fe6  1  0.50674080  0.77316947  0.24999859  1
  Fe  Fe7  1  0.99327059  0.27316804  0.24999974  1
  Si  Si8  1  0.05901876  0.59335842  0.25000108  1
  Si  Si9  1  0.44097207  0.09335148  0.24999986  1
  Si  Si10  1  0.55902107  0.90664045  0.74999930  1
  Si  Si11  1  0.94097531  0.40664952  0.74999919  1
  O  O12  1  0.68605739  0.05588880  0.75000017  1
  O  O13  1  0.22231163  0.89749707  0.75000159  1
  O  O14  1  0.28372028  0.17109847  0.03517119  1
  O  O15  1  0.28372097  0.17109820  0.46483107  1
  O  O16  1  0.21627708  0.67110120  0.03517342  1
  O  O17  1  0.21627613  0.67110148  0.46482875  1
  O  O18  1  0.27769678  0.39750282  0.74999984  1
  O  O19  1  0.81393833  0.55588777  0.75000050  1
  O  O20  1  0.18605782  0.44411206  0.24999990  1
  O  O21  1  0.72230863  0.60250150  0.25000055  1
  O  O22  1  0.71627797  0.82889826  0.53517043  1
  O  O23  1  0.71627498  0.82889726  0.96482473  1
  O  O24  1  0.78372323  0.32890101  0.53517005  1
  O  O25  1  0.78372215  0.32890237  0.96482974  1
  O  O26  1  0.77769352  0.10249925  0.24999846  1
  O  O27  1  0.31393972  0.94411259  0.25000041  1
