# generated using pymatgen
data_LiCoSO4F
_symmetry_space_group_name_H-M   'P 1'
_cell_length_a   5.22332335
_cell_length_b   5.48040811
_cell_length_c   7.26211971
_cell_angle_alpha   107.17610993
_cell_angle_beta   107.28833673
_cell_angle_gamma   98.31922612
_symmetry_Int_Tables_number   1
_chemical_formula_structural   LiCoSO4F
_chemical_formula_sum   'Li2 Co2 S2 O8 F2'
_cell_volume   183.38069405
_cell_formula_units_Z   2
loop_
 _symmetry_equiv_pos_site_id
 _symmetry_equiv_pos_as_xyz
  1  'x, y, z'
loop_
 _atom_site_type_symbol
 _atom_site_label
 _atom_site_symmetry_multiplicity
 _atom_site_fract_x
 _atom_site_fract_y
 _atom_site_fract_z
 _atom_site_occupancy
  Li  Li0  1  0.27082228  0.62786049  0.76146792  1
  Li  Li1  1  0.72917772  0.37213951  0.23853208  1
  Co  Co2  1  0.00000000  0.00000000  0.50000000  1
  Co  Co3  1  0.00000000  0.00000000  0.00000000  1
  S  S4  1  0.32304582  0.63619994  0.25002036  1
  S  S5  1  0.67695418  0.36380006  0.74997964  1
  O  O6  1  0.60373566  0.75004320  0.41306871  1
  O  O7  1  0.39626434  0.24995680  0.58693129  1
  O  O8  1  0.10542569  0.64891407  0.34613784  1
  O  O9  1  0.89457431  0.35108593  0.65386216  1
  O  O10  1  0.31479694  0.35293827  0.14410070  1
  O  O11  1  0.68520306  0.64706173  0.85589930  1
  O  O12  1  0.27707482  0.77133089  0.09789846  1
  O  O13  1  0.72292518  0.22866911  0.90210154  1
  F  F14  1  0.12441136  0.91826594  0.75667327  1
  F  F15  1  0.87558864  0.08173406  0.24332673  1
