# generated using pymatgen
data_Ba2UCuO6
_symmetry_space_group_name_H-M   'P 1'
_cell_length_a   5.80770111
_cell_length_b   5.80770111
_cell_length_c   6.14121601
_cell_angle_alpha   118.21920766
_cell_angle_beta   118.21920761
_cell_angle_gamma   89.99999999
_symmetry_Int_Tables_number   1
_chemical_formula_structural   Ba2UCuO6
_chemical_formula_sum   'Ba2 U1 Cu1 O6'
_cell_volume   154.01387842
_cell_formula_units_Z   1
loop_
 _symmetry_equiv_pos_site_id
 _symmetry_equiv_pos_as_xyz
  1  'x, y, z'
loop_
 _atom_site_type_symbol
 _atom_site_label
 _atom_site_symmetry_multiplicity
 _atom_site_fract_x
 _atom_site_fract_y
 _atom_site_fract_z
 _atom_site_occupancy
  O  O0  1  0.74298049  0.74298049  0.00000000  1
  O  O1  1  0.25701951  0.74298049  0.00000000  1
  O  O2  1  0.74298049  0.25701951  0.00000000  1
  O  O3  1  0.25701951  0.25701951  0.00000000  1
  O  O4  1  0.22379574  0.22379574  0.44759148  1
  O  O5  1  0.77620426  0.77620426  0.55240852  1
  Cu  Cu6  1  0.50000000  0.50000000  0.00000000  1
  Ba  Ba7  1  0.75000000  0.25000000  0.50000000  1
  Ba  Ba8  1  0.25000000  0.75000000  0.50000000  1
  U  U9  1  0.00000000  0.00000000  0.00000000  1
