# generated using pymatgen
data_ZnH10C2S3(N3O2)2
_symmetry_space_group_name_H-M   'P 1'
_cell_length_a   6.61248743
_cell_length_b   7.30655685
_cell_length_c   12.48171473
_cell_angle_alpha   91.56990418
_cell_angle_beta   93.53946610
_cell_angle_gamma   100.37610939
_symmetry_Int_Tables_number   1
_chemical_formula_structural   ZnH10C2S3(N3O2)2
_chemical_formula_sum   'Zn2 H20 C4 S6 N12 O8'
_cell_volume   591.59886773
_cell_formula_units_Z   2
loop_
 _symmetry_equiv_pos_site_id
 _symmetry_equiv_pos_as_xyz
  1  'x, y, z'
loop_
 _atom_site_type_symbol
 _atom_site_label
 _atom_site_symmetry_multiplicity
 _atom_site_fract_x
 _atom_site_fract_y
 _atom_site_fract_z
 _atom_site_occupancy
  Zn  Zn0  1  0.15769810  0.29122709  0.72561653  1
  Zn  Zn1  1  0.84230190  0.70877291  0.27438347  1
  H  H2  1  0.40498024  0.09804151  0.85207207  1
  H  H3  1  0.59501976  0.90195849  0.14792793  1
  H  H4  1  0.50454935  0.32607504  0.85336049  1
  H  H5  1  0.49545065  0.67392496  0.14663951  1
  H  H6  1  0.38417165  0.24280540  0.02456629  1
  H  H7  1  0.61582835  0.75719460  0.97543371  1
  H  H8  1  0.13171069  0.30236716  0.12724614  1
  H  H9  1  0.86828931  0.69763284  0.87275386  1
  H  H10  1  0.87154669  0.26030567  0.07627663  1
  H  H11  1  0.12845331  0.73969433  0.92372337  1
  H  H12  1  0.40457126  0.08542490  0.62538317  1
  H  H13  1  0.59542874  0.91457510  0.37461683  1
  H  H14  1  0.51748544  0.30997639  0.63385743  1
  H  H15  1  0.48251456  0.69002361  0.36614257  1
  H  H16  1  0.41217093  0.22067078  0.44766503  1
  H  H17  1  0.58782907  0.77932922  0.55233497  1
  H  H18  1  0.18807829  0.29162142  0.32144655  1
  H  H19  1  0.81192171  0.70837858  0.67855345  1
  H  H20  1  0.93490982  0.30183497  0.34857566  1
  H  H21  1  0.06509018  0.69816503  0.65142434  1
  C  C22  1  0.08501213  0.24954558  0.96484548  1
  C  C23  1  0.91498787  0.75045442  0.03515452  1
  C  C24  1  0.11873932  0.25446317  0.47808347  1
  C  C25  1  0.88126068  0.74553683  0.52191653  1
  S  S26  1  0.91204145  0.21535331  0.85546422  1
  S  S27  1  0.08795855  0.78464669  0.14453578  1
  S  S28  1  0.93383350  0.24906137  0.56810765  1
  S  S29  1  0.06616650  0.75093863  0.43189235  1
  S  S30  1  0.44499892  0.71047513  0.76598253  1
  S  S31  1  0.55500108  0.28952487  0.23401747  1
  N  N32  1  0.37080363  0.23023503  0.85721293  1
  N  N33  1  0.62919637  0.76976497  0.14278707  1
  N  N34  1  0.29003447  0.25786638  0.95678173  1
  N  N35  1  0.70996553  0.74213362  0.04321827  1
  N  N36  1  0.38140215  0.21989019  0.61469316  1
  N  N37  1  0.61859785  0.78010981  0.38530684  1
  N  N38  1  0.31776347  0.24569050  0.50747292  1
  N  N39  1  0.68223653  0.75430950  0.49252708  1
  N  N40  1  0.02416015  0.26861306  0.06370811  1
  N  N41  1  0.97583985  0.73138694  0.93629189  1
  N  N42  1  0.07247501  0.26597201  0.37352425  1
  N  N43  1  0.92752499  0.73402799  0.62647575  1
  O  O44  1  0.24557520  0.57683774  0.73654891  1
  O  O45  1  0.75442480  0.42316226  0.26345109  1
  O  O46  1  0.47746779  0.84772569  0.68025873  1
  O  O47  1  0.52253221  0.15227431  0.31974127  1
  O  O48  1  0.42612635  0.80479124  0.87167234  1
  O  O49  1  0.57387365  0.19520876  0.12832766  1
  O  O50  1  0.61788548  0.60348192  0.77437260  1
  O  O51  1  0.38211452  0.39651808  0.22562740  1
