# generated using pymatgen
data_LiMg
_symmetry_space_group_name_H-M   'P 1'
_cell_length_a   3.31078050
_cell_length_b   7.61709436
_cell_length_c   4.95737400
_cell_angle_alpha   90.00000000
_cell_angle_beta   90.00000000
_cell_angle_gamma   77.44799007
_symmetry_Int_Tables_number   1
_chemical_formula_structural   LiMg
_chemical_formula_sum   'Li3 Mg3'
_cell_volume   122.02964164
_cell_formula_units_Z   3
loop_
 _symmetry_equiv_pos_site_id
 _symmetry_equiv_pos_as_xyz
  1  'x, y, z'
loop_
 _atom_site_type_symbol
 _atom_site_label
 _atom_site_symmetry_multiplicity
 _atom_site_fract_x
 _atom_site_fract_y
 _atom_site_fract_z
 _atom_site_occupancy
  Li  Li0  1  0.30877701  0.38244399  0.00000000  1
  Li  Li1  1  0.47205870  0.05588160  0.50000000  1
  Li  Li2  1  0.13253890  0.73492020  0.50000000  1
  Mg  Mg3  1  0.97071893  0.05856513  0.00000000  1
  Mg  Mg4  1  0.64635407  0.70729387  0.00000000  1
  Mg  Mg5  1  0.80288740  0.39422921  0.50000000  1
