# generated using pymatgen
data_SmY3
_symmetry_space_group_name_H-M   'P 1'
_cell_length_a   7.31694015
_cell_length_b   7.31694044
_cell_length_c   5.74770214
_cell_angle_alpha   90.00000000
_cell_angle_beta   90.00000000
_cell_angle_gamma   119.99999414
_symmetry_Int_Tables_number   1
_chemical_formula_structural   SmY3
_chemical_formula_sum   'Sm2 Y6'
_cell_volume   266.49185110
_cell_formula_units_Z   2
loop_
 _symmetry_equiv_pos_site_id
 _symmetry_equiv_pos_as_xyz
  1  'x, y, z'
loop_
 _atom_site_type_symbol
 _atom_site_label
 _atom_site_symmetry_multiplicity
 _atom_site_fract_x
 _atom_site_fract_y
 _atom_site_fract_z
 _atom_site_occupancy
  Sm  Sm0  1  0.33333300  0.66666600  0.75000000  1
  Sm  Sm1  1  0.66666700  0.33333300  0.25000100  1
  Y  Y2  1  0.16639390  0.33278880  0.25000100  1
  Y  Y3  1  0.66721020  0.83360510  0.25000100  1
  Y  Y4  1  0.16639490  0.83360510  0.25000100  1
  Y  Y5  1  0.83360610  0.66721020  0.75000000  1
  Y  Y6  1  0.33278880  0.16639390  0.75000000  1
  Y  Y7  1  0.83360610  0.16639390  0.75000000  1
