# generated using pymatgen
data_K5TbH8(CO2)8
_symmetry_space_group_name_H-M   'P 1'
_cell_length_a   8.49130112
_cell_length_b   8.49130112
_cell_length_c   15.58807367
_cell_angle_alpha   103.00992289
_cell_angle_beta   103.00992289
_cell_angle_gamma   90.07504518
_symmetry_Int_Tables_number   1
_chemical_formula_structural   K5TbH8(CO2)8
_chemical_formula_sum   'K10 Tb2 H16 C16 O32'
_cell_volume   1065.37335488
_cell_formula_units_Z   2
loop_
 _symmetry_equiv_pos_site_id
 _symmetry_equiv_pos_as_xyz
  1  'x, y, z'
loop_
 _atom_site_type_symbol
 _atom_site_label
 _atom_site_symmetry_multiplicity
 _atom_site_fract_x
 _atom_site_fract_y
 _atom_site_fract_z
 _atom_site_occupancy
  K  K0  1  0.00000000  -0.00000000  -0.00000000  1
  K  K1  1  0.00000000  -0.00000000  0.50000000  1
  K  K2  1  0.59891816  0.20240869  0.01215985  1
  K  K3  1  0.79759131  0.40108184  0.48784015  1
  K  K4  1  0.40108184  0.79759131  0.98784015  1
  K  K5  1  0.20240869  0.59891816  0.51215985  1
  K  K6  1  0.79035082  0.59682552  0.99763769  1
  K  K7  1  0.40317448  0.20964918  0.50236231  1
  K  K8  1  0.20964918  0.40317448  0.00236231  1
  K  K9  1  0.59682552  0.79035082  0.49763769  1
  Tb  Tb10  1  0.19761407  0.80238593  0.25000000  1
  Tb  Tb11  1  0.80238593  0.19761407  0.75000000  1
  H  H12  1  0.99350219  0.39694918  0.21491519  1
  H  H13  1  0.60305082  0.00649781  0.28508481  1
  H  H14  1  0.00649781  0.60305082  0.78508481  1
  H  H15  1  0.39694918  0.99350219  0.71491519  1
  H  H16  1  0.33230108  0.40407267  0.27423360  1
  H  H17  1  0.59592733  0.66769892  0.22576640  1
  H  H18  1  0.66769892  0.59592733  0.72576640  1
  H  H19  1  0.40407267  0.33230108  0.77423360  1
  H  H20  1  0.81088225  0.96564787  0.23956535  1
  H  H21  1  0.03435213  0.18911775  0.26043465  1
  H  H22  1  0.18911775  0.03435213  0.76043465  1
  H  H23  1  0.96564787  0.81088225  0.73956535  1
  H  H24  1  0.83400220  0.60155798  0.26979579  1
  H  H25  1  0.39844202  0.16599780  0.23020421  1
  H  H26  1  0.16599780  0.39844202  0.73020421  1
  H  H27  1  0.60155798  0.83400220  0.76979579  1
  C  C28  1  0.99489551  0.42419291  0.14854062  1
  C  C29  1  0.57580709  0.00510449  0.35145938  1
  C  C30  1  0.00510449  0.57580709  0.85145938  1
  C  C31  1  0.42419291  0.99489551  0.64854062  1
  C  C32  1  0.37826407  0.48982584  0.34071779  1
  C  C33  1  0.51017416  0.62173593  0.15928221  1
  C  C34  1  0.62173593  0.51017416  0.65928221  1
  C  C35  1  0.48982584  0.37826407  0.84071779  1
  C  C36  1  0.81794292  0.92651259  0.16731920  1
  C  C37  1  0.07348741  0.18205708  0.33268080  1
  C  C38  1  0.18205708  0.07348741  0.83268080  1
  C  C39  1  0.92651259  0.81794292  0.66731920  1
  C  C40  1  0.89723132  0.67035667  0.33874646  1
  C  C41  1  0.32964333  0.10276868  0.16125354  1
  C  C42  1  0.10276868  0.32964333  0.66125354  1
  C  C43  1  0.67035667  0.89723132  0.83874646  1
  O  O44  1  0.06288323  0.55919958  0.15075809  1
  O  O45  1  0.44080042  0.93711677  0.34924191  1
  O  O46  1  0.93711677  0.44080042  0.84924191  1
  O  O47  1  0.55919958  0.06288323  0.65075809  1
  O  O48  1  0.93025643  0.32100485  0.07693551  1
  O  O49  1  0.67899515  0.06974357  0.42306449  1
  O  O50  1  0.06974357  0.67899515  0.92306449  1
  O  O51  1  0.32100485  0.93025643  0.57693551  1
  O  O52  1  0.33344711  0.63478523  0.34768354  1
  O  O53  1  0.36521477  0.66655289  0.15231646  1
  O  O54  1  0.66655289  0.36521477  0.65231646  1
  O  O55  1  0.63478523  0.33344711  0.84768354  1
  O  O56  1  0.70078459  0.95040292  0.10716769  1
  O  O57  1  0.04959708  0.29921541  0.39283231  1
  O  O58  1  0.29921541  0.04959708  0.89283231  1
  O  O59  1  0.95040292  0.70078459  0.60716769  1
  O  O60  1  0.94772350  0.85948912  0.15346023  1
  O  O61  1  0.14051088  0.05227650  0.34653977  1
  O  O62  1  0.05227650  0.14051088  0.84653977  1
  O  O63  1  0.85948912  0.94772350  0.65346023  1
  O  O64  1  0.02968694  0.74838492  0.34478945  1
  O  O65  1  0.25161508  0.97031306  0.15521055  1
  O  O66  1  0.97031306  0.25161508  0.65521055  1
  O  O67  1  0.74838492  0.02968694  0.84478945  1
  O  O68  1  0.83496136  0.66727173  0.40426487  1
  O  O69  1  0.33272827  0.16503864  0.09573513  1
  O  O70  1  0.16503864  0.33272827  0.59573513  1
  O  O71  1  0.66727173  0.83496136  0.90426487  1
  O  O72  1  0.46790279  0.43689336  0.40277193  1
  O  O73  1  0.56310664  0.53209721  0.09722807  1
  O  O74  1  0.53209721  0.56310664  0.59722807  1
  O  O75  1  0.43689336  0.46790279  0.90277193  1
