# generated using pymatgen
data_Ho6Bi2Rh
_symmetry_space_group_name_H-M   'P 1'
_cell_length_a   8.39510874
_cell_length_b   8.39382757
_cell_length_c   4.11954114
_cell_angle_alpha   90.00000000
_cell_angle_beta   90.00000000
_cell_angle_gamma   120.00504513
_symmetry_Int_Tables_number   1
_chemical_formula_structural   Ho6Bi2Rh
_chemical_formula_sum   'Ho6 Bi2 Rh1'
_cell_volume   251.38754953
_cell_formula_units_Z   1
loop_
 _symmetry_equiv_pos_site_id
 _symmetry_equiv_pos_as_xyz
  1  'x, y, z'
loop_
 _atom_site_type_symbol
 _atom_site_label
 _atom_site_symmetry_multiplicity
 _atom_site_fract_x
 _atom_site_fract_y
 _atom_site_fract_z
 _atom_site_occupancy
  Ho  Ho0  1  0.60511589  0.00000000  0.50000200  1
  Ho  Ho1  1  -0.00000299  0.60510038  0.50000200  1
  Ho  Ho2  1  0.39489663  0.39489962  0.50000200  1
  Ho  Ho3  1  0.23649730  1.00000000  0.00000000  1
  Ho  Ho4  1  0.99996059  0.23647666  0.00000000  1
  Ho  Ho5  1  0.76348593  0.76352534  0.00000000  1
  Bi  Bi6  1  0.33330069  0.66671723  0.00000000  1
  Bi  Bi7  1  0.66658246  0.33328177  0.00000000  1
  Rh  Rh8  1  0.00006448  0.00000000  0.50000200  1
