# generated using pymatgen
data_CeGe5
_symmetry_space_group_name_H-M   'P 1'
_cell_length_a   6.15152516
_cell_length_b   6.15152516
_cell_length_c   6.15152516
_cell_angle_alpha   142.02189441
_cell_angle_beta   119.77950134
_cell_angle_gamma   73.44656525
_symmetry_Int_Tables_number   1
_chemical_formula_structural   CeGe5
_chemical_formula_sum   'Ce1 Ge5'
_cell_volume   121.82733621
_cell_formula_units_Z   1
loop_
 _symmetry_equiv_pos_site_id
 _symmetry_equiv_pos_as_xyz
  1  'x, y, z'
loop_
 _atom_site_type_symbol
 _atom_site_label
 _atom_site_symmetry_multiplicity
 _atom_site_fract_x
 _atom_site_fract_y
 _atom_site_fract_z
 _atom_site_occupancy
  Ce  Ce0  1  0.00000000  0.00000000  0.00000000  1
  Ge  Ge1  1  0.12181833  0.33073788  0.79107945  1
  Ge  Ge2  1  0.53965744  0.33073788  0.20891955  1
  Ge  Ge3  1  0.46034156  0.66926112  0.79107945  1
  Ge  Ge4  1  0.87818167  0.66926212  0.20891955  1
  Ge  Ge5  1  0.50000100  0.00000000  0.50000100  1
