# generated using pymatgen
data_BaSr3
_symmetry_space_group_name_H-M   'P 1'
_cell_length_a   8.65266956
_cell_length_b   8.65266931
_cell_length_c   7.10845373
_cell_angle_alpha   90.00000000
_cell_angle_beta   90.00000000
_cell_angle_gamma   119.99999707
_symmetry_Int_Tables_number   1
_chemical_formula_structural   BaSr3
_chemical_formula_sum   'Ba2 Sr6'
_cell_volume   460.89925889
_cell_formula_units_Z   2
loop_
 _symmetry_equiv_pos_site_id
 _symmetry_equiv_pos_as_xyz
  1  'x, y, z'
loop_
 _atom_site_type_symbol
 _atom_site_label
 _atom_site_symmetry_multiplicity
 _atom_site_fract_x
 _atom_site_fract_y
 _atom_site_fract_z
 _atom_site_occupancy
  Ba  Ba0  1  0.33333400  0.66666700  0.75000000  1
  Ba  Ba1  1  0.66666700  0.33333300  0.25000000  1
  Sr  Sr2  1  0.16631177  0.33262254  0.25000000  1
  Sr  Sr3  1  0.66737746  0.83368923  0.25000000  1
  Sr  Sr4  1  0.16631177  0.83368923  0.25000000  1
  Sr  Sr5  1  0.83368923  0.66737846  0.75000000  1
  Sr  Sr6  1  0.33262154  0.16631077  0.75000000  1
  Sr  Sr7  1  0.83368923  0.16631077  0.75000000  1
