# generated using pymatgen
data_BP2Pb2O9
_symmetry_space_group_name_H-M   'P 1'
_cell_length_a   5.59728160
_cell_length_b   8.43747490
_cell_length_c   17.47730791
_cell_angle_alpha   90.00000000
_cell_angle_beta   90.00000000
_cell_angle_gamma   90.38675015
_symmetry_Int_Tables_number   1
_chemical_formula_structural   BP2Pb2O9
_chemical_formula_sum   'B4 P8 Pb8 O36'
_cell_volume   825.38067022
_cell_formula_units_Z   4
loop_
 _symmetry_equiv_pos_site_id
 _symmetry_equiv_pos_as_xyz
  1  'x, y, z'
loop_
 _atom_site_type_symbol
 _atom_site_label
 _atom_site_symmetry_multiplicity
 _atom_site_fract_x
 _atom_site_fract_y
 _atom_site_fract_z
 _atom_site_occupancy
  B  B0  1  0.14138458  0.23859303  0.31078369  1
  B  B1  1  0.64138458  0.73859303  0.18921631  1
  B  B2  1  0.85861542  0.76140697  0.68921631  1
  B  B3  1  0.35861542  0.26140697  0.81078369  1
  P  P4  1  0.29564719  0.43415982  0.42222938  1
  P  P5  1  0.79564719  0.93415982  0.07777062  1
  P  P6  1  0.70435281  0.56584018  0.57777062  1
  P  P7  1  0.20435281  0.06584018  0.92222938  1
  P  P8  1  0.26876496  0.94797019  0.36166116  1
  P  P9  1  0.76876496  0.44797019  0.13833884  1
  P  P10  1  0.73123504  0.05202981  0.63833884  1
  P  P11  1  0.23123504  0.55202981  0.86166116  1
  Pb  Pb12  1  0.80192977  0.68788180  0.37489551  1
  Pb  Pb13  1  0.30192977  0.18788180  0.12510449  1
  Pb  Pb14  1  0.19807023  0.31211820  0.62510449  1
  Pb  Pb15  1  0.69807023  0.81211820  0.87489551  1
  Pb  Pb16  1  0.28812638  0.81045214  0.53528986  1
  Pb  Pb17  1  0.78812638  0.31045214  0.96471014  1
  Pb  Pb18  1  0.71187362  0.18954786  0.46471014  1
  Pb  Pb19  1  0.21187362  0.68954786  0.03528986  1
  O  O20  1  0.18942327  0.59438488  0.44480393  1
  O  O21  1  0.68942327  0.09438488  0.05519607  1
  O  O22  1  0.81057673  0.40561512  0.55519607  1
  O  O23  1  0.31057673  0.90561512  0.94480393  1
  O  O24  1  0.20528660  0.84476408  0.29193448  1
  O  O25  1  0.70528660  0.34476408  0.20806552  1
  O  O26  1  0.79471340  0.15523592  0.70806552  1
  O  O27  1  0.29471340  0.65523592  0.79193448  1
  O  O28  1  0.12273777  0.38121842  0.35095880  1
  O  O29  1  0.62273777  0.88121842  0.14904120  1
  O  O30  1  0.87726223  0.61878158  0.64904120  1
  O  O31  1  0.37726223  0.11878158  0.85095880  1
  O  O32  1  0.05625682  0.94575456  0.41804268  1
  O  O33  1  0.55625682  0.44575456  0.08195732  1
  O  O34  1  0.94374318  0.05424544  0.58195732  1
  O  O35  1  0.44374318  0.55424544  0.91804268  1
  O  O36  1  0.50168160  0.90698446  0.40514241  1
  O  O37  1  0.00168160  0.40698446  0.09485759  1
  O  O38  1  0.49831840  0.09301554  0.59485759  1
  O  O39  1  0.99831840  0.59301554  0.90514241  1
  O  O40  1  0.27601342  0.30205963  0.48346386  1
  O  O41  1  0.77601342  0.80205963  0.01653614  1
  O  O42  1  0.72398658  0.69794037  0.51653614  1
  O  O43  1  0.22398658  0.19794037  0.98346386  1
  O  O44  1  0.00988573  0.19607416  0.25012216  1
  O  O45  1  0.50988573  0.69607416  0.24987784  1
  O  O46  1  0.99011427  0.80392584  0.74987784  1
  O  O47  1  0.49011427  0.30392584  0.75012216  1
  O  O48  1  0.31651563  0.13019510  0.33605692  1
  O  O49  1  0.81651563  0.63019510  0.16394308  1
  O  O50  1  0.68348437  0.86980490  0.66394308  1
  O  O51  1  0.18348437  0.36980490  0.83605692  1
  O  O52  1  0.55623733  0.44279820  0.39452992  1
  O  O53  1  0.05623733  0.94279820  0.10547008  1
  O  O54  1  0.44376267  0.55720180  0.60547008  1
  O  O55  1  0.94376267  0.05720180  0.89452992  1
