# generated using pymatgen
data_LaTe2
_symmetry_space_group_name_H-M   'P 1'
_cell_length_a   9.14828527
_cell_length_b   9.14024720
_cell_length_c   9.29320535
_cell_angle_alpha   90.00000000
_cell_angle_beta   89.99329753
_cell_angle_gamma   90.00000000
_symmetry_Int_Tables_number   1
_chemical_formula_structural   LaTe2
_chemical_formula_sum   'La8 Te16'
_cell_volume   777.07541813
_cell_formula_units_Z   8
loop_
 _symmetry_equiv_pos_site_id
 _symmetry_equiv_pos_as_xyz
  1  'x, y, z'
loop_
 _atom_site_type_symbol
 _atom_site_label
 _atom_site_symmetry_multiplicity
 _atom_site_fract_x
 _atom_site_fract_y
 _atom_site_fract_z
 _atom_site_occupancy
  La  La0  1  0.00848706  0.50356932  0.27394065  1
  La  La1  1  0.75215674  0.25033064  0.72698605  1
  La  La2  1  0.75200730  0.75037614  0.72594721  1
  La  La3  1  0.25215674  0.74966936  0.72698605  1
  La  La4  1  0.99576897  0.00358732  0.27352371  1
  La  La5  1  0.49576897  0.99641268  0.27352371  1
  La  La6  1  0.25200730  0.24962386  0.72594721  1
  La  La7  1  0.50848706  0.49643068  0.27394065  1
  Te  Te8  1  0.26528186  0.49875973  0.00021565  1
  Te  Te9  1  0.00291266  0.25922187  0.99989050  1
  Te  Te10  1  0.50380412  0.49904813  0.63378031  1
  Te  Te11  1  0.25214606  0.24988236  0.36640184  1
  Te  Te12  1  0.50051781  0.99905059  0.63372776  1
  Te  Te13  1  0.50291266  0.74077813  0.99989050  1
  Te  Te14  1  0.25214143  0.74994489  0.36677206  1
  Te  Te15  1  0.75214143  0.25005511  0.36677206  1
  Te  Te16  1  0.00075517  0.75859983  0.99975140  1
  Te  Te17  1  0.50075517  0.24140017  0.99975140  1
  Te  Te18  1  0.75214606  0.75011764  0.36640184  1
  Te  Te19  1  0.76528186  0.50124027  0.00021565  1
  Te  Te20  1  0.73832083  0.00033697  0.99996085  1
  Te  Te21  1  0.23832083  0.99966303  0.99996085  1
  Te  Te22  1  0.00051781  0.00094941  0.63372776  1
  Te  Te23  1  0.00380412  0.50095187  0.63378031  1
