# generated using pymatgen
data_CaCr2F10
_symmetry_space_group_name_H-M   'P 1'
_cell_length_a   5.56457101
_cell_length_b   5.56457124
_cell_length_c   7.58232191
_cell_angle_alpha   69.75363860
_cell_angle_beta   69.75363776
_cell_angle_gamma   71.65785080
_symmetry_Int_Tables_number   1
_chemical_formula_structural   CaCr2F10
_chemical_formula_sum   'Ca1 Cr2 F10'
_cell_volume   201.53446591
_cell_formula_units_Z   1
loop_
 _symmetry_equiv_pos_site_id
 _symmetry_equiv_pos_as_xyz
  1  'x, y, z'
loop_
 _atom_site_type_symbol
 _atom_site_label
 _atom_site_symmetry_multiplicity
 _atom_site_fract_x
 _atom_site_fract_y
 _atom_site_fract_z
 _atom_site_occupancy
  Ca  Ca0  1  0.46090006  0.53909994  0.25000000  1
  Cr  Cr1  1  0.00480306  0.00628547  0.99362701  1
  Cr  Cr2  1  0.99371453  0.99519694  0.50637299  1
  F  F3  1  0.79512841  0.76334283  0.61544307  1
  F  F4  1  0.23665717  0.20487159  0.88455693  1
  F  F5  1  0.20407099  0.24249531  0.38465446  1
  F  F6  1  0.75750469  0.79592901  0.11534554  1
  F  F7  1  0.93440517  0.06559483  0.75000000  1
  F  F8  1  0.07208625  0.92791375  0.25000000  1
  F  F9  1  0.73294766  0.28753376  0.04219744  1
  F  F10  1  0.71246624  0.26705234  0.45780256  1
  F  F11  1  0.26085860  0.70745682  0.97838898  1
  F  F12  1  0.29254318  0.73914140  0.52161102  1
