# generated using pymatgen
data_Ca(NiO2)2
_symmetry_space_group_name_H-M   'P 1'
_cell_length_a   5.06325512
_cell_length_b   5.79359900
_cell_length_c   11.00754831
_cell_angle_alpha   89.99700435
_cell_angle_beta   89.98519605
_cell_angle_gamma   90.00312299
_symmetry_Int_Tables_number   1
_chemical_formula_structural   Ca(NiO2)2
_chemical_formula_sum   'Ca4 Ni8 O16'
_cell_volume   322.90058214
_cell_formula_units_Z   4
loop_
 _symmetry_equiv_pos_site_id
 _symmetry_equiv_pos_as_xyz
  1  'x, y, z'
loop_
 _atom_site_type_symbol
 _atom_site_label
 _atom_site_symmetry_multiplicity
 _atom_site_fract_x
 _atom_site_fract_y
 _atom_site_fract_z
 _atom_site_occupancy
  Ca  Ca0  1  0.84783601  0.24997035  0.75008398  1
  Ca  Ca1  1  0.15230397  0.75003699  0.25002381  1
  Ca  Ca2  1  0.53004760  0.25003730  0.24994953  1
  Ca  Ca3  1  0.46983351  0.74996879  0.74992220  1
  Ni  Ni4  1  0.50420887  0.74997216  0.49221176  1
  Ni  Ni5  1  0.50407881  0.74999432  0.00772800  1
  Ni  Ni6  1  0.49597490  0.25002442  0.50762421  1
  Ni  Ni7  1  0.49596783  0.24999915  0.99221242  1
  Ni  Ni8  1  0.00001555  0.50002916  0.50002319  1
  Ni  Ni9  1  0.99997614  0.00000761  0.00001131  1
  Ni  Ni10  1  -0.00000006  -0.00002979  0.50002661  1
  Ni  Ni11  1  0.99996203  0.49996872  0.00001129  1
  O  O12  1  0.84007044  0.74966462  0.40848280  1
  O  O13  1  0.83982951  0.74964828  0.09152370  1
  O  O14  1  0.16076742  0.25033668  0.59151077  1
  O  O15  1  0.16003446  0.25035340  0.90854349  1
  O  O16  1  0.18193011  0.74983291  0.58496266  1
  O  O17  1  0.18192616  0.74977716  0.91507186  1
  O  O18  1  0.81726587  0.25016362  0.41510968  1
  O  O19  1  0.81824418  0.25023250  0.08491028  1
  O  O20  1  0.65909958  0.50167499  0.60496977  1
  O  O21  1  0.65911102  0.99792466  0.89502013  1
  O  O22  1  0.34094255  0.00220384  0.39502205  1
  O  O23  1  0.34076022  0.49821136  0.10501964  1
  O  O24  1  0.34080979  0.49779639  0.39502930  1
  O  O25  1  0.34084370  0.00189756  0.10500391  1
  O  O26  1  0.65896005  0.99834279  0.60498340  1
  O  O27  1  0.65919981  0.50196006  0.89500824  1
