# generated using pymatgen
data_LaWN3
_symmetry_space_group_name_H-M   'P 1'
_cell_length_a   6.41669342
_cell_length_b   7.48263432
_cell_length_c   7.48263402
_cell_angle_alpha   94.25223982
_cell_angle_beta   103.80610642
_cell_angle_gamma   76.19389002
_symmetry_Int_Tables_number   1
_chemical_formula_structural   LaWN3
_chemical_formula_sum   'La4 W4 N12'
_cell_volume   338.75357741
_cell_formula_units_Z   4
loop_
 _symmetry_equiv_pos_site_id
 _symmetry_equiv_pos_as_xyz
  1  'x, y, z'
loop_
 _atom_site_type_symbol
 _atom_site_label
 _atom_site_symmetry_multiplicity
 _atom_site_fract_x
 _atom_site_fract_y
 _atom_site_fract_z
 _atom_site_occupancy
  La  La0  1  0.25000000  0.09382608  0.09382608  1
  La  La1  1  0.75000000  0.30657770  0.30657770  1
  La  La2  1  0.25000000  0.69342230  0.69342230  1
  La  La3  1  0.75000000  0.90617392  0.90617392  1
  W  W4  1  0.25229284  0.62059635  0.20321473  1
  W  W5  1  0.24770716  0.20321473  0.62059635  1
  W  W6  1  0.74770716  0.37940365  0.79678527  1
  W  W7  1  0.75229284  0.79678527  0.37940365  1
  N  N8  1  0.48475317  0.33205345  0.63560736  1
  N  N9  1  0.35420750  0.38833953  0.12624859  1
  N  N10  1  0.34548893  0.00293959  0.77520881  1
  N  N11  1  0.85420750  0.87375141  0.61166047  1
  N  N12  1  0.64579250  0.61166047  0.87375141  1
  N  N13  1  0.15451107  0.77520881  0.00293959  1
  N  N14  1  0.84548893  0.22479119  0.99706041  1
  N  N15  1  0.01524683  0.63560736  0.33205345  1
  N  N16  1  0.98475317  0.36439264  0.66794655  1
  N  N17  1  0.51524683  0.66794655  0.36439264  1
  N  N18  1  0.14579250  0.12624859  0.38833953  1
  N  N19  1  0.65451107  0.99706041  0.22479119  1
