# generated using pymatgen
data_SnH7C3NO5F
_symmetry_space_group_name_H-M   'P 1'
_cell_length_a   6.16006162
_cell_length_b   7.97760333
_cell_length_c   8.18456660
_cell_angle_alpha   101.15412556
_cell_angle_beta   93.45441148
_cell_angle_gamma   103.48224522
_symmetry_Int_Tables_number   1
_chemical_formula_structural   SnH7C3NO5F
_chemical_formula_sum   'Sn2 H14 C6 N2 O10 F2'
_cell_volume   381.39116669
_cell_formula_units_Z   2
loop_
 _symmetry_equiv_pos_site_id
 _symmetry_equiv_pos_as_xyz
  1  'x, y, z'
loop_
 _atom_site_type_symbol
 _atom_site_label
 _atom_site_symmetry_multiplicity
 _atom_site_fract_x
 _atom_site_fract_y
 _atom_site_fract_z
 _atom_site_occupancy
  Sn  Sn0  1  0.78014743  0.53260136  0.82798780  1
  Sn  Sn1  1  0.21985257  0.46739864  0.17201220  1
  H  H2  1  0.77882891  0.86982202  0.19171551  1
  H  H3  1  0.22117109  0.13017798  0.80828449  1
  H  H4  1  0.63930630  0.88709296  0.36687404  1
  H  H5  1  0.36069370  0.11290704  0.63312596  1
  H  H6  1  0.78612406  0.07197111  0.30870755  1
  H  H7  1  0.21387594  0.92802889  0.69129245  1
  H  H8  1  0.84749276  0.15224963  0.92827358  1
  H  H9  1  0.15250724  0.84775037  0.07172642  1
  H  H10  1  0.63105560  0.04567894  0.97341581  1
  H  H11  1  0.36894440  0.95432106  0.02658419  1
  H  H12  1  0.96372337  0.79975550  0.43488124  1
  H  H13  1  0.03627663  0.20024450  0.56511876  1
  H  H14  1  0.13137625  0.96484482  0.34591938  1
  H  H15  1  0.86862375  0.03515518  0.65408062  1
  C  C16  1  0.51440616  0.70713086  0.61417992  1
  C  C17  1  0.48559384  0.29286914  0.38582008  1
  C  C18  1  0.34937505  0.64679612  0.74162817  1
  C  C19  1  0.65062495  0.35320388  0.25837183  1
  C  C20  1  0.98636371  0.93505666  0.41644630  1
  C  C21  1  0.01363629  0.06494334  0.58355370  1
  N  N22  1  0.78227389  0.94163626  0.31347930  1
  N  N23  1  0.21772611  0.05836374  0.68652070  1
  O  O24  1  0.70716697  0.67049934  0.62893628  1
  O  O25  1  0.29283303  0.32950066  0.37106372  1
  O  O26  1  0.45231412  0.78255533  0.50678760  1
  O  O27  1  0.54768588  0.21744467  0.49321240  1
  O  O28  1  0.17110470  0.69835372  0.74522740  1
  O  O29  1  0.82889530  0.30164628  0.25477260  1
  O  O30  1  0.40896802  0.54844602  0.83321930  1
  O  O31  1  0.59103198  0.45155398  0.16678070  1
  O  O32  1  0.68774301  0.10072924  0.88357339  1
  O  O33  1  0.31225699  0.89927076  0.11642661  1
  F  F34  1  0.85862499  0.77191385  0.00934789  1
  F  F35  1  0.14137501  0.22808615  0.99065211  1
