# generated using pymatgen
data_Ca(NiO2)2
_symmetry_space_group_name_H-M   'P 1'
_cell_length_a   3.02828820
_cell_length_b   8.99111699
_cell_length_c   10.56571537
_cell_angle_alpha   90.00711442
_cell_angle_beta   89.99998771
_cell_angle_gamma   90.00005078
_symmetry_Int_Tables_number   1
_chemical_formula_structural   Ca(NiO2)2
_chemical_formula_sum   'Ca4 Ni8 O16'
_cell_volume   287.68005726
_cell_formula_units_Z   4
loop_
 _symmetry_equiv_pos_site_id
 _symmetry_equiv_pos_as_xyz
  1  'x, y, z'
loop_
 _atom_site_type_symbol
 _atom_site_label
 _atom_site_symmetry_multiplicity
 _atom_site_fract_x
 _atom_site_fract_y
 _atom_site_fract_z
 _atom_site_occupancy
  Ca  Ca0  1  0.74999928  0.24258532  0.34001067  1
  Ca  Ca1  1  0.24999925  0.75741039  0.65996656  1
  Ca  Ca2  1  0.75000071  0.74264363  0.16008485  1
  Ca  Ca3  1  0.24999956  0.25734850  0.83994424  1
  Ni  Ni4  1  0.25000129  0.41638082  0.10002416  1
  Ni  Ni5  1  0.74999689  0.08359601  0.60009093  1
  Ni  Ni6  1  0.25000159  0.91638527  0.39993485  1
  Ni  Ni7  1  0.75000114  0.58368097  0.89994484  1
  Ni  Ni8  1  0.74999944  0.56131316  0.38781996  1
  Ni  Ni9  1  0.24999729  0.43866846  0.61220115  1
  Ni  Ni10  1  0.74999829  0.06136251  0.11217617  1
  Ni  Ni11  1  0.24999874  0.93861409  0.88783081  1
  O  O12  1  0.24999854  0.91876438  0.07496636  1
  O  O13  1  0.74999805  0.08120194  0.92500372  1
  O  O14  1  0.24999908  0.41874367  0.42499774  1
  O  O15  1  0.74999964  0.58121210  0.57500677  1
  O  O16  1  0.24999961  0.02652912  0.71325817  1
  O  O17  1  0.74999894  0.97340235  0.28678799  1
  O  O18  1  0.25000089  0.52665455  0.78683728  1
  O  O19  1  0.74999956  0.47342684  0.21318083  1
  O  O20  1  0.25000078  0.61619816  0.02306434  1
  O  O21  1  0.75000009  0.38390991  0.97683387  1
  O  O22  1  0.24999959  0.11610370  0.47688163  1
  O  O23  1  0.74999947  0.88385992  0.52311043  1
  O  O24  1  0.75000036  0.79320545  0.84010932  1
  O  O25  1  0.24999904  0.20675377  0.15990210  1
  O  O26  1  0.24999936  0.70677741  0.34008010  1
  O  O27  1  0.74999951  0.29326662  0.65995016  1
