# generated using pymatgen
data_CaTcN3
_symmetry_space_group_name_H-M   'P 1'
_cell_length_a   6.23939651
_cell_length_b   7.39894000
_cell_length_c   7.39894024
_cell_angle_alpha   95.86921237
_cell_angle_beta   105.23385594
_cell_angle_gamma   74.76614242
_symmetry_Int_Tables_number   1
_chemical_formula_structural   CaTcN3
_chemical_formula_sum   'Ca4 Tc4 N12'
_cell_volume   317.78608054
_cell_formula_units_Z   4
loop_
 _symmetry_equiv_pos_site_id
 _symmetry_equiv_pos_as_xyz
  1  'x, y, z'
loop_
 _atom_site_type_symbol
 _atom_site_label
 _atom_site_symmetry_multiplicity
 _atom_site_fract_x
 _atom_site_fract_y
 _atom_site_fract_z
 _atom_site_occupancy
  Ca  Ca0  1  0.75000000  0.30422000  0.30422000  1
  Ca  Ca1  1  0.25000000  0.08616000  0.08616000  1
  Ca  Ca2  1  0.75000000  0.91384000  0.91384000  1
  Ca  Ca3  1  0.25000000  0.69578000  0.69578000  1
  Tc  Tc4  1  0.73039000  0.37811000  0.79987000  1
  Tc  Tc5  1  0.23039000  0.20013000  0.62189000  1
  Tc  Tc6  1  0.76961000  0.79987000  0.37811000  1
  Tc  Tc7  1  0.26961000  0.62189000  0.20013000  1
  N  N8  1  0.44467000  0.35172000  0.65358000  1
  N  N9  1  0.66201000  0.99246000  0.22772000  1
  N  N10  1  0.94467000  0.34642000  0.64828000  1
  N  N11  1  0.05533000  0.65358000  0.35172000  1
  N  N12  1  0.82975000  0.87844000  0.61068000  1
  N  N13  1  0.16201000  0.77228000  0.00754000  1
  N  N14  1  0.55533000  0.64828000  0.34642000  1
  N  N15  1  0.83799000  0.22772000  0.99246000  1
  N  N16  1  0.33799000  0.00754000  0.77228000  1
  N  N17  1  0.32975000  0.38932000  0.12156000  1
  N  N18  1  0.17025000  0.12156000  0.38932000  1
  N  N19  1  0.67025000  0.61068000  0.87844000  1
