# generated using pymatgen
data_CaSbF5
_symmetry_space_group_name_H-M   'P 1'
_cell_length_a   6.15427017
_cell_length_b   8.48660124
_cell_length_c   10.67307809
_cell_angle_alpha   90.00000000
_cell_angle_beta   90.00000000
_cell_angle_gamma   122.05863708
_symmetry_Int_Tables_number   1
_chemical_formula_structural   CaSbF5
_chemical_formula_sum   'Ca4 Sb4 F20'
_cell_volume   472.43544958
_cell_formula_units_Z   4
loop_
 _symmetry_equiv_pos_site_id
 _symmetry_equiv_pos_as_xyz
  1  'x, y, z'
loop_
 _atom_site_type_symbol
 _atom_site_label
 _atom_site_symmetry_multiplicity
 _atom_site_fract_x
 _atom_site_fract_y
 _atom_site_fract_z
 _atom_site_occupancy
  Ca  Ca0  1  0.51720207  0.78328858  0.01877098  1
  Ca  Ca1  1  0.48279793  0.71671142  0.51877098  1
  Ca  Ca2  1  0.48279793  0.21671142  0.98122902  1
  Ca  Ca3  1  0.51720207  0.28328858  0.48122902  1
  Sb  Sb4  1  0.92961716  0.65602298  0.76575071  1
  Sb  Sb5  1  0.07038284  0.84397702  0.26575071  1
  Sb  Sb6  1  0.07038284  0.34397702  0.23424929  1
  Sb  Sb7  1  0.92961716  0.15602298  0.73424929  1
  F  F8  1  0.67127126  0.63607705  0.90666025  1
  F  F9  1  0.32872874  0.86392295  0.40666025  1
  F  F10  1  0.32872874  0.36392295  0.09333975  1
  F  F11  1  0.67127126  0.13607705  0.59333975  1
  F  F12  1  0.64395985  0.53922117  0.60616040  1
  F  F13  1  0.35604015  0.96077883  0.10616040  1
  F  F14  1  0.35604015  0.46077883  0.39383960  1
  F  F15  1  0.64395985  0.03922117  0.89383960  1
  F  F16  1  0.84891013  0.84831692  0.40940495  1
  F  F17  1  0.15108987  0.65168308  0.90940495  1
  F  F18  1  0.15108987  0.15168308  0.59059505  1
  F  F19  1  0.84891013  0.34831692  0.09059505  1
  F  F20  1  0.86024669  0.92636765  0.15028555  1
  F  F21  1  0.13975331  0.57363235  0.65028555  1
  F  F22  1  0.13975331  0.07363235  0.84971445  1
  F  F23  1  0.86024669  0.42636765  0.34971445  1
  F  F24  1  0.72123671  0.88243738  0.69668983  1
  F  F25  1  0.27876329  0.61756262  0.19668983  1
  F  F26  1  0.27876329  0.11756262  0.30331017  1
  F  F27  1  0.72123671  0.38243738  0.80331017  1
