# generated using pymatgen
data_YCuO3
_symmetry_space_group_name_H-M   'P 1'
_cell_length_a   6.26946791
_cell_length_b   6.26946757
_cell_length_c   11.13304549
_cell_angle_alpha   90.00000000
_cell_angle_beta   90.00000000
_cell_angle_gamma   120.00000186
_symmetry_Int_Tables_number   1
_chemical_formula_structural   YCuO3
_chemical_formula_sum   'Y6 Cu6 O18'
_cell_volume   378.97097674
_cell_formula_units_Z   6
loop_
 _symmetry_equiv_pos_site_id
 _symmetry_equiv_pos_as_xyz
  1  'x, y, z'
loop_
 _atom_site_type_symbol
 _atom_site_label
 _atom_site_symmetry_multiplicity
 _atom_site_fract_x
 _atom_site_fract_y
 _atom_site_fract_z
 _atom_site_occupancy
  Y  Y0  1  0.66666700  0.33333300  0.23550855  1
  Y  Y1  1  0.33333300  0.66666700  0.73550855  1
  Y  Y2  1  0.66666700  0.33333300  0.73550855  1
  Y  Y3  1  0.33333300  0.66666700  0.23550855  1
  Y  Y4  1  0.00000000  0.00000000  0.77426571  1
  Y  Y5  1  0.00000000  0.00000000  0.27426571  1
  Cu  Cu6  1  0.66680526  0.00000000  0.50141139  1
  Cu  Cu7  1  0.66680526  0.66680526  0.00141139  1
  Cu  Cu8  1  1.00000000  0.33319474  0.00141139  1
  Cu  Cu9  1  0.00000000  0.66680526  0.50141139  1
  Cu  Cu10  1  0.33319474  0.33319474  0.50141139  1
  Cu  Cu11  1  0.33319474  0.00000000  0.00141139  1
  O  O12  1  0.66666700  0.33333300  0.01641230  1
  O  O13  1  0.33333300  0.66666700  0.51641230  1
  O  O14  1  0.66666700  0.33333300  0.51641230  1
  O  O15  1  0.33333300  0.66666700  0.01641230  1
  O  O16  1  0.00000000  0.00000000  0.98408232  1
  O  O17  1  0.00000000  0.00000000  0.48408232  1
  O  O18  1  0.35389911  0.00000000  0.83705682  1
  O  O19  1  0.35389911  0.35389911  0.33705682  1
  O  O20  1  0.00000000  0.64610089  0.33705682  1
  O  O21  1  1.00000000  0.35389911  0.83705682  1
  O  O22  1  0.64610089  0.64610089  0.83705682  1
  O  O23  1  0.64610089  0.00000000  0.33705682  1
  O  O24  1  0.31214157  0.00000000  0.16580188  1
  O  O25  1  0.31214157  0.31214157  0.66580188  1
  O  O26  1  1.00000000  0.68785843  0.66580188  1
  O  O27  1  0.00000000  0.31214157  0.16580188  1
  O  O28  1  0.68785843  0.68785843  0.16580188  1
  O  O29  1  0.68785843  0.00000000  0.66580188  1
