# generated using pymatgen
data_KPSO2
_symmetry_space_group_name_H-M   'P 1'
_cell_length_a   8.22283631
_cell_length_b   11.40101147
_cell_length_c   13.93132200
_cell_angle_alpha   90.00000000
_cell_angle_beta   90.00000000
_cell_angle_gamma   90.00000000
_symmetry_Int_Tables_number   1
_chemical_formula_structural   KPSO2
_chemical_formula_sum   'K12 P12 S12 O24'
_cell_volume   1306.04264535
_cell_formula_units_Z   12
loop_
 _symmetry_equiv_pos_site_id
 _symmetry_equiv_pos_as_xyz
  1  'x, y, z'
loop_
 _atom_site_type_symbol
 _atom_site_label
 _atom_site_symmetry_multiplicity
 _atom_site_fract_x
 _atom_site_fract_y
 _atom_site_fract_z
 _atom_site_occupancy
  K  K0  1  0.32612231  0.91584721  0.82723384  1
  K  K1  1  0.67387769  0.08415279  0.32723384  1
  K  K2  1  0.82612231  0.58415279  0.32723384  1
  K  K3  1  0.17387769  0.41584721  0.82723384  1
  K  K4  1  0.31429370  0.92378008  0.17021765  1
  K  K5  1  0.68570630  0.07621992  0.67021765  1
  K  K6  1  0.81429370  0.57621992  0.67021765  1
  K  K7  1  0.18570630  0.42378008  0.17021765  1
  K  K8  1  0.18876092  0.00520067  0.49696837  1
  K  K9  1  0.81123908  0.99479933  0.99696837  1
  K  K10  1  0.68876092  0.49479933  0.99696837  1
  K  K11  1  0.31123908  0.50520067  0.49696837  1
  P  P12  1  0.48214758  0.79352479  0.60445136  1
  P  P13  1  0.51785242  0.20647521  0.10445136  1
  P  P14  1  0.98214758  0.70647521  0.10445136  1
  P  P15  1  0.01785242  0.29352479  0.60445136  1
  P  P16  1  0.29269726  0.66330698  0.99774331  1
  P  P17  1  0.70730274  0.33669302  0.49774331  1
  P  P18  1  0.79269726  0.83669302  0.49774331  1
  P  P19  1  0.20730274  0.16330698  0.99774331  1
  P  P20  1  0.48450873  0.79115869  0.38914345  1
  P  P21  1  0.51549127  0.20884131  0.88914345  1
  P  P22  1  0.98450873  0.70884131  0.88914345  1
  P  P23  1  0.01549127  0.29115869  0.38914345  1
  S  S24  1  0.49535558  0.75339253  0.99894534  1
  S  S25  1  0.50464442  0.24660747  0.49894534  1
  S  S26  1  0.99535558  0.74660747  0.49894534  1
  S  S27  1  0.00464442  0.25339253  0.99894534  1
  S  S28  1  0.43202228  0.66142469  0.30257856  1
  S  S29  1  0.56797772  0.33857531  0.80257856  1
  S  S30  1  0.93202228  0.83857531  0.80257856  1
  S  S31  1  0.06797772  0.16142469  0.30257856  1
  S  S32  1  0.42861183  0.66576236  0.69276103  1
  S  S33  1  0.57138817  0.33423764  0.19276103  1
  S  S34  1  0.92861183  0.83423764  0.19276103  1
  S  S35  1  0.07138817  0.16576236  0.69276103  1
  O  O36  1  0.41718404  0.75655774  0.49684255  1
  O  O37  1  0.58281596  0.24344226  0.99684255  1
  O  O38  1  0.91718404  0.74344226  0.99684255  1
  O  O39  1  0.08281596  0.25655774  0.49684255  1
  O  O40  1  0.07121663  0.41724518  0.62690485  1
  O  O41  1  0.92878337  0.58275482  0.12690485  1
  O  O42  1  0.57121663  0.08275482  0.12690485  1
  O  O43  1  0.42878337  0.91724518  0.62690485  1
  O  O44  1  0.43175289  0.91436496  0.36454849  1
  O  O45  1  0.56824711  0.08563504  0.86454849  1
  O  O46  1  0.93175289  0.58563504  0.86454849  1
  O  O47  1  0.06824711  0.41436496  0.36454849  1
  O  O48  1  0.20132414  0.03138084  0.99686916  1
  O  O49  1  0.79867586  0.96861916  0.49686916  1
  O  O50  1  0.70132414  0.46861916  0.49686916  1
  O  O51  1  0.29867586  0.53138084  0.99686916  1
  O  O52  1  0.31965660  0.20862698  0.08852014  1
  O  O53  1  0.68034340  0.79137302  0.58852014  1
  O  O54  1  0.81965660  0.29137302  0.58852014  1
  O  O55  1  0.18034340  0.70862698  0.08852014  1
  O  O56  1  0.31787595  0.21108501  0.90697189  1
  O  O57  1  0.68212405  0.78891499  0.40697189  1
  O  O58  1  0.81787595  0.28891499  0.40697189  1
  O  O59  1  0.18212405  0.71108501  0.90697189  1
