# generated using pymatgen
data_AlPO4
_symmetry_space_group_name_H-M   'P 1'
_cell_length_a   8.63370990
_cell_length_b   15.05685098
_cell_length_c   16.59316371
_cell_angle_alpha   116.98173614
_cell_angle_beta   105.07947565
_cell_angle_gamma   90.00000000
_symmetry_Int_Tables_number   1
_chemical_formula_structural   AlPO4
_chemical_formula_sum   'Al16 P16 O64'
_cell_volume   1838.52282656
_cell_formula_units_Z   16
loop_
 _symmetry_equiv_pos_site_id
 _symmetry_equiv_pos_as_xyz
  1  'x, y, z'
loop_
 _atom_site_type_symbol
 _atom_site_label
 _atom_site_symmetry_multiplicity
 _atom_site_fract_x
 _atom_site_fract_y
 _atom_site_fract_z
 _atom_site_occupancy
  Al  Al0  1  0.38204172  0.12956404  0.44446764  1
  Al  Al1  1  0.93757408  0.87043596  0.55553236  1
  Al  Al2  1  0.88204172  0.31490360  0.44446764  1
  Al  Al3  1  0.43757408  0.68509640  0.55553236  1
  Al  Al4  1  0.98422691  0.22456557  0.65341744  1
  Al  Al5  1  0.33080947  0.77543443  0.34658256  1
  Al  Al6  1  0.48422691  0.42885187  0.65341744  1
  Al  Al7  1  0.83080947  0.57114813  0.34658256  1
  Al  Al8  1  0.10040999  0.04010041  0.89080352  1
  Al  Al9  1  0.20960647  0.95989959  0.10919648  1
  Al  Al10  1  0.60040999  0.85070311  0.89080352  1
  Al  Al11  1  0.70960647  0.14929689  0.10919648  1
  Al  Al12  1  0.01837502  0.63971493  0.72513275  1
  Al  Al13  1  0.29324228  0.36028507  0.27486725  1
  Al  Al14  1  0.51837502  0.08541781  0.72513275  1
  Al  Al15  1  0.79324228  0.91458219  0.27486725  1
  P  P16  1  0.75399005  0.12157973  0.44201517  1
  P  P17  1  0.31197489  0.87842027  0.55798483  1
  P  P18  1  0.25399005  0.32043543  0.44201517  1
  P  P19  1  0.81197489  0.67956457  0.55798483  1
  P  P20  1  0.36027685  0.23268723  0.65712380  1
  P  P21  1  0.70315306  0.76731277  0.34287620  1
  P  P22  1  0.86027685  0.42443656  0.65712380  1
  P  P23  1  0.20315306  0.57556344  0.34287620  1
  P  P24  1  0.89016271  0.07848965  0.72223393  1
  P  P25  1  0.16792878  0.92151035  0.27776607  1
  P  P26  1  0.39016271  0.64374428  0.72223393  1
  P  P27  1  0.66792878  0.35625572  0.27776607  1
  P  P28  1  0.98003722  0.84533575  0.89314603  1
  P  P29  1  0.08689119  0.15466425  0.10685397  1
  P  P30  1  0.48003722  0.04781028  0.89314603  1
  P  P31  1  0.58689119  0.95218972  0.10685397  1
  O  O32  1  0.88570058  0.14224715  0.53353044  1
  O  O33  1  0.35217014  0.85775285  0.46646956  1
  O  O34  1  0.38570058  0.39128328  0.53353044  1
  O  O35  1  0.85217014  0.60871672  0.46646956  1
  O  O36  1  0.79815802  0.19006354  0.40254979  1
  O  O37  1  0.39560822  0.80993646  0.59745021  1
  O  O38  1  0.29815802  0.21248625  0.40254979  1
  O  O39  1  0.89560822  0.78751375  0.59745021  1
  O  O40  1  0.73954025  0.01150704  0.36827088  1
  O  O41  1  0.37126936  0.98849296  0.63172912  1
  O  O42  1  0.23954025  0.35676385  0.36827088  1
  O  O43  1  0.87126936  0.64323615  0.63172912  1
  O  O44  1  0.59140111  0.14222037  0.46380495  1
  O  O45  1  0.12759616  0.85777963  0.53619505  1
  O  O46  1  0.09140111  0.32158458  0.46380495  1
  O  O47  1  0.62759616  0.67841542  0.53619505  1
  O  O48  1  0.34683115  0.16104390  0.55277636  1
  O  O49  1  0.79405479  0.83895610  0.44722364  1
  O  O50  1  0.84683115  0.39173245  0.55277636  1
  O  O51  1  0.29405479  0.60826755  0.44722364  1
  O  O52  1  0.47501567  0.19765926  0.72164546  1
  O  O53  1  0.75337021  0.80234074  0.27835454  1
  O  O54  1  0.97501567  0.52398620  0.72164546  1
  O  O55  1  0.25337021  0.47601380  0.27835454  1
  O  O56  1  0.19237519  0.23194190  0.67148976  1
  O  O57  1  0.52088543  0.76805810  0.32851024  1
  O  O58  1  0.69237519  0.43954785  0.67148976  1
  O  O59  1  0.02088543  0.56045215  0.32851024  1
  O  O60  1  0.92710752  0.34452650  0.68490469  1
  O  O61  1  0.24220283  0.65547350  0.31509531  1
  O  O62  1  0.42710752  0.34037820  0.68490469  1
  O  O63  1  0.74220283  0.65962180  0.31509531  1
  O  O64  1  0.93286654  0.17888224  0.72445645  1
  O  O65  1  0.20841009  0.82111776  0.27554355  1
  O  O66  1  0.43286654  0.54557422  0.72445645  1
  O  O67  1  0.70841009  0.45442578  0.27554355  1
  O  O68  1  0.93359429  0.99276047  0.63910607  1
  O  O69  1  0.29448822  0.00723953  0.36089393  1
  O  O70  1  0.43359429  0.64634560  0.63910607  1
  O  O71  1  0.79448822  0.35365440  0.36089393  1
  O  O72  1  0.70856133  0.06056948  0.70933013  1
  O  O73  1  -0.00076880  0.93943052  0.29066987  1
  O  O74  1  0.20856133  0.64876065  0.70933013  1
  O  O75  1  0.49923120  0.35123935  0.29066987  1
  O  O76  1  0.98676872  0.08309888  0.81588611  1
  O  O77  1  0.17088260  0.91690112  0.18411389  1
  O  O78  1  0.48676872  0.73278723  0.81588611  1
  O  O79  1  0.67088260  0.26721277  0.18411389  1
  O  O80  1  0.02489471  0.91513273  0.85506592  1
  O  O81  1  0.16982879  0.08486727  0.14493408  1
  O  O82  1  0.52489471  0.93993319  0.85506592  1
  O  O83  1  0.66982879  0.06006681  0.14493408  1
  O  O84  1  0.08318221  0.88196306  0.99559851  1
  O  O85  1  0.08758370  0.11803694  0.00440149  1
  O  O86  1  0.58318221  0.11363545  0.99559851  1
  O  O87  1  0.58758370  0.88636455  0.00440149  1
  O  O88  1  0.01178179  0.73837650  0.83297645  1
  O  O89  1  0.17880533  0.26162350  0.16702355  1
  O  O90  1  0.51178179  0.09459995  0.83297645  1
  O  O91  1  0.67880533  0.90540005  0.16702355  1
  O  O92  1  0.80061169  0.84444062  0.88869024  1
  O  O93  1  0.91192145  0.15555938  0.11130976  1
  O  O94  1  0.30061169  0.04424961  0.88869024  1
  O  O95  1  0.41192145  0.95575039  0.11130976  1
