# generated using pymatgen
data_K2Ca3Si3O10
_symmetry_space_group_name_H-M   'P 1'
_cell_length_a   7.50853877
_cell_length_b   7.50853877
_cell_length_c   9.93713061
_cell_angle_alpha   108.98717050
_cell_angle_beta   108.98717050
_cell_angle_gamma   91.71784303
_symmetry_Int_Tables_number   1
_chemical_formula_structural   K2Ca3Si3O10
_chemical_formula_sum   'K4 Ca6 Si6 O20'
_cell_volume   495.11808949
_cell_formula_units_Z   2
loop_
 _symmetry_equiv_pos_site_id
 _symmetry_equiv_pos_as_xyz
  1  'x, y, z'
loop_
 _atom_site_type_symbol
 _atom_site_label
 _atom_site_symmetry_multiplicity
 _atom_site_fract_x
 _atom_site_fract_y
 _atom_site_fract_z
 _atom_site_occupancy
  K  K0  1  0.23077239  0.47377423  0.98908337  1
  K  K1  1  0.52622577  0.76922761  0.51091663  1
  K  K2  1  0.76922761  0.52622577  0.01091663  1
  K  K3  1  0.47377423  0.23077239  0.48908337  1
  Ca  Ca4  1  0.36973591  0.63026409  0.75000000  1
  Ca  Ca5  1  0.63026409  0.36973591  0.25000000  1
  Ca  Ca6  1  0.22219933  0.98413000  0.97826520  1
  Ca  Ca7  1  0.01587000  0.77780067  0.52173480  1
  Ca  Ca8  1  0.77780067  0.01587000  0.02173480  1
  Ca  Ca9  1  0.98413000  0.22219933  0.47826520  1
  Si  Si10  1  0.57607456  0.85238339  0.20771225  1
  Si  Si11  1  0.14761661  0.42392544  0.29228775  1
  Si  Si12  1  0.42392544  0.14761661  0.79228775  1
  Si  Si13  1  0.85238339  0.57607456  0.70771225  1
  Si  Si14  1  0.15927674  0.84072326  0.25000000  1
  Si  Si15  1  0.84072326  0.15927674  0.75000000  1
  O  O16  1  0.68990884  0.68058531  0.76670003  1
  O  O17  1  0.31941469  0.31009116  0.73329997  1
  O  O18  1  0.31009116  0.31941469  0.23329997  1
  O  O19  1  0.68058531  0.68990884  0.26670003  1
  O  O20  1  0.11966805  0.61493945  0.23694268  1
  O  O21  1  0.38506055  0.88033195  0.26305732  1
  O  O22  1  0.88033195  0.38506055  0.76305732  1
  O  O23  1  0.61493945  0.11966805  0.73694268  1
  O  O24  1  0.49405425  0.78725324  0.01923613  1
  O  O25  1  0.21274676  0.50594575  0.48076387  1
  O  O26  1  0.50594575  0.21274676  0.98076387  1
  O  O27  1  0.78725324  0.49405425  0.51923613  1
  O  O28  1  0.06600668  0.69620965  0.77296262  1
  O  O29  1  0.30379035  0.93399332  0.72703738  1
  O  O30  1  0.93399332  0.30379035  0.22703738  1
  O  O31  1  0.69620965  0.06600668  0.27296262  1
  O  O32  1  0.13947167  0.97171121  0.40753655  1
  O  O33  1  0.02828879  0.86052833  0.09246345  1
  O  O34  1  0.86052833  0.02828879  0.59246345  1
  O  O35  1  0.97171121  0.13947167  0.90753655  1
