# generated using pymatgen
data_Pb7(ClO4)2
_symmetry_space_group_name_H-M   'P 1'
_cell_length_a   5.92797477
_cell_length_b   7.37117748
_cell_length_c   20.13628407
_cell_angle_alpha   90.00000000
_cell_angle_beta   90.00000000
_cell_angle_gamma   114.52888844
_symmetry_Int_Tables_number   1
_chemical_formula_structural   Pb7(ClO4)2
_chemical_formula_sum   'Pb14 Cl4 O16'
_cell_volume   800.47098542
_cell_formula_units_Z   2
loop_
 _symmetry_equiv_pos_site_id
 _symmetry_equiv_pos_as_xyz
  1  'x, y, z'
loop_
 _atom_site_type_symbol
 _atom_site_label
 _atom_site_symmetry_multiplicity
 _atom_site_fract_x
 _atom_site_fract_y
 _atom_site_fract_z
 _atom_site_occupancy
  Pb  Pb0  1  0.69101394  0.65511046  0.00435613  1
  Pb  Pb1  1  0.30898606  0.34488954  0.50435613  1
  Pb  Pb2  1  0.34670521  0.94932289  0.96513295  1
  Pb  Pb3  1  0.65329479  0.05067711  0.46513295  1
  Pb  Pb4  1  0.83084094  0.00122204  0.13384678  1
  Pb  Pb5  1  0.16915906  -0.00122204  0.63384678  1
  Pb  Pb6  1  0.15414015  0.65159052  0.13625124  1
  Pb  Pb7  1  0.84585985  0.34840948  0.63625124  1
  Pb  Pb8  1  0.10906674  0.50943573  0.85378381  1
  Pb  Pb9  1  0.89093326  0.49056427  0.35378381  1
  Pb  Pb10  1  0.80332910  0.81866915  0.83628990  1
  Pb  Pb11  1  0.19667090  0.18133085  0.33628990  1
  Pb  Pb12  1  0.44412179  0.20184865  0.77497923  1
  Pb  Pb13  1  0.55587821  0.79815135  0.27497923  1
  Cl  Cl14  1  0.94285659  0.17930977  0.93653789  1
  Cl  Cl15  1  0.05714341  0.82069023  0.43653789  1
  Cl  Cl16  1  0.52828794  0.32748212  0.06771776  1
  Cl  Cl17  1  0.47171206  0.67251788  0.56771776  1
  O  O18  1  0.96218072  0.68546538  0.92565883  1
  O  O19  1  0.03781928  0.31453462  0.42565883  1
  O  O20  1  0.48591231  0.69966628  0.92306091  1
  O  O21  1  0.51408769  0.30033372  0.42306091  1
  O  O22  1  0.50886033  0.79900256  0.06364815  1
  O  O23  1  0.49113967  0.20099744  0.56364815  1
  O  O24  1  0.01295699  0.82432588  0.06391128  1
  O  O25  1  0.98704301  0.17567412  0.56391128  1
  O  O26  1  0.57984296  0.08854137  0.69473200  1
  O  O27  1  0.42015704  0.91145863  0.19473200  1
  O  O28  1  0.17574156  0.23050545  0.71145140  1
  O  O29  1  0.82425844  0.76949455  0.21145140  1
  O  O30  1  0.26890247  0.95705403  0.83877670  1
  O  O31  1  0.73109753  0.04294597  0.33877670  1
  O  O32  1  0.72437362  0.47846375  0.80636503  1
  O  O33  1  0.27562638  0.52153625  0.30636503  1
