# generated using pymatgen
data_MgSiO3
_symmetry_space_group_name_H-M   'P 1'
_cell_length_a   18.70779176
_cell_length_b   8.92093959
_cell_length_c   5.33113070
_cell_angle_alpha   90.00000000
_cell_angle_beta   90.00000000
_cell_angle_gamma   90.00000000
_symmetry_Int_Tables_number   1
_chemical_formula_structural   MgSiO3
_chemical_formula_sum   'Mg16 Si16 O48'
_cell_volume   889.71816096
_cell_formula_units_Z   16
loop_
 _symmetry_equiv_pos_site_id
 _symmetry_equiv_pos_as_xyz
  1  'x, y, z'
loop_
 _atom_site_type_symbol
 _atom_site_label
 _atom_site_symmetry_multiplicity
 _atom_site_fract_x
 _atom_site_fract_y
 _atom_site_fract_z
 _atom_site_occupancy
  Mg  Mg0  1  0.31342758  0.89865007  0.90279509  1
  Mg  Mg1  1  0.81342758  0.10134993  0.09720491  1
  Mg  Mg2  1  0.81342758  0.89865007  0.59720491  1
  Mg  Mg3  1  0.31342758  0.10134993  0.40279509  1
  Mg  Mg4  1  0.31130310  0.25658650  0.90490752  1
  Mg  Mg5  1  0.81130310  0.74341350  0.09509248  1
  Mg  Mg6  1  0.81130310  0.25658650  0.59509248  1
  Mg  Mg7  1  0.31130310  0.74341350  0.40490752  1
  Mg  Mg8  1  0.06185513  0.59986557  0.03516331  1
  Mg  Mg9  1  0.56185513  0.40013443  0.96483669  1
  Mg  Mg10  1  0.56185513  0.59986557  0.46483669  1
  Mg  Mg11  1  0.06185513  0.40013443  0.53516331  1
  Mg  Mg12  1  0.06323550  0.75895881  0.53441985  1
  Mg  Mg13  1  0.56323550  0.24104119  0.46558015  1
  Mg  Mg14  1  0.56323550  0.75895881  0.96558015  1
  Mg  Mg15  1  0.06323550  0.24104119  0.03441985  1
  Si  Si16  1  0.96062059  0.08857587  0.43046681  1
  Si  Si17  1  0.46062059  0.91142413  0.56953319  1
  Si  Si18  1  0.46062059  0.08857587  0.06953319  1
  Si  Si19  1  0.96062059  0.91142413  0.93046681  1
  Si  Si20  1  0.91613234  0.58802709  0.37646081  1
  Si  Si21  1  0.41613234  0.41197291  0.62353919  1
  Si  Si22  1  0.41613234  0.58802709  0.12353919  1
  Si  Si23  1  0.91613234  0.41197291  0.87646081  1
  Si  Si24  1  0.16497847  0.91081824  0.23160628  1
  Si  Si25  1  0.66497847  0.08918176  0.76839372  1
  Si  Si26  1  0.66497847  0.91081824  0.26839372  1
  Si  Si27  1  0.16497847  0.08918176  0.73160628  1
  Si  Si28  1  0.20850768  0.58906512  0.70023810  1
  Si  Si29  1  0.70850768  0.41093488  0.29976190  1
  Si  Si30  1  0.70850768  0.58906512  0.79976190  1
  Si  Si31  1  0.20850768  0.41093488  0.20023810  1
  O  O32  1  0.87288272  0.09218061  0.42652590  1
  O  O33  1  0.37288272  0.90781939  0.57347410  1
  O  O34  1  0.37288272  0.09218061  0.07347410  1
  O  O35  1  0.87288272  0.90781939  0.92652590  1
  O  O36  1  0.00301070  0.23847759  0.34812254  1
  O  O37  1  0.50301070  0.76152241  0.65187746  1
  O  O38  1  0.50301070  0.23847759  0.15187746  1
  O  O39  1  0.00301070  0.76152241  0.84812254  1
  O  O40  1  0.98688601  0.95971408  0.21979054  1
  O  O41  1  0.48688601  0.04028592  0.78020946  1
  O  O42  1  0.48688601  0.95971408  0.28020946  1
  O  O43  1  0.98688601  0.04028592  0.71979054  1
  O  O44  1  0.00343200  0.59118205  0.37275230  1
  O  O45  1  0.50343200  0.40881795  0.62724770  1
  O  O46  1  0.50343200  0.59118205  0.12724770  1
  O  O47  1  0.00343200  0.40881795  0.87275230  1
  O  O48  1  0.88949924  0.46133858  0.58634497  1
  O  O49  1  0.38949924  0.53866142  0.41365503  1
  O  O50  1  0.38949924  0.46133858  0.91365503  1
  O  O51  1  0.88949924  0.53866142  0.08634497  1
  O  O52  1  0.87154270  0.25986958  0.91089019  1
  O  O53  1  0.37154270  0.74013042  0.08910981  1
  O  O54  1  0.37154270  0.25986958  0.58910981  1
  O  O55  1  0.87154270  0.74013042  0.41089019  1
  O  O56  1  0.25221944  0.91072098  0.22826976  1
  O  O57  1  0.75221944  0.08927902  0.77173024  1
  O  O58  1  0.75221944  0.91072098  0.27173024  1
  O  O59  1  0.25221944  0.08927902  0.72826976  1
  O  O60  1  0.12407695  0.24703158  0.71470802  1
  O  O61  1  0.62407695  0.75296842  0.28529198  1
  O  O62  1  0.62407695  0.24703158  0.78529198  1
  O  O63  1  0.12407695  0.75296842  0.21470802  1
  O  O64  1  0.13511287  0.96991224  0.51335156  1
  O  O65  1  0.63511287  0.03008776  0.48664844  1
  O  O66  1  0.63511287  0.96991224  0.98664844  1
  O  O67  1  0.13511287  0.03008776  0.01335156  1
  O  O68  1  0.12139829  0.59172263  0.70675331  1
  O  O69  1  0.62139829  0.40827737  0.29324669  1
  O  O70  1  0.62139829  0.59172263  0.79324669  1
  O  O71  1  0.12139829  0.40827737  0.20675331  1
  O  O72  1  0.25118995  0.74488853  0.72127609  1
  O  O73  1  0.75118995  0.25511147  0.27872391  1
  O  O74  1  0.75118995  0.74488853  0.77872391  1
  O  O75  1  0.25118995  0.25511147  0.22127609  1
  O  O76  1  0.23668774  0.53179972  0.41680851  1
  O  O77  1  0.73668774  0.46820028  0.58319149  1
  O  O78  1  0.73668774  0.53179972  0.08319149  1
  O  O79  1  0.23668774  0.46820028  0.91680851  1
