# generated using pymatgen
data_MgSiO3
_symmetry_space_group_name_H-M   'P 1'
_cell_length_a   18.77323348
_cell_length_b   8.92151518
_cell_length_c   5.33700852
_cell_angle_alpha   90.00000000
_cell_angle_beta   94.44965707
_cell_angle_gamma   90.00000000
_symmetry_Int_Tables_number   1
_chemical_formula_structural   MgSiO3
_chemical_formula_sum   'Mg16 Si16 O48'
_cell_volume   891.17830770
_cell_formula_units_Z   16
loop_
 _symmetry_equiv_pos_site_id
 _symmetry_equiv_pos_as_xyz
  1  'x, y, z'
loop_
 _atom_site_type_symbol
 _atom_site_label
 _atom_site_symmetry_multiplicity
 _atom_site_fract_x
 _atom_site_fract_y
 _atom_site_fract_z
 _atom_site_occupancy
  Mg  Mg0  1  0.81381519  0.90000159  0.75083409  1
  Mg  Mg1  1  0.81381519  0.09999841  0.25083409  1
  Mg  Mg2  1  0.81388191  0.25573790  0.74740532  1
  Mg  Mg3  1  0.81388191  0.74426210  0.24740532  1
  Mg  Mg4  1  0.56399508  0.39871548  0.63140589  1
  Mg  Mg5  1  0.56399508  0.60128452  0.13140589  1
  Mg  Mg6  1  0.56265317  0.75872048  0.63279508  1
  Mg  Mg7  1  0.56265317  0.24127952  0.13279508  1
  Mg  Mg8  1  0.31131980  0.89985593  0.18958443  1
  Mg  Mg9  1  0.31131980  0.10014407  0.68958443  1
  Mg  Mg10  1  0.31119401  0.25988224  0.18900024  1
  Mg  Mg11  1  0.31119401  0.74011776  0.68900024  1
  Mg  Mg12  1  0.06119548  0.59914195  0.26029517  1
  Mg  Mg13  1  0.06119548  0.40085805  0.76029517  1
  Mg  Mg14  1  0.06223066  0.75833908  0.75909676  1
  Mg  Mg15  1  0.06223066  0.24166092  0.25909676  1
  Si  Si16  1  0.96132442  0.08806390  0.62752954  1
  Si  Si17  1  0.96132442  0.91193610  0.12752954  1
  Si  Si18  1  0.91486603  0.58805943  0.56701847  1
  Si  Si19  1  0.91486603  0.41194057  0.06701847  1
  Si  Si20  1  0.71066810  0.41044929  0.33871814  1
  Si  Si21  1  0.71066810  0.58955071  0.83871814  1
  Si  Si22  1  0.66740131  0.08826172  0.87361614  1
  Si  Si23  1  0.66740131  0.91173828  0.37361614  1
  Si  Si24  1  0.41624097  0.41045279  0.92054200  1
  Si  Si25  1  0.41624097  0.58954721  0.42054200  1
  Si  Si26  1  0.45806154  0.91066197  0.89725918  1
  Si  Si27  1  0.45806154  0.08933803  0.39725918  1
  Si  Si28  1  0.16388063  0.91037616  0.48277502  1
  Si  Si29  1  0.16388063  0.08962384  0.98277502  1
  Si  Si30  1  0.20776484  0.58937150  0.96271531  1
  Si  Si31  1  0.20776484  0.41062850  0.46271531  1
  O  O32  1  0.87382810  0.09117618  0.59774565  1
  O  O33  1  0.87382810  0.90882382  0.09774565  1
  O  O34  1  0.00261430  0.23937709  0.55743441  1
  O  O35  1  0.00261430  0.76062291  0.05743441  1
  O  O36  1  0.98798470  0.96014120  0.42346559  1
  O  O37  1  0.98798470  0.03985880  0.92346559  1
  O  O38  1  0.00216103  0.58850140  0.58364058  1
  O  O39  1  0.00216103  0.41149860  0.08364058  1
  O  O40  1  0.88636248  0.46398616  0.77184046  1
  O  O41  1  0.88636248  0.53601484  0.27184046  1
  O  O42  1  0.87350963  0.25601912  0.08396884  1
  O  O43  1  0.87350963  0.74398088  0.58396884  1
  O  O44  1  0.62303827  0.59329534  0.81848609  1
  O  O45  1  0.62303827  0.40670466  0.31848609  1
  O  O46  1  0.75318760  0.25852888  0.42159213  1
  O  O47  1  0.75318760  0.74147112  0.92159213  1
  O  O48  1  0.73731570  0.53381889  0.56281674  1
  O  O49  1  0.73731570  0.46618111  0.06281674  1
  O  O50  1  0.75468809  0.90983327  0.39920042  1
  O  O51  1  0.75468809  0.09016673  0.89920042  1
  O  O52  1  0.62349064  0.24157385  0.83250543  1
  O  O53  1  0.62349064  0.75842615  0.33250543  1
  O  O54  1  0.64010432  0.96373272  0.65399181  1
  O  O55  1  0.64010432  0.03626728  0.15399181  1
  O  O56  1  0.50338468  0.59300031  0.44004757  1
  O  O57  1  0.50338468  0.40699969  0.94004757  1
  O  O58  1  0.37170327  0.25661259  0.88754979  1
  O  O59  1  0.37170327  0.74338741  0.38754979  1
  O  O60  1  0.38840177  0.53148029  0.69603046  1
  O  O61  1  0.38840177  0.46851971  0.19603046  1
  O  O62  1  0.37075615  0.90764404  0.87784908  1
  O  O63  1  0.37075615  0.09235596  0.37784908  1
  O  O64  1  0.50186434  0.24352957  0.43295491  1
  O  O65  1  0.50186434  0.75647043  0.93295491  1
  O  O66  1  0.48578502  0.96740817  0.62067298  1
  O  O67  1  0.48578502  0.03259183  0.12067298  1
  O  O68  1  0.25106851  0.90927754  0.50079516  1
  O  O69  1  0.25106851  0.09072246  0.00079516  1
  O  O70  1  0.12293057  0.24750709  0.95659978  1
  O  O71  1  0.12293057  0.75249291  0.45659978  1
  O  O72  1  0.13428331  0.97064292  0.75573263  1
  O  O73  1  0.13428331  0.02935708  0.25573263  1
  O  O74  1  0.12067284  0.59150697  0.94684886  1
  O  O75  1  0.12067284  0.40849303  0.44684886  1
  O  O76  1  0.25029934  0.74532460  0.99085781  1
  O  O77  1  0.25029934  0.25467540  0.49085781  1
  O  O78  1  0.23607020  0.53000657  0.68878405  1
  O  O79  1  0.23607020  0.46999343  0.18878405  1
