# generated using pymatgen
data_Zn2SiO4
_symmetry_space_group_name_H-M   'P 1'
_cell_length_a   10.43549785
_cell_length_b   6.74391324
_cell_length_c   5.14286352
_cell_angle_alpha   90.00000000
_cell_angle_beta   90.00000000
_cell_angle_gamma   90.00000000
_symmetry_Int_Tables_number   1
_chemical_formula_structural   Zn2SiO4
_chemical_formula_sum   'Zn8 Si4 O16'
_cell_volume   361.93463683
_cell_formula_units_Z   4
loop_
 _symmetry_equiv_pos_site_id
 _symmetry_equiv_pos_as_xyz
  1  'x, y, z'
loop_
 _atom_site_type_symbol
 _atom_site_label
 _atom_site_symmetry_multiplicity
 _atom_site_fract_x
 _atom_site_fract_y
 _atom_site_fract_z
 _atom_site_occupancy
  Zn  Zn0  1  0.65562611  0.99936703  0.67403378  1
  Zn  Zn1  1  0.15562611  0.50063297  0.82596622  1
  Zn  Zn2  1  0.34437389  0.49936703  0.32596622  1
  Zn  Zn3  1  0.84437389  0.00063297  0.17403378  1
  Zn  Zn4  1  0.34437389  0.00063297  0.32596622  1
  Zn  Zn5  1  0.84437389  0.49936703  0.17403378  1
  Zn  Zn6  1  0.65562611  0.50063297  0.67403378  1
  Zn  Zn7  1  0.15562611  0.99936703  0.82596622  1
  Si  Si8  1  0.59301809  0.25000000  0.17653359  1
  Si  Si9  1  0.09301809  0.25000000  0.32346641  1
  Si  Si10  1  0.40698191  0.75000000  0.82346641  1
  Si  Si11  1  0.90698191  0.75000000  0.67653359  1
  O  O12  1  0.61204480  0.25000000  0.85777946  1
  O  O13  1  0.11204480  0.25000000  0.64222054  1
  O  O14  1  0.38795520  0.75000000  0.14222054  1
  O  O15  1  0.88795520  0.75000000  0.35777946  1
  O  O16  1  0.94141839  0.25000000  0.23593960  1
  O  O17  1  0.44141839  0.25000000  0.26406040  1
  O  O18  1  0.05858161  0.75000000  0.76406040  1
  O  O19  1  0.55858161  0.75000000  0.73593960  1
  O  O20  1  0.66396404  0.05063138  0.29421414  1
  O  O21  1  0.16396404  0.44936862  0.20578586  1
  O  O22  1  0.33603596  0.55063138  0.70578586  1
  O  O23  1  0.83603596  0.94936862  0.79421414  1
  O  O24  1  0.33603596  0.94936862  0.70578586  1
  O  O25  1  0.83603596  0.55063138  0.79421414  1
  O  O26  1  0.66396404  0.44936862  0.29421414  1
  O  O27  1  0.16396404  0.05063138  0.20578586  1
