# generated using pymatgen
data_Li2Ca2Si2O7
_symmetry_space_group_name_H-M   'P 1'
_cell_length_a   5.15706282
_cell_length_b   5.15700789
_cell_length_c   41.69612537
_cell_angle_alpha   89.99990210
_cell_angle_beta   89.99997060
_cell_angle_gamma   120.00013279
_symmetry_Int_Tables_number   1
_chemical_formula_structural   Li2Ca2Si2O7
_chemical_formula_sum   'Li12 Ca12 Si12 O42'
_cell_volume   960.34209886
_cell_formula_units_Z   6
loop_
 _symmetry_equiv_pos_site_id
 _symmetry_equiv_pos_as_xyz
  1  'x, y, z'
loop_
 _atom_site_type_symbol
 _atom_site_label
 _atom_site_symmetry_multiplicity
 _atom_site_fract_x
 _atom_site_fract_y
 _atom_site_fract_z
 _atom_site_occupancy
  Li  Li0  1  0.69774686  0.28565794  0.69315844  1
  Li  Li1  1  0.71434569  0.41209033  0.02649329  1
  Li  Li2  1  0.58790881  0.30224990  0.35982893  1
  Li  Li3  1  0.30224987  0.71434196  0.19315841  1
  Li  Li4  1  0.28565473  0.58791136  0.52649350  1
  Li  Li5  1  0.41208719  0.69774926  0.85982907  1
  Li  Li6  1  0.28568299  0.69776097  0.64016352  1
  Li  Li7  1  0.41207627  0.71432301  0.30683415  1
  Li  Li8  1  0.30224555  0.58792540  0.97349962  1
  Li  Li9  1  0.71431318  0.30223925  0.14016345  1
  Li  Li10  1  0.58792048  0.28567635  0.80683425  1
  Li  Li11  1  0.69775331  0.41207240  0.47349942  1
  Ca  Ca12  1  0.96087706  0.96088649  0.66665801  1
  Ca  Ca13  1  0.03921137  -0.00001148  0.99999028  1
  Ca  Ca14  1  0.00000727  0.03912185  0.33332341  1
  Ca  Ca15  1  0.03912100  0.03912002  0.16665817  1
  Ca  Ca16  1  0.96087707  0.00000600  0.49999059  1
  Ca  Ca17  1  -0.00001032  0.96087352  0.83332347  1
  Ca  Ca18  1  0.96381061  0.92749028  0.74999443  1
  Ca  Ca19  1  0.07250475  0.03632540  0.08332895  1
  Ca  Ca20  1  0.96367459  0.03618930  0.41665986  1
  Ca  Ca21  1  0.03618604  0.07250820  0.24999431  1
  Ca  Ca22  1  0.92748450  0.96367309  0.58332926  1
  Ca  Ca23  1  0.03631955  0.96381419  0.91666005  1
  Si  Si24  1  0.35340086  0.62682005  0.71250622  1
  Si  Si25  1  0.37320745  0.72656568  0.04583554  1
  Si  Si26  1  0.27343007  0.64662632  0.37917003  1
  Si  Si27  1  0.64659638  0.37317987  0.21250616  1
  Si  Si28  1  0.62679569  0.27343466  0.54583606  1
  Si  Si29  1  0.72656650  0.35337385  0.87917022  1
  Si  Si30  1  0.62680512  0.35338233  0.62082057  1
  Si  Si31  1  0.72659001  0.37318210  0.28748494  1
  Si  Si32  1  0.64663441  0.27343107  0.95415487  1
  Si  Si33  1  0.37319074  0.64661872  0.12082042  1
  Si  Si34  1  0.27340716  0.62681617  0.78748501  1
  Si  Si35  1  0.35337096  0.72657075  0.45415444  1
  O  O36  1  0.38807850  0.77617237  0.74999772  1
  O  O37  1  0.22380462  0.61188466  0.08332791  1
  O  O38  1  0.38809731  0.61189900  0.41666658  1
  O  O39  1  0.61191825  0.22382642  0.24999770  1
  O  O40  1  0.77619379  0.38811775  0.58332825  1
  O  O41  1  0.61189984  0.38809915  0.91666698  1
  O  O42  1  0.66567172  0.62009697  0.70778007  1
  O  O43  1  0.37988812  0.04555944  0.04111600  1
  O  O44  1  0.95445870  0.33434117  0.37444116  1
  O  O45  1  0.33432540  0.37990320  0.20778007  1
  O  O46  1  0.62010702  0.95443670  0.54111646  1
  O  O47  1  0.04553825  0.66565951  0.87444137  1
  O  O48  1  0.62013351  0.66568956  0.62554688  1
  O  O49  1  0.04558398  0.37988449  0.29220868  1
  O  O50  1  0.33430495  0.95443360  0.95887205  1
  O  O51  1  0.37986574  0.33431260  0.12554702  1
  O  O52  1  0.95441196  0.62011299  0.79220863  1
  O  O53  1  0.66569654  0.04556950  0.45887213  1
  O  O54  1  0.05915974  0.29201038  0.71149790  1
  O  O55  1  0.70799108  0.76714921  0.04483706  1
  O  O56  1  0.23285172  0.94083869  0.37816708  1
  O  O57  1  0.94083653  0.70798939  0.21149806  1
  O  O58  1  0.29201115  0.23285720  0.54483786  1
  O  O59  1  0.76714484  0.05916105  0.87816709  1
  O  O60  1  0.29201656  0.05917427  0.62181968  1
  O  O61  1  0.76716312  0.70798754  0.28848963  1
  O  O62  1  0.94082893  0.23284454  0.95514949  1
  O  O63  1  0.70798060  0.94082667  0.12181961  1
  O  O64  1  0.23283362  0.29201050  0.78848971  1
  O  O65  1  0.05916960  0.76715252  0.45514863  1
  O  O66  1  0.86748594  0.34447019  0.64548662  1
  O  O67  1  0.65551838  0.52300320  0.97882543  1
  O  O68  1  0.47698810  0.13249913  0.31215148  1
  O  O69  1  0.13250976  0.65552990  0.14548662  1
  O  O70  1  0.34448421  0.47699782  0.47882538  1
  O  O71  1  0.52300709  0.86749888  0.81215161  1
  O  O72  1  0.34447342  0.86750483  0.68784084  1
  O  O73  1  0.52304108  0.65554814  0.35450507  1
  O  O74  1  0.13251601  0.47698078  0.02116599  1
  O  O75  1  0.65552278  0.13249597  0.18784068  1
  O  O76  1  0.47695671  0.34445259  0.85450516  1
  O  O77  1  0.86748706  0.52302100  0.52116632  1
