# generated using pymatgen
data_Mg14MnFeO16
_symmetry_space_group_name_H-M   'P 1'
_cell_length_a   8.58370390
_cell_length_b   8.53866238
_cell_length_c   4.30314055
_cell_angle_alpha   90.00000000
_cell_angle_beta   90.00000000
_cell_angle_gamma   90.00000000
_symmetry_Int_Tables_number   1
_chemical_formula_structural   Mg14MnFeO16
_chemical_formula_sum   'Mg14 Mn1 Fe1 O16'
_cell_volume   315.39158459
_cell_formula_units_Z   1
loop_
 _symmetry_equiv_pos_site_id
 _symmetry_equiv_pos_as_xyz
  1  'x, y, z'
loop_
 _atom_site_type_symbol
 _atom_site_label
 _atom_site_symmetry_multiplicity
 _atom_site_fract_x
 _atom_site_fract_y
 _atom_site_fract_z
 _atom_site_occupancy
  Mg  Mg0  1  0.50000000  0.00000000  0.00000000  1
  Mg  Mg1  1  0.50000000  0.50000000  0.00000000  1
  Mg  Mg2  1  -0.00000000  0.25202162  0.50000000  1
  Mg  Mg3  1  -0.00000000  0.74797838  0.50000000  1
  Mg  Mg4  1  0.50000000  0.25068511  0.50000000  1
  Mg  Mg5  1  0.50000000  0.74931489  0.50000000  1
  Mg  Mg6  1  0.25230323  0.00000000  0.50000000  1
  Mg  Mg7  1  0.24963685  0.50000000  0.50000000  1
  Mg  Mg8  1  0.74769677  0.00000000  0.50000000  1
  Mg  Mg9  1  0.75036315  0.50000000  0.50000000  1
  Mg  Mg10  1  0.25233916  0.25125405  0.00000000  1
  Mg  Mg11  1  0.25233916  0.74874595  0.00000000  1
  Mg  Mg12  1  0.74766084  0.25125405  -0.00000000  1
  Mg  Mg13  1  0.74766084  0.74874595  -0.00000000  1
  Mn  Mn14  1  -0.00000000  0.00000000  0.00000000  1
  Fe  Fe15  1  -0.00000000  0.50000000  0.00000000  1
  O  O16  1  0.25696808  0.00000000  0.00000000  1
  O  O17  1  0.25794075  0.50000000  0.00000000  1
  O  O18  1  0.74303192  0.00000000  -0.00000000  1
  O  O19  1  0.74205925  0.50000000  0.00000000  1
  O  O20  1  0.24892826  0.24937955  0.50000000  1
  O  O21  1  0.24892826  0.75062045  0.50000000  1
  O  O22  1  0.75107174  0.24937955  0.50000000  1
  O  O23  1  0.75107174  0.75062045  0.50000000  1
  O  O24  1  -0.00000000  0.00000000  0.50000000  1
  O  O25  1  -0.00000000  0.50000000  0.50000000  1
  O  O26  1  0.50000000  0.00000000  0.50000000  1
  O  O27  1  0.50000000  0.50000000  0.50000000  1
  O  O28  1  -0.00000000  0.25588972  0.00000000  1
  O  O29  1  -0.00000000  0.74411028  -0.00000000  1
  O  O30  1  0.50000000  0.24984303  0.00000000  1
  O  O31  1  0.50000000  0.75015697  -0.00000000  1
