# generated using pymatgen
data_W2Se3S
_symmetry_space_group_name_H-M   'P 1'
_cell_length_a   3.28615755
_cell_length_b   3.28614818
_cell_length_c   37.44742817
_cell_angle_alpha   90.00062382
_cell_angle_beta   90.00000000
_cell_angle_gamma   120.00009439
_symmetry_Int_Tables_number   1
_chemical_formula_structural   W2Se3S
_chemical_formula_sum   'W4 Se6 S2'
_cell_volume   350.20935212
_cell_formula_units_Z   2
loop_
 _symmetry_equiv_pos_site_id
 _symmetry_equiv_pos_as_xyz
  1  'x, y, z'
loop_
 _atom_site_type_symbol
 _atom_site_label
 _atom_site_symmetry_multiplicity
 _atom_site_fract_x
 _atom_site_fract_y
 _atom_site_fract_z
 _atom_site_occupancy
  W  W0  1  0.33330863  0.66661726  0.09392588  1
  W  W1  1  0.33331073  0.66662145  0.46965028  1
  W  W2  1  0.66668988  0.33337975  0.28179487  1
  W  W3  1  0.66669147  0.33338294  0.65754906  1
  Se  Se4  1  0.33336174  0.66672448  0.70285542  1
  Se  Se5  1  0.66664082  0.33328064  0.04860939  1
  Se  Se6  1  0.66664076  0.33328052  0.42434950  1
  Se  Se7  1  0.66664175  0.33328250  0.13923672  1
  Se  Se8  1  0.66664852  0.33329604  0.51495671  1
  Se  Se9  1  0.33335620  0.66671339  0.61223061  1
  S  S10  1  0.33335470  0.66671039  0.32294221  1
  S  S11  1  0.33335481  0.66671063  0.24064736  1
