# generated using pymatgen
data_Mo3W(SeS3)2
_symmetry_space_group_name_H-M   'P 1'
_cell_length_a   3.22166206
_cell_length_b   3.22167266
_cell_length_c   37.12696866
_cell_angle_alpha   89.99945528
_cell_angle_beta   90.00000000
_cell_angle_gamma   119.99989113
_symmetry_Int_Tables_number   1
_chemical_formula_structural   Mo3W(SeS3)2
_chemical_formula_sum   'Mo3 W1 Se2 S6'
_cell_volume   333.71981506
_cell_formula_units_Z   1
loop_
 _symmetry_equiv_pos_site_id
 _symmetry_equiv_pos_as_xyz
  1  'x, y, z'
loop_
 _atom_site_type_symbol
 _atom_site_label
 _atom_site_symmetry_multiplicity
 _atom_site_fract_x
 _atom_site_fract_y
 _atom_site_fract_z
 _atom_site_occupancy
  Mo  Mo0  1  0.33338174  0.66676348  0.09337939  1
  Mo  Mo1  1  0.66664032  0.33328064  0.28175184  1
  Mo  Mo2  1  0.66659991  0.33319982  0.65863601  1
  W  W3  1  0.33337066  0.66674132  0.46915068  1
  Se  Se4  1  0.33322519  0.66645137  0.70472847  1
  Se  Se5  1  0.33328874  0.66657848  0.61253249  1
  S  S6  1  0.33328337  0.66656774  0.32361497  1
  S  S7  1  0.66672367  0.33344634  0.05151038  1
  S  S8  1  0.66672117  0.33344133  0.42710003  1
  S  S9  1  0.66674005  0.33347910  0.13526028  1
  S  S10  1  0.66674461  0.33348823  0.51120366  1
  S  S11  1  0.33328057  0.66656214  0.23987981  1
