# generated using pymatgen
data_Mg14ZnFeO16
_symmetry_space_group_name_H-M   'P 1'
_cell_length_a   8.56149381
_cell_length_b   8.50506331
_cell_length_c   4.28254364
_cell_angle_alpha   90.00000000
_cell_angle_beta   90.00000000
_cell_angle_gamma   90.00000000
_symmetry_Int_Tables_number   1
_chemical_formula_structural   Mg14ZnFeO16
_chemical_formula_sum   'Mg14 Zn1 Fe1 O16'
_cell_volume   311.83789847
_cell_formula_units_Z   1
loop_
 _symmetry_equiv_pos_site_id
 _symmetry_equiv_pos_as_xyz
  1  'x, y, z'
loop_
 _atom_site_type_symbol
 _atom_site_label
 _atom_site_symmetry_multiplicity
 _atom_site_fract_x
 _atom_site_fract_y
 _atom_site_fract_z
 _atom_site_occupancy
  Mg  Mg0  1  0.50000000  0.00000000  0.00000000  1
  Mg  Mg1  1  0.50000000  0.50000000  0.00000000  1
  Mg  Mg2  1  0.00000000  0.24971151  0.50000000  1
  Mg  Mg3  1  0.00000000  0.75028849  0.50000000  1
  Mg  Mg4  1  0.50000000  0.25038542  0.50000000  1
  Mg  Mg5  1  0.50000000  0.74961458  0.50000000  1
  Mg  Mg6  1  0.25007358  0.00000000  0.50000000  1
  Mg  Mg7  1  0.24948253  0.50000000  0.50000000  1
  Mg  Mg8  1  0.74992642  0.00000000  0.50000000  1
  Mg  Mg9  1  0.75051747  0.50000000  0.50000000  1
  Mg  Mg10  1  0.25118399  0.25001095  0.00000000  1
  Mg  Mg11  1  0.25118399  0.74998905  0.00000000  1
  Mg  Mg12  1  0.74881601  0.25001095  0.00000000  1
  Mg  Mg13  1  0.74881601  0.74998905  0.00000000  1
  Zn  Zn14  1  0.00000000  0.00000000  0.00000000  1
  Fe  Fe15  1  0.00000000  0.50000000  0.00000000  1
  O  O16  1  0.25351378  0.00000000  0.00000000  1
  O  O17  1  0.25674326  0.50000000  0.00000000  1
  O  O18  1  0.74648622  0.00000000  0.00000000  1
  O  O19  1  0.74325674  0.50000000  0.00000000  1
  O  O20  1  0.24891025  0.24948870  0.50000000  1
  O  O21  1  0.24891025  0.75051130  0.50000000  1
  O  O22  1  0.75108975  0.24948870  0.50000000  1
  O  O23  1  0.75108975  0.75051130  0.50000000  1
  O  O24  1  0.00000000  0.00000000  0.50000000  1
  O  O25  1  0.00000000  0.50000000  0.50000000  1
  O  O26  1  0.50000000  0.00000000  0.50000000  1
  O  O27  1  0.50000000  0.50000000  0.50000000  1
  O  O28  1  0.00000000  0.25172768  0.00000000  1
  O  O29  1  0.00000000  0.74827232  0.00000000  1
  O  O30  1  0.50000000  0.24931778  0.00000000  1
  O  O31  1  0.50000000  0.75068222  0.00000000  1
