# generated using pymatgen
data_Mg30CuNiO32
_symmetry_space_group_name_H-M   'P 1'
_cell_length_a   8.50560409
_cell_length_b   8.50560409
_cell_length_c   8.50577595
_cell_angle_alpha   90.00000000
_cell_angle_beta   90.00000000
_cell_angle_gamma   90.00000000
_symmetry_Int_Tables_number   1
_chemical_formula_structural   Mg30CuNiO32
_chemical_formula_sum   'Mg30 Cu1 Ni1 O32'
_cell_volume   615.35292080
_cell_formula_units_Z   1
loop_
 _symmetry_equiv_pos_site_id
 _symmetry_equiv_pos_as_xyz
  1  'x, y, z'
loop_
 _atom_site_type_symbol
 _atom_site_label
 _atom_site_symmetry_multiplicity
 _atom_site_fract_x
 _atom_site_fract_y
 _atom_site_fract_z
 _atom_site_occupancy
  Mg  Mg0  1  0.00000000  0.50000000  0.00000000  1
  Mg  Mg1  1  0.00000000  0.50000000  0.50000000  1
  Mg  Mg2  1  0.50000000  0.00000000  0.00000000  1
  Mg  Mg3  1  0.50000000  0.00000000  0.50000000  1
  Mg  Mg4  1  0.50000000  0.50000000  0.00000000  1
  Mg  Mg5  1  0.50000000  0.50000000  0.50000000  1
  Mg  Mg6  1  0.00000000  0.24878810  0.25013140  1
  Mg  Mg7  1  0.00000000  0.24878810  0.74986860  1
  Mg  Mg8  1  0.00000000  0.75121190  0.25013140  1
  Mg  Mg9  1  0.00000000  0.75121190  0.74986860  1
  Mg  Mg10  1  0.50000000  0.24975380  0.24999978  1
  Mg  Mg11  1  0.50000000  0.24975380  0.75000022  1
  Mg  Mg12  1  0.50000000  0.75024620  0.24999978  1
  Mg  Mg13  1  0.50000000  0.75024620  0.75000022  1
  Mg  Mg14  1  0.24878810  0.00000000  0.25013140  1
  Mg  Mg15  1  0.24878810  0.00000000  0.74986860  1
  Mg  Mg16  1  0.24975380  0.50000000  0.24999978  1
  Mg  Mg17  1  0.24975380  0.50000000  0.75000022  1
  Mg  Mg18  1  0.75121190  0.00000000  0.25013140  1
  Mg  Mg19  1  0.75121190  0.00000000  0.74986860  1
  Mg  Mg20  1  0.75024620  0.50000000  0.24999978  1
  Mg  Mg21  1  0.75024620  0.50000000  0.75000022  1
  Mg  Mg22  1  0.24926278  0.24926278  0.00000000  1
  Mg  Mg23  1  0.24917161  0.24917161  0.50000000  1
  Mg  Mg24  1  0.24926278  0.75073722  0.00000000  1
  Mg  Mg25  1  0.24917161  0.75082839  0.50000000  1
  Mg  Mg26  1  0.75073722  0.24926278  0.00000000  1
  Mg  Mg27  1  0.75082839  0.24917161  0.50000000  1
  Mg  Mg28  1  0.75073722  0.75073722  0.00000000  1
  Mg  Mg29  1  0.75082839  0.75082839  0.50000000  1
  Cu  Cu30  1  0.00000000  0.00000000  0.00000000  1
  Ni  Ni31  1  0.00000000  0.00000000  0.50000000  1
  O  O32  1  0.25303471  0.00000000  0.00000000  1
  O  O33  1  0.25073861  0.00000000  0.50000000  1
  O  O34  1  0.25000515  0.50000000  0.00000000  1
  O  O35  1  0.24972471  0.50000000  0.50000000  1
  O  O36  1  0.74696529  0.00000000  0.00000000  1
  O  O37  1  0.74926139  0.00000000  0.50000000  1
  O  O38  1  0.74999485  0.50000000  0.00000000  1
  O  O39  1  0.75027529  0.50000000  0.50000000  1
  O  O40  1  0.24947712  0.24947712  0.24990391  1
  O  O41  1  0.24947712  0.24947712  0.75009609  1
  O  O42  1  0.24947712  0.75052288  0.24990391  1
  O  O43  1  0.24947712  0.75052288  0.75009609  1
  O  O44  1  0.75052288  0.24947712  0.24990391  1
  O  O45  1  0.75052288  0.24947712  0.75009609  1
  O  O46  1  0.75052288  0.75052288  0.24990391  1
  O  O47  1  0.75052288  0.75052288  0.75009609  1
  O  O48  1  0.00000000  0.00000000  0.25493394  1
  O  O49  1  0.00000000  0.00000000  0.74506606  1
  O  O50  1  0.00000000  0.50000000  0.25041462  1
  O  O51  1  0.00000000  0.50000000  0.74958538  1
  O  O52  1  0.50000000  0.00000000  0.25041462  1
  O  O53  1  0.50000000  0.00000000  0.74958538  1
  O  O54  1  0.50000000  0.50000000  0.25016232  1
  O  O55  1  0.50000000  0.50000000  0.74983768  1
  O  O56  1  0.00000000  0.25303471  0.00000000  1
  O  O57  1  0.00000000  0.25073861  0.50000000  1
  O  O58  1  0.00000000  0.74696529  0.00000000  1
  O  O59  1  0.00000000  0.74926139  0.50000000  1
  O  O60  1  0.50000000  0.25000515  0.00000000  1
  O  O61  1  0.50000000  0.24972471  0.50000000  1
  O  O62  1  0.50000000  0.74999485  0.00000000  1
  O  O63  1  0.50000000  0.75027529  0.50000000  1
