# generated using pymatgen
data_W2SeS3
_symmetry_space_group_name_H-M   'P 1'
_cell_length_a   3.22250391
_cell_length_b   3.22235804
_cell_length_c   38.47052274
_cell_angle_alpha   90.08876871
_cell_angle_beta   90.00000000
_cell_angle_gamma   120.00149756
_symmetry_Int_Tables_number   1
_chemical_formula_structural   W2SeS3
_chemical_formula_sum   'W4 Se2 S6'
_cell_volume   345.95428745
_cell_formula_units_Z   2
loop_
 _symmetry_equiv_pos_site_id
 _symmetry_equiv_pos_as_xyz
  1  'x, y, z'
loop_
 _atom_site_type_symbol
 _atom_site_label
 _atom_site_symmetry_multiplicity
 _atom_site_fract_x
 _atom_site_fract_y
 _atom_site_fract_z
 _atom_site_occupancy
  W  W0  1  0.33403663  0.66807325  0.09275031  1
  W  W1  1  0.33532275  0.67064549  0.46960056  1
  W  W2  1  0.66224119  0.32448339  0.28068158  1
  W  W3  1  0.66839021  0.33678143  0.65991553  1
  Se  Se4  1  0.66808348  0.33616596  0.42491859  1
  Se  Se5  1  0.66920318  0.33840536  0.51422908  1
  S  S6  1  0.32943442  0.65886883  0.32118865  1
  S  S7  1  0.33555760  0.67111621  0.70043225  1
  S  S8  1  0.66683939  0.33367778  0.05223368  1
  S  S9  1  0.66787515  0.33574931  0.13326607  1
  S  S10  1  0.32844833  0.65689665  0.24014522  1
  S  S11  1  0.33456767  0.66913734  0.61938647  1
