# generated using pymatgen
data_CaBePO5
_symmetry_space_group_name_H-M   'P 1'
_cell_length_a   4.91474213
_cell_length_b   7.76029105
_cell_length_c   9.79126481
_cell_angle_alpha   90.00000000
_cell_angle_beta   90.25954864
_cell_angle_gamma   90.00000000
_symmetry_Int_Tables_number   1
_chemical_formula_structural   CaBePO5
_chemical_formula_sum   'Ca4 Be4 P4 O20'
_cell_volume   373.43333753
_cell_formula_units_Z   4
loop_
 _symmetry_equiv_pos_site_id
 _symmetry_equiv_pos_as_xyz
  1  'x, y, z'
loop_
 _atom_site_type_symbol
 _atom_site_label
 _atom_site_symmetry_multiplicity
 _atom_site_fract_x
 _atom_site_fract_y
 _atom_site_fract_z
 _atom_site_occupancy
  Ca  Ca0  1  0.00292674  0.61763271  0.17011456  1
  Ca  Ca1  1  0.99707326  0.11763271  0.32988544  1
  Ca  Ca2  1  0.99707326  0.38236729  0.82988544  1
  Ca  Ca3  1  0.00292674  0.88236729  0.67011456  1
  Be  Be4  1  0.46026857  0.91352513  0.16200371  1
  Be  Be5  1  0.53973143  0.41352513  0.33799629  1
  Be  Be6  1  0.53973143  0.08647487  0.83799629  1
  Be  Be7  1  0.46026857  0.58647487  0.66200371  1
  P  P8  1  0.53040257  0.76847165  0.41750517  1
  P  P9  1  0.46959743  0.26847165  0.08249483  1
  P  P10  1  0.46959743  0.23152835  0.58249483  1
  P  P11  1  0.53040257  0.73152835  0.91750517  1
  O  O12  1  0.75548921  0.89727712  0.45663739  1
  O  O13  1  0.24451079  0.39727712  0.04336261  1
  O  O14  1  0.24451079  0.10272288  0.54336261  1
  O  O15  1  0.75548921  0.60272288  0.95663739  1
  O  O16  1  0.35529597  0.78160633  0.04306184  1
  O  O17  1  0.64470403  0.28160633  0.45693816  1
  O  O18  1  0.64470403  0.21839367  0.95693816  1
  O  O19  1  0.35529597  0.71839367  0.54306184  1
  O  O20  1  0.33069759  0.84338342  0.30745643  1
  O  O21  1  0.66930241  0.34338342  0.19254357  1
  O  O22  1  0.66930241  0.15661658  0.69254357  1
  O  O23  1  0.33069759  0.65661658  0.80745643  1
  O  O24  1  0.66753742  0.60434911  0.35739341  1
  O  O25  1  0.33246258  0.10434911  0.14260659  1
  O  O26  1  0.33246258  0.39565089  0.64260659  1
  O  O27  1  0.66753742  0.89565089  0.85739341  1
  O  O28  1  0.78568040  0.90591485  0.18618799  1
  O  O29  1  0.21431960  0.40591485  0.31381201  1
  O  O30  1  0.21431960  0.09408515  0.81381201  1
  O  O31  1  0.78568040  0.59408515  0.68618799  1
