# generated using pymatgen
data_CaMoO3
_symmetry_space_group_name_H-M   'P 1'
_cell_length_a   5.50477493
_cell_length_b   5.73031566
_cell_length_c   7.98621950
_cell_angle_alpha   90.19704850
_cell_angle_beta   89.89011805
_cell_angle_gamma   90.72721625
_symmetry_Int_Tables_number   1
_chemical_formula_structural   CaMoO3
_chemical_formula_sum   'Ca4 Mo4 O12'
_cell_volume   251.89586705
_cell_formula_units_Z   4
loop_
 _symmetry_equiv_pos_site_id
 _symmetry_equiv_pos_as_xyz
  1  'x, y, z'
loop_
 _atom_site_type_symbol
 _atom_site_label
 _atom_site_symmetry_multiplicity
 _atom_site_fract_x
 _atom_site_fract_y
 _atom_site_fract_z
 _atom_site_occupancy
  Ca  Ca0  1  0.99009953  0.04819294  0.24825573  1
  Ca  Ca1  1  0.48618312  0.44420708  0.75061338  1
  Ca  Ca2  1  0.51381688  0.55579292  0.24938662  1
  Ca  Ca3  1  0.00990047  0.95180706  0.75174427  1
  Mo  Mo4  1  0.50000000  0.00000000  -0.00000000  1
  Mo  Mo5  1  0.00000000  0.50000000  -0.00000000  1
  Mo  Mo6  1  0.00000000  0.50000000  0.50000000  1
  Mo  Mo7  1  0.50000000  0.00000000  0.50000000  1
  O  O8  1  0.71152706  0.30973531  0.45224683  1
  O  O9  1  0.18992623  0.20899432  0.55681380  1
  O  O10  1  0.80660814  0.79377915  0.05240164  1
  O  O11  1  0.30152188  0.69989909  0.94387393  1
  O  O12  1  0.28847294  0.69026369  0.54775317  1
  O  O13  1  0.81007377  0.79100568  0.44318620  1
  O  O14  1  0.19339186  0.20622085  0.94759836  1
  O  O15  1  0.69847812  0.30010091  0.05612607  1
  O  O16  1  0.10195382  0.45826094  0.25528674  1
  O  O17  1  0.60157819  0.03986805  0.75703597  1
  O  O18  1  0.39842181  0.96013195  0.24296403  1
  O  O19  1  0.89804618  0.54173906  0.74471326  1
