# generated using pymatgen
data_CaV3(P2O7)2
_symmetry_space_group_name_H-M   'P 1'
_cell_length_a   7.60853533
_cell_length_b   7.86299160
_cell_length_c   9.61836846
_cell_angle_alpha   90.00000000
_cell_angle_beta   111.79647552
_cell_angle_gamma   90.00000000
_symmetry_Int_Tables_number   1
_chemical_formula_structural   CaV3(P2O7)2
_chemical_formula_sum   'Ca2 V6 P8 O28'
_cell_volume   534.28901669
_cell_formula_units_Z   2
loop_
 _symmetry_equiv_pos_site_id
 _symmetry_equiv_pos_as_xyz
  1  'x, y, z'
loop_
 _atom_site_type_symbol
 _atom_site_label
 _atom_site_symmetry_multiplicity
 _atom_site_fract_x
 _atom_site_fract_y
 _atom_site_fract_z
 _atom_site_occupancy
  Ca  Ca0  1  0.50000000  0.00000000  0.00000000  1
  Ca  Ca1  1  0.50000000  0.50000000  0.50000000  1
  V  V2  1  0.18826064  0.87099450  0.52551155  1
  V  V3  1  0.81173936  0.37099450  0.97448845  1
  V  V4  1  0.81173936  0.12900550  0.47448845  1
  V  V5  1  0.18826064  0.62900550  0.02551155  1
  V  V6  1  -0.00000000  0.00000000  0.00000000  1
  V  V7  1  -0.00000000  0.50000000  0.50000000  1
  P  P8  1  0.59984644  0.06408118  0.70577938  1
  P  P9  1  0.40015356  0.56408118  0.79422062  1
  P  P10  1  0.40015356  0.93591882  0.29422062  1
  P  P11  1  0.59984644  0.43591882  0.20577938  1
  P  P12  1  0.87584770  0.79675946  0.68889085  1
  P  P13  1  0.12415230  0.29675946  0.81110915  1
  P  P14  1  0.12415230  0.20324054  0.31110915  1
  P  P15  1  0.87584770  0.70324054  0.18889085  1
  O  O16  1  0.82190549  0.62760148  0.60608241  1
  O  O17  1  0.17809451  0.12760148  0.89391759  1
  O  O18  1  0.17809451  0.37239852  0.39391759  1
  O  O19  1  0.82190549  0.87239852  0.10608241  1
  O  O20  1  0.27532698  0.61582955  0.62981667  1
  O  O21  1  0.72467302  0.11582955  0.87018333  1
  O  O22  1  0.72467302  0.38417045  0.37018333  1
  O  O23  1  0.27532698  0.88417045  0.12981667  1
  O  O24  1  0.61921124  0.19075145  0.59209811  1
  O  O25  1  0.38078876  0.69075145  0.90790189  1
  O  O26  1  0.38078876  0.80924855  0.40790189  1
  O  O27  1  0.61921124  0.30924855  0.09209811  1
  O  O28  1  0.67732154  0.88167371  0.67651054  1
  O  O29  1  0.32267846  0.38167371  0.82348946  1
  O  O30  1  0.32267846  0.11832629  0.32348946  1
  O  O31  1  0.67732154  0.61832629  0.17651054  1
  O  O32  1  0.40240417  0.47782857  0.20076286  1
  O  O33  1  0.59759583  0.97782857  0.29923714  1
  O  O34  1  0.59759583  0.52217143  0.79923714  1
  O  O35  1  0.40240417  0.02217143  0.70076286  1
  O  O36  1  0.01112616  0.21380052  0.14231839  1
  O  O37  1  0.98887384  0.71380052  0.35768161  1
  O  O38  1  0.98887384  0.78619948  0.85768161  1
  O  O39  1  0.01112616  0.28619948  0.64231839  1
  O  O40  1  0.96641981  0.58057858  0.11100879  1
  O  O41  1  0.03358019  0.08057858  0.38899121  1
  O  O42  1  0.03358019  0.41942142  0.88899121  1
  O  O43  1  0.96641981  0.91942142  0.61100879  1
