# generated using pymatgen
data_Mn(SbS2)2
_symmetry_space_group_name_H-M   'P 1'
_cell_length_a   3.82943764
_cell_length_b   6.62177499
_cell_length_c   14.32374619
_cell_angle_alpha   87.37705060
_cell_angle_beta   82.31802353
_cell_angle_gamma   73.19263087
_symmetry_Int_Tables_number   1
_chemical_formula_structural   Mn(SbS2)2
_chemical_formula_sum   'Mn2 Sb4 S8'
_cell_volume   344.57091482
_cell_formula_units_Z   2
loop_
 _symmetry_equiv_pos_site_id
 _symmetry_equiv_pos_as_xyz
  1  'x, y, z'
loop_
 _atom_site_type_symbol
 _atom_site_label
 _atom_site_symmetry_multiplicity
 _atom_site_fract_x
 _atom_site_fract_y
 _atom_site_fract_z
 _atom_site_occupancy
  S  S0  1  0.38654651  0.76635794  0.46054905  1
  S  S1  1  0.61345349  0.23364206  0.53945095  1
  S  S2  1  0.00580777  0.15167696  0.83670749  1
  S  S3  1  0.99419223  0.84832304  0.16329251  1
  S  S4  1  0.34526617  0.27212359  0.03734407  1
  S  S5  1  0.65473383  0.72787641  0.96265593  1
  S  S6  1  0.15819694  0.35029729  0.33330884  1
  S  S7  1  0.84180306  0.64970271  0.66669116  1
  Mn  Mn8  1  0.00000000  0.50000000  0.50000000  1
  Mn  Mn9  1  0.00000000  0.00000000  0.00000000  1
  Sb  Sb10  1  0.35402961  0.41857607  0.87336472  1
  Sb  Sb11  1  0.64597039  0.58142393  0.12663528  1
  Sb  Sb12  1  0.23155842  0.91269280  0.62419036  1
  Sb  Sb13  1  0.76844158  0.08730720  0.37580964  1
