# generated using pymatgen
data_CaVBiO5
_symmetry_space_group_name_H-M   'P 1'
_cell_length_a   5.86148813
_cell_length_b   8.32997521
_cell_length_c   11.88559553
_cell_angle_alpha   90.00000000
_cell_angle_beta   90.00000000
_cell_angle_gamma   111.00310797
_symmetry_Int_Tables_number   1
_chemical_formula_structural   CaVBiO5
_chemical_formula_sum   'Ca4 V4 Bi4 O20'
_cell_volume   541.77035784
_cell_formula_units_Z   4
loop_
 _symmetry_equiv_pos_site_id
 _symmetry_equiv_pos_as_xyz
  1  'x, y, z'
loop_
 _atom_site_type_symbol
 _atom_site_label
 _atom_site_symmetry_multiplicity
 _atom_site_fract_x
 _atom_site_fract_y
 _atom_site_fract_z
 _atom_site_occupancy
  Ca  Ca0  1  0.64121582  0.18781255  0.91438144  1
  Ca  Ca1  1  0.35878418  0.81218745  0.08561856  1
  Ca  Ca2  1  0.85878418  0.31218745  0.41438144  1
  Ca  Ca3  1  0.14121582  0.68781255  0.58561856  1
  V  V4  1  0.80141569  0.97052950  0.64611803  1
  V  V5  1  0.19858431  0.02947050  0.35388197  1
  V  V6  1  0.69858431  0.52947050  0.14611803  1
  V  V7  1  0.30141569  0.47052950  0.85388197  1
  Bi  Bi8  1  0.13238210  0.16741633  0.09204811  1
  Bi  Bi9  1  0.86761790  0.83258367  0.90795189  1
  Bi  Bi10  1  0.63238210  0.66741633  0.40795189  1
  Bi  Bi11  1  0.36761790  0.33258367  0.59204811  1
  O  O12  1  0.55797365  0.33280480  0.07599534  1
  O  O13  1  0.07094476  0.32783925  0.94100686  1
  O  O14  1  0.48600918  0.61871803  0.18166745  1
  O  O15  1  0.74148885  0.51267817  0.52610678  1
  O  O16  1  0.81175996  0.49980884  0.27722305  1
  O  O17  1  0.31175996  0.99980884  0.22277695  1
  O  O18  1  0.57094476  0.82783925  0.55899314  1
  O  O19  1  0.42905524  0.17216075  0.44100686  1
  O  O20  1  0.25851115  0.48732183  0.47389322  1
  O  O21  1  0.94202635  0.16719520  0.57599534  1
  O  O22  1  0.18824004  0.50019116  0.72277695  1
  O  O23  1  0.44202635  0.66719520  0.92400466  1
  O  O24  1  0.05797365  0.83280480  0.42400466  1
  O  O25  1  0.68824004  0.00019116  0.77722305  1
  O  O26  1  0.75851115  0.98732183  0.02610678  1
  O  O27  1  0.24148885  0.01267817  0.97389322  1
  O  O28  1  0.51399082  0.38128197  0.81833255  1
  O  O29  1  0.92905524  0.67216075  0.05899314  1
  O  O30  1  0.01399082  0.88128197  0.68166745  1
  O  O31  1  0.98600918  0.11871803  0.31833255  1
