# generated using pymatgen
data_ThCr2O9
_symmetry_space_group_name_H-M   'P 1'
_cell_length_a   11.10562743
_cell_length_b   11.85081472
_cell_length_c   22.77866447
_cell_angle_alpha   90.00000000
_cell_angle_beta   90.00000000
_cell_angle_gamma   90.00000000
_symmetry_Int_Tables_number   1
_chemical_formula_structural   ThCr2O9
_chemical_formula_sum   'Th16 Cr32 O144'
_cell_volume   2997.91672817
_cell_formula_units_Z   16
loop_
 _symmetry_equiv_pos_site_id
 _symmetry_equiv_pos_as_xyz
  1  'x, y, z'
loop_
 _atom_site_type_symbol
 _atom_site_label
 _atom_site_symmetry_multiplicity
 _atom_site_fract_x
 _atom_site_fract_y
 _atom_site_fract_z
 _atom_site_occupancy
  Th  Th0  1  0.63317045  0.71485013  0.44637636  1
  Th  Th1  1  0.13317045  0.78514987  0.55362364  1
  Th  Th2  1  0.36682955  0.21485013  0.05362364  1
  Th  Th3  1  0.86682955  0.28514987  0.94637636  1
  Th  Th4  1  0.36682955  0.28514987  0.55362364  1
  Th  Th5  1  0.86682955  0.21485013  0.44637636  1
  Th  Th6  1  0.63317045  0.78514987  0.94637636  1
  Th  Th7  1  0.13317045  0.71485013  0.05362364  1
  Th  Th8  1  0.19430424  0.91798175  0.29704480  1
  Th  Th9  1  0.69430424  0.58201825  0.70295520  1
  Th  Th10  1  0.80569576  0.41798175  0.20295520  1
  Th  Th11  1  0.30569576  0.08201825  0.79704480  1
  Th  Th12  1  0.80569576  0.08201825  0.70295520  1
  Th  Th13  1  0.30569576  0.41798175  0.29704480  1
  Th  Th14  1  0.19430424  0.58201825  0.79704480  1
  Th  Th15  1  0.69430424  0.91798175  0.20295520  1
  Cr  Cr16  1  0.28359294  0.66259709  0.40973713  1
  Cr  Cr17  1  0.78359294  0.83740291  0.59026287  1
  Cr  Cr18  1  0.71640706  0.16259709  0.09026287  1
  Cr  Cr19  1  0.21640706  0.33740291  0.90973713  1
  Cr  Cr20  1  0.71640706  0.33740291  0.59026287  1
  Cr  Cr21  1  0.21640706  0.16259709  0.40973713  1
  Cr  Cr22  1  0.28359294  0.83740291  0.90973713  1
  Cr  Cr23  1  0.78359294  0.66259709  0.09026287  1
  Cr  Cr24  1  0.56612502  0.38310361  0.41702058  1
  Cr  Cr25  1  0.06612502  0.11689639  0.58297942  1
  Cr  Cr26  1  0.43387498  0.88310361  0.08297942  1
  Cr  Cr27  1  0.93387498  0.61689639  0.91702058  1
  Cr  Cr28  1  0.43387498  0.61689639  0.58297942  1
  Cr  Cr29  1  0.93387498  0.88310361  0.41702058  1
  Cr  Cr30  1  0.56612502  0.11689639  0.91702058  1
  Cr  Cr31  1  0.06612502  0.38310361  0.08297942  1
  Cr  Cr32  1  0.52990290  0.95612938  0.35642231  1
  Cr  Cr33  1  0.02990290  0.54387062  0.64357769  1
  Cr  Cr34  1  0.47009710  0.45612938  0.14357769  1
  Cr  Cr35  1  0.97009710  0.04387062  0.85642231  1
  Cr  Cr36  1  0.47009710  0.04387062  0.64357769  1
  Cr  Cr37  1  0.97009710  0.45612938  0.35642231  1
  Cr  Cr38  1  0.52990290  0.54387062  0.85642231  1
  Cr  Cr39  1  0.02990290  0.95612938  0.14357769  1
  Cr  Cr40  1  0.07833995  0.64283903  0.22116704  1
  Cr  Cr41  1  0.57833995  0.85716097  0.77883296  1
  Cr  Cr42  1  0.92166005  0.14283903  0.27883296  1
  Cr  Cr43  1  0.42166005  0.35716097  0.72116704  1
  Cr  Cr44  1  0.92166005  0.35716097  0.77883296  1
  Cr  Cr45  1  0.42166005  0.14283903  0.22116704  1
  Cr  Cr46  1  0.07833995  0.85716097  0.72116704  1
  Cr  Cr47  1  0.57833995  0.64283903  0.27883296  1
  O  O48  1  0.42739049  0.69479625  0.42045461  1
  O  O49  1  0.92739049  0.80520375  0.57954539  1
  O  O50  1  0.57260951  0.19479625  0.07954539  1
  O  O51  1  0.07260951  0.30520375  0.92045461  1
  O  O52  1  0.57260951  0.30520375  0.57954539  1
  O  O53  1  0.07260951  0.19479625  0.42045461  1
  O  O54  1  0.42739049  0.80520375  0.92045461  1
  O  O55  1  0.92739049  0.69479625  0.07954539  1
  O  O56  1  0.22327547  0.75450177  0.36347154  1
  O  O57  1  0.72327547  0.74549823  0.63652846  1
  O  O58  1  0.77672453  0.25450177  0.13652846  1
  O  O59  1  0.27672453  0.24549823  0.86347154  1
  O  O60  1  0.77672453  0.24549823  0.63652846  1
  O  O61  1  0.27672453  0.25450177  0.36347154  1
  O  O62  1  0.22327547  0.74549823  0.86347154  1
  O  O63  1  0.72327547  0.75450177  0.13652846  1
  O  O64  1  0.21587664  0.66962331  0.47498561  1
  O  O65  1  0.71587664  0.83037669  0.52501439  1
  O  O66  1  0.78412336  0.16962331  0.02501439  1
  O  O67  1  0.28412336  0.33037669  0.97498561  1
  O  O68  1  0.78412336  0.33037669  0.52501439  1
  O  O69  1  0.28412336  0.16962331  0.47498561  1
  O  O70  1  0.21587664  0.83037669  0.97498561  1
  O  O71  1  0.71587664  0.66962331  0.02501439  1
  O  O72  1  0.27705450  0.53179718  0.38255357  1
  O  O73  1  0.77705450  0.96820282  0.61744643  1
  O  O74  1  0.72294550  0.03179718  0.11744643  1
  O  O75  1  0.22294550  0.46820282  0.88255357  1
  O  O76  1  0.72294550  0.46820282  0.61744643  1
  O  O77  1  0.22294550  0.03179718  0.38255357  1
  O  O78  1  0.27705450  0.96820282  0.88255357  1
  O  O79  1  0.77705450  0.53179718  0.11744643  1
  O  O80  1  0.61458416  0.50899830  0.44135574  1
  O  O81  1  0.11458416  0.99100170  0.55864426  1
  O  O82  1  0.38541584  0.00899830  0.05864426  1
  O  O83  1  0.88541584  0.49100170  0.94135574  1
  O  O84  1  0.38541584  0.49100170  0.55864426  1
  O  O85  1  0.88541584  0.00899830  0.44135574  1
  O  O86  1  0.61458416  0.99100170  0.94135574  1
  O  O87  1  0.11458416  0.50899830  0.05864426  1
  O  O88  1  0.49186811  0.40108733  0.35473951  1
  O  O89  1  0.99186811  0.09891267  0.64526049  1
  O  O90  1  0.50813189  0.90108733  0.14526049  1
  O  O91  1  0.00813189  0.59891267  0.85473951  1
  O  O92  1  0.50813189  0.59891267  0.64526049  1
  O  O93  1  0.00813189  0.90108733  0.35473951  1
  O  O94  1  0.49186811  0.09891267  0.85473951  1
  O  O95  1  0.99186811  0.40108733  0.14526049  1
  O  O96  1  0.47381982  0.32567518  0.46609484  1
  O  O97  1  0.97381982  0.17432482  0.53390516  1
  O  O98  1  0.52618018  0.82567518  0.03390516  1
  O  O99  1  0.02618018  0.67432482  0.96609484  1
  O  O100  1  0.52618018  0.67432482  0.53390516  1
  O  O101  1  0.02618018  0.82567518  0.46609484  1
  O  O102  1  0.47381982  0.17432482  0.96609484  1
  O  O103  1  0.97381982  0.32567518  0.03390516  1
  O  O104  1  0.68277540  0.29745798  0.40619196  1
  O  O105  1  0.18277540  0.20254202  0.59380804  1
  O  O106  1  0.31722460  0.79745798  0.09380804  1
  O  O107  1  0.81722460  0.70254202  0.90619196  1
  O  O108  1  0.31722460  0.70254202  0.59380804  1
  O  O109  1  0.81722460  0.79745798  0.40619196  1
  O  O110  1  0.68277540  0.20254202  0.90619196  1
  O  O111  1  0.18277540  0.29745798  0.09380804  1
  O  O112  1  0.57487566  0.89296099  0.41968588  1
  O  O113  1  0.07487566  0.60703901  0.58031412  1
  O  O114  1  0.42512434  0.39296099  0.08031412  1
  O  O115  1  0.92512434  0.10703901  0.91968588  1
  O  O116  1  0.42512434  0.10703901  0.58031412  1
  O  O117  1  0.92512434  0.39296099  0.41968588  1
  O  O118  1  0.57487566  0.60703901  0.91968588  1
  O  O119  1  0.07487566  0.89296099  0.08031412  1
  O  O120  1  0.63937838  0.94445326  0.30486762  1
  O  O121  1  0.13937838  0.55554674  0.69513238  1
  O  O122  1  0.36062162  0.44445326  0.19513238  1
  O  O123  1  0.86062162  0.05554674  0.80486762  1
  O  O124  1  0.36062162  0.05554674  0.69513238  1
  O  O125  1  0.86062162  0.44445326  0.30486762  1
  O  O126  1  0.63937838  0.55554674  0.80486762  1
  O  O127  1  0.13937838  0.94445326  0.19513238  1
  O  O128  1  0.50508355  0.08677973  0.36987462  1
  O  O129  1  0.00508355  0.41322027  0.63012538  1
  O  O130  1  0.49491645  0.58677973  0.13012538  1
  O  O131  1  0.99491645  0.91322027  0.86987462  1
  O  O132  1  0.49491645  0.91322027  0.63012538  1
  O  O133  1  0.99491645  0.58677973  0.36987462  1
  O  O134  1  0.50508355  0.41322027  0.86987462  1
  O  O135  1  0.00508355  0.08677973  0.13012538  1
  O  O136  1  0.40315087  0.89569683  0.33128375  1
  O  O137  1  0.90315087  0.60430317  0.66871625  1
  O  O138  1  0.59684913  0.39569683  0.16871625  1
  O  O139  1  0.09684913  0.10430317  0.83128375  1
  O  O140  1  0.59684913  0.10430317  0.66871625  1
  O  O141  1  0.09684913  0.39569683  0.33128375  1
  O  O142  1  0.40315087  0.60430317  0.83128375  1
  O  O143  1  0.90315087  0.89569683  0.16871625  1
  O  O144  1  0.07030895  0.76160036  0.25984204  1
  O  O145  1  0.57030895  0.73839964  0.74015796  1
  O  O146  1  0.92969105  0.26160036  0.24015796  1
  O  O147  1  0.42969105  0.23839964  0.75984204  1
  O  O148  1  0.92969105  0.23839964  0.74015796  1
  O  O149  1  0.42969105  0.26160036  0.25984204  1
  O  O150  1  0.07030895  0.73839964  0.75984204  1
  O  O151  1  0.57030895  0.76160036  0.24015796  1
  O  O152  1  0.94319210  0.58445674  0.21535665  1
  O  O153  1  0.44319210  0.91554326  0.78464335  1
  O  O154  1  0.05680790  0.08445674  0.28464335  1
  O  O155  1  0.55680790  0.41554326  0.71535665  1
  O  O156  1  0.05680790  0.41554326  0.78464335  1
  O  O157  1  0.55680790  0.08445674  0.21535665  1
  O  O158  1  0.94319210  0.91554326  0.71535665  1
  O  O159  1  0.44319210  0.58445674  0.28464335  1
  O  O160  1  0.17360757  0.55541667  0.25426995  1
  O  O161  1  0.67360757  0.94458333  0.74573005  1
  O  O162  1  0.82639243  0.05541667  0.24573005  1
  O  O163  1  0.32639243  0.44458333  0.75426995  1
  O  O164  1  0.82639243  0.44458333  0.74573005  1
  O  O165  1  0.32639243  0.05541667  0.25426995  1
  O  O166  1  0.17360757  0.94458333  0.75426995  1
  O  O167  1  0.67360757  0.55541667  0.24573005  1
  O  O168  1  0.13228038  0.67376268  0.15452305  1
  O  O169  1  0.63228038  0.82623732  0.84547695  1
  O  O170  1  0.86771962  0.17376268  0.34547695  1
  O  O171  1  0.36771962  0.32623732  0.65452305  1
  O  O172  1  0.86771962  0.32623732  0.84547695  1
  O  O173  1  0.36771962  0.17376268  0.15452305  1
  O  O174  1  0.13228038  0.82623732  0.65452305  1
  O  O175  1  0.63228038  0.67376268  0.34547695  1
  O  O176  1  0.81652723  0.60380131  0.48602196  1
  O  O177  1  0.31652723  0.89619869  0.51397804  1
  O  O178  1  0.18347277  0.10380131  0.01397804  1
  O  O179  1  0.68347277  0.39619869  0.98602196  1
  O  O180  1  0.18347277  0.39619869  0.51397804  1
  O  O181  1  0.68347277  0.10380131  0.48602196  1
  O  O182  1  0.81652723  0.89619869  0.98602196  1
  O  O183  1  0.31652723  0.60380131  0.01397804  1
  O  O184  1  0.31551625  0.79615576  0.22847242  1
  O  O185  1  0.81551625  0.70384424  0.77152758  1
  O  O186  1  0.68448375  0.29615576  0.27152758  1
  O  O187  1  0.18448375  0.20384424  0.72847242  1
  O  O188  1  0.68448375  0.20384424  0.77152758  1
  O  O189  1  0.18448375  0.29615576  0.22847242  1
  O  O190  1  0.31551625  0.70384424  0.72847242  1
  O  O191  1  0.81551625  0.79615576  0.27152758  1
