# generated using pymatgen
data_CaLaFeMoO6
_symmetry_space_group_name_H-M   'P 1'
_cell_length_a   5.69632762
_cell_length_b   5.60513294
_cell_length_c   7.90975318
_cell_angle_alpha   89.23428646
_cell_angle_beta   90.00000000
_cell_angle_gamma   90.00000000
_symmetry_Int_Tables_number   1
_chemical_formula_structural   CaLaFeMoO6
_chemical_formula_sum   'Ca2 La2 Fe2 Mo2 O12'
_cell_volume   252.52537486
_cell_formula_units_Z   2
loop_
 _symmetry_equiv_pos_site_id
 _symmetry_equiv_pos_as_xyz
  1  'x, y, z'
loop_
 _atom_site_type_symbol
 _atom_site_label
 _atom_site_symmetry_multiplicity
 _atom_site_fract_x
 _atom_site_fract_y
 _atom_site_fract_z
 _atom_site_occupancy
  Ca  Ca0  1  0.54661273  0.51449225  0.25070445  1
  Ca  Ca1  1  0.95338727  0.01449225  0.75070445  1
  La  La2  1  0.03974258  0.98773000  0.24784116  1
  La  La3  1  0.46025742  0.48773000  0.74784116  1
  Fe  Fe4  1  0.50026937  0.99925656  0.00048280  1
  Fe  Fe5  1  0.99973063  0.49925656  0.50048280  1
  Mo  Mo6  1  0.50076087  0.00009520  0.49903349  1
  Mo  Mo7  1  0.99923913  0.50009520  0.99903349  1
  O  O8  1  0.02276027  0.59359779  0.74993606  1
  O  O9  1  0.21309929  0.19834839  0.94774938  1
  O  O10  1  0.20956196  0.20427884  0.54722879  1
  O  O11  1  0.29043804  0.70427884  0.04722879  1
  O  O12  1  0.28690071  0.69834839  0.44774938  1
  O  O13  1  0.47723973  0.09359779  0.24993506  1
  O  O14  1  0.52757338  0.91441998  0.75059118  1
  O  O15  1  0.71729854  0.29681988  0.55096593  1
  O  O16  1  0.71223539  0.29096010  0.95546676  1
  O  O17  1  0.78776461  0.79096010  0.45546676  1
  O  O18  1  0.78270146  0.79681988  0.05096593  1
  O  O19  1  0.97242662  0.41441998  0.25059118  1
