# generated using pymatgen
data_Mn5Zn4(TeO6)3
_symmetry_space_group_name_H-M   'P 1'
_cell_length_a   8.87695626
_cell_length_b   8.87695649
_cell_length_c   10.79210797
_cell_angle_alpha   87.40848178
_cell_angle_beta   87.40848085
_cell_angle_gamma   61.17444333
_symmetry_Int_Tables_number   1
_chemical_formula_structural   Mn5Zn4(TeO6)3
_chemical_formula_sum   'Mn10 Zn8 Te6 O36'
_cell_volume   744.01920764
_cell_formula_units_Z   2
loop_
 _symmetry_equiv_pos_site_id
 _symmetry_equiv_pos_as_xyz
  1  'x, y, z'
loop_
 _atom_site_type_symbol
 _atom_site_label
 _atom_site_symmetry_multiplicity
 _atom_site_fract_x
 _atom_site_fract_y
 _atom_site_fract_z
 _atom_site_occupancy
  Mn  Mn0  1  0.80713274  0.47468923  0.99053929  1
  Mn  Mn1  1  0.08261963  0.19932889  0.49093361  1
  Mn  Mn2  1  0.35290292  0.32557171  0.30575743  1
  Mn  Mn3  1  0.93380889  0.74438216  0.80561420  1
  Mn  Mn4  1  0.67442829  0.64709708  0.69424257  1
  Mn  Mn5  1  0.99874444  0.00125556  0.00000000  1
  Mn  Mn6  1  0.60986173  0.39013827  0.50000000  1
  Mn  Mn7  1  0.25561784  0.06619211  0.19438580  1
  Mn  Mn8  1  0.80067111  0.91738037  0.50906639  1
  Mn  Mn9  1  0.52531077  0.19286726  0.00946071  1
  Zn  Zn10  1  0.86186920  0.54204769  0.32290603  1
  Zn  Zn11  1  0.48055490  0.58075301  0.19708478  1
  Zn  Zn12  1  0.45795231  0.13813080  0.67709397  1
  Zn  Zn13  1  0.41924699  0.51944510  0.80291522  1
  Zn  Zn14  1  0.18980085  0.87203955  0.69710217  1
  Zn  Zn15  1  0.15027523  0.25299633  0.82284924  1
  Zn  Zn16  1  0.74700367  0.84972477  0.17715076  1
  Zn  Zn17  1  0.12796045  0.81019915  0.30289783  1
  Te  Te18  1  0.47083218  0.85689916  0.94495332  1
  Te  Te19  1  0.80434636  0.19626479  0.24991461  1
  Te  Te20  1  0.80373521  0.19565364  0.75008539  1
  Te  Te21  1  0.46515425  0.86232013  0.44489640  1
  Te  Te22  1  0.13767987  0.53484575  0.55510360  1
  Te  Te23  1  0.14310084  0.52916782  0.05504668  1
  O  O24  1  0.39978068  0.08265613  0.85423171  1
  O  O25  1  0.72829997  0.42266575  0.81674423  1
  O  O26  1  0.56053280  0.64156693  0.53053333  1
  O  O27  1  0.71863407  0.14937831  0.40666604  1
  O  O28  1  0.57733425  0.27170003  0.18325577  1
  O  O29  1  0.85062169  0.28136593  0.59333396  1
  O  O30  1  0.36856194  0.79439058  0.30597079  1
  O  O31  1  0.04763099  0.09893136  0.80136141  1
  O  O32  1  0.56016812  0.29233069  0.69863470  1
  O  O33  1  0.06752291  0.43363382  0.42187906  1
  O  O34  1  0.55582791  0.64304268  0.04134936  1
  O  O35  1  0.54136063  0.95806560  0.07806664  1
  O  O36  1  0.87810738  0.96904372  0.68342429  1
  O  O37  1  0.69507584  0.75733093  0.86221190  1
  O  O38  1  0.35695732  0.44417209  0.95865064  1
  O  O39  1  0.23954278  0.59731247  0.19391507  1
  O  O40  1  0.05224350  0.74894399  0.45881988  1
  O  O41  1  0.24266907  0.30492416  0.13778810  1
  O  O42  1  0.35843307  0.43946720  0.46946667  1
  O  O43  1  0.25105601  0.94775650  0.54118012  1
  O  O44  1  0.69115196  0.79142922  0.35432137  1
  O  O45  1  0.91344730  0.63365315  0.63785694  1
  O  O46  1  0.90106864  0.95236901  0.19863859  1
  O  O47  1  0.40268753  0.76045722  0.80608493  1
  O  O48  1  0.04727873  0.75005885  0.96948563  1
  O  O49  1  0.75744269  0.10999669  0.90717559  1
  O  O50  1  0.04193440  0.45863937  0.92193336  1
  O  O51  1  0.20560942  0.63143806  0.69402921  1
  O  O52  1  0.03095628  0.12189262  0.31657571  1
  O  O53  1  0.36634685  0.08655270  0.36214306  1
  O  O54  1  0.20857078  0.30884804  0.64567863  1
  O  O55  1  0.89000331  0.24255731  0.09282441  1
  O  O56  1  0.70766931  0.43983188  0.30136530  1
  O  O57  1  0.56636618  0.93247709  0.57812094  1
  O  O58  1  0.24994115  0.95272127  0.03051437  1
  O  O59  1  0.91734387  0.60021932  0.14576829  1
