# generated using pymatgen
data_SrMgNi(PO4)2
_symmetry_space_group_name_H-M   'P 1'
_cell_length_a   5.50701432
_cell_length_b   6.91385107
_cell_length_c   9.29782557
_cell_angle_alpha   111.11400281
_cell_angle_beta   101.18360428
_cell_angle_gamma   97.98988570
_symmetry_Int_Tables_number   1
_chemical_formula_structural   SrMgNi(PO4)2
_chemical_formula_sum   'Sr2 Mg2 Ni2 P4 O16'
_cell_volume   315.42359207
_cell_formula_units_Z   2
loop_
 _symmetry_equiv_pos_site_id
 _symmetry_equiv_pos_as_xyz
  1  'x, y, z'
loop_
 _atom_site_type_symbol
 _atom_site_label
 _atom_site_symmetry_multiplicity
 _atom_site_fract_x
 _atom_site_fract_y
 _atom_site_fract_z
 _atom_site_occupancy
  Sr  Sr0  1  0.25073275  0.80212536  0.05169656  1
  Sr  Sr1  1  0.74926725  0.19787464  0.94830344  1
  Mg  Mg2  1  0.98482933  0.38832916  0.65547816  1
  Mg  Mg3  1  0.01517067  0.61167084  0.34452184  1
  Ni  Ni4  1  0.64092139  0.85332157  0.56051885  1
  Ni  Ni5  1  0.35907861  0.14667843  0.43948115  1
  P  P6  1  0.39738567  0.42551818  0.23878595  1
  P  P7  1  0.60261433  0.57448182  0.76121405  1
  P  P8  1  0.84420870  0.02631717  0.30375307  1
  P  P9  1  0.15579130  0.97368283  0.69624693  1
  O  O10  1  0.82034913  0.54721523  0.88232324  1
  O  O11  1  0.66091956  0.47266880  0.20717211  1
  O  O12  1  0.66202161  0.80078533  0.76410259  1
  O  O13  1  0.95571123  0.11731143  0.69575688  1
  O  O14  1  0.33908044  0.52733120  0.79282789  1
  O  O15  1  0.99848315  0.74541656  0.57389586  1
  O  O16  1  0.00151685  0.25458344  0.42610414  1
  O  O17  1  0.25940219  0.99488728  0.86633005  1
  O  O18  1  0.33797839  0.19921467  0.23589741  1
  O  O19  1  0.74059781  0.00511272  0.13366995  1
  O  O20  1  0.17965087  0.45278477  0.11767676  1
  O  O21  1  0.38295622  0.59237321  0.40288382  1
  O  O22  1  0.61704378  0.40762679  0.59711618  1
  O  O23  1  0.62138571  0.95454463  0.36952210  1
  O  O24  1  0.04428877  0.88268857  0.30424312  1
  O  O25  1  0.37861429  0.04545537  0.63047790  1
