# generated using pymatgen
data_MgCuAs2O7
_symmetry_space_group_name_H-M   'P 1'
_cell_length_a   7.20986634
_cell_length_b   8.49696411
_cell_length_c   9.77614563
_cell_angle_alpha   90.00000000
_cell_angle_beta   112.34516499
_cell_angle_gamma   90.00000000
_symmetry_Int_Tables_number   1
_chemical_formula_structural   MgCuAs2O7
_chemical_formula_sum   'Mg4 Cu4 As8 O28'
_cell_volume   553.93433106
_cell_formula_units_Z   4
loop_
 _symmetry_equiv_pos_site_id
 _symmetry_equiv_pos_as_xyz
  1  'x, y, z'
loop_
 _atom_site_type_symbol
 _atom_site_label
 _atom_site_symmetry_multiplicity
 _atom_site_fract_x
 _atom_site_fract_y
 _atom_site_fract_z
 _atom_site_occupancy
  Mg  Mg0  1  0.26746628  0.92659064  0.89868819  1
  Mg  Mg1  1  0.73253372  0.42659064  0.60131181  1
  Mg  Mg2  1  0.73253372  0.07340936  0.10131181  1
  Mg  Mg3  1  0.26746628  0.57340936  0.39868819  1
  Cu  Cu4  1  0.79837920  0.05828599  0.66929555  1
  Cu  Cu5  1  0.20162080  0.55828599  0.83070445  1
  Cu  Cu6  1  0.20162080  0.94171401  0.33070445  1
  Cu  Cu7  1  0.79837920  0.44171401  0.16929555  1
  As  As8  1  0.43920420  0.22602821  0.75398130  1
  As  As9  1  0.56079580  0.72602821  0.74601870  1
  As  As10  1  0.56079580  0.77397179  0.24601870  1
  As  As11  1  0.43920420  0.27397179  0.25398030  1
  As  As12  1  0.03494889  0.27794338  0.96448843  1
  As  As13  1  0.96505111  0.77794338  0.53551157  1
  As  As14  1  0.96505111  0.72205662  0.03551157  1
  As  As15  1  0.03494889  0.22205662  0.46448843  1
  O  O16  1  0.85855657  0.27437803  0.04387967  1
  O  O17  1  0.14144343  0.77437803  0.45612033  1
  O  O18  1  0.14144343  0.72562197  0.95612033  1
  O  O19  1  0.85855657  0.22562197  0.54387967  1
  O  O20  1  0.36369983  0.41081162  0.77097624  1
  O  O21  1  0.63630017  0.91081162  0.72902376  1
  O  O22  1  0.63630017  0.58918838  0.22902376  1
  O  O23  1  0.36369983  0.08918838  0.27097624  1
  O  O24  1  0.47151780  0.09919370  0.89568422  1
  O  O25  1  0.52848220  0.59919370  0.60431578  1
  O  O26  1  0.52848220  0.90080630  0.10431578  1
  O  O27  1  0.47151780  0.40080630  0.39568422  1
  O  O28  1  0.25660337  0.13504669  0.59474987  1
  O  O29  1  0.74339663  0.63504669  0.90525013  1
  O  O30  1  0.74339663  0.86495331  0.40525013  1
  O  O31  1  0.25660337  0.36495331  0.09474987  1
  O  O32  1  0.98802514  0.08294969  0.32768657  1
  O  O33  1  0.01197486  0.58294969  0.17231343  1
  O  O34  1  0.01197486  0.91705031  0.67231343  1
  O  O35  1  0.98802514  0.41705031  0.82768657  1
  O  O36  1  0.64344432  0.26334746  0.20298295  1
  O  O37  1  0.35655568  0.76334746  0.29701705  1
  O  O38  1  0.35655568  0.73665254  0.79701705  1
  O  O39  1  0.64344432  0.23665254  0.70298295  1
  O  O40  1  0.07022676  0.40218605  0.40629091  1
  O  O41  1  0.92977424  0.90218605  0.09370909  1
  O  O42  1  0.92977424  0.59781395  0.59370909  1
  O  O43  1  0.07022676  0.09781395  0.90629091  1
