# generated using pymatgen
data_CaFe2(PO4)2
_symmetry_space_group_name_H-M   'P 1'
_cell_length_a   5.05437634
_cell_length_b   9.10097335
_cell_length_c   15.20614457
_cell_angle_alpha   84.50186362
_cell_angle_beta   80.33465721
_cell_angle_gamma   73.90866318
_symmetry_Int_Tables_number   1
_chemical_formula_structural   CaFe2(PO4)2
_chemical_formula_sum   'Ca4 Fe8 P8 O32'
_cell_volume   661.63671861
_cell_formula_units_Z   4
loop_
 _symmetry_equiv_pos_site_id
 _symmetry_equiv_pos_as_xyz
  1  'x, y, z'
loop_
 _atom_site_type_symbol
 _atom_site_label
 _atom_site_symmetry_multiplicity
 _atom_site_fract_x
 _atom_site_fract_y
 _atom_site_fract_z
 _atom_site_occupancy
  Ca  Ca0  1  0.47725114  0.83184588  0.85832076  1
  Ca  Ca1  1  0.16394231  0.66961469  0.64059950  1
  Ca  Ca2  1  0.83319291  0.33135919  0.35857752  1
  Ca  Ca3  1  0.52302876  0.16930458  0.14055787  1
  Fe  Fe4  1  0.19002181  0.22673463  0.96051782  1
  Fe  Fe5  1  0.37577619  0.27368375  0.53909575  1
  Fe  Fe6  1  0.80956648  0.77405761  0.03847501  1
  Fe  Fe7  1  0.50014354  0.50057107  0.99975712  1
  Fe  Fe8  1  0.62167409  0.72608135  0.46075201  1
  Fe  Fe9  1  0.65882413  0.75083747  0.24919166  1
  Fe  Fe10  1  0.33764333  0.25039125  0.74989118  1
  Fe  Fe11  1  0.99784230  0.00168978  0.50034522  1
  P  P12  1  0.04927473  0.56739143  0.86802038  1
  P  P13  1  0.77001787  0.42299340  0.61090209  1
  P  P14  1  0.95158262  0.43376926  0.13154919  1
  P  P15  1  0.19328518  0.92288393  0.11018274  1
  P  P16  1  0.51520614  0.06647923  0.36789912  1
  P  P17  1  0.48079223  0.93399202  0.63182454  1
  P  P18  1  0.22869153  0.57688189  0.38965216  1
  P  P19  1  0.80457475  0.07812802  0.88878917  1
  O  O20  1  0.69761939  0.39332052  0.10448375  1
  O  O21  1  0.81671649  0.91128862  0.92704644  1
  O  O22  1  0.80252299  0.89390578  0.60470416  1
  O  O23  1  0.79647675  0.30531993  0.53887543  1
  O  O24  1  0.19830206  0.39227359  0.05254491  1
  O  O25  1  0.56360115  0.40089317  0.69393329  1
  O  O26  1  0.64165266  0.19520058  0.96117214  1
  O  O27  1  0.88463592  0.91185443  0.13264879  1
  O  O28  1  0.20167889  0.69353923  0.46220117  1
  O  O29  1  0.65302782  0.58967214  0.57259213  1
  O  O30  1  0.87875502  0.61031921  0.14256637  1
  O  O31  1  0.60314826  0.15918137  0.28493318  1
  O  O32  1  0.18166907  0.08972969  0.07199515  1
  O  O33  1  0.06720938  0.41235141  0.63305253  1
  O  O34  1  0.30252489  0.60846097  0.89515956  1
  O  O35  1  0.12338368  0.39089888  0.85698644  1
  O  O36  1  0.95107889  0.66036091  0.78531636  1
  O  O37  1  0.35690453  0.80575475  0.03790231  1
  O  O38  1  0.36579217  0.11036497  0.64307463  1
  O  O39  1  0.39378423  0.84045262  0.71452718  1
  O  O40  1  0.93202842  0.58773828  0.36721721  1
  O  O41  1  0.35523639  0.89271036  0.55274920  1
  O  O42  1  0.11279214  0.08968268  0.86594969  1
  O  O43  1  0.33842120  0.90060958  0.19310179  1
  O  O44  1  0.34638568  0.40984923  0.42735482  1
  O  O45  1  0.19345676  0.10786756  0.39522664  1
  O  O46  1  0.04921679  0.34068021  0.21430818  1
  O  O47  1  0.64140237  0.10747707  0.44687642  1
  O  O48  1  0.80273741  0.60821967  0.94710437  1
  O  O49  1  0.65797554  0.09999653  0.80615988  1
  O  O50  1  0.43612904  0.59965175  0.30693841  1
  O  O51  1  0.62759292  0.88991183  0.35677266  1
