# generated using pymatgen
data_BaSr7Ti7MnO24
_symmetry_space_group_name_H-M   'P 1'
_cell_length_a   7.89242427
_cell_length_b   7.89242427
_cell_length_c   7.89242427
_cell_angle_alpha   89.98337819
_cell_angle_beta   90.01662181
_cell_angle_gamma   89.98337819
_symmetry_Int_Tables_number   1
_chemical_formula_structural   BaSr7Ti7MnO24
_chemical_formula_sum   'Ba1 Sr7 Ti7 Mn1 O24'
_cell_volume   491.62189301
_cell_formula_units_Z   1
loop_
 _symmetry_equiv_pos_site_id
 _symmetry_equiv_pos_as_xyz
  1  'x, y, z'
loop_
 _atom_site_type_symbol
 _atom_site_label
 _atom_site_symmetry_multiplicity
 _atom_site_fract_x
 _atom_site_fract_y
 _atom_site_fract_z
 _atom_site_occupancy
  Ba  Ba0  1  0.24864889  0.75135111  0.24864889  1
  Sr  Sr1  1  0.24858847  0.24869319  0.24858847  1
  Sr  Sr2  1  0.24856584  0.24857651  0.75142349  1
  Sr  Sr3  1  0.24858847  0.75141153  0.75130681  1
  Sr  Sr4  1  0.75142349  0.24857651  0.24856584  1
  Sr  Sr5  1  0.75145580  0.24854420  0.75145580  1
  Sr  Sr6  1  0.75130681  0.75141153  0.24858847  1
  Sr  Sr7  1  0.75142349  0.75143416  0.75142349  1
  Ti  Ti8  1  0.99872594  0.00127406  0.50175322  1
  Ti  Ti9  1  0.99872594  0.49824678  0.99872594  1
  Ti  Ti10  1  0.99870667  0.49872012  0.50127988  1
  Ti  Ti11  1  0.50175322  0.00127406  0.99872594  1
  Ti  Ti12  1  0.50127988  0.00129333  0.50127988  1
  Ti  Ti13  1  0.50127988  0.49872012  0.99870667  1
  Ti  Ti14  1  0.50126727  0.49873273  0.50126727  1
  Mn  Mn15  1  0.99893630  0.00106370  0.99893630  1
  O  O16  1  0.24707869  0.00422643  0.99577357  1
  O  O17  1  0.24956820  0.00380852  0.50380109  1
  O  O18  1  0.24956820  0.49619891  0.99619148  1
  O  O19  1  0.24949382  0.49620097  0.50379903  1
  O  O20  1  0.75309974  0.00068240  -0.00068240  1
  O  O21  1  0.75032468  0.00085760  0.50081310  1
  O  O22  1  0.75032468  0.49918690  -0.00085760  1
  O  O23  1  0.75051020  0.49916055  0.50083945  1
  O  O24  1  -0.00068240  0.24690026  -0.00068240  1
  O  O25  1  -0.00085760  0.24967532  0.50081310  1
  O  O26  1  0.99577357  0.75292131  0.99577357  1
  O  O27  1  0.99619148  0.75043180  0.50380109  1
  O  O28  1  0.50081310  0.24967532  -0.00085760  1
  O  O29  1  0.50083945  0.24948980  0.50083945  1
  O  O30  1  0.50380109  0.75043180  0.99619148  1
  O  O31  1  0.50379903  0.75050618  0.50379903  1
  O  O32  1  0.99577357  0.00422643  0.24707869  1
  O  O33  1  -0.00068240  0.00068240  0.75309974  1
  O  O34  1  0.99619148  0.49619891  0.24956820  1
  O  O35  1  -0.00085760  0.49918690  0.75032468  1
  O  O36  1  0.50380109  0.00380852  0.24956820  1
  O  O37  1  0.50081310  0.00085760  0.75032468  1
  O  O38  1  0.50379903  0.49620097  0.24949382  1
  O  O39  1  0.50083945  0.49916055  0.75051020  1
