# generated using pymatgen
data_Sr7CaTi8O24
_symmetry_space_group_name_H-M   'P 1'
_cell_length_a   7.87507798
_cell_length_b   7.87507798
_cell_length_c   7.87507798
_cell_angle_alpha   90.00000000
_cell_angle_beta   90.00000000
_cell_angle_gamma   90.00000000
_symmetry_Int_Tables_number   1
_chemical_formula_structural   Sr7CaTi8O24
_chemical_formula_sum   'Sr7 Ca1 Ti8 O24'
_cell_volume   488.38755495
_cell_formula_units_Z   1
loop_
 _symmetry_equiv_pos_site_id
 _symmetry_equiv_pos_as_xyz
  1  'x, y, z'
loop_
 _atom_site_type_symbol
 _atom_site_label
 _atom_site_symmetry_multiplicity
 _atom_site_fract_x
 _atom_site_fract_y
 _atom_site_fract_z
 _atom_site_occupancy
  Sr  Sr0  1  0.25000000  0.25000000  0.25000000  1
  Sr  Sr1  1  0.25000000  0.25000000  0.75000000  1
  Sr  Sr2  1  0.25000000  0.75000000  0.75000000  1
  Sr  Sr3  1  0.75000000  0.25000000  0.25000000  1
  Sr  Sr4  1  0.75000000  0.25000000  0.75000000  1
  Sr  Sr5  1  0.75000000  0.75000000  0.25000000  1
  Sr  Sr6  1  0.75000000  0.75000000  0.75000000  1
  Ca  Ca7  1  0.25000000  0.75000000  0.25000000  1
  Ti  Ti8  1  0.00065611  0.99934389  0.00065611  1
  Ti  Ti9  1  0.00065611  0.99934389  0.49934389  1
  Ti  Ti10  1  0.00065611  0.50065611  0.00065611  1
  Ti  Ti11  1  0.00065611  0.50065611  0.49934389  1
  Ti  Ti12  1  0.49934389  0.99934389  0.00065611  1
  Ti  Ti13  1  0.49934389  0.99934389  0.49934389  1
  Ti  Ti14  1  0.49934389  0.50065611  0.00065611  1
  Ti  Ti15  1  0.49934389  0.50065611  0.49934389  1
  O  O16  1  0.25000000  0.99823528  0.00176472  1
  O  O17  1  0.25000000  0.99823528  0.49823528  1
  O  O18  1  0.25000000  0.50176472  0.00176472  1
  O  O19  1  0.25000000  0.50176472  0.49823528  1
  O  O20  1  0.75000000  -0.00025500  0.00025500  1
  O  O21  1  0.75000000  -0.00025500  0.49974500  1
  O  O22  1  0.75000000  0.50025500  0.00025500  1
  O  O23  1  0.75000000  0.50025500  0.49974500  1
  O  O24  1  0.00025500  0.25000000  0.00025500  1
  O  O25  1  0.00025500  0.25000000  0.49974500  1
  O  O26  1  0.00176472  0.75000000  0.00176472  1
  O  O27  1  0.00176472  0.75000000  0.49823528  1
  O  O28  1  0.49974500  0.25000000  0.00025500  1
  O  O29  1  0.49974500  0.25000000  0.49974500  1
  O  O30  1  0.49823528  0.75000000  0.00176472  1
  O  O31  1  0.49823528  0.75000000  0.49823528  1
  O  O32  1  0.00176472  0.99823528  0.25000000  1
  O  O33  1  0.00025500  -0.00025500  0.75000000  1
  O  O34  1  0.00176472  0.50176472  0.25000000  1
  O  O35  1  0.00025500  0.50025500  0.75000000  1
  O  O36  1  0.49823528  0.99823528  0.25000000  1
  O  O37  1  0.49974500  -0.00025500  0.75000000  1
  O  O38  1  0.49823528  0.50176472  0.25000000  1
  O  O39  1  0.49974500  0.50025500  0.75000000  1
