# generated using pymatgen
data_ZnH24C6(N7O6)2
_symmetry_space_group_name_H-M   'P 1'
_cell_length_a   7.85179367
_cell_length_b   12.67068814
_cell_length_c   12.67068814
_cell_angle_alpha   92.60918898
_cell_angle_beta   103.47649494
_cell_angle_gamma   103.47649494
_symmetry_Int_Tables_number   1
_chemical_formula_structural   ZnH24C6(N7O6)2
_chemical_formula_sum   'Zn2 H48 C12 N28 O24'
_cell_volume   1185.45264977
_cell_formula_units_Z   2
loop_
 _symmetry_equiv_pos_site_id
 _symmetry_equiv_pos_as_xyz
  1  'x, y, z'
loop_
 _atom_site_type_symbol
 _atom_site_label
 _atom_site_symmetry_multiplicity
 _atom_site_fract_x
 _atom_site_fract_y
 _atom_site_fract_z
 _atom_site_occupancy
  Zn  Zn0  1  0.25000000  0.17790515  0.82209485  1
  Zn  Zn1  1  0.75000000  0.82209485  0.17790515  1
  H  H2  1  0.27072884  0.38753901  0.12383512  1
  H  H3  1  0.22927116  0.87616488  0.61246099  1
  H  H4  1  0.72927116  0.61246099  0.87616488  1
  H  H5  1  0.77072884  0.12383512  0.38753901  1
  H  H6  1  0.05028361  0.39820131  0.10372430  1
  H  H7  1  0.44971639  0.89627570  0.60179869  1
  H  H8  1  0.94971639  0.60179869  0.89627570  1
  H  H9  1  0.55028361  0.10372430  0.39820131  1
  H  H10  1  0.93276836  0.27098740  0.82873615  1
  H  H11  1  0.56723164  0.17126385  0.72901260  1
  H  H12  1  0.06723164  0.72901260  0.17126385  1
  H  H13  1  0.43276836  0.82873615  0.27098740  1
  H  H14  1  0.84109392  0.31812711  0.93257850  1
  H  H15  1  0.65890608  0.06742150  0.68187289  1
  H  H16  1  0.15890608  0.68187289  0.06742150  1
  H  H17  1  0.34109392  0.93257850  0.31812711  1
  H  H18  1  0.85838961  0.92849304  0.96231180  1
  H  H19  1  0.64161039  0.03768820  0.07150696  1
  H  H20  1  0.14161039  0.07150696  0.03768820  1
  H  H21  1  0.35838961  0.96231180  0.92849304  1
  H  H22  1  0.73378616  0.84805600  0.83846560  1
  H  H23  1  0.76621384  0.16153440  0.15194400  1
  H  H24  1  0.26621384  0.15194400  0.16153440  1
  H  H25  1  0.23378616  0.83846560  0.84805600  1
  H  H26  1  0.99032728  0.99053793  0.67858081  1
  H  H27  1  0.50967272  0.32141919  0.00946207  1
  H  H28  1  0.00967272  0.00946207  0.32141919  1
  H  H29  1  0.49032728  0.67858081  0.99053793  1
  H  H30  1  0.79870283  0.88799775  0.67803292  1
  H  H31  1  0.70129717  0.32196708  0.11200225  1
  H  H32  1  0.20129717  0.11200225  0.32196708  1
  H  H33  1  0.29870283  0.67803292  0.88799775  1
  H  H34  1  0.93341691  0.39426299  0.65916589  1
  H  H35  1  0.56658309  0.34083411  0.60573701  1
  H  H36  1  0.06658309  0.60573701  0.34083411  1
  H  H37  1  0.43341691  0.65916589  0.39426299  1
  H  H38  1  0.95639663  0.37765015  0.52732392  1
  H  H39  1  0.54360337  0.47267608  0.62234985  1
  H  H40  1  0.04360337  0.62234985  0.47267608  1
  H  H41  1  0.45639663  0.52732392  0.37765015  1
  H  H42  1  0.16617938  0.16378561  0.57315394  1
  H  H43  1  0.33382062  0.42684606  0.83621439  1
  H  H44  1  0.83382062  0.83621439  0.42684606  1
  H  H45  1  0.66617938  0.57315394  0.16378561  1
  H  H46  1  0.11088283  0.25973493  0.48255863  1
  H  H47  1  0.38911717  0.51744137  0.74026507  1
  H  H48  1  0.88911717  0.74026507  0.51744137  1
  H  H49  1  0.61088283  0.48255863  0.25973493  1
  C  C50  1  0.11714140  0.33118969  0.97068503  1
  C  C51  1  0.38285860  0.02931497  0.66881031  1
  C  C52  1  0.88285860  0.66881031  0.02931497  1
  C  C53  1  0.61714140  0.97068503  0.33118969  1
  C  C54  1  0.93004139  0.98072273  0.82434012  1
  C  C55  1  0.56995861  0.17565988  0.01927727  1
  C  C56  1  0.06995861  0.01927727  0.17565988  1
  C  C57  1  0.43004139  0.82434012  0.98072273  1
  C  C58  1  0.02824264  0.26334180  0.62456291  1
  C  C59  1  0.47175736  0.37543709  0.73665820  1
  C  C60  1  0.97175736  0.73665820  0.37543709  1
  C  C61  1  0.52824264  0.62456291  0.26334180  1
  N  N62  1  0.15130730  0.38575640  0.07034435  1
  N  N63  1  0.34869270  0.92965565  0.61424360  1
  N  N64  1  0.84869270  0.61424360  0.92965565  1
  N  N65  1  0.65130730  0.07034435  0.38575640  1
  N  N66  1  0.94835264  0.30592073  0.90588978  1
  N  N67  1  0.55164736  0.09411022  0.69407927  1
  N  N68  1  0.05164736  0.69407927  0.09411022  1
  N  N69  1  0.44835264  0.90588978  0.30592073  1
  N  N70  1  0.82649620  0.91701386  0.87886948  1
  N  N71  1  0.67350380  0.12113052  0.08298614  1
  N  N72  1  0.17350380  0.08298614  0.12113052  1
  N  N73  1  0.32649620  0.87886948  0.91701386  1
  N  N74  1  0.88571617  0.96116110  0.71306980  1
  N  N75  1  0.61428383  0.28693020  0.03883890  1
  N  N76  1  0.11428383  0.03883890  0.28693020  1
  N  N77  1  0.38571617  0.71306980  0.96116110  1
  N  N78  1  0.94621272  0.34427140  0.59800171  1
  N  N79  1  0.55378728  0.40199829  0.65572860  1
  N  N80  1  0.05378728  0.65572860  0.40199829  1
  N  N81  1  0.44621272  0.59800171  0.34427140  1
  N  N82  1  0.09352747  0.21891621  0.54840402  1
  N  N83  1  0.40647253  0.45159598  0.78108379  1
  N  N84  1  0.90647253  0.78108379  0.45159598  1
  N  N85  1  0.59352747  0.54840402  0.21891621  1
  N  N86  1  0.96788378  0.36043422  0.30356429  1
  N  N87  1  0.53211622  0.69643571  0.63956578  1
  N  N88  1  0.03211622  0.63956578  0.69643571  1
  N  N89  1  0.46788378  0.30356429  0.36043422  1
  O  O90  1  0.24845368  0.30824812  0.93782191  1
  O  O91  1  0.25154632  0.06217809  0.69175188  1
  O  O92  1  0.75154632  0.69175188  0.06217809  1
  O  O93  1  0.74845368  0.93782191  0.30824812  1
  O  O94  1  0.06163368  0.05963659  0.87502670  1
  O  O95  1  0.43836632  0.12497330  0.94036341  1
  O  O96  1  0.93836632  0.94036341  0.12497330  1
  O  O97  1  0.56163368  0.87502670  0.05963659  1
  O  O98  1  0.03570730  0.22681864  0.71745018  1
  O  O99  1  0.46429270  0.28254982  0.77318136  1
  O  O100  1  0.96429270  0.77318136  0.28254982  1
  O  O101  1  0.53570730  0.71745018  0.22681864  1
  O  O102  1  0.06943543  0.40339195  0.39574029  1
  O  O103  1  0.43056457  0.60425971  0.59660805  1
  O  O104  1  0.93056457  0.59660805  0.60425971  1
  O  O105  1  0.56943543  0.39574029  0.40339195  1
  O  O106  1  0.90292344  0.25777072  0.28651273  1
  O  O107  1  0.59707656  0.71348727  0.74222928  1
  O  O108  1  0.09707656  0.74222928  0.71348727  1
  O  O109  1  0.40292344  0.28651273  0.25777072  1
  O  O110  1  0.93086903  0.42056670  0.22769812  1
  O  O111  1  0.56913097  0.77230188  0.57943330  1
  O  O112  1  0.06913097  0.57943330  0.77230188  1
  O  O113  1  0.43086903  0.22769812  0.42056670  1
