# generated using pymatgen
data_Sr6Ca2Fe7CoO20
_symmetry_space_group_name_H-M   'P 1'
_cell_length_a   11.06490816
_cell_length_b   11.46105273
_cell_length_c   17.48151683
_cell_angle_alpha   109.07315098
_cell_angle_beta   108.59679516
_cell_angle_gamma   89.88517931
_symmetry_Int_Tables_number   1
_chemical_formula_structural   Sr6Ca2Fe7CoO20
_chemical_formula_sum   'Sr24 Ca8 Fe28 Co4 O80'
_cell_volume   1972.85410950
_cell_formula_units_Z   4
loop_
 _symmetry_equiv_pos_site_id
 _symmetry_equiv_pos_as_xyz
  1  'x, y, z'
loop_
 _atom_site_type_symbol
 _atom_site_label
 _atom_site_symmetry_multiplicity
 _atom_site_fract_x
 _atom_site_fract_y
 _atom_site_fract_z
 _atom_site_occupancy
  Sr  Sr0  1  0.30650435  0.06427464  0.61000516  1
  Sr  Sr1  1  0.30615140  0.56418021  0.61038583  1
  Sr  Sr2  1  0.80729769  0.06478904  0.61041395  1
  Sr  Sr3  1  0.80793466  0.56444540  0.61147834  1
  Sr  Sr4  1  0.19525849  0.43433071  0.38834806  1
  Sr  Sr5  1  0.19552649  0.43757382  0.89400470  1
  Sr  Sr6  1  0.19511773  0.93512970  0.38750621  1
  Sr  Sr7  1  0.69532705  0.43561915  0.38754115  1
  Sr  Sr8  1  0.70197254  0.43785944  0.89400807  1
  Sr  Sr9  1  0.69516468  0.93376415  0.38817951  1
  Sr  Sr10  1  0.70062099  0.93615020  0.89591697  1
  Sr  Sr11  1  0.05649195  0.29020894  0.10963533  1
  Sr  Sr12  1  0.05833428  0.29558291  0.61050531  1
  Sr  Sr13  1  0.05814352  0.79744520  0.61159707  1
  Sr  Sr14  1  0.55497481  0.29512645  0.60919777  1
  Sr  Sr15  1  0.55806952  0.79777333  0.10778107  1
  Sr  Sr16  1  0.55579201  0.79656707  0.61016584  1
  Sr  Sr17  1  0.44554299  0.20257180  0.38611160  1
  Sr  Sr18  1  0.44927439  0.20491124  0.89420200  1
  Sr  Sr19  1  0.44534600  0.70241585  0.38649518  1
  Sr  Sr20  1  0.45263597  0.71137132  0.89585046  1
  Sr  Sr21  1  0.94335182  0.20336904  0.38638788  1
  Sr  Sr22  1  0.94879320  0.20459909  0.89412421  1
  Sr  Sr23  1  0.94406875  0.70204297  0.38658055  1
  Ca  Ca24  1  0.30141570  0.06354261  0.10257619  1
  Ca  Ca25  1  0.29657662  0.56868367  0.10468153  1
  Ca  Ca26  1  0.79966391  0.06035182  0.10245039  1
  Ca  Ca27  1  0.80510646  0.57164183  0.10414905  1
  Ca  Ca28  1  0.20085813  0.93592098  0.89888165  1
  Ca  Ca29  1  0.04699197  0.78975057  0.10391948  1
  Ca  Ca30  1  0.55248503  0.28180162  0.10368938  1
  Ca  Ca31  1  0.94581055  0.71546251  0.89786935  1
  Fe  Fe32  1  0.00302082  0.99886260  0.49803320  1
  Fe  Fe33  1  0.00307272  0.50031234  0.49977397  1
  Fe  Fe34  1  0.50323822  0.99963406  0.49878757  1
  Fe  Fe35  1  0.50897681  0.50309813  0.00637198  1
  Fe  Fe36  1  0.50414546  0.50027457  0.49976637  1
  Fe  Fe37  1  0.25822027  0.25014541  0.00430843  1
  Fe  Fe38  1  0.25233782  0.24852732  0.49776443  1
  Fe  Fe39  1  0.25410574  0.75321141  0.00194968  1
  Fe  Fe40  1  0.25221131  0.74921481  0.49815448  1
  Fe  Fe41  1  0.75740247  0.25233738  0.00593880  1
  Fe  Fe42  1  0.75403970  0.25035703  0.49995873  1
  Fe  Fe43  1  0.75427202  0.74971066  0.50055258  1
  Fe  Fe44  1  0.10359378  0.08482806  0.24484446  1
  Fe  Fe45  1  0.11030202  0.08944211  0.75478854  1
  Fe  Fe46  1  0.10357696  0.59069005  0.24576477  1
  Fe  Fe47  1  0.10804631  0.59762111  0.75528370  1
  Fe  Fe48  1  0.60229270  0.08947298  0.24395317  1
  Fe  Fe49  1  0.60963248  0.09064425  0.75292753  1
  Fe  Fe50  1  0.60281742  0.58363923  0.24305150  1
  Fe  Fe51  1  0.61001066  0.59152623  0.75098387  1
  Fe  Fe52  1  0.35714803  0.40852402  0.24512543  1
  Fe  Fe53  1  0.35938773  0.41264802  0.75340023  1
  Fe  Fe54  1  0.35003944  0.90679064  0.24332401  1
  Fe  Fe55  1  0.35837695  0.91134435  0.75604646  1
  Fe  Fe56  1  0.85020651  0.40661821  0.24299861  1
  Fe  Fe57  1  0.85984406  0.41425853  0.75292073  1
  Fe  Fe58  1  0.85829993  0.91032048  0.24714264  1
  Fe  Fe59  1  0.86047752  0.90657733  0.75162864  1
  Co  Co60  1  0.00834375  0.00005710  0.00395171  1
  Co  Co61  1  0.00640047  0.50424286  0.00413309  1
  Co  Co62  1  0.50675462  0.00272468  0.00282847  1
  Co  Co63  1  0.75751539  0.75163917  0.00073550  1
  O  O64  1  0.12358873  0.12225777  0.49148994  1
  O  O65  1  0.12651067  0.11441134  0.98931427  1
  O  O66  1  0.12352706  0.62190770  0.49160602  1
  O  O67  1  0.12272234  0.62691483  0.99075464  1
  O  O68  1  0.62359946  0.12195679  0.49071834  1
  O  O69  1  0.62563194  0.12366564  0.99527772  1
  O  O70  1  0.62339973  0.62192730  0.49066053  1
  O  O71  1  0.62777229  0.61975142  0.99309688  1
  O  O72  1  0.13672539  0.38246552  0.01424831  1
  O  O73  1  0.13108998  0.37775290  0.50688449  1
  O  O74  1  0.13266034  0.88279685  0.01210758  1
  O  O75  1  0.13232752  0.87724286  0.50819935  1
  O  O76  1  0.63767635  0.38034367  0.01633194  1
  O  O77  1  0.63206117  0.37789509  0.50742194  1
  O  O78  1  0.63587630  0.88747311  0.01440277  1
  O  O79  1  0.63114618  0.87700203  0.50634782  1
  O  O80  1  0.37366678  0.11916150  0.49088838  1
  O  O81  1  0.37585708  0.11705668  0.99237504  1
  O  O82  1  0.37310477  0.61975957  0.49097389  1
  O  O83  1  0.37413617  0.61828571  0.99263507  1
  O  O84  1  0.87343392  0.11948778  0.49084052  1
  O  O85  1  0.87942192  0.11305815  0.99302458  1
  O  O86  1  0.87381528  0.61935269  0.49075856  1
  O  O87  1  0.88274999  0.62023019  0.99241698  1
  O  O88  1  0.38850310  0.38388075  0.01766601  1
  O  O89  1  0.38124120  0.37963324  0.50641174  1
  O  O90  1  0.38238779  0.88878521  0.01223906  1
  O  O91  1  0.38171918  0.87928143  0.50719502  1
  O  O92  1  0.88509046  0.38398025  0.01459811  1
  O  O93  1  0.88154554  0.37981653  0.50631473  1
  O  O94  1  0.89466566  0.88768674  0.01816690  1
  O  O95  1  0.88130635  0.87906287  0.50642123  1
  O  O96  1  0.09893180  0.10102493  0.14274803  1
  O  O97  1  0.08404892  0.09307109  0.64257357  1
  O  O98  1  0.09100345  0.60565603  0.14040168  1
  O  O99  1  0.07799503  0.59546465  0.64111806  1
  O  O100  1  0.58239802  0.09691720  0.13500898  1
  O  O101  1  0.58230198  0.09501692  0.64077173  1
  O  O102  1  0.59352043  0.60166887  0.13948348  1
  O  O103  1  0.58100365  0.59452887  0.63838832  1
  O  O104  1  0.44166536  0.40685544  0.35781297  1
  O  O105  1  0.44495130  0.40364569  0.86250810  1
  O  O106  1  0.43726281  0.90618984  0.35669892  1
  O  O107  1  0.44685081  0.91152815  0.86733102  1
  O  O108  1  0.93743297  0.40729303  0.35638231  1
  O  O109  1  0.94202153  0.39901944  0.85972401  1
  O  O110  1  0.94286587  0.90754654  0.36004326  1
  O  O111  1  0.94599272  0.88988677  0.85672714  1
  O  O112  1  0.33598402  0.28216741  0.13976831  1
  O  O113  1  0.33089861  0.29643623  0.64116781  1
  O  O114  1  0.33310919  0.78411811  0.13777792  1
  O  O115  1  0.33044289  0.79572120  0.64363986  1
  O  O116  1  0.83546066  0.27990667  0.13938826  1
  O  O117  1  0.83443777  0.29901859  0.64035258  1
  O  O118  1  0.84367246  0.78455985  0.14480914  1
  O  O119  1  0.83047074  0.79415033  0.63778453  1
  O  O120  1  0.18867131  0.20003487  0.35836496  1
  O  O121  1  0.19457892  0.20934377  0.86368988  1
  O  O122  1  0.18609635  0.70393420  0.35905482  1
  O  O123  1  0.19770758  0.71648214  0.86324746  1
  O  O124  1  0.68559903  0.20465934  0.35640417  1
  O  O125  1  0.69410886  0.20605990  0.86374864  1
  O  O126  1  0.68755048  0.69859101  0.35584006  1
  O  O127  1  0.69880753  0.70794033  0.85847913  1
  O  O128  1  0.42561349  0.05619810  0.23909899  1
  O  O129  1  0.43563975  0.05965376  0.75177833  1
  O  O130  1  0.42518473  0.55912353  0.23853713  1
  O  O131  1  0.43741188  0.56304899  0.75277023  1
  O  O132  1  0.92598911  0.06092401  0.23997160  1
  O  O133  1  0.93624813  0.05948929  0.75210127  1
  O  O134  1  0.92588368  0.55638966  0.23861471  1
  O  O135  1  0.93652398  0.57133427  0.76032746  1
  O  O136  1  0.18541026  0.44212528  0.24797796  1
  O  O137  1  0.18561953  0.44525106  0.75286224  1
  O  O138  1  0.17402570  0.92822157  0.24065604  1
  O  O139  1  0.18588577  0.93860248  0.76019403  1
  O  O140  1  0.67293564  0.42706665  0.23912633  1
  O  O141  1  0.68499894  0.43855065  0.75025337  1
  O  O142  1  0.68546257  0.94257835  0.24851256  1
  O  O143  1  0.68764942  0.94016844  0.75235778  1
