# generated using pymatgen
data_LiPrO2
_symmetry_space_group_name_H-M   'P 1'
_cell_length_a   5.86425486
_cell_length_b   5.85040529
_cell_length_c   6.17485101
_cell_angle_alpha   90.00000000
_cell_angle_beta   90.00000000
_cell_angle_gamma   102.41379456
_symmetry_Int_Tables_number   1
_chemical_formula_structural   LiPrO2
_chemical_formula_sum   'Li4 Pr4 O8'
_cell_volume   206.89554128
_cell_formula_units_Z   4
loop_
 _symmetry_equiv_pos_site_id
 _symmetry_equiv_pos_as_xyz
  1  'x, y, z'
loop_
 _atom_site_type_symbol
 _atom_site_label
 _atom_site_symmetry_multiplicity
 _atom_site_fract_x
 _atom_site_fract_y
 _atom_site_fract_z
 _atom_site_occupancy
  Li  Li0  1  0.31305450  0.33418019  0.64018331  1
  Li  Li1  1  0.68694550  0.66581981  0.35981669  1
  Li  Li2  1  0.81305450  0.33418019  0.85981669  1
  Li  Li3  1  0.18694550  0.66581981  0.14018331  1
  O  O4  1  0.48368941  0.91132905  0.26138758  1
  O  O5  1  0.98368941  0.91132905  0.23861242  1
  O  O6  1  0.01631059  0.08867095  0.76138758  1
  O  O7  1  0.51631059  0.08867095  0.73861242  1
  O  O8  1  0.70158328  0.42720074  0.13304169  1
  O  O9  1  0.79841672  0.57279926  0.63304169  1
  O  O10  1  0.29841672  0.57279926  0.86695831  1
  O  O11  1  0.20158328  0.42720074  0.36695831  1
  Pr  Pr12  1  0.80238762  0.20175241  0.42900022  1
  Pr  Pr13  1  0.69761238  0.79824759  0.92900022  1
  Pr  Pr14  1  0.19761238  0.79824759  0.57099978  1
  Pr  Pr15  1  0.30238762  0.20175241  0.07099978  1
