# generated using pymatgen
data_LaAsIr
_symmetry_space_group_name_H-M   'P 1'
_cell_length_a   4.24115468
_cell_length_b   4.24115468
_cell_length_c   8.06575753
_cell_angle_alpha   105.24286400
_cell_angle_beta   105.24286400
_cell_angle_gamma   90.00000000
_symmetry_Int_Tables_number   1
_chemical_formula_structural   LaAsIr
_chemical_formula_sum   'La2 As2 Ir2'
_cell_volume   134.68072107
_cell_formula_units_Z   2
loop_
 _symmetry_equiv_pos_site_id
 _symmetry_equiv_pos_as_xyz
  1  'x, y, z'
loop_
 _atom_site_type_symbol
 _atom_site_label
 _atom_site_symmetry_multiplicity
 _atom_site_fract_x
 _atom_site_fract_y
 _atom_site_fract_z
 _atom_site_occupancy
  La  La0  1  0.24973015  0.74973015  0.49946030  1
  La  La1  1  0.99973015  0.99973015  0.99946030  1
  As  As2  1  0.82695701  0.32695701  0.65391401  1
  As  As3  1  0.57695701  0.57695701  0.15391401  1
  Ir  Ir4  1  0.66131284  0.16131284  0.32262569  1
  Ir  Ir5  1  0.41131284  0.41131284  0.82262569  1
