# generated using pymatgen
data_ZnFeP2O7
_symmetry_space_group_name_H-M   'P 1'
_cell_length_a   7.08608274
_cell_length_b   8.50491644
_cell_length_c   9.21534641
_cell_angle_alpha   90.00000000
_cell_angle_beta   112.72262137
_cell_angle_gamma   90.00000000
_symmetry_Int_Tables_number   1
_chemical_formula_structural   ZnFeP2O7
_chemical_formula_sum   'Zn4 Fe4 P8 O28'
_cell_volume   512.27183121
_cell_formula_units_Z   4
loop_
 _symmetry_equiv_pos_site_id
 _symmetry_equiv_pos_as_xyz
  1  'x, y, z'
loop_
 _atom_site_type_symbol
 _atom_site_label
 _atom_site_symmetry_multiplicity
 _atom_site_fract_x
 _atom_site_fract_y
 _atom_site_fract_z
 _atom_site_occupancy
  Zn  Zn0  1  0.12126271  0.94198571  0.81733989  1
  Zn  Zn1  1  0.37873729  0.44198571  0.68266011  1
  Zn  Zn2  1  0.62126271  0.55801429  0.31733989  1
  Zn  Zn3  1  0.87873729  0.05801429  0.18266011  1
  Fe  Fe4  1  0.37457533  0.06897637  0.60693097  1
  Fe  Fe5  1  0.62542467  0.93102363  0.39306903  1
  Fe  Fe6  1  0.12542467  0.56897637  0.89306903  1
  Fe  Fe7  1  0.87457533  0.43102363  0.10693097  1
  P  P8  1  0.18082928  0.73384040  0.24238403  1
  P  P9  1  0.43584865  0.22556593  0.96957348  1
  P  P10  1  0.68082928  0.76615960  0.74238403  1
  P  P11  1  0.93584865  0.27443407  0.46957348  1
  P  P12  1  0.31917072  0.23384040  0.25761597  1
  P  P13  1  0.06415135  0.72556593  0.53042652  1
  P  P14  1  0.56415135  0.77443407  0.03042652  1
  P  P15  1  0.81917072  0.26615960  0.75761597  1
  O  O16  1  0.35272424  0.17654090  0.10142120  1
  O  O17  1  0.57650305  0.60971471  0.68661734  1
  O  O18  1  0.07650305  0.89028529  0.18661734  1
  O  O19  1  0.34643974  0.38711368  0.89880636  1
  O  O20  1  0.64727576  0.82345910  0.89857880  1
  O  O21  1  0.40634685  0.09989269  0.37757062  1
  O  O22  1  0.65356026  0.61288632  0.10119364  1
  O  O23  1  0.36088539  0.09179209  0.84872405  1
  O  O24  1  0.17135418  0.26662206  0.54823317  1
  O  O25  1  0.59365315  0.90010731  0.62242938  1
  O  O26  1  0.90634685  0.40010731  0.87757062  1
  O  O27  1  0.91589382  0.75954836  0.79726088  1
  O  O28  1  0.58410618  0.25954836  0.70273912  1
  O  O29  1  0.85272424  0.32345910  0.60142120  1
  O  O30  1  0.09365315  0.59989269  0.12242938  1
  O  O31  1  0.92349695  0.10971471  0.81338266  1
  O  O32  1  0.08410618  0.24045164  0.20273912  1
  O  O33  1  0.63911461  0.90820791  0.15127595  1
  O  O34  1  0.67135418  0.23337794  0.04823317  1
  O  O35  1  0.32864582  0.76662206  0.95176683  1
  O  O36  1  0.15356026  0.88711368  0.60119364  1
  O  O37  1  0.86088539  0.40820791  0.34872405  1
  O  O38  1  0.13911461  0.59179209  0.65127595  1
  O  O39  1  0.42349695  0.39028529  0.31338266  1
  O  O40  1  0.41589382  0.74045164  0.29726088  1
  O  O41  1  0.84643974  0.11288632  0.39880636  1
  O  O42  1  0.82864582  0.73337794  0.45176683  1
  O  O43  1  0.14727576  0.67654090  0.39857880  1
