# generated using pymatgen
data_Mn2ZnO4
_symmetry_space_group_name_H-M   'P 1'
_cell_length_a   6.02564723
_cell_length_b   6.15283819
_cell_length_c   6.15263595
_cell_angle_alpha   89.98496876
_cell_angle_beta   120.68593909
_cell_angle_gamma   120.71898290
_symmetry_Int_Tables_number   1
_chemical_formula_structural   Mn2ZnO4
_chemical_formula_sum   'Mn4 Zn2 O8'
_cell_volume   157.83241440
_cell_formula_units_Z   2
loop_
 _symmetry_equiv_pos_site_id
 _symmetry_equiv_pos_as_xyz
  1  'x, y, z'
loop_
 _atom_site_type_symbol
 _atom_site_label
 _atom_site_symmetry_multiplicity
 _atom_site_fract_x
 _atom_site_fract_y
 _atom_site_fract_z
 _atom_site_occupancy
  Mn  Mn0  1  0.49993340  0.00000978  0.49999086  1
  Mn  Mn1  1  0.50008697  0.50006550  0.50004726  1
  Mn  Mn2  1  0.00003000  0.49994147  0.00005277  1
  Mn  Mn3  1  0.99996732  0.49996027  0.49998942  1
  Zn  Zn4  1  0.24995501  0.12536601  0.87548909  1
  Zn  Zn5  1  0.75002209  0.87464711  0.12447073  1
  O  O6  1  0.03017532  0.74858919  0.23709161  1
  O  O7  1  0.47017641  0.76280093  0.71835243  1
  O  O8  1  0.46992544  0.70675633  0.25095028  1
  O  O9  1  0.97034287  0.71895456  0.70698792  1
  O  O10  1  0.53013544  0.29327579  0.74907923  1
  O  O11  1  0.52974019  0.23718406  0.28158738  1
  O  O12  1  0.02972706  0.28107003  0.29304125  1
  O  O13  1  0.96978246  0.25137998  0.76286977  1
