# generated using pymatgen
data_NaCuMoO5
_symmetry_space_group_name_H-M   'P 1'
_cell_length_a   5.79363848
_cell_length_b   7.87350411
_cell_length_c   9.75805890
_cell_angle_alpha   90.00000000
_cell_angle_beta   90.00000000
_cell_angle_gamma   90.00000000
_symmetry_Int_Tables_number   1
_chemical_formula_structural   NaCuMoO5
_chemical_formula_sum   'Na4 Cu4 Mo4 O20'
_cell_volume   445.12592143
_cell_formula_units_Z   4
loop_
 _symmetry_equiv_pos_site_id
 _symmetry_equiv_pos_as_xyz
  1  'x, y, z'
loop_
 _atom_site_type_symbol
 _atom_site_label
 _atom_site_symmetry_multiplicity
 _atom_site_fract_x
 _atom_site_fract_y
 _atom_site_fract_z
 _atom_site_occupancy
  Na  Na0  1  0.75000000  0.12849677  0.80557793  1
  Na  Na1  1  0.75000000  0.62849677  0.69442207  1
  Na  Na2  1  0.25000000  0.87150323  0.19442207  1
  Na  Na3  1  0.25000000  0.37150323  0.30557793  1
  Cu  Cu4  1  -0.00000000  -0.00000000  0.50000000  1
  Cu  Cu5  1  0.50000000  0.50000000  -0.00000000  1
  Cu  Cu6  1  0.50000000  -0.00000000  0.50000000  1
  Cu  Cu7  1  0.00000000  0.50000000  -0.00000000  1
  Mo  Mo8  1  0.25000000  0.36464608  0.66027253  1
  Mo  Mo9  1  0.25000000  0.86464608  0.83972747  1
  Mo  Mo10  1  0.75000000  0.63535392  0.33972747  1
  Mo  Mo11  1  0.75000000  0.13535392  0.16027253  1
  O  O12  1  0.25000000  0.16229039  0.55151413  1
  O  O13  1  0.25000000  0.66229039  0.94848587  1
  O  O14  1  0.75000000  0.83770961  0.44848587  1
  O  O15  1  0.75000000  0.33770961  0.05151413  1
  O  O16  1  0.49773610  0.38058434  0.76718616  1
  O  O17  1  0.00226390  0.88058434  0.73281384  1
  O  O18  1  0.99773610  0.61941566  0.23281384  1
  O  O19  1  0.50226390  0.11941566  0.26718616  1
  O  O20  1  0.50226390  0.61941566  0.23281384  1
  O  O21  1  0.99773610  0.11941566  0.26718616  1
  O  O22  1  0.00226390  0.38058434  0.76718616  1
  O  O23  1  0.49773610  0.88058434  0.73281384  1
  O  O24  1  0.25000000  0.53954656  0.54917864  1
  O  O25  1  0.25000000  0.03954656  0.95082136  1
  O  O26  1  0.75000000  0.46045344  0.45082136  1
  O  O27  1  0.75000000  0.96045344  0.04917864  1
  O  O28  1  0.75000000  0.11980746  0.55664431  1
  O  O29  1  0.75000000  0.61980746  0.94335569  1
  O  O30  1  0.25000000  0.88019254  0.44335569  1
  O  O31  1  0.25000000  0.38019254  0.05664431  1
