# generated using pymatgen
data_Tb2InNi2
_symmetry_space_group_name_H-M   'P 1'
_cell_length_a   3.65033387
_cell_length_b   7.43218391
_cell_length_c   7.43218391
_cell_angle_alpha   90.00000000
_cell_angle_beta   90.00000000
_cell_angle_gamma   90.00000000
_symmetry_Int_Tables_number   1
_chemical_formula_structural   Tb2InNi2
_chemical_formula_sum   'Tb4 In2 Ni4'
_cell_volume   201.63479760
_cell_formula_units_Z   2
loop_
 _symmetry_equiv_pos_site_id
 _symmetry_equiv_pos_as_xyz
  1  'x, y, z'
loop_
 _atom_site_type_symbol
 _atom_site_label
 _atom_site_symmetry_multiplicity
 _atom_site_fract_x
 _atom_site_fract_y
 _atom_site_fract_z
 _atom_site_occupancy
  Tb  Tb0  1  0.50000000  0.17538655  0.67538655  1
  Tb  Tb1  1  0.50000000  0.82461345  0.32461345  1
  Tb  Tb2  1  0.50000000  0.32461345  0.17538655  1
  Tb  Tb3  1  0.50000000  0.67538655  0.82461345  1
  In  In4  1  0.00000000  0.50000000  0.50000000  1
  In  In5  1  0.00000000  0.00000000  0.00000000  1
  Ni  Ni6  1  -0.00000000  0.61744456  0.11744456  1
  Ni  Ni7  1  0.00000000  0.38255544  0.88255544  1
  Ni  Ni8  1  0.00000000  0.88255544  0.61744456  1
  Ni  Ni9  1  -0.00000000  0.11744456  0.38255544  1
