# generated using pymatgen
data_Zn(GaS2)2
_symmetry_space_group_name_H-M   'P 1'
_cell_length_a   5.24256508
_cell_length_b   5.24256508
_cell_length_c   5.45554513
_cell_angle_alpha   90.00000000
_cell_angle_beta   90.00000000
_cell_angle_gamma   90.00000000
_symmetry_Int_Tables_number   1
_chemical_formula_structural   Zn(GaS2)2
_chemical_formula_sum   'Zn1 Ga2 S4'
_cell_volume   149.94286803
_cell_formula_units_Z   1
loop_
 _symmetry_equiv_pos_site_id
 _symmetry_equiv_pos_as_xyz
  1  'x, y, z'
loop_
 _atom_site_type_symbol
 _atom_site_label
 _atom_site_symmetry_multiplicity
 _atom_site_fract_x
 _atom_site_fract_y
 _atom_site_fract_z
 _atom_site_occupancy
  Zn  Zn0  1  -0.00000000  -0.00000000  0.00000000  1
  Ga  Ga1  1  -0.00000000  0.50000000  0.50000000  1
  Ga  Ga2  1  0.50000000  -0.00000000  0.50000000  1
  S  S3  1  0.73782877  0.73782877  0.24515920  1
  S  S4  1  0.26217123  0.26217123  0.24515920  1
  S  S5  1  0.26217123  0.73782877  0.75484080  1
  S  S6  1  0.73782877  0.26217123  0.75484080  1
