# generated using pymatgen
data_PuB2Os3
_symmetry_space_group_name_H-M   'P 1'
_cell_length_a   2.96906523
_cell_length_b   5.59578573
_cell_length_c   5.59816410
_cell_angle_alpha   120.01405802
_cell_angle_beta   90.00000001
_cell_angle_gamma   89.95161269
_symmetry_Int_Tables_number   1
_chemical_formula_structural   PuB2Os3
_chemical_formula_sum   'Pu1 B2 Os3'
_cell_volume   80.53697760
_cell_formula_units_Z   1
loop_
 _symmetry_equiv_pos_site_id
 _symmetry_equiv_pos_as_xyz
  1  'x, y, z'
loop_
 _atom_site_type_symbol
 _atom_site_label
 _atom_site_symmetry_multiplicity
 _atom_site_fract_x
 _atom_site_fract_y
 _atom_site_fract_z
 _atom_site_occupancy
  Pu  Pu0  1  0.00000000  0.00000000  0.00000000  1
  B  B1  1  0.00017697  0.33403514  0.66701757  1
  B  B2  1  0.99982303  0.66596486  0.33298243  1
  Os  Os3  1  0.50000000  0.50000000  0.50000000  1
  Os  Os4  1  0.50000000  0.00000000  0.50000000  1
  Os  Os5  1  0.50000000  0.50000000  0.00000000  1
