# generated using pymatgen
data_Bi2Pt
_symmetry_space_group_name_H-M   'P 1'
_cell_length_a   6.32121912
_cell_length_b   6.65109831
_cell_length_c   6.65149733
_cell_angle_alpha   120.00198285
_cell_angle_beta   89.94260794
_cell_angle_gamma   90.02869780
_symmetry_Int_Tables_number   1
_chemical_formula_structural   Bi2Pt
_chemical_formula_sum   'Bi6 Pt3'
_cell_volume   242.17838002
_cell_formula_units_Z   3
loop_
 _symmetry_equiv_pos_site_id
 _symmetry_equiv_pos_as_xyz
  1  'x, y, z'
loop_
 _atom_site_type_symbol
 _atom_site_label
 _atom_site_symmetry_multiplicity
 _atom_site_fract_x
 _atom_site_fract_y
 _atom_site_fract_z
 _atom_site_occupancy
  Bi  Bi0  1  0.33949718  1.00000000  0.00002911  1
  Bi  Bi1  1  0.21297607  0.66669296  0.33329577  1
  Bi  Bi2  1  0.21297607  0.33330704  0.66660281  1
  Bi  Bi3  1  0.73070449  0.39057612  0.39046137  1
  Bi  Bi4  1  0.73070449  0.60942388  0.99988525  1
  Bi  Bi5  1  0.73050144  0.00000000  0.60965519  1
  Pt  Pt6  1  0.00024699  0.73722769  0.73716967  1
  Pt  Pt7  1  0.00024699  0.26277231  0.99994198  1
  Pt  Pt8  1  0.00018629  1.00000000  0.26295886  1
