# generated using pymatgen
data_NaFeF3
_symmetry_space_group_name_H-M   'P 1'
_cell_length_a   3.18508906
_cell_length_b   5.41972182
_cell_length_c   7.51824941
_cell_angle_alpha   90.00000000
_cell_angle_beta   90.00000000
_cell_angle_gamma   107.08813468
_symmetry_Int_Tables_number   1
_chemical_formula_structural   NaFeF3
_chemical_formula_sum   'Na2 Fe2 F6'
_cell_volume   124.05286978
_cell_formula_units_Z   2
loop_
 _symmetry_equiv_pos_site_id
 _symmetry_equiv_pos_as_xyz
  1  'x, y, z'
loop_
 _atom_site_type_symbol
 _atom_site_label
 _atom_site_symmetry_multiplicity
 _atom_site_fract_x
 _atom_site_fract_y
 _atom_site_fract_z
 _atom_site_occupancy
  Na  Na0  1  0.74700250  0.49400501  0.25000000  1
  Na  Na1  1  0.25299750  0.50599499  0.75000000  1
  Fe  Fe2  1  -0.00000000  -0.00000000  0.50000000  1
  Fe  Fe3  1  -0.00000000  -0.00000000  0.00000000  1
  F  F4  1  0.08398982  0.16797964  0.25000000  1
  F  F5  1  0.91601018  0.83202036  0.75000000  1
  F  F6  1  0.63014069  0.26028137  0.55779956  1
  F  F7  1  0.36985931  0.73971863  0.44220044  1
  F  F8  1  0.63014069  0.26028137  0.94220044  1
  F  F9  1  0.36985931  0.73971863  0.05779956  1
