# generated using pymatgen
data_Yb2CdGe2
_symmetry_space_group_name_H-M   'P 1'
_cell_length_a   4.38277859
_cell_length_b   7.34160359
_cell_length_c   7.34160359
_cell_angle_alpha   90.00000000
_cell_angle_beta   90.00000000
_cell_angle_gamma   90.00000000
_symmetry_Int_Tables_number   1
_chemical_formula_structural   Yb2CdGe2
_chemical_formula_sum   'Yb4 Cd2 Ge4'
_cell_volume   236.22801115
_cell_formula_units_Z   2
loop_
 _symmetry_equiv_pos_site_id
 _symmetry_equiv_pos_as_xyz
  1  'x, y, z'
loop_
 _atom_site_type_symbol
 _atom_site_label
 _atom_site_symmetry_multiplicity
 _atom_site_fract_x
 _atom_site_fract_y
 _atom_site_fract_z
 _atom_site_occupancy
  Yb  Yb0  1  0.50000000  0.17351088  0.67351088  1
  Yb  Yb1  1  0.50000000  0.82648912  0.32648912  1
  Yb  Yb2  1  0.50000000  0.32648912  0.17351088  1
  Yb  Yb3  1  0.50000000  0.67351088  0.82648912  1
  Cd  Cd4  1  0.00000000  0.50000000  0.50000000  1
  Cd  Cd5  1  0.00000000  0.00000000  0.00000000  1
  Ge  Ge6  1  0.00000000  0.62382073  0.12382073  1
  Ge  Ge7  1  -0.00000000  0.37617927  0.87617927  1
  Ge  Ge8  1  0.00000000  0.87617927  0.62382073  1
  Ge  Ge9  1  -0.00000000  0.12382073  0.37617927  1
