# generated using pymatgen
data_Sm2CoGe2
_symmetry_space_group_name_H-M   'P 1'
_cell_length_a   4.28536924
_cell_length_b   5.79027112
_cell_length_c   9.40862539
_cell_angle_alpha   82.92895232
_cell_angle_beta   76.83617091
_cell_angle_gamma   68.28135452
_symmetry_Int_Tables_number   1
_chemical_formula_structural   Sm2CoGe2
_chemical_formula_sum   'Sm4 Co2 Ge4'
_cell_volume   210.99380658
_cell_formula_units_Z   2
loop_
 _symmetry_equiv_pos_site_id
 _symmetry_equiv_pos_as_xyz
  1  'x, y, z'
loop_
 _atom_site_type_symbol
 _atom_site_label
 _atom_site_symmetry_multiplicity
 _atom_site_fract_x
 _atom_site_fract_y
 _atom_site_fract_z
 _atom_site_occupancy
  Sm  Sm0  1  0.18798719  0.73480189  0.88922374  1
  Sm  Sm1  1  0.81201281  0.26519811  0.11077626  1
  Sm  Sm2  1  0.00552849  0.32129167  0.66765135  1
  Sm  Sm3  1  0.99447151  0.67870833  0.33234865  1
  Co  Co4  1  0.27482611  0.08631575  0.36403202  1
  Co  Co5  1  0.72517389  0.91368425  0.63596798  1
  Ge  Ge6  1  0.49133844  0.14238875  0.87493437  1
  Ge  Ge7  1  0.50866156  0.85761125  0.12506563  1
  Ge  Ge8  1  0.34422487  0.74520215  0.56634811  1
  Ge  Ge9  1  0.65577513  0.25479785  0.43365189  1
