# generated using pymatgen
data_YH3
_symmetry_space_group_name_H-M   'P 1'
_cell_length_a   3.67636144
_cell_length_b   3.68040319
_cell_length_c   6.61903487
_cell_angle_alpha   90.00000000
_cell_angle_beta   90.00000000
_cell_angle_gamma   119.96368470
_symmetry_Int_Tables_number   1
_chemical_formula_structural   YH3
_chemical_formula_sum   'Y2 H6'
_cell_volume   77.58856326
_cell_formula_units_Z   2
loop_
 _symmetry_equiv_pos_site_id
 _symmetry_equiv_pos_as_xyz
  1  'x, y, z'
loop_
 _atom_site_type_symbol
 _atom_site_label
 _atom_site_symmetry_multiplicity
 _atom_site_fract_x
 _atom_site_fract_y
 _atom_site_fract_z
 _atom_site_occupancy
  Y  Y0  1  0.83392989  0.66785979  0.25000000  1
  Y  Y1  1  0.16607011  0.33214021  0.75000000  1
  H  H2  1  0.83223912  0.66447824  0.90598266  1
  H  H3  1  0.16776088  0.33552176  0.09401734  1
  H  H4  1  0.83223912  0.66447824  0.59401734  1
  H  H5  1  0.16776088  0.33552176  0.40598266  1
  H  H6  1  0.50141737  0.00283475  0.25000000  1
  H  H7  1  0.49858263  0.99716525  0.75000000  1
