# generated using pymatgen
data_PrCdGa
_symmetry_space_group_name_H-M   'P 1'
_cell_length_a   4.51026188
_cell_length_b   7.53129614
_cell_length_c   7.53144624
_cell_angle_alpha   119.99933800
_cell_angle_beta   90.00000000
_cell_angle_gamma   90.00000000
_symmetry_Int_Tables_number   1
_chemical_formula_structural   PrCdGa
_chemical_formula_sum   'Pr3 Cd3 Ga3'
_cell_volume   221.55593744
_cell_formula_units_Z   3
loop_
 _symmetry_equiv_pos_site_id
 _symmetry_equiv_pos_as_xyz
  1  'x, y, z'
loop_
 _atom_site_type_symbol
 _atom_site_label
 _atom_site_symmetry_multiplicity
 _atom_site_fract_x
 _atom_site_fract_y
 _atom_site_fract_z
 _atom_site_occupancy
  Pr  Pr0  1  0.50000000  0.57978683  1.00000000  1
  Pr  Pr1  1  0.50000000  0.42019365  0.42022167  1
  Pr  Pr2  1  0.50000000  0.99997199  0.57977833  1
  Cd  Cd3  1  0.00000000  0.24644124  0.00000000  1
  Cd  Cd4  1  0.00000000  0.75352258  0.75350529  1
  Cd  Cd5  1  0.00000000  0.00001729  0.24649471  1
  Ga  Ga6  1  -0.00000000  0.33331628  0.66667874  1
  Ga  Ga7  1  -0.00000000  0.66663754  0.33332126  1
  Ga  Ga8  1  0.50000000  0.00001260  0.00000000  1
