# generated using pymatgen
data_Mg(BC)2
_symmetry_space_group_name_H-M   'P 1'
_cell_length_a   2.77525802
_cell_length_b   4.62835854
_cell_length_c   7.25337101
_cell_angle_alpha   90.00000000
_cell_angle_beta   90.00000000
_cell_angle_gamma   90.00000000
_symmetry_Int_Tables_number   1
_chemical_formula_structural   Mg(BC)2
_chemical_formula_sum   'Mg2 B4 C4'
_cell_volume   93.16874664
_cell_formula_units_Z   2
loop_
 _symmetry_equiv_pos_site_id
 _symmetry_equiv_pos_as_xyz
  1  'x, y, z'
loop_
 _atom_site_type_symbol
 _atom_site_label
 _atom_site_symmetry_multiplicity
 _atom_site_fract_x
 _atom_site_fract_y
 _atom_site_fract_z
 _atom_site_occupancy
  Mg  Mg0  1  0.50000000  0.50000000  0.50000000  1
  Mg  Mg1  1  0.00000000  0.00000000  0.00000000  1
  B  B2  1  0.50000000  0.88465488  0.72970254  1
  B  B3  1  0.50000000  0.11534512  0.27029746  1
  B  B4  1  -0.00000000  0.61534512  0.22970254  1
  B  B5  1  0.00000000  0.38465488  0.77029746  1
  C  C6  1  0.50000000  0.78435650  0.22006892  1
  C  C7  1  0.50000000  0.21564350  0.77993108  1
  C  C8  1  0.00000000  0.71564350  0.72006892  1
  C  C9  1  0.00000000  0.28435650  0.27993108  1
