# generated using pymatgen
data_InH3(CO2)3
_symmetry_space_group_name_H-M   'P 1'
_cell_length_a   7.16922028
_cell_length_b   13.14026219
_cell_length_c   13.14026219
_cell_angle_alpha   119.99999704
_cell_angle_beta   90.00000000
_cell_angle_gamma   90.00000000
_symmetry_Int_Tables_number   1
_chemical_formula_structural   InH3(CO2)3
_chemical_formula_sum   'In6 H18 C18 O36'
_cell_volume   1072.03911393
_cell_formula_units_Z   6
loop_
 _symmetry_equiv_pos_site_id
 _symmetry_equiv_pos_as_xyz
  1  'x, y, z'
loop_
 _atom_site_type_symbol
 _atom_site_label
 _atom_site_symmetry_multiplicity
 _atom_site_fract_x
 _atom_site_fract_y
 _atom_site_fract_z
 _atom_site_occupancy
  In  In0  1  0.50746999  0.67411424  0.01865876  1
  In  In1  1  0.50746999  0.98134124  0.65545548  1
  In  In2  1  0.50746999  0.34454452  0.32588576  1
  In  In3  1  0.00746999  0.32588576  0.98134124  1
  In  In4  1  0.00746999  0.01865876  0.34454452  1
  In  In5  1  0.00746999  0.65545548  0.67411424  1
  H  H6  1  0.79314866  0.48573706  0.80374323  1
  H  H7  1  0.79314866  0.19625677  0.68199383  1
  H  H8  1  0.79314866  0.31800617  0.51426294  1
  H  H9  1  0.29314866  0.51426294  0.19625677  1
  H  H10  1  0.29314866  0.80374323  0.31800617  1
  H  H11  1  0.29314866  0.68199383  0.48573706  1
  H  H12  1  0.27000136  0.46869397  0.69317182  1
  H  H13  1  0.27000136  0.30682818  0.77552215  1
  H  H14  1  0.27000136  0.22447785  0.53130603  1
  H  H15  1  0.77000136  0.53130603  0.30682818  1
  H  H16  1  0.77000136  0.69317182  0.22447785  1
  H  H17  1  0.77000136  0.77552215  0.46869397  1
  H  H18  1  0.18453021  0.84816329  0.99775336  1
  H  H19  1  0.18453021  0.00224664  0.85040993  1
  H  H20  1  0.18453021  0.14959007  0.15183671  1
  H  H21  1  0.68453021  0.15183671  0.00224664  1
  H  H22  1  0.68453021  0.99775336  0.14959007  1
  H  H23  1  0.68453021  0.85040993  0.84816329  1
  C  C24  1  0.81913042  0.47935782  0.88320030  1
  C  C25  1  0.81913042  0.11679970  0.59615752  1
  C  C26  1  0.81913042  0.40384248  0.52064218  1
  C  C27  1  0.31913042  0.52064218  0.11679970  1
  C  C28  1  0.31913042  0.88320030  0.40384248  1
  C  C29  1  0.31913042  0.59615752  0.47935782  1
  C  C30  1  0.28134499  0.54854150  0.78037836  1
  C  C31  1  0.28134499  0.21962164  0.76816314  1
  C  C32  1  0.28134499  0.23183686  0.45145850  1
  C  C33  1  0.78134499  0.45145850  0.21962164  1
  C  C34  1  0.78134499  0.78037836  0.23183686  1
  C  C35  1  0.78134499  0.76816314  0.54854150  1
  C  C36  1  0.17906235  0.86197414  0.08781760  1
  C  C37  1  0.17906235  0.91218240  0.77415654  1
  C  C38  1  0.17906235  0.22584346  0.13802586  1
  C  C39  1  0.67906235  0.13802586  0.91218240  1
  C  C40  1  0.67906235  0.08781760  0.22584346  1
  C  C41  1  0.67906235  0.77415654  0.86197414  1
  O  O42  1  0.27342635  0.79633110  0.11353085  1
  O  O43  1  0.27342635  0.88646915  0.68280024  1
  O  O44  1  0.27342635  0.31719976  0.20366890  1
  O  O45  1  0.77342635  0.20366890  0.88646915  1
  O  O46  1  0.77342635  0.11353085  0.31719976  1
  O  O47  1  0.77342635  0.68280024  0.79633110  1
  O  O48  1  0.74576274  0.55313587  0.98003651  1
  O  O49  1  0.74576274  0.01996349  0.57309936  1
  O  O50  1  0.74576274  0.42690064  0.44686413  1
  O  O51  1  0.24576274  0.44686413  0.01996349  1
  O  O52  1  0.24576274  0.98003651  0.42690064  1
  O  O53  1  0.24576274  0.57309936  0.55313587  1
  O  O54  1  0.57315105  0.78673026  0.94507741  1
  O  O55  1  0.57315105  0.05492259  0.84165285  1
  O  O56  1  0.57315105  0.15834715  0.21326974  1
  O  O57  1  0.07315105  0.21326974  0.05492259  1
  O  O58  1  0.07315105  0.94507741  0.15834715  1
  O  O59  1  0.07315105  0.84165285  0.78673026  1
  O  O60  1  0.18360787  0.63791901  0.80364022  1
  O  O61  1  0.18360787  0.19635978  0.83427878  1
  O  O62  1  0.18360787  0.16572122  0.36208099  1
  O  O63  1  0.68360787  0.36208099  0.19635978  1
  O  O64  1  0.68360787  0.80364022  0.16572122  1
  O  O65  1  0.68360787  0.83427878  0.63791901  1
  O  O66  1  0.39587412  0.54114105  0.85031959  1
  O  O67  1  0.39587412  0.14968041  0.69082146  1
  O  O68  1  0.39587412  0.30917854  0.45885895  1
  O  O69  1  0.89587412  0.45885895  0.14968041  1
  O  O70  1  0.89587412  0.85031959  0.30917854  1
  O  O71  1  0.89587412  0.69082146  0.54114105  1
  O  O72  1  0.42608990  0.60426880  0.13177975  1
  O  O73  1  0.42608990  0.86822025  0.47248905  1
  O  O74  1  0.42608990  0.52751095  0.39573120  1
  O  O75  1  0.92608990  0.39573120  0.86822025  1
  O  O76  1  0.92608990  0.13177975  0.52751095  1
  O  O77  1  0.92608990  0.47248905  0.60426880  1
