# generated using pymatgen
data_Mg3Au
_symmetry_space_group_name_H-M   'P 1'
_cell_length_a   4.71090664
_cell_length_b   4.71090664
_cell_length_c   8.54831041
_cell_angle_alpha   90.00000000
_cell_angle_beta   90.00000000
_cell_angle_gamma   120.00435126
_symmetry_Int_Tables_number   1
_chemical_formula_structural   Mg3Au
_chemical_formula_sum   'Mg6 Au2'
_cell_volume   164.28611754
_cell_formula_units_Z   2
loop_
 _symmetry_equiv_pos_site_id
 _symmetry_equiv_pos_as_xyz
  1  'x, y, z'
loop_
 _atom_site_type_symbol
 _atom_site_label
 _atom_site_symmetry_multiplicity
 _atom_site_fract_x
 _atom_site_fract_y
 _atom_site_fract_z
 _atom_site_occupancy
  Mg  Mg0  1  0.00000304  0.99999696  0.75000000  1
  Mg  Mg1  1  0.99999696  0.00000304  0.25000000  1
  Mg  Mg2  1  0.66668820  0.33331180  0.07829144  1
  Mg  Mg3  1  0.33331180  0.66668820  0.92170856  1
  Mg  Mg4  1  0.33331180  0.66668820  0.57829144  1
  Mg  Mg5  1  0.66668820  0.33331180  0.42170856  1
  Au  Au6  1  0.66670149  0.33329851  0.75000000  1
  Au  Au7  1  0.33329851  0.66670149  0.25000000  1
