# generated using pymatgen
data_MnBi4S7
_symmetry_space_group_name_H-M   'P 1'
_cell_length_a   3.99405982
_cell_length_b   6.79028469
_cell_length_c   12.01622345
_cell_angle_alpha   104.22483458
_cell_angle_beta   90.00000000
_cell_angle_gamma   107.10363587
_symmetry_Int_Tables_number   1
_chemical_formula_structural   MnBi4S7
_chemical_formula_sum   'Mn1 Bi4 S7'
_cell_volume   301.00676925
_cell_formula_units_Z   1
loop_
 _symmetry_equiv_pos_site_id
 _symmetry_equiv_pos_as_xyz
  1  'x, y, z'
loop_
 _atom_site_type_symbol
 _atom_site_label
 _atom_site_symmetry_multiplicity
 _atom_site_fract_x
 _atom_site_fract_y
 _atom_site_fract_z
 _atom_site_occupancy
  Mn  Mn0  1  -0.00000000  -0.00000000  0.50000000  1
  Bi  Bi1  1  0.11969273  0.23938545  0.92433721  1
  Bi  Bi2  1  0.88030727  0.76061455  0.07566279  1
  Bi  Bi3  1  0.31755851  0.63511702  0.65996333  1
  Bi  Bi4  1  0.68244149  0.36488298  0.34003667  1
  S  S5  1  0.96811979  0.93623957  0.69338904  1
  S  S6  1  0.03188021  0.06376043  0.30661096  1
  S  S7  1  0.25716726  0.51433452  0.14208607  1
  S  S8  1  0.74283274  0.48566548  0.85791393  1
  S  S9  1  0.35257647  0.70515294  0.45201384  1
  S  S10  1  0.64742353  0.29484706  0.54798616  1
  S  S11  1  0.50000000  -0.00000000  -0.00000000  1
