# generated using pymatgen
data_BaThTe4
_symmetry_space_group_name_H-M   'P 1'
_cell_length_a   6.60747279
_cell_length_b   8.79165989
_cell_length_c   8.90960400
_cell_angle_alpha   72.83340962
_cell_angle_beta   68.23465730
_cell_angle_gamma   67.92742859
_symmetry_Int_Tables_number   1
_chemical_formula_structural   BaThTe4
_chemical_formula_sum   'Ba2 Th2 Te8'
_cell_volume   438.07850617
_cell_formula_units_Z   2
loop_
 _symmetry_equiv_pos_site_id
 _symmetry_equiv_pos_as_xyz
  1  'x, y, z'
loop_
 _atom_site_type_symbol
 _atom_site_label
 _atom_site_symmetry_multiplicity
 _atom_site_fract_x
 _atom_site_fract_y
 _atom_site_fract_z
 _atom_site_occupancy
  Ba  Ba0  1  0.90258930  0.89176760  0.30305380  1
  Ba  Ba1  1  0.09741070  0.10823240  0.69694620  1
  Th  Th2  1  0.64217078  0.49784686  0.21781159  1
  Th  Th3  1  0.35782922  0.50215314  0.78218841  1
  Te  Te4  1  0.10660685  0.24150810  0.04536228  1
  Te  Te5  1  0.39347723  0.75849190  0.95463772  1
  Te  Te6  1  0.89339315  0.75849190  0.95463772  1
  Te  Te7  1  0.60652277  0.24150810  0.04536228  1
  Te  Te8  1  0.10216852  0.44889929  0.34676366  1
  Te  Te9  1  0.89783148  0.55110071  0.65323634  1
  Te  Te10  1  0.61111206  0.22445130  0.55332458  1
  Te  Te11  1  0.38888794  0.77554870  0.44667542  1
