# generated using pymatgen
data_Sr7Nb34O52
_symmetry_space_group_name_H-M   'P 1'
_cell_length_a   8.38151566
_cell_length_b   12.85057215
_cell_length_c   12.87752313
_cell_angle_alpha   83.77041280
_cell_angle_beta   108.99174832
_cell_angle_gamma   109.03310992
_symmetry_Int_Tables_number   1
_chemical_formula_structural   Sr7Nb34O52
_chemical_formula_sum   'Sr7 Nb34 O52'
_cell_volume   1239.79814964
_cell_formula_units_Z   1
loop_
 _symmetry_equiv_pos_site_id
 _symmetry_equiv_pos_as_xyz
  1  'x, y, z'
loop_
 _atom_site_type_symbol
 _atom_site_label
 _atom_site_symmetry_multiplicity
 _atom_site_fract_x
 _atom_site_fract_y
 _atom_site_fract_z
 _atom_site_occupancy
  Sr  Sr0  1  0.64866229  0.55488017  0.74244442  1
  Sr  Sr1  1  0.91014495  0.26325657  0.55703333  1
  Sr  Sr2  1  0.41061426  0.26427953  0.55694900  1
  Sr  Sr3  1  0.09370115  0.73763174  0.44977055  1
  Sr  Sr4  1  0.59263027  0.73785537  0.44740617  1
  Sr  Sr5  1  0.35540920  0.44676489  0.26405350  1
  Sr  Sr6  1  0.85500071  0.44637763  0.26362479  1
  Nb  Nb7  1  0.04890552  0.62071369  0.97089140  1
  Nb  Nb8  1  0.54270057  0.62071369  0.97089140  1
  Nb  Nb9  1  0.09049189  0.24363382  0.93734995  1
  Nb  Nb10  1  0.58982200  0.24343989  0.93620412  1
  Nb  Nb11  1  0.12912108  0.84936791  0.90889520  1
  Nb  Nb12  1  0.62914303  0.84936791  0.90889520  1
  Nb  Nb13  1  0.72168588  0.09386650  0.84911451  1
  Nb  Nb14  1  0.22129512  0.09386650  0.84911451  1
  Nb  Nb15  1  0.30759559  0.32786603  0.79320835  1
  Nb  Nb16  1  0.81347979  0.32786603  0.79320835  1
  Nb  Nb17  1  0.84613632  0.93587935  0.75639229  1
  Nb  Nb18  1  0.34694414  0.93700457  0.75688471  1
  Nb  Nb19  1  0.48174196  0.79175820  0.67609088  1
  Nb  Nb20  1  0.98610711  0.79175820  0.67609088  1
  Nb  Nb21  1  0.57395241  0.02547374  0.62224941  1
  Nb  Nb22  1  0.07376974  0.02547374  0.62224941  1
  Nb  Nb23  1  0.24972817  0.50052529  0.50211408  1
  Nb  Nb24  1  0.75291120  0.50052529  0.50211408  1
  Nb  Nb25  1  0.42621899  0.97384512  0.37861523  1
  Nb  Nb26  1  0.92624136  0.97384512  0.37861523  1
  Nb  Nb27  1  0.51570431  0.20622090  0.32523531  1
  Nb  Nb28  1  0.01575189  0.20622090  0.32523531  1
  Nb  Nb29  1  0.15349765  0.06320131  0.24379300  1
  Nb  Nb30  1  0.65362213  0.06352417  0.24372110  1
  Nb  Nb31  1  0.69025689  0.67470560  0.20555699  1
  Nb  Nb32  1  0.19000470  0.67470560  0.20555699  1
  Nb  Nb33  1  0.27891361  0.90747231  0.15114685  1
  Nb  Nb34  1  0.77970655  0.90747231  0.15114685  1
  Nb  Nb35  1  0.87149050  0.15163082  0.09176108  1
  Nb  Nb36  1  0.37190140  0.15163082  0.09176108  1
  Nb  Nb37  1  0.41099575  0.75825775  0.06373274  1
  Nb  Nb38  1  0.90916705  0.75613054  0.06220256  1
  Nb  Nb39  1  0.45303062  0.37911238  0.02648769  1
  Nb  Nb40  1  0.95256945  0.37911238  0.02648769  1
  O  O41  1  0.79117923  0.61742782  0.96493163  1
  O  O42  1  0.29324814  0.61690137  0.96959592  1
  O  O43  1  0.38411853  0.85456726  0.91366980  1
  O  O44  1  0.88422238  0.85468178  0.91376298  1
  O  O45  1  0.43706464  0.47103561  0.87847596  1
  O  O46  1  0.91244692  0.47103561  0.87847596  1
  O  O47  1  0.47047907  0.08754678  0.85341136  1
  O  O48  1  0.97026565  0.08667036  0.85386094  1
  O  O49  1  0.99906988  0.69933121  0.81918570  1
  O  O50  1  0.51944803  0.69933121  0.81918570  1
  O  O51  1  0.05147118  0.32175574  0.78118761  1
  O  O52  1  0.55558465  0.32729802  0.78387128  1
  O  O53  1  0.19016235  0.18225502  0.69679390  1
  O  O54  1  0.68888757  0.18225502  0.69679390  1
  O  O55  1  0.22792035  0.78825615  0.66758455  1
  O  O56  1  0.72748468  0.78378664  0.67118172  1
  O  O57  1  0.76693951  0.41833045  0.64178474  1
  O  O58  1  0.29317568  0.41833045  0.64178474  1
  O  O59  1  0.32742779  0.03716461  0.61769098  1
  O  O60  1  0.82727293  0.03685060  0.61769526  1
  O  O61  1  0.36626968  0.64975964  0.56847619  1
  O  O62  1  0.85196515  0.64975964  0.56847619  1
  O  O63  1  0.95215279  0.87745562  0.52843042  1
  O  O64  1  0.45373326  0.87745562  0.52843042  1
  O  O65  1  0.99531911  0.49816653  0.49247268  1
  O  O66  1  0.49830256  0.50061025  0.49599588  1
  O  O67  1  0.04752442  0.12275154  0.47274178  1
  O  O68  1  0.54796789  0.12275154  0.47274178  1
  O  O69  1  0.13796546  0.35227407  0.42335022  1
  O  O70  1  0.63765883  0.35227407  0.42335022  1
  O  O71  1  0.17273394  0.96258021  0.38288768  1
  O  O72  1  0.67268115  0.96281995  0.38254335  1
  O  O73  1  0.21243718  0.57358457  0.35029545  1
  O  O74  1  0.71144385  0.57358457  0.35029545  1
  O  O75  1  0.27259749  0.21704144  0.32815353  1
  O  O76  1  0.77286406  0.21723892  0.32848920  1
  O  O77  1  0.31008080  0.81739946  0.30366381  1
  O  O78  1  0.81098347  0.81739946  0.30366381  1
  O  O79  1  0.44422632  0.67162341  0.21682824  1
  O  O80  1  0.94346589  0.67089207  0.21603971  1
  O  O81  1  0.49364160  0.30335849  0.18292818  1
  O  O82  1  0.99264507  0.30335849  0.18292818  1
  O  O83  1  0.02996314  0.91332066  0.14660662  1
  O  O84  1  0.53071791  0.91426770  0.14716711  1
  O  O85  1  0.57520133  0.52801016  0.12247088  1
  O  O86  1  0.07527972  0.52801016  0.12247088  1
  O  O87  1  0.11671311  0.14616363  0.08726158  1
  O  O88  1  0.61670911  0.14632603  0.08709219  1
  O  O89  1  0.20995482  0.38212782  0.03778083  1
  O  O90  1  0.70959489  0.38117404  0.03801573  1
  O  O91  1  0.25036495  0.00081564  0.00057799  1
  O  O92  1  0.75102869  0.00081564  0.00057799  1
