# generated using pymatgen
data_Ti2CoO5
_symmetry_space_group_name_H-M   'P 1'
_cell_length_a   11.28110564
_cell_length_b   5.25280046
_cell_length_c   10.19453094
_cell_angle_alpha   90.13748539
_cell_angle_beta   89.84910940
_cell_angle_gamma   69.07203622
_symmetry_Int_Tables_number   1
_chemical_formula_structural   Ti2CoO5
_chemical_formula_sum   'Ti12 Co6 O30'
_cell_volume   564.24338671
_cell_formula_units_Z   6
loop_
 _symmetry_equiv_pos_site_id
 _symmetry_equiv_pos_as_xyz
  1  'x, y, z'
loop_
 _atom_site_type_symbol
 _atom_site_label
 _atom_site_symmetry_multiplicity
 _atom_site_fract_x
 _atom_site_fract_y
 _atom_site_fract_z
 _atom_site_occupancy
  Ti  Ti0  1  0.04642383  0.73474303  0.93558117  1
  Ti  Ti1  1  0.04565443  0.73364271  0.55172509  1
  Ti  Ti2  1  0.28716829  0.26421128  0.06788913  1
  Ti  Ti3  1  0.28799074  0.26339367  0.43634746  1
  Ti  Ti4  1  0.37905810  0.73246958  0.92810168  1
  Ti  Ti5  1  0.37864717  0.72957282  0.56851952  1
  Ti  Ti6  1  0.62267229  0.27581827  0.43566238  1
  Ti  Ti7  1  0.61769038  0.27318276  0.06925052  1
  Ti  Ti8  1  0.71018496  0.73584749  0.93741245  1
  Ti  Ti9  1  0.71209831  0.73371961  0.55764265  1
  Ti  Ti10  1  0.95136869  0.28291974  0.07413626  1
  Ti  Ti11  1  0.93790436  0.37866030  0.74710592  1
  Co  Co12  1  0.06532130  0.62304388  0.24876693  1
  Co  Co13  1  0.27110142  0.37916285  0.74988071  1
  Co  Co14  1  0.39234889  0.62354235  0.24956022  1
  Co  Co15  1  0.60623618  0.37350000  0.75030031  1
  Co  Co16  1  0.72854503  0.61797528  0.24976375  1
  Co  Co17  1  0.95371337  0.28025629  0.43502427  1
  O  O18  1  0.11165110  0.37234614  0.44614201  1
  O  O19  1  0.10538109  0.37503928  0.05379049  1
  O  O20  1  0.06788096  0.53609827  0.75653759  1
  O  O21  1  0.01605524  0.88890646  0.39240150  1
  O  O22  1  0.01177784  0.91086665  0.10754092  1
  O  O23  1  0.32578723  0.09083733  0.61250745  1
  O  O24  1  0.32451184  0.09137582  0.88685717  1
  O  O25  1  0.26324901  0.42490043  0.24780638  1
  O  O26  1  0.22757193  0.63667884  0.57356237  1
  O  O27  1  0.22508364  0.63905814  0.93103490  1
  O  O28  1  0.43582047  0.37292122  0.05342237  1
  O  O29  1  0.43670298  0.38235468  0.44214561  1
  O  O30  1  0.40889138  0.56608571  0.75115660  1
  O  O31  1  0.34130385  0.90648814  0.11061816  1
  O  O32  1  0.34561729  0.90455617  0.38945334  1
  O  O33  1  0.65202988  0.09159117  0.61037083  1
  O  O34  1  0.65578107  0.08589673  0.88637446  1
  O  O35  1  0.58930935  0.43036845  0.24644939  1
  O  O36  1  0.56403089  0.62899243  0.56720561  1
  O  O37  1  0.56375074  0.62676399  0.93799042  1
  O  O38  1  0.76329067  0.38790750  0.43276497  1
  O  O39  1  0.76973479  0.36694106  0.06094893  1
  O  O40  1  0.75180191  0.53744947  0.75173671  1
  O  O41  1  0.68330522  0.90971148  0.38746477  1
  O  O42  1  0.67647618  0.90646781  0.11130378  1
  O  O43  1  0.98587280  0.09692598  0.88045483  1
  O  O44  1  0.98506336  0.09585227  0.62856466  1
  O  O45  1  0.92767054  0.44814125  0.23844622  1
  O  O46  1  0.89467015  0.63265353  0.57635090  1
  O  O47  1  0.89579889  0.62016169  0.93592624  1
