# generated using pymatgen
data_Ti2FeO5
_symmetry_space_group_name_H-M   'P 1'
_cell_length_a   11.41661866
_cell_length_b   5.30601640
_cell_length_c   10.15999393
_cell_angle_alpha   90.00000000
_cell_angle_beta   90.00000000
_cell_angle_gamma   111.14513834
_symmetry_Int_Tables_number   1
_chemical_formula_structural   Ti2FeO5
_chemical_formula_sum   'Ti12 Fe6 O30'
_cell_volume   574.02045571
_cell_formula_units_Z   6
loop_
 _symmetry_equiv_pos_site_id
 _symmetry_equiv_pos_as_xyz
  1  'x, y, z'
loop_
 _atom_site_type_symbol
 _atom_site_label
 _atom_site_symmetry_multiplicity
 _atom_site_fract_x
 _atom_site_fract_y
 _atom_site_fract_z
 _atom_site_occupancy
  Ti  Ti0  1  0.04209014  0.26859730  0.56005604  1
  Ti  Ti1  1  0.04494564  0.27016200  0.93871984  1
  Ti  Ti2  1  0.26782068  0.61656998  0.75092830  1
  Ti  Ti3  1  0.29206688  0.73113624  0.06331267  1
  Ti  Ti4  1  0.37460012  0.26886376  0.56331267  1
  Ti  Ti5  1  0.39884632  0.38343002  0.25092830  1
  Ti  Ti6  1  0.62457586  0.73140270  0.06005604  1
  Ti  Ti7  1  0.62172036  0.72983800  0.43871984  1
  Ti  Ti8  1  0.70954282  0.26802514  0.56817389  1
  Ti  Ti9  1  0.71172585  0.27426411  0.93428255  1
  Ti  Ti10  1  0.95712418  0.73197486  0.06817389  1
  Ti  Ti11  1  0.95494115  0.72573589  0.43428255  1
  Fe  Fe12  1  0.06373133  0.38961393  0.25130218  1
  Fe  Fe13  1  0.28679632  0.72545134  0.43057479  1
  Fe  Fe14  1  0.37987068  0.27454866  0.93057479  1
  Fe  Fe15  1  0.60293567  0.61038607  0.75130218  1
  Fe  Fe16  1  0.72982476  0.37783432  0.25032270  1
  Fe  Fe17  1  0.93684124  0.62216568  0.75032270  1
  O  O18  1  0.01704198  0.09559416  0.11140915  1
  O  O19  1  0.02044634  0.08891220  0.38779298  1
  O  O20  1  0.08318437  0.45608036  0.74617930  1
  O  O21  1  0.09371697  0.61724354  0.43715081  1
  O  O22  1  0.10931992  0.64245794  0.06908088  1
  O  O23  1  0.22681868  0.37628716  0.56897200  1
  O  O24  1  0.22266801  0.38557223  0.92926935  1
  O  O25  1  0.26631489  0.52071441  0.23892835  1
  O  O26  1  0.31426556  0.92075123  0.62963633  1
  O  O27  1  0.31743889  0.88105832  0.88627851  1
  O  O28  1  0.35240144  0.07924877  0.12963633  1
  O  O29  1  0.34922811  0.11894168  0.38627851  1
  O  O30  1  0.40035211  0.47928559  0.73892835  1
  O  O31  1  0.44399799  0.61442777  0.42926935  1
  O  O32  1  0.43984732  0.62371284  0.06897200  1
  O  O33  1  0.55734708  0.35754206  0.56908088  1
  O  O34  1  0.57295003  0.38275646  0.93715081  1
  O  O35  1  0.58348263  0.54391964  0.24617930  1
  O  O36  1  0.64962502  0.90440584  0.61140915  1
  O  O37  1  0.64622066  0.91108780  0.88779298  1
  O  O38  1  0.68966605  0.08603146  0.11131371  1
  O  O39  1  0.68195391  0.07999448  0.38661243  1
  O  O40  1  0.73933521  0.41377501  0.74785876  1
  O  O41  1  0.77314755  0.63200302  0.06236061  1
  O  O42  1  0.76572439  0.61077524  0.43948386  1
  O  O43  1  0.89351945  0.36799698  0.56236061  1
  O  O44  1  0.90094261  0.38922476  0.93948386  1
  O  O45  1  0.92733079  0.58622499  0.24785876  1
  O  O46  1  0.97699995  0.91396854  0.61131371  1
  O  O47  1  0.98471209  0.92000552  0.88661243  1
