# generated using pymatgen
data_Ti11Fe13O36
_symmetry_space_group_name_H-M   'P 1'
_cell_length_a   5.59520129
_cell_length_b   16.85792732
_cell_length_c   15.03103014
_cell_angle_alpha   37.24420286
_cell_angle_beta   50.49029322
_cell_angle_gamma   54.86061812
_symmetry_Int_Tables_number   1
_chemical_formula_structural   Ti11Fe13O36
_chemical_formula_sum   'Ti11 Fe13 O36'
_cell_volume   654.71680975
_cell_formula_units_Z   1
loop_
 _symmetry_equiv_pos_site_id
 _symmetry_equiv_pos_as_xyz
  1  'x, y, z'
loop_
 _atom_site_type_symbol
 _atom_site_label
 _atom_site_symmetry_multiplicity
 _atom_site_fract_x
 _atom_site_fract_y
 _atom_site_fract_z
 _atom_site_occupancy
  Ti  Ti0  1  0.35221009  0.06123209  0.17642293  1
  Ti  Ti1  1  0.14060673  0.69269518  0.07222131  1
  Ti  Ti2  1  0.14202222  0.19229730  0.57213954  1
  Ti  Ti3  1  0.84906276  0.14066842  0.43183725  1
  Ti  Ti4  1  0.15550891  0.52031294  0.57361994  1
  Ti  Ti5  1  0.86010262  0.47646787  0.42430919  1
  Ti  Ti6  1  0.13625109  0.85715309  0.57955319  1
  Ti  Ti7  1  0.84822423  0.31607147  0.92299277  1
  Ti  Ti8  1  0.87227394  0.80496714  0.42546329  1
  Ti  Ti9  1  0.84839752  0.63731096  0.93132371  1
  Ti  Ti10  1  0.84695608  0.97753744  0.92532299  1
  Fe  Fe11  1  0.14248449  0.02363429  0.07404736  1
  Fe  Fe12  1  0.15241259  0.35942787  0.07189912  1
  Fe  Fe13  1  0.36192541  0.39260714  0.17585775  1
  Fe  Fe14  1  0.64919530  0.10741488  0.32088813  1
  Fe  Fe15  1  0.35361788  0.22366772  0.68108096  1
  Fe  Fe16  1  0.34685922  0.72835081  0.17758494  1
  Fe  Fe17  1  0.65063330  0.43976390  0.32120880  1
  Fe  Fe18  1  0.35861294  0.55720242  0.68130811  1
  Fe  Fe19  1  0.64432861  0.27119995  0.82367480  1
  Fe  Fe20  1  0.64553473  0.77487808  0.32253844  1
  Fe  Fe21  1  0.34810754  0.89411825  0.67810599  1
  Fe  Fe22  1  0.64705880  0.61101096  0.81742129  1
  Fe  Fe23  1  0.64138795  0.93813057  0.82596991  1
  O  O24  1  0.08633799  0.17326702  0.21474362  1
  O  O25  1  0.73169371  0.12940097  0.04216231  1
  O  O26  1  0.21857819  0.02861693  0.47919054  1
  O  O27  1  0.57271903  0.27755621  0.11247619  1
  O  O28  1  0.05140619  0.02330196  0.71495555  1
  O  O29  1  0.05133991  0.52214693  0.21687882  1
  O  O30  1  0.44180737  0.21959553  0.38944157  1
  O  O31  1  0.76704292  0.47698819  0.02020298  1
  O  O32  1  0.21878386  0.35931006  0.48078345  1
  O  O33  1  0.56348108  0.61577784  0.11009884  1
  O  O34  1  0.56821745  0.11118961  0.61248508  1
  O  O35  1  0.05414613  0.35267981  0.72023136  1
  O  O36  1  0.03888314  0.84602170  0.22751524  1
  O  O37  1  0.95339587  0.30897656  0.28448007  1
  O  O38  1  0.44185218  0.05375366  0.88447116  1
  O  O39  1  0.43705169  0.55158704  0.38897706  1
  O  O40  1  0.78255996  0.30450923  0.52137924  1
  O  O41  1  0.77596786  0.80470473  0.02421740  1
  O  O42  1  0.20834363  0.19162587  0.98492239  1
  O  O43  1  0.23147262  0.69669091  0.47631459  1
  O  O44  1  0.56361903  0.44898913  0.60757583  1
  O  O45  1  0.56411218  0.95361468  0.10789331  1
  O  O46  1  0.05175911  0.69254355  0.71027362  1
  O  O47  1  0.94974044  0.64472924  0.28314423  1
  O  O48  1  0.94305558  0.14671587  0.78354803  1
  O  O49  1  0.45794788  0.38488835  0.88197253  1
  O  O50  1  0.42514990  0.90627430  0.37144463  1
  O  O51  1  0.78716362  0.63778722  0.52619075  1
  O  O52  1  0.21833478  0.53179376  0.97311954  1
  O  O53  1  0.56413282  0.78124668  0.60654269  1
  O  O54  1  0.95339510  0.47828199  0.78443715  1
  O  O55  1  0.97020923  0.97512539  0.28473207  1
  O  O56  1  0.42783748  0.72334035  0.88703170  1
  O  O57  1  0.77960847  0.97315754  0.52183890  1
  O  O58  1  0.21107885  0.86312629  0.97675124  1
  O  O59  1  0.94399977  0.81256414  0.78078463  1
