# generated using pymatgen
data_Sn(PO3)3
_symmetry_space_group_name_H-M   'P 1'
_cell_length_a   6.80327325
_cell_length_b   6.80337486
_cell_length_c   10.57202011
_cell_angle_alpha   90.00073829
_cell_angle_beta   89.99929713
_cell_angle_gamma   59.99899228
_symmetry_Int_Tables_number   1
_chemical_formula_structural   Sn(PO3)3
_chemical_formula_sum   'Sn2 P6 O18'
_cell_volume   423.76639869
_cell_formula_units_Z   2
loop_
 _symmetry_equiv_pos_site_id
 _symmetry_equiv_pos_as_xyz
  1  'x, y, z'
loop_
 _atom_site_type_symbol
 _atom_site_label
 _atom_site_symmetry_multiplicity
 _atom_site_fract_x
 _atom_site_fract_y
 _atom_site_fract_z
 _atom_site_occupancy
  Sn  Sn0  1  0.66666638  0.66668603  0.50001537  1
  Sn  Sn1  1  0.66666631  0.66664360  0.00001037  1
  P  P2  1  0.27417197  0.77880594  0.77337386  1
  P  P3  1  0.27418067  0.94701446  0.22661807  1
  P  P4  1  0.77880108  0.27419061  0.22661510  1
  P  P5  1  0.94702432  0.27416775  0.77337723  1
  P  P6  1  0.77880734  0.94702249  0.77337744  1
  P  P7  1  0.94701058  0.77880477  0.22660725  1
  O  O8  1  0.04587160  0.18803317  0.21123775  1
  O  O9  1  0.18803617  0.04585969  0.78871735  1
  O  O10  1  0.04587200  0.76610167  0.78873453  1
  O  O11  1  0.18802879  0.76610255  0.21125747  1
  O  O12  1  0.37996393  0.68806186  0.64845586  1
  O  O13  1  0.41506208  0.66341655  0.89150578  1
  O  O14  1  0.76609708  0.04587969  0.21125833  1
  O  O15  1  0.68809824  0.37996330  0.35153872  1
  O  O16  1  0.66339452  0.41507356  0.10849352  1
  O  O17  1  0.76610150  0.18803152  0.78874633  1
  O  O18  1  0.37992063  0.93197153  0.35153516  1
  O  O19  1  0.41509273  0.92151050  0.10849528  1
  O  O20  1  0.66340481  0.92151006  0.89151631  1
  O  O21  1  0.68809396  0.93197733  0.64846856  1
  O  O22  1  0.92154921  0.41504911  0.89152547  1
  O  O23  1  0.93194667  0.37997528  0.64847278  1
  O  O24  1  0.92154053  0.66338591  0.10848954  1
  O  O25  1  0.93194391  0.68810606  0.35153558  1
