# generated using pymatgen
data_Ho2MgSe4
_symmetry_space_group_name_H-M   'P 1'
_cell_length_a   8.25172292
_cell_length_b   8.25172292
_cell_length_c   8.25172292
_cell_angle_alpha   60.00000000
_cell_angle_beta   60.00000000
_cell_angle_gamma   60.00000000
_symmetry_Int_Tables_number   1
_chemical_formula_structural   Ho2MgSe4
_chemical_formula_sum   'Ho4 Mg2 Se8'
_cell_volume   397.30031675
_cell_formula_units_Z   2
loop_
 _symmetry_equiv_pos_site_id
 _symmetry_equiv_pos_as_xyz
  1  'x, y, z'
loop_
 _atom_site_type_symbol
 _atom_site_label
 _atom_site_symmetry_multiplicity
 _atom_site_fract_x
 _atom_site_fract_y
 _atom_site_fract_z
 _atom_site_occupancy
  Ho  Ho0  1  -0.00000000  -0.00000000  0.50000000  1
  Ho  Ho1  1  -0.00000000  0.50000000  0.00000000  1
  Ho  Ho2  1  0.50000000  0.00000000  0.00000000  1
  Ho  Ho3  1  -0.00000000  -0.00000000  0.00000000  1
  Mg  Mg4  1  0.37500000  0.37500000  0.37500000  1
  Mg  Mg5  1  0.62500000  0.62500000  0.62500000  1
  Se  Se6  1  0.24507387  0.24507387  0.76477839  1
  Se  Se7  1  0.24507387  0.76477839  0.24507387  1
  Se  Se8  1  0.76477839  0.24507387  0.24507387  1
  Se  Se9  1  0.24507387  0.24507387  0.24507387  1
  Se  Se10  1  0.75492613  0.75492613  0.23522161  1
  Se  Se11  1  0.75492613  0.23522161  0.75492613  1
  Se  Se12  1  0.23522161  0.75492613  0.75492613  1
  Se  Se13  1  0.75492613  0.75492613  0.75492613  1
