# generated using pymatgen
data_CeMg12
_symmetry_space_group_name_H-M   'P 1'
_cell_length_a   5.79898317
_cell_length_b   7.82420199
_cell_length_c   7.82420199
_cell_angle_alpha   82.10665833
_cell_angle_beta   68.24861628
_cell_angle_gamma   68.24861628
_symmetry_Int_Tables_number   1
_chemical_formula_structural   CeMg12
_chemical_formula_sum   'Ce1 Mg12'
_cell_volume   306.25058959
_cell_formula_units_Z   1
loop_
 _symmetry_equiv_pos_site_id
 _symmetry_equiv_pos_as_xyz
  1  'x, y, z'
loop_
 _atom_site_type_symbol
 _atom_site_label
 _atom_site_symmetry_multiplicity
 _atom_site_fract_x
 _atom_site_fract_y
 _atom_site_fract_z
 _atom_site_occupancy
  Ce  Ce0  1  0.00000000  -0.00000000  -0.00000000  1
  Mg  Mg1  1  0.00000000  -0.00000000  0.50000000  1
  Mg  Mg2  1  0.50000000  -0.00000000  0.50000000  1
  Mg  Mg3  1  0.50000000  0.50000000  -0.00000000  1
  Mg  Mg4  1  0.00000000  0.50000000  -0.00000000  1
  Mg  Mg5  1  0.00000000  0.35417357  0.64582643  1
  Mg  Mg6  1  0.00000000  0.64582643  0.35417357  1
  Mg  Mg7  1  0.64582643  0.35417357  0.35417357  1
  Mg  Mg8  1  0.35417357  0.64582643  0.64582643  1
  Mg  Mg9  1  0.50000000  0.78584134  0.21415866  1
  Mg  Mg10  1  0.50000000  0.21415866  0.78584134  1
  Mg  Mg11  1  0.71415866  0.78584134  0.78584134  1
  Mg  Mg12  1  0.28584134  0.21415866  0.21415866  1
