# generated using pymatgen
data_HoGa6
_symmetry_space_group_name_H-M   'P 1'
_cell_length_a   6.02466672
_cell_length_b   6.02466672
_cell_length_c   7.58631541
_cell_angle_alpha   90.00000000
_cell_angle_beta   90.00000000
_cell_angle_gamma   90.00000000
_symmetry_Int_Tables_number   1
_chemical_formula_structural   HoGa6
_chemical_formula_sum   'Ho2 Ga12'
_cell_volume   275.35752485
_cell_formula_units_Z   2
loop_
 _symmetry_equiv_pos_site_id
 _symmetry_equiv_pos_as_xyz
  1  'x, y, z'
loop_
 _atom_site_type_symbol
 _atom_site_label
 _atom_site_symmetry_multiplicity
 _atom_site_fract_x
 _atom_site_fract_y
 _atom_site_fract_z
 _atom_site_occupancy
  Ho  Ho0  1  0.75000000  0.25000000  0.00000000  1
  Ho  Ho1  1  0.25000000  0.75000000  0.00000000  1
  Ga  Ga2  1  0.75000000  0.75000000  0.16174830  1
  Ga  Ga3  1  0.25000000  0.25000000  0.16174830  1
  Ga  Ga4  1  0.25000000  0.25000000  0.83825170  1
  Ga  Ga5  1  0.75000000  0.75000000  0.83825170  1
  Ga  Ga6  1  0.06440275  0.93559725  0.34967361  1
  Ga  Ga7  1  0.56440275  0.06440275  0.34967361  1
  Ga  Ga8  1  0.93559725  0.43559725  0.34967361  1
  Ga  Ga9  1  0.43559725  0.56440275  0.34967361  1
  Ga  Ga10  1  0.93559725  0.06440275  0.65032639  1
  Ga  Ga11  1  0.43559725  0.93559725  0.65032639  1
  Ga  Ga12  1  0.06440275  0.56440275  0.65032639  1
  Ga  Ga13  1  0.56440275  0.43559725  0.65032639  1
