# generated using pymatgen
data_La(MnAl2)4
_symmetry_space_group_name_H-M   'P 1'
_cell_length_a   5.20504142
_cell_length_b   6.82487946
_cell_length_c   6.82487946
_cell_angle_alpha   81.63889756
_cell_angle_beta   67.58400574
_cell_angle_gamma   67.58400574
_symmetry_Int_Tables_number   1
_chemical_formula_structural   La(MnAl2)4
_chemical_formula_sum   'La1 Mn4 Al8'
_cell_volume   207.19117899
_cell_formula_units_Z   1
loop_
 _symmetry_equiv_pos_site_id
 _symmetry_equiv_pos_as_xyz
  1  'x, y, z'
loop_
 _atom_site_type_symbol
 _atom_site_label
 _atom_site_symmetry_multiplicity
 _atom_site_fract_x
 _atom_site_fract_y
 _atom_site_fract_z
 _atom_site_occupancy
  La  La0  1  0.00000000  0.00000000  -0.00000000  1
  Mn  Mn1  1  0.00000000  0.00000000  0.50000000  1
  Mn  Mn2  1  0.50000000  0.00000000  0.50000000  1
  Mn  Mn3  1  0.50000000  0.50000000  -0.00000000  1
  Mn  Mn4  1  0.00000000  0.50000000  -0.00000000  1
  Al  Al5  1  0.00000000  0.34182547  0.65817453  1
  Al  Al6  1  -0.00000000  0.65817453  0.34182547  1
  Al  Al7  1  0.65817453  0.34182547  0.34182547  1
  Al  Al8  1  0.34182547  0.65817453  0.65817453  1
  Al  Al9  1  0.50000000  0.77069443  0.22930557  1
  Al  Al10  1  0.50000000  0.22930557  0.77069443  1
  Al  Al11  1  0.72930557  0.77069443  0.77069443  1
  Al  Al12  1  0.27069443  0.22930557  0.22930557  1
