# generated using pymatgen
data_Sr3Ta2ZnO9
_symmetry_space_group_name_H-M   'P 1'
_cell_length_a   5.72533888
_cell_length_b   5.72531457
_cell_length_c   7.07413866
_cell_angle_alpha   89.99980081
_cell_angle_beta   90.00033541
_cell_angle_gamma   120.00021858
_symmetry_Int_Tables_number   1
_chemical_formula_structural   Sr3Ta2ZnO9
_chemical_formula_sum   'Sr3 Ta2 Zn1 O9'
_cell_volume   200.81853488
_cell_formula_units_Z   1
loop_
 _symmetry_equiv_pos_site_id
 _symmetry_equiv_pos_as_xyz
  1  'x, y, z'
loop_
 _atom_site_type_symbol
 _atom_site_label
 _atom_site_symmetry_multiplicity
 _atom_site_fract_x
 _atom_site_fract_y
 _atom_site_fract_z
 _atom_site_occupancy
  Sr  Sr0  1  0.00000000  0.00000000  -0.00000000  1
  Sr  Sr1  1  0.33334783  0.66667396  0.66219533  1
  Sr  Sr2  1  0.66665217  0.33332604  0.33780467  1
  Ta  Ta3  1  0.33334504  0.66667176  0.17650070  1
  Ta  Ta4  1  0.66665496  0.33332824  0.82349930  1
  Zn  Zn5  1  0.00000000  0.00000000  0.50000000  1
  O  O6  1  0.50000000  0.50000000  -0.00000000  1
  O  O7  1  0.50000000  0.00000000  -0.00000000  1
  O  O8  1  0.00000000  0.50000000  -0.00000000  1
  O  O9  1  0.16959168  0.83030374  0.32322062  1
  O  O10  1  0.16970744  0.33928251  0.32322167  1
  O  O11  1  0.66070378  0.83040868  0.32320661  1
  O  O12  1  0.83040832  0.16969626  0.67677938  1
  O  O13  1  0.83029256  0.66071749  0.67677833  1
  O  O14  1  0.33929622  0.16959132  0.67679339  1
