# generated using pymatgen
data_Si
_symmetry_space_group_name_H-M   'P 1'
_cell_length_a   10.81705554
_cell_length_b   10.81705554
_cell_length_c   10.81705554
_cell_angle_alpha   109.47122063
_cell_angle_beta   109.47122063
_cell_angle_gamma   109.47122063
_symmetry_Int_Tables_number   1
_chemical_formula_structural   Si
_chemical_formula_sum   Si41
_cell_volume   974.32823577
_cell_formula_units_Z   41
loop_
 _symmetry_equiv_pos_site_id
 _symmetry_equiv_pos_as_xyz
  1  'x, y, z'
loop_
 _atom_site_type_symbol
 _atom_site_label
 _atom_site_symmetry_multiplicity
 _atom_site_fract_x
 _atom_site_fract_y
 _atom_site_fract_z
 _atom_site_occupancy
  Si  Si0  1  0.78656745  0.39179949  0.13260791  1
  Si  Si1  1  0.39476796  0.74080842  0.60820051  1
  Si  Si2  1  0.65395954  0.86739209  0.25919158  1
  Si  Si3  1  0.65395954  0.25919158  0.86739209  1
  Si  Si4  1  0.78656745  0.13260791  0.39179949  1
  Si  Si5  1  0.39476796  0.60820051  0.74080842  1
  Si  Si6  1  0.25919158  0.65395954  0.86739209  1
  Si  Si7  1  0.13260791  0.78656745  0.39179949  1
  Si  Si8  1  0.60820051  0.39476796  0.74080842  1
  Si  Si9  1  0.39179949  0.78656745  0.13260791  1
  Si  Si10  1  0.74080842  0.39476796  0.60820051  1
  Si  Si11  1  0.86739209  0.65395954  0.25919158  1
  Si  Si12  1  0.74080842  0.60820051  0.39476796  1
  Si  Si13  1  0.86739209  0.25919158  0.65395954  1
  Si  Si14  1  0.39179949  0.13260791  0.78656745  1
  Si  Si15  1  0.60820051  0.74080842  0.39476796  1
  Si  Si16  1  0.25919158  0.86739209  0.65395954  1
  Si  Si17  1  0.13260791  0.39179949  0.78656745  1
  Si  Si18  1  0.21343255  0.34604046  0.60523204  1
  Si  Si19  1  0.60523204  0.21343255  0.34604046  1
  Si  Si20  1  0.34604046  0.60523204  0.21343255  1
  Si  Si21  1  0.34604046  0.21343255  0.60523204  1
  Si  Si22  1  0.21343255  0.60523204  0.34604046  1
  Si  Si23  1  0.60523204  0.34604046  0.21343255  1
  Si  Si24  1  0.00000000  0.00000000  0.21737631  1
  Si  Si25  1  -0.00000000  0.21737631  -0.00000000  1
  Si  Si26  1  0.78262369  0.78262369  0.78262369  1
  Si  Si27  1  0.21737631  -0.00000000  0.00000000  1
  Si  Si28  1  0.00000000  -0.00000000  -0.00000000  1
  Si  Si29  1  -0.00000000  0.35928304  0.22321583  1
  Si  Si30  1  0.64071696  0.86393279  0.64071696  1
  Si  Si31  1  0.77678417  0.77678417  0.13606721  1
  Si  Si32  1  0.77678417  0.13606721  0.77678417  1
  Si  Si33  1  0.00000000  0.22321583  0.35928304  1
  Si  Si34  1  0.64071696  0.64071696  0.86393279  1
  Si  Si35  1  0.13606721  0.77678417  0.77678417  1
  Si  Si36  1  0.22321583  0.00000000  0.35928304  1
  Si  Si37  1  0.35928304  0.00000000  0.22321583  1
  Si  Si38  1  0.86393279  0.64071696  0.64071696  1
  Si  Si39  1  0.35928304  0.22321583  -0.00000000  1
  Si  Si40  1  0.22321583  0.35928304  -0.00000000  1
