# generated using pymatgen
data_Tm3Ga8Ag3
_symmetry_space_group_name_H-M   'P 1'
_cell_length_a   4.36009867
_cell_length_b   8.26204094
_cell_length_c   8.26204094
_cell_angle_alpha   70.55916680
_cell_angle_beta   74.70057957
_cell_angle_gamma   74.70057957
_symmetry_Int_Tables_number   1
_chemical_formula_structural   Tm3Ga8Ag3
_chemical_formula_sum   'Tm3 Ga8 Ag3'
_cell_volume   265.59199391
_cell_formula_units_Z   1
loop_
 _symmetry_equiv_pos_site_id
 _symmetry_equiv_pos_as_xyz
  1  'x, y, z'
loop_
 _atom_site_type_symbol
 _atom_site_label
 _atom_site_symmetry_multiplicity
 _atom_site_fract_x
 _atom_site_fract_y
 _atom_site_fract_z
 _atom_site_occupancy
  Tm  Tm0  1  0.50000000  0.50000000  0.50000000  1
  Tm  Tm1  1  0.20417756  0.79582244  0.79582244  1
  Tm  Tm2  1  0.79582244  0.20417756  0.20417756  1
  Ga  Ga3  1  0.35801689  0.36104148  0.92292473  1
  Ga  Ga4  1  0.64198311  0.63895852  0.07707527  1
  Ga  Ga5  1  0.35801689  0.92292473  0.36104148  1
  Ga  Ga6  1  0.64198311  0.07707527  0.63895852  1
  Ga  Ga7  1  0.15720641  0.47319352  0.21239365  1
  Ga  Ga8  1  0.84279359  0.52680648  0.78760635  1
  Ga  Ga9  1  0.15720641  0.21239365  0.47319352  1
  Ga  Ga10  1  0.84279359  0.78760635  0.52680648  1
  Ag  Ag11  1  0.50000000  -0.00000000  -0.00000000  1
  Ag  Ag12  1  0.00000000  0.81221224  0.18778776  1
  Ag  Ag13  1  -0.00000000  0.18778776  0.81221224  1
