# generated using pymatgen
data_Pr3Pt2
_symmetry_space_group_name_H-M   'P 1'
_cell_length_a   7.76998520
_cell_length_b   7.76998520
_cell_length_c   7.76998542
_cell_angle_alpha   72.06275736
_cell_angle_beta   72.06275736
_cell_angle_gamma   72.06275346
_symmetry_Int_Tables_number   1
_chemical_formula_structural   Pr3Pt2
_chemical_formula_sum   'Pr9 Pt6'
_cell_volume   412.66371998
_cell_formula_units_Z   3
loop_
 _symmetry_equiv_pos_site_id
 _symmetry_equiv_pos_as_xyz
  1  'x, y, z'
loop_
 _atom_site_type_symbol
 _atom_site_label
 _atom_site_symmetry_multiplicity
 _atom_site_fract_x
 _atom_site_fract_y
 _atom_site_fract_z
 _atom_site_occupancy
  Pr  Pr0  1  -0.00000000  0.00000000  -0.00000000  1
  Pr  Pr1  1  0.79765594  0.79765594  0.79765594  1
  Pr  Pr2  1  0.20234406  0.20234406  0.20234406  1
  Pr  Pr3  1  0.60844612  0.33441553  0.83378525  1
  Pr  Pr4  1  0.33441553  0.83378525  0.60844612  1
  Pr  Pr5  1  0.83378525  0.60844612  0.33441553  1
  Pr  Pr6  1  0.39155388  0.66558447  0.16621475  1
  Pr  Pr7  1  0.66558447  0.16621475  0.39155388  1
  Pr  Pr8  1  0.16621475  0.39155388  0.66558447  1
  Pt  Pt9  1  0.95860988  0.15926688  0.59037192  1
  Pt  Pt10  1  0.15926688  0.59037192  0.95860988  1
  Pt  Pt11  1  0.59037192  0.95860988  0.15926688  1
  Pt  Pt12  1  0.04139012  0.84073312  0.40962808  1
  Pt  Pt13  1  0.84073312  0.40962808  0.04139012  1
  Pt  Pt14  1  0.40962808  0.04139012  0.84073312  1
