# generated using pymatgen
data_Ho2Co7
_symmetry_space_group_name_H-M   'P 1'
_cell_length_a   4.92433763
_cell_length_b   4.92433763
_cell_length_c   12.31356085
_cell_angle_alpha   78.46562191
_cell_angle_beta   78.46562191
_cell_angle_gamma   60.00000474
_symmetry_Int_Tables_number   1
_chemical_formula_structural   Ho2Co7
_chemical_formula_sum   'Ho4 Co14'
_cell_volume   251.60188926
_cell_formula_units_Z   2
loop_
 _symmetry_equiv_pos_site_id
 _symmetry_equiv_pos_as_xyz
  1  'x, y, z'
loop_
 _atom_site_type_symbol
 _atom_site_label
 _atom_site_symmetry_multiplicity
 _atom_site_fract_x
 _atom_site_fract_y
 _atom_site_fract_z
 _atom_site_occupancy
  Ho  Ho0  1  0.05255037  0.05255037  0.84234890  1
  Ho  Ho1  1  0.94744963  0.94744963  0.15765110  1
  Ho  Ho2  1  0.14855034  0.14855034  0.55434899  1
  Ho  Ho3  1  0.85144966  0.85144966  0.44565101  1
  Co  Co4  1  0.50000000  0.50000000  0.50000000  1
  Co  Co5  1  0.27844301  0.27844301  0.16467098  1
  Co  Co6  1  0.72155699  0.72155699  0.83532902  1
  Co  Co7  1  0.38860312  0.38860312  0.83419064  1
  Co  Co8  1  0.61139688  0.61139688  0.16580936  1
  Co  Co9  1  0.50000000  0.50000000  -0.00000000  1
  Co  Co10  1  0.50000000  0.00000000  -0.00000000  1
  Co  Co11  1  0.00000000  0.50000000  -0.00000000  1
  Co  Co12  1  0.10910678  0.60967473  0.67154376  1
  Co  Co13  1  0.60967473  0.60967473  0.67154376  1
  Co  Co14  1  0.60967473  0.10910678  0.67154376  1
  Co  Co15  1  0.89089322  0.39032527  0.32845624  1
  Co  Co16  1  0.39032527  0.39032527  0.32845624  1
  Co  Co17  1  0.39032527  0.89089322  0.32845624  1
