# generated using pymatgen
data_Dy(Ni2B)6
_symmetry_space_group_name_H-M   'P 1'
_cell_length_a   6.00350852
_cell_length_b   6.00350852
_cell_length_c   6.00350886
_cell_angle_alpha   104.32092079
_cell_angle_beta   104.32092079
_cell_angle_gamma   104.32091506
_symmetry_Int_Tables_number   1
_chemical_formula_structural   Dy(Ni2B)6
_chemical_formula_sum   'Dy1 Ni12 B6'
_cell_volume   191.85670136
_cell_formula_units_Z   1
loop_
 _symmetry_equiv_pos_site_id
 _symmetry_equiv_pos_as_xyz
  1  'x, y, z'
loop_
 _atom_site_type_symbol
 _atom_site_label
 _atom_site_symmetry_multiplicity
 _atom_site_fract_x
 _atom_site_fract_y
 _atom_site_fract_z
 _atom_site_occupancy
  Dy  Dy0  1  0.00000000  -0.00000000  0.00000000  1
  Ni  Ni1  1  0.86950945  0.13049055  0.50000000  1
  Ni  Ni2  1  0.13049055  0.50000000  0.86950945  1
  Ni  Ni3  1  0.50000000  0.86950945  0.13049055  1
  Ni  Ni4  1  0.86950945  0.50000000  0.13049055  1
  Ni  Ni5  1  0.50000000  0.13049055  0.86950945  1
  Ni  Ni6  1  0.13049055  0.86950945  0.50000000  1
  Ni  Ni7  1  0.81217406  0.54647658  0.54647658  1
  Ni  Ni8  1  0.54647658  0.54647658  0.81217406  1
  Ni  Ni9  1  0.54647658  0.81217406  0.54647658  1
  Ni  Ni10  1  0.18782594  0.45352342  0.45352342  1
  Ni  Ni11  1  0.45352342  0.45352342  0.18782594  1
  Ni  Ni12  1  0.45352342  0.18782594  0.45352342  1
  B  B13  1  0.33296377  0.76628865  0.76628865  1
  B  B14  1  0.76628865  0.76628865  0.33296377  1
  B  B15  1  0.76628865  0.33296377  0.76628865  1
  B  B16  1  0.66703623  0.23371135  0.23371135  1
  B  B17  1  0.23371135  0.23371135  0.66703623  1
  B  B18  1  0.23371135  0.66703623  0.23371135  1
