# generated using pymatgen
data_Zr5Ga3
_symmetry_space_group_name_H-M   'P 1'
_cell_length_a   5.76941867
_cell_length_b   8.12665430
_cell_length_c   8.12654742
_cell_angle_alpha   120.00043189
_cell_angle_beta   90.00000000
_cell_angle_gamma   90.00000000
_symmetry_Int_Tables_number   1
_chemical_formula_structural   Zr5Ga3
_chemical_formula_sum   'Zr10 Ga6'
_cell_volume   329.97319113
_cell_formula_units_Z   2
loop_
 _symmetry_equiv_pos_site_id
 _symmetry_equiv_pos_as_xyz
  1  'x, y, z'
loop_
 _atom_site_type_symbol
 _atom_site_label
 _atom_site_symmetry_multiplicity
 _atom_site_fract_x
 _atom_site_fract_y
 _atom_site_fract_z
 _atom_site_occupancy
  Zr  Zr0  1  0.50000030  0.33332971  0.66667634  1
  Zr  Zr1  1  0.50000030  0.66665338  0.33332366  1
  Zr  Zr2  1  0.00000030  0.66667029  0.33332366  1
  Zr  Zr3  1  0.00000030  0.33334662  0.66667634  1
  Zr  Zr4  1  0.74999779  0.24134453  1.00000000  1
  Zr  Zr5  1  0.75000142  0.75863556  0.75862568  1
  Zr  Zr6  1  0.75000142  0.00000988  0.24137432  1
  Zr  Zr7  1  0.24999779  0.75865547  0.00000000  1
  Zr  Zr8  1  0.25000142  0.24136444  0.24137432  1
  Zr  Zr9  1  0.25000142  0.99999012  0.75862568  1
  Ga  Ga10  1  0.74998870  0.60627071  0.00000000  1
  Ga  Ga11  1  0.75000503  0.39374134  0.39373821  1
  Ga  Ga12  1  0.75000503  0.00000313  0.60626179  1
  Ga  Ga13  1  0.24998870  0.39372929  1.00000000  1
  Ga  Ga14  1  0.25000503  0.60625866  0.60626179  1
  Ga  Ga15  1  0.25000503  -0.00000313  0.39373821  1
