# generated using pymatgen
data_Re7B3
_symmetry_space_group_name_H-M   'P 1'
_cell_length_a   4.93198612
_cell_length_b   7.55549860
_cell_length_c   7.55549860
_cell_angle_alpha   120.00895797
_cell_angle_beta   90.00000000
_cell_angle_gamma   90.00000000
_symmetry_Int_Tables_number   1
_chemical_formula_structural   Re7B3
_chemical_formula_sum   'Re14 B6'
_cell_volume   243.80327009
_cell_formula_units_Z   2
loop_
 _symmetry_equiv_pos_site_id
 _symmetry_equiv_pos_as_xyz
  1  'x, y, z'
loop_
 _atom_site_type_symbol
 _atom_site_label
 _atom_site_symmetry_multiplicity
 _atom_site_fract_x
 _atom_site_fract_y
 _atom_site_fract_z
 _atom_site_occupancy
  Re  Re0  1  0.41302864  0.33336069  0.66663931  1
  Re  Re1  1  0.91302864  0.66663931  0.33336069  1
  Re  Re2  1  0.24948526  0.12257182  0.87742818  1
  Re  Re3  1  0.24944865  0.75486261  0.87744202  1
  Re  Re4  1  0.24944865  0.12255798  0.24513739  1
  Re  Re5  1  0.74948526  0.87742818  0.12257182  1
  Re  Re6  1  0.74944865  0.24513739  0.12255798  1
  Re  Re7  1  0.74944865  0.87744202  0.75486261  1
  Re  Re8  1  0.45018485  0.54607412  0.45392588  1
  Re  Re9  1  0.45020758  0.90784714  0.45395469  1
  Re  Re10  1  0.45020758  0.54604531  0.09215286  1
  Re  Re11  1  0.95018485  0.45392588  0.54607412  1
  Re  Re12  1  0.95020758  0.09215286  0.54604531  1
  Re  Re13  1  0.95020758  0.45395469  0.90784714  1
  B  B14  1  0.15865911  0.81025295  0.18974705  1
  B  B15  1  0.15866484  0.37946595  0.18973416  1
  B  B16  1  0.15866484  0.81026584  0.62053405  1
  B  B17  1  0.65865911  0.18974705  0.81025295  1
  B  B18  1  0.65866484  0.62053405  0.81026584  1
  B  B19  1  0.65866484  0.18973416  0.37946595  1
