# generated using pymatgen
data_Ce7Rh3
_symmetry_space_group_name_H-M   'P 1'
_cell_length_a   6.13704763
_cell_length_b   9.81497130
_cell_length_c   9.81497130
_cell_angle_alpha   120.01082263
_cell_angle_beta   90.00000000
_cell_angle_gamma   90.00000000
_symmetry_Int_Tables_number   1
_chemical_formula_structural   Ce7Rh3
_chemical_formula_sum   'Ce14 Rh6'
_cell_volume   511.94207038
_cell_formula_units_Z   2
loop_
 _symmetry_equiv_pos_site_id
 _symmetry_equiv_pos_as_xyz
  1  'x, y, z'
loop_
 _atom_site_type_symbol
 _atom_site_label
 _atom_site_symmetry_multiplicity
 _atom_site_fract_x
 _atom_site_fract_y
 _atom_site_fract_z
 _atom_site_occupancy
  Ce  Ce0  1  0.44155231  0.33324618  0.66675382  1
  Ce  Ce1  1  0.94155231  0.66675382  0.33324618  1
  Ce  Ce2  1  0.24567775  0.12844521  0.87155479  1
  Ce  Ce3  1  0.24555681  0.74315260  0.87163188  1
  Ce  Ce4  1  0.24555681  0.12836812  0.25684740  1
  Ce  Ce5  1  0.74567775  0.87155479  0.12844521  1
  Ce  Ce6  1  0.74555681  0.25684740  0.12836812  1
  Ce  Ce7  1  0.74555681  0.87163188  0.74315260  1
  Ce  Ce8  1  0.45788768  0.53858975  0.46141025  1
  Ce  Ce9  1  0.45818998  0.92298297  0.46151590  1
  Ce  Ce10  1  0.45818998  0.53848410  0.07701703  1
  Ce  Ce11  1  0.95788768  0.46141025  0.53858975  1
  Ce  Ce12  1  0.95818998  0.07701703  0.53848410  1
  Ce  Ce13  1  0.95818998  0.46151590  0.92298297  1
  Rh  Rh14  1  0.20201810  0.81408726  0.18591274  1
  Rh  Rh15  1  0.20218529  0.37189878  0.18601075  1
  Rh  Rh16  1  0.20218529  0.81398925  0.62810122  1
  Rh  Rh17  1  0.70201810  0.18591274  0.81408726  1
  Rh  Rh18  1  0.70218529  0.62810122  0.81398925  1
  Rh  Rh19  1  0.70218529  0.18601075  0.37189878  1
