# generated using pymatgen
data_Ba2ErGaTe5
_symmetry_space_group_name_H-M   'P 1'
_cell_length_a   4.52372735
_cell_length_b   10.48062851
_cell_length_c   14.36520140
_cell_angle_alpha   90.00000000
_cell_angle_beta   90.00000000
_cell_angle_gamma   102.46327500
_symmetry_Int_Tables_number   1
_chemical_formula_structural   Ba2ErGaTe5
_chemical_formula_sum   'Ba4 Er2 Ga2 Te10'
_cell_volume   665.02596361
_cell_formula_units_Z   2
loop_
 _symmetry_equiv_pos_site_id
 _symmetry_equiv_pos_as_xyz
  1  'x, y, z'
loop_
 _atom_site_type_symbol
 _atom_site_label
 _atom_site_symmetry_multiplicity
 _atom_site_fract_x
 _atom_site_fract_y
 _atom_site_fract_z
 _atom_site_occupancy
  Ba  Ba0  1  0.87213298  0.74426597  0.81949906  1
  Ba  Ba1  1  0.12786702  0.25573403  0.31949906  1
  Ba  Ba2  1  0.87897111  0.75794222  0.18224482  1
  Ba  Ba3  1  0.12102889  0.24205778  0.68224482  1
  Er  Er4  1  0.79467678  0.58935357  0.51972972  1
  Er  Er5  1  0.20532322  0.41064643  0.01972972  1
  Ga  Ga6  1  0.55949254  0.11898508  0.92438676  1
  Ga  Ga7  1  0.44050746  0.88101492  0.42438676  1
  Te  Te8  1  0.64840584  0.29681168  0.50234207  1
  Te  Te9  1  0.35159416  0.70318832  0.00234207  1
  Te  Te10  1  0.70415791  0.40831582  0.16255953  1
  Te  Te11  1  0.29584209  0.59168418  0.66255953  1
  Te  Te12  1  0.68745105  0.37490210  0.86732468  1
  Te  Te13  1  0.31254895  0.62509790  0.36732468  1
  Te  Te14  1  0.49824271  0.99648541  0.76340954  1
  Te  Te15  1  0.50175729  0.00351459  0.26340954  1
  Te  Te16  1  0.95368094  0.90736188  0.53314382  1
  Te  Te17  1  0.04631906  0.09263812  0.03314382  1
