# generated using pymatgen
data_LiV(CuO3)2
_symmetry_space_group_name_H-M   'P 1'
_cell_length_a   5.76605609
_cell_length_b   8.48894608
_cell_length_c   9.87695112
_cell_angle_alpha   90.00000000
_cell_angle_beta   90.00000000
_cell_angle_gamma   90.00000000
_symmetry_Int_Tables_number   1
_chemical_formula_structural   LiV(CuO3)2
_chemical_formula_sum   'Li4 V4 Cu8 O24'
_cell_volume   483.45442793
_cell_formula_units_Z   4
loop_
 _symmetry_equiv_pos_site_id
 _symmetry_equiv_pos_as_xyz
  1  'x, y, z'
loop_
 _atom_site_type_symbol
 _atom_site_label
 _atom_site_symmetry_multiplicity
 _atom_site_fract_x
 _atom_site_fract_y
 _atom_site_fract_z
 _atom_site_occupancy
  Li  Li0  1  0.99203297  0.66276336  0.75654117  1
  Li  Li1  1  0.49203297  0.33723664  0.74345883  1
  Li  Li2  1  0.00796703  0.83723664  0.25654117  1
  Li  Li3  1  0.50796703  0.16276336  0.24345883  1
  V  V4  1  0.49345783  0.74979075  0.72304405  1
  V  V5  1  0.99345783  0.25020925  0.77695595  1
  V  V6  1  0.50654217  0.75020925  0.22304405  1
  V  V7  1  0.00654217  0.24979075  0.27695595  1
  Cu  Cu8  1  0.25284938  0.00765699  0.50983385  1
  Cu  Cu9  1  0.75284938  0.99234301  0.99016615  1
  Cu  Cu10  1  0.74715062  0.49234301  0.00983385  1
  Cu  Cu11  1  0.24715062  0.50765699  0.49016615  1
  Cu  Cu12  1  0.75569951  0.00633175  0.50981794  1
  Cu  Cu13  1  0.25569951  0.99366825  0.99018206  1
  Cu  Cu14  1  0.24430049  0.49366825  0.00981794  1
  Cu  Cu15  1  0.74430049  0.50633175  0.49018206  1
  O  O16  1  0.50482240  0.09133794  0.42257304  1
  O  O17  1  0.00482240  0.90866206  0.07742696  1
  O  O18  1  0.49517760  0.40866206  0.92257304  1
  O  O19  1  0.99517760  0.59133794  0.57742696  1
  O  O20  1  0.00462109  0.93265189  0.60478844  1
  O  O21  1  0.50462109  0.06734811  0.89521156  1
  O  O22  1  0.99537891  0.56734811  0.10478844  1
  O  O23  1  0.49537891  0.43265189  0.39521156  1
  O  O24  1  0.00509132  0.07048082  0.38955459  1
  O  O25  1  0.50509132  0.92951918  0.11044541  1
  O  O26  1  0.99490868  0.42951918  0.88955459  1
  O  O27  1  0.49490868  0.57048082  0.61044541  1
  O  O28  1  0.72127537  0.74253018  0.82686295  1
  O  O29  1  0.22127537  0.25746982  0.67313705  1
  O  O30  1  0.27872463  0.75746982  0.32686295  1
  O  O31  1  0.77872463  0.24253018  0.17313705  1
  O  O32  1  0.50207099  0.92476843  0.61470674  1
  O  O33  1  0.00207099  0.07523157  0.88529326  1
  O  O34  1  0.49792901  0.57523157  0.11470674  1
  O  O35  1  0.99792901  0.42476843  0.38529326  1
  O  O36  1  0.26299849  0.74429300  0.82519003  1
  O  O37  1  0.76299849  0.25570700  0.67480997  1
  O  O38  1  0.73700151  0.75570700  0.32519003  1
  O  O39  1  0.23700151  0.24429300  0.17480997  1
