# generated using pymatgen
data_NaCaGaSi2O7
_symmetry_space_group_name_H-M   'P 1'
_cell_length_a   10.23809311
_cell_length_b   7.78588689
_cell_length_c   7.79418341
_cell_angle_alpha   90.00000000
_cell_angle_beta   90.00000000
_cell_angle_gamma   90.00000000
_symmetry_Int_Tables_number   1
_chemical_formula_structural   NaCaGaSi2O7
_chemical_formula_sum   'Na4 Ca4 Ga4 Si8 O28'
_cell_volume   621.29489669
_cell_formula_units_Z   4
loop_
 _symmetry_equiv_pos_site_id
 _symmetry_equiv_pos_as_xyz
  1  'x, y, z'
loop_
 _atom_site_type_symbol
 _atom_site_label
 _atom_site_symmetry_multiplicity
 _atom_site_fract_x
 _atom_site_fract_y
 _atom_site_fract_z
 _atom_site_occupancy
  Na  Na0  1  0.24489210  0.66931497  0.83601707  1
  Na  Na1  1  0.25510790  0.83068503  0.33601707  1
  Na  Na2  1  0.74489210  0.33068503  0.16398293  1
  Na  Na3  1  0.75510790  0.16931497  0.66398293  1
  Ca  Ca4  1  0.24125094  0.34849359  0.16027722  1
  Ca  Ca5  1  0.25874906  0.15150641  0.66027722  1
  Ca  Ca6  1  0.74125094  0.65150641  0.83972278  1
  Ca  Ca7  1  0.75874906  0.84849359  0.33972278  1
  Ga  Ga8  1  0.00045536  0.00347760  0.99966229  1
  Ga  Ga9  1  0.99954464  0.50347760  0.50033771  1
  Ga  Ga10  1  0.50045536  0.99652240  0.00033771  1
  Ga  Ga11  1  0.49954464  0.49652240  0.49966229  1
  Si  Si12  1  0.02461539  0.13668043  0.35881836  1
  Si  Si13  1  0.02678974  0.85409578  0.64210260  1
  Si  Si14  1  0.47538461  0.36331957  0.85881836  1
  Si  Si15  1  0.47321026  0.64590422  0.14210260  1
  Si  Si16  1  0.52678974  0.14590422  0.35789740  1
  Si  Si17  1  0.52461539  0.86331957  0.64118164  1
  Si  Si18  1  0.97321026  0.35409578  0.85789740  1
  Si  Si19  1  0.97538461  0.63668043  0.14118164  1
  O  O20  1  0.08622277  0.00085519  0.50375090  1
  O  O21  1  0.09927793  0.91749773  0.82104849  1
  O  O22  1  0.09717408  0.32047913  0.41389460  1
  O  O23  1  0.10187636  0.09116390  0.17702068  1
  O  O24  1  0.10269725  0.67610319  0.58653026  1
  O  O25  1  0.13033119  0.33959219  0.85815968  1
  O  O26  1  0.13069598  0.62642544  0.14917211  1
  O  O27  1  0.36966881  0.16040781  0.35815968  1
  O  O28  1  0.36930402  0.87357456  0.64917211  1
  O  O29  1  0.40282592  0.17952087  0.91389460  1
  O  O30  1  0.39812364  0.40883610  0.67702068  1
  O  O31  1  0.40072207  0.58250227  0.32104849  1
  O  O32  1  0.39730275  0.82389681  0.08653026  1
  O  O33  1  0.41377723  0.49914481  0.00375090  1
  O  O34  1  0.58622277  0.99914481  0.49624910  1
  O  O35  1  0.59927793  0.08250227  0.17895151  1
  O  O36  1  0.60269725  0.32389681  0.41346974  1
  O  O37  1  0.60187636  0.90883610  0.82297932  1
  O  O38  1  0.59717408  0.67952087  0.58610540  1
  O  O39  1  0.63069598  0.37357456  0.85082789  1
  O  O40  1  0.63033119  0.66040781  0.14184032  1
  O  O41  1  0.86930402  0.12642544  0.35082789  1
  O  O42  1  0.86966881  0.83959219  0.64184032  1
  O  O43  1  0.89730275  0.17610319  0.91346974  1
  O  O44  1  0.90072207  0.41749773  0.67895151  1
  O  O45  1  0.89812364  0.59116390  0.32297932  1
  O  O46  1  0.90282592  0.82047913  0.08610540  1
  O  O47  1  0.91377723  0.50085519  0.99624910  1
