# generated using pymatgen
data_Na3Sr4La3Ti10O30
_symmetry_space_group_name_H-M   'P 1'
_cell_length_a   5.55363734
_cell_length_b   27.76353330
_cell_length_c   7.88908001
_cell_angle_alpha   44.73403392
_cell_angle_beta   135.25627216
_cell_angle_gamma   120.30197052
_symmetry_Int_Tables_number   1
_chemical_formula_structural   Na3Sr4La3Ti10O30
_chemical_formula_sum   'Na3 Sr4 La3 Ti10 O30'
_cell_volume   602.65951543
_cell_formula_units_Z   1
loop_
 _symmetry_equiv_pos_site_id
 _symmetry_equiv_pos_as_xyz
  1  'x, y, z'
loop_
 _atom_site_type_symbol
 _atom_site_label
 _atom_site_symmetry_multiplicity
 _atom_site_fract_x
 _atom_site_fract_y
 _atom_site_fract_z
 _atom_site_occupancy
  Na  Na0  1  0.50000000  0.69930424  0.25200342  1
  Na  Na1  1  0.50000000  0.50000000  0.25013715  1
  Na  Na2  1  0.50000000  0.30069576  0.24852464  1
  Sr  Sr3  1  0.50000000  0.89833872  0.75235479  1
  Sr  Sr4  1  0.50000000  0.89974463  0.24967359  1
  Sr  Sr5  1  0.50000000  0.10166128  0.74404839  1
  Sr  Sr6  1  0.50000000  0.10025537  0.24839675  1
  La  La7  1  0.50000000  0.69928320  0.75382232  1
  La  La8  1  0.50000000  0.50000000  0.74978883  1
  La  La9  1  0.50000000  0.30071680  0.75023831  1
  Ti  Ti10  1  0.00274172  0.79744094  0.50788235  1
  Ti  Ti11  1  0.00133240  0.59917890  0.50318715  1
  Ti  Ti12  1  0.99725828  0.79744094  0.00514063  1
  Ti  Ti13  1  0.99866760  0.40082110  0.49774927  1
  Ti  Ti14  1  0.99866760  0.59917890  0.00185475  1
  Ti  Ti15  1  0.00133240  0.40082110  0.99908167  1
  Ti  Ti16  1  0.00274172  0.20255906  0.99508707  1
  Ti  Ti17  1  -0.00000000  0.00000000  0.99955906  1
  Ti  Ti18  1  0.99725828  0.20255906  0.49234536  1
  Ti  Ti19  1  -0.00000000  0.00000000  0.49955906  1
  O  O20  1  -0.00000000  1.00000000  0.74950558  1
  O  O21  1  0.04893595  0.89874320  0.77594683  1
  O  O22  1  0.07686660  0.69847004  0.78659022  1
  O  O23  1  0.01288299  0.79707063  0.26352137  1
  O  O24  1  0.50000000  0.99057685  0.27436381  1
  O  O25  1  0.50000000  0.80963769  0.72464670  1
  O  O26  1  0.08329778  0.50000000  0.78444587  1
  O  O27  1  0.00049281  0.59932131  0.25232974  1
  O  O28  1  0.50000000  0.61561060  0.71819456  1
  O  O29  1  0.50000000  0.78474512  0.29558481  1
  O  O30  1  0.98711701  0.79707063  0.75063838  1
  O  O31  1  0.95106405  0.89874320  0.22701088  1
  O  O32  1  0.07686660  0.30152996  0.77894040  1
  O  O33  1  0.01288299  0.20292937  0.74887452  1
  O  O34  1  0.99950719  0.40067869  0.24844349  1
  O  O35  1  0.50000000  0.58319721  0.29964773  1
  O  O36  1  0.50000000  0.41680279  0.71563379  1
  O  O37  1  0.99950719  0.59932131  0.75183692  1
  O  O38  1  0.92313340  0.69847004  0.20972362  1
  O  O39  1  0.04893595  0.10125680  0.76966282  1
  O  O40  1  0.98711701  0.20292937  0.23599153  1
  O  O41  1  0.50000000  0.38438940  0.29624754  1
  O  O42  1  0.50000000  0.21525488  0.71931042  1
  O  O43  1  0.00049281  0.40067869  0.74893631  1
  O  O44  1  0.91670222  0.50000000  0.20114810  1
  O  O45  1  0.50000000  0.19036231  0.27283516  1
  O  O46  1  0.50000000  0.00942315  0.72724805  1
  O  O47  1  0.92313340  0.30152996  0.20207380  1
  O  O48  1  0.95106405  0.10125680  0.22072688  1
  O  O49  1  -0.00000000  1.00000000  0.24950558  1
