# generated using pymatgen
data_Sr2NdTa(CuO4)2
_symmetry_space_group_name_H-M   'P 1'
_cell_length_a   5.52993265
_cell_length_b   5.52993265
_cell_length_c   12.54755221
_cell_angle_alpha   102.74497073
_cell_angle_beta   102.74497150
_cell_angle_gamma   90.10410085
_symmetry_Int_Tables_number   1
_chemical_formula_structural   Sr2NdTa(CuO4)2
_chemical_formula_sum   'Sr4 Nd2 Ta2 Cu4 O16'
_cell_volume   364.51688737
_cell_formula_units_Z   2
loop_
 _symmetry_equiv_pos_site_id
 _symmetry_equiv_pos_as_xyz
  1  'x, y, z'
loop_
 _atom_site_type_symbol
 _atom_site_label
 _atom_site_symmetry_multiplicity
 _atom_site_fract_x
 _atom_site_fract_y
 _atom_site_fract_z
 _atom_site_occupancy
  Sr  Sr0  1  0.59836122  0.09836122  0.19996741  1
  Sr  Sr1  1  0.90450180  0.40450180  0.80092635  1
  Sr  Sr2  1  0.09549820  0.59549820  0.19907365  1
  Sr  Sr3  1  0.40163878  0.90163878  0.80003259  1
  Nd  Nd4  1  0.24941948  0.74941948  0.49956910  1
  Nd  Nd5  1  0.75058052  0.25058052  0.50043090  1
  Ta  Ta6  1  -0.00000000  0.00000000  -0.00000000  1
  Ta  Ta7  1  0.50000000  0.50000000  -0.00000000  1
  Cu  Cu8  1  0.67465578  0.67445445  0.35384932  1
  Cu  Cu9  1  0.82554555  0.82534422  0.64615068  1
  Cu  Cu10  1  0.17445445  0.17465578  0.35384932  1
  Cu  Cu11  1  0.32534422  0.32554555  0.64615068  1
  O  O12  1  0.18656921  0.31343079  1.00000000  1
  O  O13  1  0.43783637  0.42603570  0.36963862  1
  O  O14  1  0.59148563  0.57081592  0.16453967  1
  O  O15  1  0.57334847  0.07334847  0.63247926  1
  O  O16  1  0.68265189  0.18265189  0.99241064  1
  O  O17  1  0.94016594  0.44016594  0.37156872  1
  O  O18  1  0.92918408  0.90851437  0.83546033  1
  O  O19  1  0.07081592  0.09148563  0.16453967  1
  O  O20  1  0.07396430  0.06216363  0.63036138  1
  O  O21  1  0.31734811  0.81734811  0.00758936  1
  O  O22  1  0.42665153  0.92665153  0.36752074  1
  O  O23  1  0.40851437  0.42918408  0.83546033  1
  O  O24  1  0.56216363  0.57396430  0.63036138  1
  O  O25  1  0.81343079  0.68656921  0.00000000  1
  O  O26  1  0.92603570  0.93783637  0.36963862  1
  O  O27  1  0.05983406  0.55983406  0.62843128  1
