# generated using pymatgen
data_Cd2BO4
_symmetry_space_group_name_H-M   'P 1'
_cell_length_a   10.00194769
_cell_length_b   10.00194769
_cell_length_c   10.00194769
_cell_angle_alpha   60.00000000
_cell_angle_beta   60.00000000
_cell_angle_gamma   60.00000000
_symmetry_Int_Tables_number   1
_chemical_formula_structural   Cd2BO4
_chemical_formula_sum   'Cd16 B8 O32'
_cell_volume   707.52003010
_cell_formula_units_Z   8
loop_
 _symmetry_equiv_pos_site_id
 _symmetry_equiv_pos_as_xyz
  1  'x, y, z'
loop_
 _atom_site_type_symbol
 _atom_site_label
 _atom_site_symmetry_multiplicity
 _atom_site_fract_x
 _atom_site_fract_y
 _atom_site_fract_z
 _atom_site_occupancy
  Cd  Cd0  1  0.95459971  0.54540029  0.95459971  1
  Cd  Cd1  1  0.54540029  0.95459971  0.54540029  1
  Cd  Cd2  1  0.79540029  0.20459971  0.79540029  1
  Cd  Cd3  1  0.20459971  0.79540029  0.20459971  1
  Cd  Cd4  1  0.54540029  0.95459971  0.95459971  1
  Cd  Cd5  1  0.95459971  0.54540029  0.54540029  1
  Cd  Cd6  1  0.20459971  0.79540029  0.79540029  1
  Cd  Cd7  1  0.79540029  0.20459971  0.20459971  1
  Cd  Cd8  1  0.95459971  0.95459971  0.54540029  1
  Cd  Cd9  1  0.54540029  0.54540029  0.95459971  1
  Cd  Cd10  1  0.79540029  0.79540029  0.20459971  1
  Cd  Cd11  1  0.20459971  0.20459971  0.79540029  1
  Cd  Cd12  1  0.37500000  0.37500000  0.87500000  1
  Cd  Cd13  1  0.37500000  0.87500000  0.37500000  1
  Cd  Cd14  1  0.87500000  0.37500000  0.37500000  1
  Cd  Cd15  1  0.37500000  0.37500000  0.37500000  1
  B  B16  1  0.14756271  0.14756271  0.55731188  1
  B  B17  1  0.14756271  0.55731188  0.14756271  1
  B  B18  1  0.55731188  0.14756271  0.14756271  1
  B  B19  1  0.14756271  0.14756271  0.14756271  1
  B  B20  1  0.60243729  0.60243729  0.19268812  1
  B  B21  1  0.60243729  0.19268812  0.60243729  1
  B  B22  1  0.19268812  0.60243729  0.60243729  1
  B  B23  1  0.60243729  0.60243729  0.60243729  1
  O  O24  1  0.15257528  0.28254402  0.00512134  1
  O  O25  1  0.55975935  0.00512134  0.28254402  1
  O  O26  1  0.00512134  0.55975935  0.15257528  1
  O  O27  1  0.28254402  0.15257528  0.55975935  1
  O  O28  1  0.59742472  0.46745598  0.74487866  1
  O  O29  1  0.19024065  0.74487866  0.46745598  1
  O  O30  1  0.74487866  0.19024065  0.59742472  1
  O  O31  1  0.46745598  0.59742472  0.19024065  1
  O  O32  1  0.28254402  0.00512134  0.15257528  1
  O  O33  1  0.00512134  0.28254402  0.55975935  1
  O  O34  1  0.55975935  0.15257528  0.00512134  1
  O  O35  1  0.15257528  0.55975935  0.28254402  1
  O  O36  1  0.46745598  0.74487866  0.59742472  1
  O  O37  1  0.74487866  0.46745598  0.19024065  1
  O  O38  1  0.19024065  0.59742472  0.74487866  1
  O  O39  1  0.59742472  0.19024065  0.46745598  1
  O  O40  1  0.00512134  0.15257528  0.28254402  1
  O  O41  1  0.28254402  0.55975935  0.00512134  1
  O  O42  1  0.15257528  0.00512134  0.55975935  1
  O  O43  1  0.55975935  0.28254402  0.15257528  1
  O  O44  1  0.74487866  0.59742472  0.46745598  1
  O  O45  1  0.46745598  0.19024065  0.74487866  1
  O  O46  1  0.59742472  0.74487866  0.19024065  1
  O  O47  1  0.19024065  0.46745598  0.59742472  1
  O  O48  1  0.84400514  0.84400514  0.46798457  1
  O  O49  1  0.84400514  0.46798457  0.84400514  1
  O  O50  1  0.46798457  0.84400514  0.84400514  1
  O  O51  1  0.84400514  0.84400514  0.84400514  1
  O  O52  1  0.90599486  0.90599486  0.28201543  1
  O  O53  1  0.90599486  0.28201543  0.90599486  1
  O  O54  1  0.28201543  0.90599486  0.90599486  1
  O  O55  1  0.90599486  0.90599486  0.90599486  1
