# generated using pymatgen
data_CsPbBr3
_symmetry_space_group_name_H-M   'P 1'
_cell_length_a   6.02834412
_cell_length_b   11.94519742
_cell_length_c   8.43631260
_cell_angle_alpha   44.93056511
_cell_angle_beta   90.00000000
_cell_angle_gamma   90.00000000
_symmetry_Int_Tables_number   1
_chemical_formula_structural   CsPbBr3
_chemical_formula_sum   'Cs2 Pb2 Br6'
_cell_volume   429.04425185
_cell_formula_units_Z   2
loop_
 _symmetry_equiv_pos_site_id
 _symmetry_equiv_pos_as_xyz
  1  'x, y, z'
loop_
 _atom_site_type_symbol
 _atom_site_label
 _atom_site_symmetry_multiplicity
 _atom_site_fract_x
 _atom_site_fract_y
 _atom_site_fract_z
 _atom_site_occupancy
  Cs  Cs0  1  0.50000000  0.50109744  0.50000000  1
  Cs  Cs1  1  0.50000000  0.00022272  0.50000000  1
  Pb  Pb2  1  -0.00000000  0.99587567  0.99943860  1
  Pb  Pb3  1  0.00000000  0.49531527  0.00056140  1
  Br  Br4  1  0.00000000  0.20114954  0.08614802  1
  Br  Br5  1  0.50000000  0.47328844  0.00032740  1
  Br  Br6  1  0.50000000  0.97361584  0.99967260  1
  Br  Br7  1  -0.00000000  0.29261971  0.50000000  1
  Br  Br8  1  0.00000000  0.70751782  0.50000000  1
  Br  Br9  1  -0.00000000  0.78729756  0.91385198  1
