# generated using pymatgen
data_Li4Zn(PS4)2
_symmetry_space_group_name_H-M   'P 1'
_cell_length_a   5.75719282
_cell_length_b   9.45163662
_cell_length_c   22.97915933
_cell_angle_alpha   90.00000000
_cell_angle_beta   89.96898146
_cell_angle_gamma   90.00000000
_symmetry_Int_Tables_number   1
_chemical_formula_structural   Li4Zn(PS4)2
_chemical_formula_sum   'Li16 Zn4 P8 S32'
_cell_volume   1250.40834595
_cell_formula_units_Z   4
loop_
 _symmetry_equiv_pos_site_id
 _symmetry_equiv_pos_as_xyz
  1  'x, y, z'
loop_
 _atom_site_type_symbol
 _atom_site_label
 _atom_site_symmetry_multiplicity
 _atom_site_fract_x
 _atom_site_fract_y
 _atom_site_fract_z
 _atom_site_occupancy
  Li  Li0  1  0.99732007  0.75181093  0.12090466  1
  Li  Li1  1  0.50267993  0.25181093  0.75409534  1
  Li  Li2  1  0.49997291  0.25198307  0.99967396  1
  Li  Li3  1  0.00002709  0.75198307  0.87532604  1
  Li  Li4  1  0.50052580  0.00650517  0.12589104  1
  Li  Li5  1  0.99947420  0.50650517  0.74910896  1
  Li  Li6  1  0.99918209  0.49948473  0.00001439  1
  Li  Li7  1  0.50081791  0.99948473  0.87498561  1
  Li  Li8  1  0.49773359  0.49652716  0.12665122  1
  Li  Li9  1  0.99780170  0.00284521  0.00110655  1
  Li  Li10  1  0.49713732  0.49701557  0.37600561  1
  Li  Li11  1  0.99867027  0.00399239  0.25151060  1
  Li  Li12  1  0.50132973  0.50399239  0.62348940  1
  Li  Li13  1  0.00286268  0.99701557  0.49899439  1
  Li  Li14  1  0.50219830  0.50284521  0.87389345  1
  Li  Li15  1  0.00226641  0.99652716  0.74834878  1
  Zn  Zn16  1  0.99753361  0.49292041  0.25055142  1
  Zn  Zn17  1  0.99982743  0.50020052  0.50006683  1
  Zn  Zn18  1  0.50017257  0.00020052  0.37493317  1
  Zn  Zn19  1  0.50246639  0.99292041  0.62444858  1
  P  P20  1  0.00848126  0.24951888  0.12479097  1
  P  P21  1  0.49921577  0.75019593  0.00036073  1
  P  P22  1  0.99944952  0.24954635  0.37544674  1
  P  P23  1  0.50990446  0.74922507  0.25027021  1
  P  P24  1  0.99009554  0.24922507  0.62472979  1
  P  P25  1  0.50055048  0.74954635  0.49955326  1
  P  P26  1  0.00078423  0.25019593  0.87463927  1
  P  P27  1  0.49151874  0.74951888  0.75020903  1
  S  S28  1  0.20860601  0.13038436  0.17741035  1
  S  S29  1  0.70682111  0.62683372  0.05304921  1
  S  S30  1  0.22376687  0.13567469  0.42764248  1
  S  S31  1  0.72015686  0.62853707  0.30300831  1
  S  S32  1  0.22041858  0.13114062  0.67645912  1
  S  S33  1  0.72581554  0.63809859  0.55206183  1
  S  S34  1  0.20951953  0.12835026  0.92727332  1
  S  S35  1  0.71475165  0.63566781  0.80277753  1
  S  S36  1  0.21086297  0.36173285  0.31952475  1
  S  S37  1  0.71396633  0.86625151  0.19586548  1
  S  S38  1  0.20357678  0.36349957  0.57002717  1
  S  S39  1  0.70958435  0.86325527  0.44343280  1
  S  S40  1  0.20851527  0.37337601  0.82181805  1
  S  S41  1  0.70621928  0.87084530  0.69680375  1
  S  S42  1  0.21530236  0.37211748  0.07144694  1
  S  S43  1  0.71002186  0.87246954  0.94835630  1
  S  S44  1  0.78524835  0.13566681  0.07222247  1
  S  S45  1  0.29048047  0.62835026  0.94772668  1
  S  S46  1  0.77418446  0.13809659  0.32293817  1
  S  S47  1  0.27958142  0.63114062  0.19854088  1
  S  S48  1  0.77984314  0.12853507  0.57199169  1
  S  S49  1  0.27623313  0.63567569  0.44735752  1
  S  S50  1  0.79317889  0.12683272  0.82195079  1
  S  S51  1  0.29139399  0.63038436  0.69758965  1
  S  S52  1  0.79378072  0.37084430  0.17819625  1
  S  S53  1  0.29148473  0.87337701  0.05318195  1
  S  S54  1  0.79041565  0.36325327  0.43156720  1
  S  S55  1  0.29642322  0.86350057  0.30497283  1
  S  S56  1  0.78603367  0.36625151  0.67913452  1
  S  S57  1  0.28913703  0.86173385  0.55547525  1
  S  S58  1  0.78997814  0.37247054  0.92664370  1
  S  S59  1  0.28469764  0.87211748  0.80355306  1
