# generated using pymatgen
data_Na5Ti3F14
_symmetry_space_group_name_H-M   'P 1'
_cell_length_a   7.60057573
_cell_length_b   7.60057573
_cell_length_c   10.53940306
_cell_angle_alpha   90.00000000
_cell_angle_beta   90.00000000
_cell_angle_gamma   90.00000000
_symmetry_Int_Tables_number   1
_chemical_formula_structural   Na5Ti3F14
_chemical_formula_sum   'Na10 Ti6 F28'
_cell_volume   608.84815557
_cell_formula_units_Z   2
loop_
 _symmetry_equiv_pos_site_id
 _symmetry_equiv_pos_as_xyz
  1  'x, y, z'
loop_
 _atom_site_type_symbol
 _atom_site_label
 _atom_site_symmetry_multiplicity
 _atom_site_fract_x
 _atom_site_fract_y
 _atom_site_fract_z
 _atom_site_occupancy
  Na  Na0  1  -0.00000000  -0.00000000  0.50000000  1
  Na  Na1  1  0.50000000  0.50000000  -0.00000000  1
  Na  Na2  1  0.27344462  0.77344462  0.25000000  1
  Na  Na3  1  0.72655538  0.22655538  0.75000000  1
  Na  Na4  1  0.72655538  0.22655538  0.25000000  1
  Na  Na5  1  0.27344462  0.77344462  0.75000000  1
  Na  Na6  1  0.22655538  0.27344462  0.25000000  1
  Na  Na7  1  0.77344462  0.72655538  0.75000000  1
  Na  Na8  1  0.77344462  0.72655538  0.25000000  1
  Na  Na9  1  0.22655538  0.27344462  0.75000000  1
  Ti  Ti10  1  -0.00000000  -0.00000000  -0.00000000  1
  Ti  Ti11  1  0.50000000  0.50000000  0.50000000  1
  Ti  Ti12  1  -0.00000000  0.50000000  0.00000000  1
  Ti  Ti13  1  0.50000000  0.00000000  0.00000000  1
  Ti  Ti14  1  0.50000000  0.00000000  0.50000000  1
  Ti  Ti15  1  -0.00000000  0.50000000  0.50000000  1
  F  F16  1  -0.00000000  0.00000000  0.18456707  1
  F  F17  1  -0.00000000  -0.00000000  0.81543293  1
  F  F18  1  0.50000000  0.50000000  0.31543293  1
  F  F19  1  0.50000000  0.50000000  0.68456707  1
  F  F20  1  0.07322914  0.24834829  0.00000000  1
  F  F21  1  0.92677086  0.75165171  0.00000000  1
  F  F22  1  0.75165171  0.07322914  -0.00000000  1
  F  F23  1  0.24834829  0.92677086  -0.00000000  1
  F  F24  1  0.42677086  0.74834829  0.50000000  1
  F  F25  1  0.57322914  0.25165171  0.50000000  1
  F  F26  1  0.74834829  0.57322914  0.50000000  1
  F  F27  1  0.25165171  0.42677086  0.50000000  1
  F  F28  1  0.18923509  0.53444474  0.12687227  1
  F  F29  1  0.81076491  0.46555526  0.87312773  1
  F  F30  1  0.81076491  0.46555526  0.12687227  1
  F  F31  1  0.18923509  0.53444474  0.87312773  1
  F  F32  1  0.46555526  0.18923509  0.12687227  1
  F  F33  1  0.53444474  0.81076491  0.87312773  1
  F  F34  1  0.53444474  0.81076491  0.12687227  1
  F  F35  1  0.46555526  0.18923509  0.87312773  1
  F  F36  1  0.31076491  0.03444474  0.37312773  1
  F  F37  1  0.68923509  0.96555526  0.62687227  1
  F  F38  1  0.68923509  0.96555526  0.37312773  1
  F  F39  1  0.31076491  0.03444474  0.62687227  1
  F  F40  1  0.03444474  0.68923509  0.37312773  1
  F  F41  1  0.96555526  0.31076491  0.62687227  1
  F  F42  1  0.96555526  0.31076491  0.37312773  1
  F  F43  1  0.03444474  0.68923509  0.62687227  1
