# generated using pymatgen
data_Na3EuTi2Nb2O12
_symmetry_space_group_name_H-M   'P 1'
_cell_length_a   5.53267357
_cell_length_b   5.61522729
_cell_length_c   15.62611595
_cell_angle_alpha   89.99456958
_cell_angle_beta   89.99925400
_cell_angle_gamma   89.87762813
_symmetry_Int_Tables_number   1
_chemical_formula_structural   Na3EuTi2Nb2O12
_chemical_formula_sum   'Na6 Eu2 Ti4 Nb4 O24'
_cell_volume   485.45886626
_cell_formula_units_Z   2
loop_
 _symmetry_equiv_pos_site_id
 _symmetry_equiv_pos_as_xyz
  1  'x, y, z'
loop_
 _atom_site_type_symbol
 _atom_site_label
 _atom_site_symmetry_multiplicity
 _atom_site_fract_x
 _atom_site_fract_y
 _atom_site_fract_z
 _atom_site_occupancy
  Na  Na0  1  0.00098518  0.98780427  0.37053044  1
  Na  Na1  1  0.00101126  0.98788886  0.87953789  1
  Na  Na2  1  0.50017573  0.48813596  0.87956768  1
  Na  Na3  1  0.50015696  0.48804735  0.37052224  1
  Na  Na4  1  0.50754061  0.53180145  0.62501127  1
  Na  Na5  1  0.99408436  0.03074782  0.62503377  1
  Eu  Eu6  1  0.50206843  0.53952565  0.12504552  1
  Eu  Eu7  1  0.99759704  0.03935102  0.12502079  1
  Ti  Ti8  1  0.00513867  0.51926041  0.25248140  1
  Ti  Ti9  1  0.49597684  0.01919157  0.25236880  1
  Ti  Ti10  1  0.49588589  0.01934656  0.99771079  1
  Ti  Ti11  1  0.00519566  0.51939528  0.99763198  1
  Nb  Nb12  1  0.49633128  0.01915771  0.75154254  1
  Nb  Nb13  1  0.49616164  0.01908754  0.49855483  1
  Nb  Nb14  1  0.00673856  0.51819007  0.49832506  1
  Nb  Nb15  1  0.00665128  0.51813686  0.75184681  1
  O  O16  1  0.06846289  0.47253768  0.12495802  1
  O  O17  1  0.06904400  0.47634540  0.62497991  1
  O  O18  1  0.20626080  0.20276856  0.48075827  1
  O  O19  1  0.21543684  0.20463206  0.99158315  1
  O  O20  1  0.21549428  0.20470771  0.25836040  1
  O  O21  1  0.20622226  0.20263953  0.76914902  1
  O  O22  1  0.28365405  0.70443749  0.25835323  1
  O  O23  1  0.29269476  0.70349147  0.48068506  1
  O  O24  1  0.29271455  0.70346872  0.76927731  1
  O  O25  1  0.28361352  0.70441256  0.99157982  1
  O  O26  1  0.43100867  0.97265561  0.12495833  1
  O  O27  1  0.43008678  0.97645253  0.62497507  1
  O  O28  1  0.56502826  0.00466127  0.87822472  1
  O  O29  1  0.56505414  0.00465574  0.37172341  1
  O  O30  1  0.71623548  0.27005718  0.02489775  1
  O  O31  1  0.71636827  0.27003877  0.22506343  1
  O  O32  1  0.71026397  0.28193061  0.51656758  1
  O  O33  1  0.71019436  0.28194007  0.73332406  1
  O  O34  1  0.78276997  0.77047560  0.22498489  1
  O  O35  1  0.78805062  0.78113810  0.73332075  1
  O  O36  1  0.78281439  0.77052346  0.02496578  1
  O  O37  1  0.78812015  0.78121358  0.51661644  1
  O  O38  1  0.93439684  0.50494031  0.37166472  1
  O  O39  1  0.93431079  0.50480764  0.87829708  1
