# generated using pymatgen
data_Sr16Fe16O45
_symmetry_space_group_name_H-M   'P 1'
_cell_length_a   5.55601278
_cell_length_b   11.08873638
_cell_length_c   22.15330759
_cell_angle_alpha   60.03063362
_cell_angle_beta   59.90022434
_cell_angle_gamma   59.96506824
_symmetry_Int_Tables_number   1
_chemical_formula_structural   Sr16Fe16O45
_chemical_formula_sum   'Sr16 Fe16 O45'
_cell_volume   964.33060650
_cell_formula_units_Z   1
loop_
 _symmetry_equiv_pos_site_id
 _symmetry_equiv_pos_as_xyz
  1  'x, y, z'
loop_
 _atom_site_type_symbol
 _atom_site_label
 _atom_site_symmetry_multiplicity
 _atom_site_fract_x
 _atom_site_fract_y
 _atom_site_fract_z
 _atom_site_occupancy
  Sr  Sr0  1  0.24975184  0.12514673  0.06245099  1
  Sr  Sr1  1  0.24681236  0.12750541  0.31264271  1
  Sr  Sr2  1  0.24735565  0.62135636  0.06560396  1
  Sr  Sr3  1  0.25573917  0.12333643  0.56130283  1
  Sr  Sr4  1  0.25357392  0.62357080  0.30918135  1
  Sr  Sr5  1  0.74554192  0.37777871  0.18850523  1
  Sr  Sr6  1  0.76595396  0.36378815  0.43733813  1
  Sr  Sr7  1  0.24587384  0.62569270  0.56708236  1
  Sr  Sr8  1  0.24505006  0.13834315  0.81084037  1
  Sr  Sr9  1  0.75071742  0.86553300  0.19106237  1
  Sr  Sr10  1  0.74769180  0.37780523  0.68803111  1
  Sr  Sr11  1  0.25976073  0.61410007  0.81073591  1
  Sr  Sr12  1  0.73547304  0.88507272  0.43784383  1
  Sr  Sr13  1  0.75286317  0.38189845  0.93271387  1
  Sr  Sr14  1  0.76742066  0.87478773  0.68226422  1
  Sr  Sr15  1  0.73682732  0.87142537  0.94248862  1
  Fe  Fe16  1  0.01641371  0.99160491  0.99457338  1
  Fe  Fe17  1  0.00861231  0.00074206  0.24800804  1
  Fe  Fe18  1  0.48811109  0.25737016  0.12888256  1
  Fe  Fe19  1  0.99868854  0.99922002  0.50040669  1
  Fe  Fe20  1  0.00855603  0.49682158  0.00001978  1
  Fe  Fe21  1  0.50268882  0.25190378  0.37379960  1
  Fe  Fe22  1  0.49807445  0.75053218  0.12614531  1
  Fe  Fe23  1  0.97716839  0.49164205  0.50420927  1
  Fe  Fe24  1  0.97876118  0.00871736  0.74622513  1
  Fe  Fe25  1  0.99123831  0.50136251  0.25276505  1
  Fe  Fe26  1  0.49085796  0.25020976  0.62465269  1
  Fe  Fe27  1  0.51696533  0.75942169  0.37180688  1
  Fe  Fe28  1  0.00205955  0.49983169  0.74833449  1
  Fe  Fe29  1  0.50220629  0.24762033  0.87698947  1
  Fe  Fe30  1  0.50526056  0.75025182  0.62474163  1
  Fe  Fe31  1  0.52239993  0.74029416  0.87786644  1
  O  O32  1  0.27914388  0.36577426  0.05888042  1
  O  O33  1  0.28395024  0.11690636  0.18080117  1
  O  O34  1  0.24659678  0.37671823  0.18869629  1
  O  O35  1  0.23373781  0.88333720  0.06177964  1
  O  O36  1  0.76580598  0.11943182  0.17805541  1
  O  O37  1  0.76168999  0.36023078  0.06104033  1
  O  O38  1  0.24603438  0.37692034  0.31316751  1
  O  O39  1  0.25426436  0.12294304  0.43655866  1
  O  O40  1  0.23574332  0.62708282  0.19074187  1
  O  O41  1  0.76169493  0.13059364  0.30620704  1
  O  O42  1  0.75513354  0.62315762  0.06383292  1
  O  O43  1  0.25306948  0.87242594  0.18881138  1
  O  O44  1  0.25719768  0.38823798  0.43514303  1
  O  O45  1  0.74270088  0.88763243  0.06422311  1
  O  O46  1  0.75452751  0.12366360  0.43618737  1
  O  O47  1  0.75314287  0.37495432  0.31158938  1
  O  O48  1  0.74931093  0.62551493  0.18897708  1
  O  O49  1  0.25314757  0.38691561  0.55664007  1
  O  O50  1  0.23752226  0.86009558  0.32123813  1
  O  O51  1  0.25346884  0.11793939  0.69275911  1
  O  O52  1  0.73950713  0.12812845  0.56237447  1
  O  O53  1  0.71328296  0.61729412  0.32308115  1
  O  O54  1  0.24098039  0.85695817  0.44242075  1
  O  O55  1  0.24808749  0.37342290  0.68608694  1
  O  O56  1  0.74042913  0.37309706  0.56361911  1
  O  O57  1  0.75363281  0.62773120  0.43633754  1
  O  O58  1  0.74662978  0.88313243  0.30943169  1
  O  O59  1  0.74669322  0.13014160  0.68602179  1
  O  O60  1  0.25215479  0.37400553  0.81135698  1
  O  O61  1  0.24589760  0.87799649  0.56439657  1
  O  O62  1  0.22130627  0.12989336  0.94480758  1
  O  O63  1  0.25938684  0.62307970  0.68544831  1
  O  O64  1  0.77470378  0.10353329  0.82178820  1
  O  O65  1  0.77781380  0.63203071  0.55397519  1
  O  O66  1  0.25058110  0.37862893  0.93595838  1
  O  O67  1  0.26497944  0.86666413  0.69681292  1
  O  O68  1  0.75891086  0.62094243  0.68584139  1
  O  O69  1  0.74556691  0.87760998  0.56363368  1
  O  O70  1  0.73091377  0.13454665  0.94816424  1
  O  O71  1  0.75300874  0.37371035  0.81209122  1
  O  O72  1  0.23895716  0.64165282  0.92836255  1
  O  O73  1  0.72929564  0.63786483  0.80921993  1
  O  O74  1  0.23560773  0.88472465  0.92611372  1
  O  O75  1  0.74127496  0.62030836  0.94247206  1
  O  O76  1  0.74804514  0.87273889  0.81283946  1
