# generated using pymatgen
data_LiMnV(P2O7)2
_symmetry_space_group_name_H-M   'P 1'
_cell_length_a   9.73771399
_cell_length_b   8.18705079
_cell_length_c   14.00122637
_cell_angle_alpha   89.97486726
_cell_angle_beta   71.81059706
_cell_angle_gamma   87.99379238
_symmetry_Int_Tables_number   1
_chemical_formula_structural   LiMnV(P2O7)2
_chemical_formula_sum   'Li4 Mn4 V4 P16 O56'
_cell_volume   1059.72947539
_cell_formula_units_Z   4
loop_
 _symmetry_equiv_pos_site_id
 _symmetry_equiv_pos_as_xyz
  1  'x, y, z'
loop_
 _atom_site_type_symbol
 _atom_site_label
 _atom_site_symmetry_multiplicity
 _atom_site_fract_x
 _atom_site_fract_y
 _atom_site_fract_z
 _atom_site_occupancy
  Li  Li0  1  0.70903752  0.35736917  0.03907844  1
  Li  Li1  1  0.03933294  0.86285049  0.70916332  1
  Li  Li2  1  0.78850033  0.86276984  0.45950293  1
  Li  Li3  1  0.28889286  0.86386358  0.96077370  1
  Mn  Mn4  1  0.73850908  0.99265758  0.01814389  1
  Mn  Mn5  1  0.24679032  0.00610762  0.51167559  1
  Mn  Mn6  1  0.99586955  0.00788637  0.26297349  1
  Mn  Mn7  1  0.49643898  0.00703370  0.76243225  1
  V  V8  1  0.50858146  0.50524581  0.23615116  1
  V  V9  1  0.01238798  0.49522575  0.72946639  1
  V  V10  1  0.76166366  0.49361146  0.48077969  1
  V  V11  1  0.26222459  0.49549326  0.98169839  1
  P  P12  1  0.26279156  0.28875033  0.17535023  1
  P  P13  1  0.53746297  0.68183612  0.02036782  1
  P  P14  1  0.23616570  0.78209477  0.32748657  1
  P  P15  1  0.03711243  0.67977587  0.52145489  1
  P  P16  1  0.71109878  0.17551541  0.22970660  1
  P  P17  1  0.98622173  0.78017991  0.07861367  1
  P  P18  1  0.51130675  0.28661771  0.42400960  1
  P  P19  1  0.78690308  0.67809016  0.27232645  1
  P  P20  1  0.21031372  0.17618335  0.73127327  1
  P  P21  1  0.48568444  0.78101204  0.57803749  1
  P  P22  1  0.01385305  0.28940395  0.92303193  1
  P  P23  1  0.28731819  0.67912117  0.77194524  1
  P  P24  1  0.96048808  0.17664880  0.48153141  1
  P  P25  1  0.76106794  0.28776250  0.67451058  1
  P  P26  1  0.45919524  0.17774717  0.98214465  1
  P  P27  1  0.73595007  0.78128352  0.82819640  1
  O  O28  1  0.11929296  0.68567506  0.00895739  1
  O  O29  1  0.03467277  0.93202102  0.12131563  1
  O  O30  1  0.22121229  0.43854258  0.12075601  1
  O  O31  1  0.33919900  0.15116012  0.08905585  1
  O  O32  1  0.14055191  0.20347450  0.24731369  1
  O  O33  1  0.12770300  0.82823046  0.27178206  1
  O  O34  1  0.55417894  0.84808860  0.05912231  1
  O  O35  1  0.56494050  0.53785509  0.08344800  1
  O  O36  1  0.38003203  0.34222346  0.22080964  1
  O  O37  1  0.36199071  0.68014914  0.25755333  1
  O  O38  1  0.16197902  0.65407266  0.41567961  1
  O  O39  1  0.88075752  0.82118793  0.02037171  1
  O  O40  1  0.28255225  0.93181846  0.37292040  1
  O  O41  1  0.10819462  0.17179544  0.49695838  1
  O  O42  1  0.69198553  0.03875539  0.16167603  1
  O  O43  1  0.67667646  0.34451974  0.19071006  1
  O  O44  1  0.05505963  0.84401990  0.56554857  1
  O  O45  1  0.05830583  0.53628977  0.58682510  1
  O  O46  1  0.64318379  0.66166157  0.24861853  1
  O  O47  1  0.46712984  0.43956053  0.37418008  1
  O  O48  1  0.58905678  0.15281258  0.33663902  1
  O  O49  1  0.91272395  0.65246875  0.16559318  1
  O  O50  1  0.39121486  0.19936082  0.49704679  1
  O  O51  1  0.85767030  0.17386296  0.24794153  1
  O  O52  1  0.37713379  0.82556365  0.52282156  1
  O  O53  1  0.18287364  0.03897925  0.66592161  1
  O  O54  1  0.80464807  0.84360538  0.31457693  1
  O  O55  1  0.17792680  0.34700227  0.69598244  1
  O  O56  1  0.81023582  0.53577796  0.33730935  1
  O  O57  1  0.14249968  0.67094635  0.74794089  1
  O  O58  1  0.62797038  0.33677603  0.47174559  1
  O  O59  1  0.61834681  0.68676525  0.50819212  1
  O  O60  1  0.08755936  0.14980929  0.83923752  1
  O  O61  1  0.41337494  0.65306212  0.66578638  1
  O  O62  1  0.53492970  0.93179841  0.62186718  1
  O  O63  1  0.35760835  0.17160838  0.74736949  1
  O  O64  1  0.93255492  0.03896210  0.41627696  1
  O  O65  1  0.92819508  0.34711078  0.44565164  1
  O  O66  1  0.30552128  0.84416030  0.81514314  1
  O  O67  1  0.30739254  0.53649640  0.83764682  1
  O  O68  1  0.89174706  0.67123319  0.49839970  1
  O  O69  1  0.72057928  0.43895339  0.62171638  1
  O  O70  1  0.12931504  0.33437616  0.97154888  1
  O  O71  1  0.83898980  0.15052638  0.58920975  1
  O  O72  1  0.64000057  0.20191167  0.74755977  1
  O  O73  1  0.62875430  0.82803664  0.77212642  1
  O  O74  1  0.43509583  0.03951361  0.91619549  1
  O  O75  1  0.42891540  0.34805345  0.94527895  1
  O  O76  1  0.39188050  0.67001089  0.99793075  1
  O  O77  1  0.87756226  0.33828215  0.72240411  1
  O  O78  1  0.86967640  0.68959856  0.75766482  1
  O  O79  1  0.66357528  0.64940457  0.91299548  1
  O  O80  1  0.78224963  0.93064495  0.87546862  1
  O  O81  1  0.60828553  0.17597053  0.99782666  1
  O  O82  1  0.97083516  0.44083771  0.87120927  1
  O  O83  1  0.88439730  0.21299927  0.99564841  1
