# generated using pymatgen
data_SnH16Se3N7
_symmetry_space_group_name_H-M   'P 1'
_cell_length_a   6.72512716
_cell_length_b   9.92231372
_cell_length_c   10.11131860
_cell_angle_alpha   94.82370856
_cell_angle_beta   98.11261155
_cell_angle_gamma   104.49889353
_symmetry_Int_Tables_number   1
_chemical_formula_structural   SnH16Se3N7
_chemical_formula_sum   'Sn2 H32 Se6 N14'
_cell_volume   641.65190245
_cell_formula_units_Z   2
loop_
 _symmetry_equiv_pos_site_id
 _symmetry_equiv_pos_as_xyz
  1  'x, y, z'
loop_
 _atom_site_type_symbol
 _atom_site_label
 _atom_site_symmetry_multiplicity
 _atom_site_fract_x
 _atom_site_fract_y
 _atom_site_fract_z
 _atom_site_occupancy
  Sn  Sn0  1  0.69923175  0.61375995  0.61913099  1
  Sn  Sn1  1  0.30076825  0.38624005  0.38086901  1
  H  H2  1  0.51561630  0.16053163  0.79811058  1
  H  H3  1  0.48438370  0.83946837  0.20188942  1
  H  H4  1  0.86186652  0.96776567  0.87607020  1
  H  H5  1  0.13813348  0.03223433  0.12392980  1
  H  H6  1  0.48596255  0.16561652  0.63353940  1
  H  H7  1  0.51403745  0.83438348  0.36646060  1
  H  H8  1  0.78767072  0.11084571  0.05837041  1
  H  H9  1  0.21232928  0.88915429  0.94162959  1
  H  H10  1  0.81892700  0.19343324  0.70636069  1
  H  H11  1  0.18107300  0.80656676  0.29363931  1
  H  H12  1  0.00999653  0.22657167  0.60585940  1
  H  H13  1  0.99000347  0.77342833  0.39414060  1
  H  H14  1  0.30918455  0.95194974  0.62627851  1
  H  H15  1  0.69081545  0.04805026  0.37372149  1
  H  H16  1  0.54688708  0.92351306  0.64260341  1
  H  H17  1  0.45311292  0.07648694  0.35739659  1
  H  H18  1  0.08905408  0.32861293  0.88680086  1
  H  H19  1  0.91094592  0.67138707  0.11319914  1
  H  H20  1  0.86767361  0.26407180  0.16758146  1
  H  H21  1  0.13232639  0.73592820  0.83241854  1
  H  H22  1  0.52701971  0.29783256  0.10241018  1
  H  H23  1  0.47298029  0.70216744  0.89758982  1
  H  H24  1  0.65673392  0.12630120  0.19112154  1
  H  H25  1  0.34326608  0.87369880  0.80887846  1
  H  H26  1  0.82443086  0.89121541  0.01168097  1
  H  H27  1  0.17556914  0.10878459  0.98831903  1
  H  H28  1  0.93344660  0.36142129  0.68506723  1
  H  H29  1  0.06655340  0.63857871  0.31493277  1
  H  H30  1  0.67873279  0.31547547  0.98903180  1
  H  H31  1  0.32126721  0.68452453  0.01096820  1
  H  H32  1  0.25633694  0.33789373  0.78343269  1
  H  H33  1  0.74366306  0.66210627  0.21656731  1
  Se  Se34  1  0.86756431  0.85883578  0.57780237  1
  Se  Se35  1  0.13243569  0.14116422  0.42219763  1
  Se  Se36  1  0.29333216  0.57244124  0.57972779  1
  Se  Se37  1  0.70666784  0.42755876  0.42027221  1
  Se  Se38  1  0.82721326  0.54141991  0.84103728  1
  Se  Se39  1  0.17278674  0.45858009  0.15896272  1
  N  N40  1  0.73587148  0.18477839  0.12023804  1
  N  N41  1  0.26412852  0.81522161  0.87976196  1
  N  N42  1  0.45064701  0.97091815  0.68928312  1
  N  N43  1  0.54935299  0.02908185  0.31071688  1
  N  N44  1  0.96305381  0.26388370  0.69410579  1
  N  N45  1  0.03694619  0.73611630  0.30589421  1
  N  N46  1  0.59037508  0.24145354  0.03757327  1
  N  N47  1  0.40962492  0.75854646  0.96242673  1
  N  N48  1  0.55076671  0.11991040  0.71065415  1
  N  N49  1  0.44923329  0.88008960  0.28934585  1
  N  N50  1  0.88687195  0.98585880  0.97923179  1
  N  N51  1  0.11312805  0.01414120  0.02076821  1
  N  N52  1  0.12504998  0.27247374  0.80737724  1
  N  N53  1  0.87495002  0.72752626  0.19262276  1
