# generated using pymatgen
data_Sr2La2MnCuO8
_symmetry_space_group_name_H-M   'P 1'
_cell_length_a   3.87816270
_cell_length_b   15.42267470
_cell_length_c   6.99442960
_cell_angle_alpha   106.35796892
_cell_angle_beta   106.19294957
_cell_angle_gamma   89.95562920
_symmetry_Int_Tables_number   1
_chemical_formula_structural   Sr2La2MnCuO8
_chemical_formula_sum   'Sr4 La4 Mn2 Cu2 O16'
_cell_volume   384.11374065
_cell_formula_units_Z   2
loop_
 _symmetry_equiv_pos_site_id
 _symmetry_equiv_pos_as_xyz
  1  'x, y, z'
loop_
 _atom_site_type_symbol
 _atom_site_label
 _atom_site_symmetry_multiplicity
 _atom_site_fract_x
 _atom_site_fract_y
 _atom_site_fract_z
 _atom_site_occupancy
  Sr  Sr0  1  0.35882761  0.34048628  0.71576249  1
  Sr  Sr1  1  0.35315470  0.58976410  0.71164976  1
  Sr  Sr2  1  0.64684530  0.16023590  0.28835024  1
  Sr  Sr3  1  0.64117239  0.40951372  0.28423751  1
  La  La4  1  0.36473967  0.08871460  0.72698382  1
  La  La5  1  0.35136116  0.83703259  0.71782621  1
  La  La6  1  0.63526033  0.66128540  0.27301618  1
  La  La7  1  0.64863884  0.91296741  0.28217379  1
  Mn  Mn8  1  0.00319807  0.24978056  0.00434563  1
  Mn  Mn9  1  0.99680193  0.50021944  0.99565437  1
  Cu  Cu10  1  0.00143745  0.99951756  0.00140903  1
  Cu  Cu11  1  0.99856255  0.75048244  0.99859097  1
  O  O12  1  0.00035402  0.12307857  0.99700322  1
  O  O13  1  0.00000000  0.37500000  0.00000000  1
  O  O14  1  -0.00035402  0.62692143  0.00299678  1
  O  O15  1  0.00000000  0.87500000  0.00000000  1
  O  O16  1  0.18340892  0.03453696  0.36550579  1
  O  O17  1  0.16014463  0.28813150  0.31591861  1
  O  O18  1  0.15562448  0.54738939  0.31615120  1
  O  O19  1  0.16773843  0.79627881  0.35905406  1
  O  O20  1  0.50077228  0.99650217  0.99413377  1
  O  O21  1  0.49975949  0.24680575  0.99522660  1
  O  O22  1  0.50024051  0.50319425  0.00477340  1
  O  O23  1  0.49922772  0.75349783  0.00586623  1
  O  O24  1  0.84437552  0.20261061  0.68384880  1
  O  O25  1  0.83985537  0.46186850  0.68408139  1
  O  O26  1  0.81659108  0.71546304  0.63449421  1
  O  O27  1  0.83226157  0.95372119  0.64094594  1
