# generated using pymatgen
data_Na2MnPCO7
_symmetry_space_group_name_H-M   'P 1'
_cell_length_a   8.51862417
_cell_length_b   8.53347754
_cell_length_c   10.40243084
_cell_angle_alpha   71.29670797
_cell_angle_beta   107.82868976
_cell_angle_gamma   75.08359200
_symmetry_Int_Tables_number   1
_chemical_formula_structural   Na2MnPCO7
_chemical_formula_sum   'Na8 Mn4 P4 C4 O28'
_cell_volume   626.60048236
_cell_formula_units_Z   4
loop_
 _symmetry_equiv_pos_site_id
 _symmetry_equiv_pos_as_xyz
  1  'x, y, z'
loop_
 _atom_site_type_symbol
 _atom_site_label
 _atom_site_symmetry_multiplicity
 _atom_site_fract_x
 _atom_site_fract_y
 _atom_site_fract_z
 _atom_site_occupancy
  Na  Na0  1  0.00255060  0.00167990  0.75961871  1
  Na  Na1  1  0.50576973  0.51297461  0.74507168  1
  Na  Na2  1  0.23443424  0.24501101  0.74384227  1
  Na  Na3  1  0.74765095  0.74554728  0.76139614  1
  Na  Na4  1  0.76012342  0.74722349  0.24615144  1
  Na  Na5  1  0.48293783  0.49753511  0.25465176  1
  Na  Na6  1  0.00705891  0.99466785  0.24024892  1
  Na  Na7  1  0.51892300  0.21650342  0.08740995  1
  Mn  Mn8  1  0.58056754  0.16809856  0.64256947  1
  Mn  Mn9  1  0.09450545  0.65722351  0.64923736  1
  Mn  Mn10  1  0.91494025  0.33953215  0.34958566  1
  Mn  Mn11  1  0.40967759  0.84958557  0.34958154  1
  P  P12  1  0.76427396  0.48014687  0.57636161  1
  P  P13  1  0.27235290  0.98156441  0.57886554  1
  P  P14  1  0.74037354  0.01238239  0.42145987  1
  P  P15  1  0.22739638  0.52445387  0.41950520  1
  C  C16  1  0.69399613  0.05513037  0.92755587  1
  C  C17  1  0.20518818  0.54785303  0.92477237  1
  C  C18  1  0.79761866  0.44929689  0.07395815  1
  C  C19  1  0.29937249  0.94963363  0.07402729  1
  O  O20  1  0.23730484  0.01237456  0.93398437  1
  O  O21  1  0.72642575  0.51554531  0.93350237  1
  O  O22  1  0.27540039  0.46973081  0.85120226  1
  O  O23  1  0.76369101  0.98509499  0.85111648  1
  O  O24  1  0.54692571  0.19963759  0.84611083  1
  O  O25  1  0.05730929  0.69154654  0.83262646  1
  O  O26  1  0.94067371  0.48525945  0.66895449  1
  O  O27  1  0.74534879  0.30663172  0.66744696  1
  O  O28  1  0.44400140  0.00301009  0.66619944  1
  O  O29  1  0.26828734  0.80633359  0.67865807  1
  O  O30  1  0.74215399  0.00399413  0.57246335  1
  O  O31  1  0.10295982  0.14612939  0.54616464  1
  O  O32  1  0.60107897  0.64902995  0.54558401  1
  O  O33  1  0.24265279  0.51289926  0.57705334  1
  O  O34  1  0.75509162  0.48665099  0.42328738  1
  O  O35  1  0.91437138  0.85097079  0.45603193  1
  O  O36  1  0.39601427  0.35830120  0.45431960  1
  O  O37  1  0.26297389  0.98508862  0.42722896  1
  O  O38  1  0.57800304  0.99048035  0.32352738  1
  O  O39  1  0.74176120  0.19152881  0.32323471  1
  O  O40  1  0.05135206  0.51393855  0.33540581  1
  O  O41  1  0.24150309  0.69657965  0.32716698  1
  O  O42  1  0.93933341  0.30233782  0.16315322  1
  O  O43  1  0.44594708  0.80511010  0.16770992  1
  O  O44  1  0.72859834  0.52603543  0.14841836  1
  O  O45  1  0.22536653  0.02735839  0.14389798  1
  O  O46  1  0.76511581  0.98662822  0.06946395  1
  O  O47  1  0.27980470  0.48446479  0.06349194  1
