# generated using pymatgen
data_Li9Co7O16
_symmetry_space_group_name_H-M   'P 1'
_cell_length_a   4.91467266
_cell_length_b   5.74210271
_cell_length_c   9.88780040
_cell_angle_alpha   89.07118493
_cell_angle_beta   99.44120863
_cell_angle_gamma   106.69272064
_symmetry_Int_Tables_number   1
_chemical_formula_structural   Li9Co7O16
_chemical_formula_sum   'Li9 Co7 O16'
_cell_volume   263.51867492
_cell_formula_units_Z   1
loop_
 _symmetry_equiv_pos_site_id
 _symmetry_equiv_pos_as_xyz
  1  'x, y, z'
loop_
 _atom_site_type_symbol
 _atom_site_label
 _atom_site_symmetry_multiplicity
 _atom_site_fract_x
 _atom_site_fract_y
 _atom_site_fract_z
 _atom_site_occupancy
  Li  Li0  1  -0.00058463  0.24985748  0.24987449  1
  Li  Li1  1  0.50277942  0.87802696  0.63093323  1
  Li  Li2  1  0.00058463  0.00014252  0.50012551  1
  Li  Li3  1  0.50000000  0.62500000  0.87500000  1
  Li  Li4  1  0.00553985  0.75663483  0.75341650  1
  Li  Li5  1  0.49722058  0.37197304  0.11906677  1
  Li  Li6  1  0.99446015  0.49336517  0.99658350  1
  Li  Li7  1  0.50000000  0.12500000  0.37500000  1
  Li  Li8  1  0.50000000  0.12500000  0.87500000  1
  Co  Co9  1  0.00072435  0.00145713  0.99834410  1
  Co  Co10  1  -0.00072435  0.24854287  0.75165590  1
  Co  Co11  1  0.50000000  0.62500000  0.37500000  1
  Co  Co12  1  0.50029413  0.87953836  0.12035685  1
  Co  Co13  1  0.99908164  0.49924168  0.50048533  1
  Co  Co14  1  0.00091836  0.75075832  0.24951467  1
  Co  Co15  1  0.49970587  0.37046164  0.62964315  1
  O  O16  1  0.74725677  0.15731393  0.06663028  1
  O  O17  1  0.23899070  0.78832530  0.42889180  1
  O  O18  1  0.73834411  0.91314939  0.30347433  1
  O  O19  1  0.24144681  0.54103461  0.67862604  1
  O  O20  1  0.73492799  0.65856799  0.55361115  1
  O  O21  1  0.22229806  0.29678212  0.93145979  1
  O  O22  1  0.74466507  0.42609555  0.79390303  1
  O  O23  1  0.24348800  0.04072749  0.17990581  1
  O  O24  1  0.26165589  0.33685061  0.44652567  1
  O  O25  1  0.77770194  0.95321688  0.81854121  1
  O  O26  1  0.25274323  0.09268607  0.68337072  1
  O  O27  1  0.75855319  0.70896539  0.07137496  1
  O  O28  1  0.25533493  0.82390445  0.95609797  1
  O  O29  1  0.76100930  0.46167470  0.32110920  1
  O  O30  1  0.26507201  0.59143101  0.19638985  1
  O  O31  1  0.75651200  0.20927151  0.57009519  1
