# generated using pymatgen
data_Pr4AlSi5(NO)7
_symmetry_space_group_name_H-M   'P 1'
_cell_length_a   5.12497420
_cell_length_b   7.88048722
_cell_length_c   23.44674719
_cell_angle_alpha   88.79292240
_cell_angle_beta   89.55582521
_cell_angle_gamma   89.77776538
_symmetry_Int_Tables_number   1
_chemical_formula_structural   Pr4AlSi5(NO)7
_chemical_formula_sum   'Pr12 Al3 Si15 N21 O21'
_cell_volume   946.70553870
_cell_formula_units_Z   3
loop_
 _symmetry_equiv_pos_site_id
 _symmetry_equiv_pos_as_xyz
  1  'x, y, z'
loop_
 _atom_site_type_symbol
 _atom_site_label
 _atom_site_symmetry_multiplicity
 _atom_site_fract_x
 _atom_site_fract_y
 _atom_site_fract_z
 _atom_site_occupancy
  Pr  Pr0  1  0.98852450  0.66224515  0.05320091  1
  Pr  Pr1  1  0.98470146  0.33737814  0.28203716  1
  Pr  Pr2  1  0.98786150  0.64958786  0.38893778  1
  Pr  Pr3  1  0.98138837  0.34395580  0.61412110  1
  Pr  Pr4  1  -0.00010971  0.66543717  0.72222766  1
  Pr  Pr5  1  0.98122418  0.33928848  0.94700404  1
  Pr  Pr6  1  0.98125008  0.17340956  0.11120379  1
  Pr  Pr7  1  0.97493843  0.16948479  0.44212729  1
  Pr  Pr8  1  0.98880577  0.82565993  0.22125994  1
  Pr  Pr9  1  0.98854598  0.15770395  0.77478460  1
  Pr  Pr10  1  0.99070847  0.82710903  0.55349423  1
  Pr  Pr11  1  0.99034113  0.82320196  0.88620179  1
  Al  Al12  1  0.46881508  0.14304986  0.21521114  1
  Al  Al13  1  0.52207930  0.00241027  0.99948914  1
  Al  Al14  1  0.53598469  0.35481502  0.38207697  1
  Si  Si15  1  0.45746099  0.14089601  0.54575537  1
  Si  Si16  1  0.45137950  0.14106126  0.87884317  1
  Si  Si17  1  0.44315286  0.85250320  0.11993914  1
  Si  Si18  1  0.44829609  0.85500537  0.45498574  1
  Si  Si19  1  0.43959170  0.85845516  0.78558370  1
  Si  Si20  1  0.50365864  0.50647491  0.16650887  1
  Si  Si21  1  0.51979062  0.50682630  0.50055319  1
  Si  Si22  1  0.51196574  0.50337416  0.83217782  1
  Si  Si23  1  0.52299249  0.99704001  0.33286946  1
  Si  Si24  1  0.51114205  0.99955917  0.66783199  1
  Si  Si25  1  0.55087400  0.35859049  0.04863078  1
  Si  Si26  1  0.54823711  0.64629742  0.62001805  1
  Si  Si27  1  0.54849922  0.35652262  0.71429051  1
  Si  Si28  1  0.54914595  0.64104967  0.28508507  1
  Si  Si29  1  0.55466871  0.64125509  0.95171816  1
  N  N30  1  0.29741563  0.66655561  0.13958255  1
  N  N31  1  0.30794623  0.66353040  0.47347955  1
  N  N32  1  0.30603689  0.66290199  0.80663274  1
  N  N33  1  0.30215499  0.92084595  0.72033560  1
  N  N34  1  0.32709514  0.00845443  0.49835747  1
  N  N35  1  0.32364198  0.00435108  0.83341195  1
  N  N36  1  0.67152503  0.50247549  0.00130690  1
  N  N37  1  0.67676169  0.50395440  0.33229466  1
  N  N38  1  0.67082942  0.50644056  0.66879839  1
  N  N39  1  0.69136036  0.58346571  0.22037684  1
  N  N40  1  0.69609266  0.58100949  0.55687170  1
  N  N41  1  0.69784503  0.57003400  0.88837635  1
  N  N42  1  0.68633176  0.41571061  0.11341542  1
  N  N43  1  0.70712362  0.17369657  0.02981178  1
  N  N44  1  0.70237732  0.15499328  0.35866172  1
  N  N45  1  0.69460380  0.16862088  0.69046106  1
  N  N46  1  0.70300033  0.41361569  0.44943816  1
  N  N47  1  0.68508672  0.40314211  0.77950779  1
  N  N48  1  0.68515716  0.83515268  0.30150362  1
  N  N49  1  0.68492075  0.84098729  0.63537268  1
  N  N50  1  0.70285953  0.82792432  0.96932556  1
  O  O51  1  0.22378647  0.36114815  0.04674210  1
  O  O52  1  0.22149881  0.63984479  0.28677656  1
  O  O53  1  0.19053411  0.36088065  0.37812883  1
  O  O54  1  0.22146152  0.35773747  0.71145071  1
  O  O55  1  0.22106487  0.63746801  0.62002220  1
  O  O56  1  0.22658336  0.63718992  0.95399572  1
  O  O57  1  0.31341025  0.07737504  0.28148428  1
  O  O58  1  0.31654280  0.34152130  0.19543367  1
  O  O59  1  0.30721173  0.91939107  0.05815689  1
  O  O60  1  0.32992243  0.33703121  0.53195257  1
  O  O61  1  0.32296949  0.09171461  0.61068439  1
  O  O62  1  0.32785886  0.91150759  0.38796618  1
  O  O63  1  0.31484345  0.09812561  0.94316640  1
  O  O64  1  0.32058127  0.33613140  0.86291445  1
  O  O65  1  0.33165963  -0.00001206  0.16541444  1
  O  O66  1  0.80888037  0.13338807  0.21171892  1
  O  O67  1  0.77797750  0.14127400  0.54787772  1
  O  O68  1  0.77261812  0.14307159  0.88106631  1
  O  O69  1  0.76415047  0.86549312  0.11941107  1
  O  O70  1  0.77240921  0.86043513  0.45328841  1
  O  O71  1  0.76795432  0.86177296  0.78685712  1
