# generated using pymatgen
data_Sm2EuSe4
_symmetry_space_group_name_H-M   'P 1'
_cell_length_a   7.73541160
_cell_length_b   7.73541154
_cell_length_c   7.73541212
_cell_angle_alpha   109.33441967
_cell_angle_beta   109.33441955
_cell_angle_gamma   109.74517628
_symmetry_Int_Tables_number   1
_chemical_formula_structural   Sm2EuSe4
_chemical_formula_sum   'Sm4 Eu2 Se8'
_cell_volume   356.30419484
_cell_formula_units_Z   2
loop_
 _symmetry_equiv_pos_site_id
 _symmetry_equiv_pos_as_xyz
  1  'x, y, z'
loop_
 _atom_site_type_symbol
 _atom_site_label
 _atom_site_symmetry_multiplicity
 _atom_site_fract_x
 _atom_site_fract_y
 _atom_site_fract_z
 _atom_site_occupancy
  Sm  Sm0  1  0.12407694  0.75000000  0.87407694  1
  Sm  Sm1  1  0.25000000  0.62407694  0.37407694  1
  Sm  Sm2  1  0.37592306  0.25000000  0.62592306  1
  Sm  Sm3  1  0.75000000  0.87592306  0.12592306  1
  Eu  Eu4  1  0.62500000  0.37500000  0.25000000  1
  Eu  Eu5  1  0.87500000  0.12500000  0.75000000  1
  Se  Se6  1  0.00676446  0.85307324  0.49919269  1
  Se  Se7  1  0.49323554  0.99242823  0.84630878  1
  Se  Se8  1  0.14692676  0.14611944  0.15369122  1
  Se  Se9  1  0.35307324  0.50676446  0.99919269  1
  Se  Se10  1  0.64611944  0.64692676  0.65369122  1
  Se  Se11  1  0.49242823  0.99323554  0.34630878  1
  Se  Se12  1  0.85388056  0.50757177  0.00080731  1
  Se  Se13  1  0.00757177  0.35388056  0.50080731  1
