# generated using pymatgen
data_Na3ErTi2Nb2O12
_symmetry_space_group_name_H-M   'P 1'
_cell_length_a   5.43486768
_cell_length_b   5.59206578
_cell_length_c   15.50839108
_cell_angle_alpha   90.00000000
_cell_angle_beta   90.00000000
_cell_angle_gamma   90.00000000
_symmetry_Int_Tables_number   1
_chemical_formula_structural   Na3ErTi2Nb2O12
_chemical_formula_sum   'Na6 Er2 Ti4 Nb4 O24'
_cell_volume   471.33315523
_cell_formula_units_Z   2
loop_
 _symmetry_equiv_pos_site_id
 _symmetry_equiv_pos_as_xyz
  1  'x, y, z'
loop_
 _atom_site_type_symbol
 _atom_site_label
 _atom_site_symmetry_multiplicity
 _atom_site_fract_x
 _atom_site_fract_y
 _atom_site_fract_z
 _atom_site_occupancy
  Na  Na0  1  0.00510965  0.96879860  0.37190328  1
  Na  Na1  1  0.00510965  0.96879860  0.87809672  1
  Na  Na2  1  0.49489035  0.46879860  0.87809672  1
  Na  Na3  1  0.49489035  0.46879860  0.37190328  1
  Na  Na4  1  0.50815535  0.53513285  0.62500000  1
  Na  Na5  1  0.99184465  0.03513285  0.62500000  1
  Er  Er6  1  0.51250569  0.56505787  0.12500000  1
  Er  Er7  1  0.98749431  0.06505787  0.12500000  1
  Ti  Ti8  1  0.01205171  0.52357828  0.99869320  1
  Ti  Ti9  1  0.48794829  0.02357828  0.25130680  1
  Ti  Ti10  1  0.48794829  0.02357828  0.99869320  1
  Ti  Ti11  1  0.01205171  0.52357828  0.25130680  1
  Nb  Nb12  1  0.50003047  0.00093124  0.75216498  1
  Nb  Nb13  1  0.50003047  0.00093124  0.49783502  1
  Nb  Nb14  1  -0.00003047  0.50093124  0.49783502  1
  Nb  Nb15  1  -0.00003047  0.50093124  0.75216498  1
  O  O16  1  0.10196787  0.45841636  0.12500000  1
  O  O17  1  0.07717302  0.48229448  0.62500000  1
  O  O18  1  0.20672485  0.20839514  0.47788571  1
  O  O19  1  0.19739147  0.19075921  0.26097638  1
  O  O20  1  0.20672485  0.20839514  0.77211429  1
  O  O21  1  0.19739147  0.19075921  0.98902362  1
  O  O22  1  0.29327515  0.70839514  0.47788571  1
  O  O23  1  0.29327515  0.70839514  0.77211429  1
  O  O24  1  0.30260853  0.69075921  0.26097638  1
  O  O25  1  0.30260853  0.69075921  0.98902362  1
  O  O26  1  0.39803213  0.95841636  0.12500000  1
  O  O27  1  0.42282698  0.98229448  0.62500000  1
  O  O28  1  0.57359561  0.01677317  0.88015781  1
  O  O29  1  0.57359561  0.01677317  0.36984219  1
  O  O30  1  0.70276747  0.27872536  0.03378967  1
  O  O31  1  0.70276747  0.27872536  0.21621033  1
  O  O32  1  0.70648629  0.29158821  0.51812301  1
  O  O33  1  0.70648629  0.29158821  0.73187699  1
  O  O34  1  0.79723253  0.77872536  0.03378967  1
  O  O35  1  0.79723253  0.77872536  0.21621033  1
  O  O36  1  0.79351371  0.79158821  0.51812301  1
  O  O37  1  0.79351371  0.79158821  0.73187699  1
  O  O38  1  0.92640439  0.51677317  0.88015781  1
  O  O39  1  0.92640439  0.51677317  0.36984219  1
