# generated using pymatgen
data_KIO3
_symmetry_space_group_name_H-M   'P 1'
_cell_length_a   7.86602258
_cell_length_b   7.86616881
_cell_length_c   7.84303991
_cell_angle_alpha   109.40648538
_cell_angle_beta   109.32058320
_cell_angle_gamma   109.68048762
_symmetry_Int_Tables_number   1
_chemical_formula_structural   KIO3
_chemical_formula_sum   'K4 I4 O12'
_cell_volume   373.60286495
_cell_formula_units_Z   4
loop_
 _symmetry_equiv_pos_site_id
 _symmetry_equiv_pos_as_xyz
  1  'x, y, z'
loop_
 _atom_site_type_symbol
 _atom_site_label
 _atom_site_symmetry_multiplicity
 _atom_site_fract_x
 _atom_site_fract_y
 _atom_site_fract_z
 _atom_site_occupancy
  K  K0  1  0.99720749  0.49927844  0.50679789  1
  K  K1  1  0.49894364  0.50125826  0.01042293  1
  K  K2  1  0.00633955  0.00433808  0.00820873  1
  K  K3  1  0.50772594  0.00928642  0.50861699  1
  I  I4  1  0.48716526  0.52608616  0.50812385  1
  I  I5  1  0.97090251  0.47755213  0.97288600  1
  I  I6  1  0.50694218  0.00760938  0.03946499  1
  I  I7  1  0.02159841  0.98868985  0.50373215  1
  O  O8  1  0.19504874  0.98649392  0.72743399  1
  O  O9  1  0.73684971  0.01682158  0.21688659  1
  O  O10  1  0.69055995  0.74291415  0.52239083  1
  O  O11  1  0.26005568  0.47153479  0.28245939  1
  O  O12  1  0.45581132  0.67733483  0.71986289  1
  O  O13  1  0.76356229  0.27445334  0.96912031  1
  O  O14  1  0.22119518  0.17680085  0.48558079  1
  O  O15  1  0.80789975  0.53645609  0.79840572  1
  O  O16  1  0.01329965  0.30650191  0.78558275  1
  O  O17  1  0.52267214  0.23838261  0.22434780  1
  O  O18  1  0.30410902  0.80620425  0.04208392  1
  O  O19  1  0.95911158  0.74600093  0.29058949  1
