# generated using pymatgen
data_Mg2B12H24O35
_symmetry_space_group_name_H-M   'P 1'
_cell_length_a   11.74327468
_cell_length_b   11.74327468
_cell_length_c   13.70057814
_cell_angle_alpha   64.62324616
_cell_angle_beta   64.62324616
_cell_angle_gamma   59.99999675
_symmetry_Int_Tables_number   1
_chemical_formula_structural   Mg2B12H24O35
_chemical_formula_sum   'Mg4 B24 H48 O70'
_cell_volume   1421.84320006
_cell_formula_units_Z   2
loop_
 _symmetry_equiv_pos_site_id
 _symmetry_equiv_pos_as_xyz
  1  'x, y, z'
loop_
 _atom_site_type_symbol
 _atom_site_label
 _atom_site_symmetry_multiplicity
 _atom_site_fract_x
 _atom_site_fract_y
 _atom_site_fract_z
 _atom_site_occupancy
  Mg  Mg0  1  0.64326335  0.64326335  0.07020994  1
  Mg  Mg1  1  0.14326335  0.14326335  0.57020994  1
  Mg  Mg2  1  0.35673665  0.35673665  0.92979006  1
  Mg  Mg3  1  0.85673665  0.85673665  0.42979006  1
  B  B4  1  0.58180521  0.68637919  0.30067905  1
  B  B5  1  0.68637919  0.43113655  0.30067905  1
  B  B6  1  0.43113655  0.58180521  0.30067905  1
  B  B7  1  0.08180521  0.93113655  0.80067905  1
  B  B8  1  0.93113655  0.18637919  0.80067905  1
  B  B9  1  0.18637919  0.08180521  0.80067905  1
  B  B10  1  0.41819479  0.31362081  0.69932095  1
  B  B11  1  0.31362081  0.56886345  0.69932095  1
  B  B12  1  0.56886345  0.41819479  0.69932095  1
  B  B13  1  0.91819479  0.06886345  0.19932095  1
  B  B14  1  0.06886345  0.81362081  0.19932095  1
  B  B15  1  0.81362081  0.91819479  0.19932095  1
  B  B16  1  0.47942551  0.67293228  0.62715960  1
  B  B17  1  0.67293228  0.22048262  0.62715960  1
  B  B18  1  0.22048262  0.47942551  0.62715960  1
  B  B19  1  0.97942551  0.72048262  0.12715960  1
  B  B20  1  0.72048262  0.17293228  0.12715960  1
  B  B21  1  0.17293228  0.97942551  0.12715960  1
  B  B22  1  0.52057449  0.32706772  0.37284040  1
  B  B23  1  0.32706772  0.77951738  0.37284040  1
  B  B24  1  0.77951738  0.52057449  0.37284040  1
  B  B25  1  0.02057449  0.27951738  0.87284040  1
  B  B26  1  0.27951738  0.82706772  0.87284040  1
  B  B27  1  0.82706772  0.02057449  0.87284040  1
  H  H28  1  0.27273118  0.20426013  0.65535669  1
  H  H29  1  0.20426013  0.86765200  0.65535669  1
  H  H30  1  0.86765200  0.27273118  0.65535669  1
  H  H31  1  0.77273118  0.36765200  0.15535669  1
  H  H32  1  0.36765200  0.70426013  0.15535669  1
  H  H33  1  0.70426013  0.77273118  0.15535669  1
  H  H34  1  0.72726882  0.79573987  0.34464331  1
  H  H35  1  0.79573987  0.13234800  0.34464331  1
  H  H36  1  0.13234800  0.72726882  0.34464331  1
  H  H37  1  0.22726882  0.63234800  0.84464331  1
  H  H38  1  0.63234800  0.29573987  0.84464331  1
  H  H39  1  0.29573987  0.22726882  0.84464331  1
  H  H40  1  0.36809179  0.05323230  0.39248379  1
  H  H41  1  0.05323230  0.18619212  0.39248379  1
  H  H42  1  0.18619212  0.36809179  0.39248379  1
  H  H43  1  0.86809179  0.68619212  0.89248379  1
  H  H44  1  0.68619212  0.55323230  0.89248379  1
  H  H45  1  0.55323230  0.86809179  0.89248379  1
  H  H46  1  0.63190821  0.94676770  0.60751621  1
  H  H47  1  0.94676770  0.81380788  0.60751621  1
  H  H48  1  0.81380788  0.63190821  0.60751621  1
  H  H49  1  0.13190821  0.31380788  0.10751621  1
  H  H50  1  0.31380788  0.44676770  0.10751621  1
  H  H51  1  0.44676770  0.13190821  0.10751621  1
  H  H52  1  0.40234177  0.95076425  0.50746628  1
  H  H53  1  0.95076425  0.13942771  0.50746628  1
  H  H54  1  0.13942771  0.40234177  0.50746628  1
  H  H55  1  0.90234177  0.63942771  0.00746628  1
  H  H56  1  0.63942771  0.45076425  0.00746628  1
  H  H57  1  0.45076425  0.90234177  0.00746628  1
  H  H58  1  0.59765823  0.04923575  0.49253372  1
  H  H59  1  0.04923575  0.86057229  0.49253372  1
  H  H60  1  0.86057229  0.59765823  0.49253372  1
  H  H61  1  0.09765823  0.36057229  0.99253372  1
  H  H62  1  0.36057229  0.54923575  0.99253372  1
  H  H63  1  0.54923575  0.09765823  0.99253372  1
  H  H64  1  0.54208072  0.04621917  0.22910099  1
  H  H65  1  0.04621917  0.18259912  0.22910099  1
  H  H66  1  0.18259912  0.54208072  0.22910099  1
  H  H67  1  0.04208072  0.68259912  0.72910099  1
  H  H68  1  0.68259912  0.54621917  0.72910099  1
  H  H69  1  0.54621917  0.04208072  0.72910099  1
  H  H70  1  0.45791928  0.95378083  0.77089901  1
  H  H71  1  0.95378083  0.81740088  0.77089901  1
  H  H72  1  0.81740088  0.45791928  0.77089901  1
  H  H73  1  0.95791928  0.31740088  0.27089901  1
  H  H74  1  0.31740088  0.45378083  0.27089901  1
  H  H75  1  0.45378083  0.95791928  0.27089901  1
  O  O76  1  0.67606393  0.64889955  0.36319319  1
  O  O77  1  0.64889955  0.31184333  0.36319319  1
  O  O78  1  0.31184333  0.67606393  0.36319319  1
  O  O79  1  0.17606393  0.81184333  0.86319319  1
  O  O80  1  0.81184333  0.14889955  0.86319319  1
  O  O81  1  0.14889955  0.17606393  0.86319319  1
  O  O82  1  0.32393607  0.35110045  0.63680681  1
  O  O83  1  0.35110045  0.68815667  0.63680681  1
  O  O84  1  0.68815667  0.32393607  0.63680681  1
  O  O85  1  0.82393607  0.18815667  0.13680681  1
  O  O86  1  0.18815667  0.85110045  0.13680681  1
  O  O87  1  0.85110045  0.82393607  0.13680681  1
  O  O88  1  0.44992793  0.79022219  0.34053212  1
  O  O89  1  0.79022219  0.41931776  0.34053212  1
  O  O90  1  0.41931776  0.44992793  0.34053212  1
  O  O91  1  0.94992793  0.91931776  0.84053212  1
  O  O92  1  0.91931776  0.29022219  0.84053212  1
  O  O93  1  0.29022219  0.94992793  0.84053212  1
  O  O94  1  0.55007207  0.20977781  0.65946788  1
  O  O95  1  0.20977781  0.58068224  0.65946788  1
  O  O96  1  0.58068224  0.55007207  0.65946788  1
  O  O97  1  0.05007207  0.08068224  0.15946788  1
  O  O98  1  0.08068224  0.70977781  0.15946788  1
  O  O99  1  0.70977781  0.05007207  0.15946788  1
  O  O100  1  0.55900894  0.55900894  0.32297317  1
  O  O101  1  0.05900894  0.05900894  0.82297317  1
  O  O102  1  0.44099106  0.44099106  0.67702683  1
  O  O103  1  0.94099106  0.94099106  0.17702683  1
  O  O104  1  0.23205710  0.13801981  0.67888341  1
  O  O105  1  0.13801981  0.95103968  0.67888341  1
  O  O106  1  0.95103968  0.23205710  0.67888341  1
  O  O107  1  0.73205710  0.45103968  0.17888341  1
  O  O108  1  0.45103968  0.63801981  0.17888341  1
  O  O109  1  0.63801981  0.73205710  0.17888341  1
  O  O110  1  0.76794290  0.86198019  0.32111659  1
  O  O111  1  0.86198019  0.04896032  0.32111659  1
  O  O112  1  0.04896032  0.76794290  0.32111659  1
  O  O113  1  0.26794290  0.54896032  0.82111659  1
  O  O114  1  0.54896032  0.36198019  0.82111659  1
  O  O115  1  0.36198019  0.26794290  0.82111659  1
  O  O116  1  0.49908957  0.79276760  0.58762315  1
  O  O117  1  0.79276760  0.12051967  0.58762315  1
  O  O118  1  0.12051967  0.49908957  0.58762315  1
  O  O119  1  0.99908957  0.62051967  0.08762315  1
  O  O120  1  0.62051967  0.29276760  0.08762315  1
  O  O121  1  0.29276760  0.99908957  0.08762315  1
  O  O122  1  0.50091043  0.20723240  0.41237685  1
  O  O123  1  0.20723240  0.87948033  0.41237685  1
  O  O124  1  0.87948033  0.50091043  0.41237685  1
  O  O125  1  0.00091043  0.37948033  0.91237685  1
  O  O126  1  0.37948033  0.70723240  0.91237685  1
  O  O127  1  0.70723240  0.00091043  0.91237685  1
  O  O128  1  0.32975822  0.03224364  0.47568643  1
  O  O129  1  0.03224364  0.16231171  0.47568643  1
  O  O130  1  0.16231171  0.32975822  0.47568643  1
  O  O131  1  0.82975822  0.66231171  0.97568643  1
  O  O132  1  0.66231171  0.53224364  0.97568643  1
  O  O133  1  0.53224364  0.82975822  0.97568643  1
  O  O134  1  0.67024178  0.96775636  0.52431357  1
  O  O135  1  0.96775636  0.83768829  0.52431357  1
  O  O136  1  0.83768829  0.67024178  0.52431357  1
  O  O137  1  0.17024178  0.33768829  0.02431357  1
  O  O138  1  0.33768829  0.46775636  0.02431357  1
  O  O139  1  0.46775636  0.17024178  0.02431357  1
  O  O140  1  0.94755066  0.75000000  0.75000000  1
  O  O141  1  0.75000000  0.55244934  0.75000000  1
  O  O142  1  0.55244934  0.94755066  0.75000000  1
  O  O143  1  0.44755066  0.05244934  0.25000000  1
  O  O144  1  0.05244934  0.25000000  0.25000000  1
  O  O145  1  0.25000000  0.44755066  0.25000000  1
