# generated using pymatgen
data_CdH8(NO5)2
_symmetry_space_group_name_H-M   'P 1'
_cell_length_a   13.20108089
_cell_length_b   14.00746149
_cell_length_c   6.26081786
_cell_angle_alpha   69.62916882
_cell_angle_beta   84.05399496
_cell_angle_gamma   26.37672257
_symmetry_Int_Tables_number   1
_chemical_formula_structural   CdH8(NO5)2
_chemical_formula_sum   'Cd2 H16 N4 O20'
_cell_volume   417.55773215
_cell_formula_units_Z   2
loop_
 _symmetry_equiv_pos_site_id
 _symmetry_equiv_pos_as_xyz
  1  'x, y, z'
loop_
 _atom_site_type_symbol
 _atom_site_label
 _atom_site_symmetry_multiplicity
 _atom_site_fract_x
 _atom_site_fract_y
 _atom_site_fract_z
 _atom_site_occupancy
  Cd  Cd0  1  0.25699279  0.24238137  0.24682784  1
  Cd  Cd1  1  0.00573621  0.99516032  0.99812026  1
  H  H2  1  0.49136020  0.62374411  0.99143314  1
  H  H3  1  0.88655035  0.99860945  0.62156225  1
  H  H4  1  0.24897234  0.36682498  0.75366896  1
  H  H5  1  0.63139742  0.75360934  0.35939085  1
  H  H6  1  0.49512942  0.49999675  0.05967092  1
  H  H7  1  0.94624493  0.05902405  0.50057281  1
  H  H8  1  0.19451284  0.30147990  0.75375946  1
  H  H9  1  0.75268241  0.75244727  0.30134732  1
  H  H10  1  0.15002666  0.17905900  0.63706914  1
  H  H11  1  0.03234450  0.63755176  0.17824698  1
  H  H12  1  0.61413677  0.21541017  0.10454403  1
  H  H13  1  0.07276124  0.09855765  0.22219904  1
  H  H14  1  0.43521697  0.96204541  0.77172347  1
  H  H15  1  0.83028785  0.76965763  0.96469445  1
  H  H16  1  0.48006888  0.41741053  0.81936199  1
  H  H17  1  0.28711158  0.81463294  0.42297039  1
  N  N18  1  0.82864608  0.49057353  0.01636891  1
  N  N19  1  0.66678277  0.01305239  0.49471591  1
  N  N20  1  0.23514777  0.58431203  0.42349551  1
  N  N21  1  0.75891903  0.42132695  0.58732354  1
  O  O22  1  0.78244278  0.62076019  0.00524277  1
  O  O23  1  0.59350558  0.00207432  0.62413806  1
  O  O24  1  0.24556518  0.65865401  0.46611139  1
  O  O25  1  0.62771981  0.46888198  0.65968344  1
  O  O26  1  0.06798650  0.24009721  0.15013706  1
  O  O27  1  0.54793148  0.14248159  0.24486960  1
  O  O28  1  0.10661881  0.70095281  0.18564636  1
  O  O29  1  0.00897219  0.18160808  0.70855327  1
  O  O30  1  0.64443764  0.60669602  0.89679895  1
  O  O31  1  0.85099428  0.89761104  0.61112872  1
  O  O32  1  0.35137852  0.39993618  0.61149451  1
  O  O33  1  0.64396317  0.60504795  0.40107331  1
  O  O34  1  0.43445498  0.61214157  0.07918254  1
  O  O35  1  0.87720089  0.07750145  0.61515943  1
  O  O36  1  0.17254954  0.37315589  0.81720309  1
  O  O37  1  0.63901046  0.81524528  0.37134166  1
  O  O38  1  0.24777547  0.15456720  0.63935684  1
  O  O39  1  0.95886868  0.63733319  0.15658714  1
  O  O40  1  0.61165546  0.29110016  0.00651915  1
  O  O41  1  0.09476554  0.00290433  0.29556852  1
