# generated using pymatgen
data_Li10Co3Ni7O20
_symmetry_space_group_name_H-M   'P 1'
_cell_length_a   2.83888360
_cell_length_b   11.66178869
_cell_length_c   11.43961687
_cell_angle_alpha   112.46446777
_cell_angle_beta   82.87230173
_cell_angle_gamma   89.99999995
_symmetry_Int_Tables_number   1
_chemical_formula_structural   Li10Co3Ni7O20
_chemical_formula_sum   'Li10 Co3 Ni7 O20'
_cell_volume   346.81709456
_cell_formula_units_Z   1
loop_
 _symmetry_equiv_pos_site_id
 _symmetry_equiv_pos_as_xyz
  1  'x, y, z'
loop_
 _atom_site_type_symbol
 _atom_site_label
 _atom_site_symmetry_multiplicity
 _atom_site_fract_x
 _atom_site_fract_y
 _atom_site_fract_z
 _atom_site_occupancy
  Li  Li0  1  0.60000784  0.55112164  0.79998432  1
  Li  Li1  1  0.59987015  0.05035572  0.80025870  1
  Li  Li2  1  0.79947034  0.14791200  0.40106032  1
  Li  Li3  1  0.79957133  0.65095645  0.40085633  1
  Li  Li4  1  0.40118620  0.94736791  0.19762760  1
  Li  Li5  1  0.39881380  0.45263209  0.20237240  1
  Li  Li6  1  0.19999216  0.84887836  0.60001568  1
  Li  Li7  1  0.20012985  0.34964428  0.59974130  1
  Li  Li8  1  0.00052966  0.25208800  0.99893968  1
  Li  Li9  1  0.00042867  0.74904355  0.99914367  1
  Co  Co10  1  0.80050574  0.39899027  0.39898853  1
  Co  Co11  1  0.40000000  0.70000000  0.20000000  1
  Co  Co12  1  0.99949426  0.00100973  0.00101147  1
  Ni  Ni13  1  0.80283219  0.89977996  0.39433562  1
  Ni  Ni14  1  0.59979156  0.30170148  0.80041788  1
  Ni  Ni15  1  0.60020491  0.79789464  0.79959118  1
  Ni  Ni16  1  0.19979509  0.60210536  0.60040882  1
  Ni  Ni17  1  0.40000000  0.20000000  0.20000000  1
  Ni  Ni18  1  0.20020844  0.09829852  0.59958212  1
  Ni  Ni19  1  0.99716781  0.50022004  0.00566438  1
  O  O20  1  0.70014427  0.72376461  0.59971147  1
  O  O21  1  0.89079475  0.33129222  0.21841049  1
  O  O22  1  0.49962108  0.11189332  0.00075784  1
  O  O23  1  0.71026122  0.46966379  0.57947755  1
  O  O24  1  0.70095929  0.98562569  0.59808042  1
  O  O25  1  0.89757887  0.59216551  0.20484126  1
  O  O26  1  0.90242113  0.80783449  0.19515874  1
  O  O27  1  0.49105675  0.61780986  0.01788549  1
  O  O28  1  0.70081051  0.20946979  0.59837898  1
  O  O29  1  0.90920525  0.06870778  0.18158951  1
  O  O30  1  0.30129465  0.01290690  0.39741070  1
  O  O31  1  0.08973878  0.93033621  0.82052245  1
  O  O32  1  0.30048224  0.50908743  0.39903652  1
  O  O33  1  0.30894325  0.78219014  0.38211451  1
  O  O34  1  0.49870535  0.38709310  0.00258930  1
  O  O35  1  0.09985573  0.67623539  0.80028853  1
  O  O36  1  0.09918949  0.19053021  0.80162102  1
  O  O37  1  0.09904071  0.41437431  0.80191958  1
  O  O38  1  0.49951776  0.89091257  0.00096348  1
  O  O39  1  0.30037892  0.28810668  0.39924216  1
