# generated using pymatgen
data_SrO2
_symmetry_space_group_name_H-M   'P 1'
_cell_length_a   8.51116116
_cell_length_b   4.72421852
_cell_length_c   4.94696723
_cell_angle_alpha   90.00000000
_cell_angle_beta   90.00000000
_cell_angle_gamma   90.00000000
_symmetry_Int_Tables_number   1
_chemical_formula_structural   SrO2
_chemical_formula_sum   'Sr4 O8'
_cell_volume   198.91055324
_cell_formula_units_Z   4
loop_
 _symmetry_equiv_pos_site_id
 _symmetry_equiv_pos_as_xyz
  1  'x, y, z'
loop_
 _atom_site_type_symbol
 _atom_site_label
 _atom_site_symmetry_multiplicity
 _atom_site_fract_x
 _atom_site_fract_y
 _atom_site_fract_z
 _atom_site_occupancy
  Sr  Sr0  1  0.64657752  0.39096509  0.25000000  1
  Sr  Sr1  1  0.14657752  0.10903491  0.25000000  1
  Sr  Sr2  1  0.35342248  0.60903491  0.75000000  1
  Sr  Sr3  1  0.85342248  0.89096509  0.75000000  1
  O  O4  1  0.85537373  0.03442992  0.25000000  1
  O  O5  1  0.35537373  0.46557008  0.25000000  1
  O  O6  1  0.14462627  0.96557008  0.75000000  1
  O  O7  1  0.64462627  0.53442992  0.75000000  1
  O  O8  1  0.89549910  0.72287234  0.25000000  1
  O  O9  1  0.39549910  0.77712766  0.25000000  1
  O  O10  1  0.10450090  0.27712766  0.75000000  1
  O  O11  1  0.60450090  0.22287234  0.75000000  1
