# generated using pymatgen
data_Cu6OF11
_symmetry_space_group_name_H-M   'P 1'
_cell_length_a   7.11221814
_cell_length_b   5.66634798
_cell_length_c   6.03406792
_cell_angle_alpha   67.01171231
_cell_angle_beta   105.32600932
_cell_angle_gamma   107.94727883
_symmetry_Int_Tables_number   1
_chemical_formula_structural   Cu6OF11
_chemical_formula_sum   'Cu6 O1 F11'
_cell_volume   210.07264513
_cell_formula_units_Z   1
loop_
 _symmetry_equiv_pos_site_id
 _symmetry_equiv_pos_as_xyz
  1  'x, y, z'
loop_
 _atom_site_type_symbol
 _atom_site_label
 _atom_site_symmetry_multiplicity
 _atom_site_fract_x
 _atom_site_fract_y
 _atom_site_fract_z
 _atom_site_occupancy
  Cu  Cu0  1  0.99329521  0.97991713  0.00560271  1
  Cu  Cu1  1  0.49981596  0.99751245  0.00265751  1
  Cu  Cu2  1  0.33433859  0.33486122  0.33331774  1
  Cu  Cu3  1  0.83398199  0.35255853  0.31214468  1
  Cu  Cu4  1  0.16628972  0.66165407  0.67034403  1
  Cu  Cu5  1  0.68029762  0.66623774  0.69387007  1
  O  O6  1  0.83697923  0.64446308  0.03447312  1
  F  F7  1  0.79025007  0.08260291  0.08486836  1
  F  F8  1  0.54420915  0.25094615  0.24351334  1
  F  F9  1  0.12165550  0.42425457  0.41348749  1
  F  F10  1  0.49199677  0.69181072  0.29394310  1
  F  F11  1  0.82066578  0.04054929  0.60149024  1
  F  F12  1  0.17928376  0.97380660  0.38426970  1
  F  F13  1  0.51344135  0.30946728  0.71946921  1
  F  F14  1  0.15152454  0.34654326  0.95237010  1
  F  F15  1  0.87727080  0.58243499  0.58367912  1
  F  F16  1  0.45521350  0.75056332  0.75307991  1
  F  F17  1  0.20948947  0.90981770  0.91741858  1
