# generated using pymatgen
data_Fe2H6(SeO4)3
_symmetry_space_group_name_H-M   'P 1'
_cell_length_a   8.78582766
_cell_length_b   8.78199627
_cell_length_c   8.78199713
_cell_angle_alpha   65.70072987
_cell_angle_beta   65.72580854
_cell_angle_gamma   65.72580740
_symmetry_Int_Tables_number   1
_chemical_formula_structural   Fe2H6(SeO4)3
_chemical_formula_sum   'Fe4 H12 Se6 O24'
_cell_volume   538.56789365
_cell_formula_units_Z   2
loop_
 _symmetry_equiv_pos_site_id
 _symmetry_equiv_pos_as_xyz
  1  'x, y, z'
loop_
 _atom_site_type_symbol
 _atom_site_label
 _atom_site_symmetry_multiplicity
 _atom_site_fract_x
 _atom_site_fract_y
 _atom_site_fract_z
 _atom_site_occupancy
  Fe  Fe0  1  0.60027956  0.60096128  0.60008125  1
  Fe  Fe1  1  0.10027956  0.10008125  0.10096128  1
  Fe  Fe2  1  0.83491323  0.83386870  0.83465414  1
  Fe  Fe3  1  0.33491323  0.33465414  0.33386870  1
  H  H4  1  0.81972015  0.65928350  0.18440036  1
  H  H5  1  0.65772953  0.18558849  0.81853967  1
  H  H6  1  0.18245774  0.82276160  0.65857043  1
  H  H7  1  0.31972015  0.68440036  0.15928350  1
  H  H8  1  0.68245774  0.15857043  0.32276160  1
  H  H9  1  0.15772953  0.31853967  0.68558849  1
  H  H10  1  0.84467736  0.84319834  0.14032075  1
  H  H11  1  0.84256445  0.13919993  0.84193493  1
  H  H12  1  0.14044917  0.84128092  0.84431319  1
  H  H13  1  0.34467736  0.64032075  0.34319834  1
  H  H14  1  0.64044917  0.34431319  0.34128092  1
  H  H15  1  0.34256445  0.34193493  0.63919993  1
  Se  Se16  1  0.39397501  0.94317010  0.32158072  1
  Se  Se17  1  0.94374571  0.32287590  0.39359109  1
  Se  Se18  1  0.32329200  0.39457554  0.94325697  1
  Se  Se19  1  0.89397501  0.82158072  0.44317010  1
  Se  Se20  1  0.82329200  0.44325697  0.89457554  1
  Se  Se21  1  0.44374571  0.89359109  0.82287590  1
  O  O22  1  0.39884189  0.74442259  0.48713617  1
  O  O23  1  0.74605139  0.48954987  0.39819358  1
  O  O24  1  0.48928818  0.39798214  0.74496316  1
  O  O25  1  0.89884189  0.98713617  0.24442259  1
  O  O26  1  0.98928818  0.24496316  0.89798214  1
  O  O27  1  0.24605139  0.89819358  0.98954987  1
  O  O28  1  0.69587711  0.80604361  0.46491812  1
  O  O29  1  0.80513252  0.46716210  0.69686944  1
  O  O30  1  0.46163267  0.69864084  0.80343920  1
  O  O31  1  0.19587711  0.96491812  0.30604361  1
  O  O32  1  0.96163267  0.30343920  0.19864084  1
  O  O33  1  0.30513252  0.19686944  0.96716210  1
  O  O34  1  0.32703539  0.09005419  0.43856116  1
  O  O35  1  0.09200487  0.43973623  0.32119690  1
  O  O36  1  0.44132197  0.32775528  0.08923044  1
  O  O37  1  0.82703539  0.93856116  0.59005419  1
  O  O38  1  0.94132197  0.58923044  0.82775528  1
  O  O39  1  0.59200487  0.82119690  0.93973623  1
  O  O40  1  0.86029800  0.75619925  0.08722357  1
  O  O41  1  0.75423472  0.08736836  0.85998248  1
  O  O42  1  0.08640737  0.86305312  0.75597241  1
  O  O43  1  0.36029800  0.58722357  0.25619925  1
  O  O44  1  0.58640737  0.25597241  0.36305312  1
  O  O45  1  0.25423472  0.35998248  0.58736836  1
