# generated using pymatgen
data_RbYbS2O9
_symmetry_space_group_name_H-M   'P 1'
_cell_length_a   8.86353525
_cell_length_b   10.37731561
_cell_length_c   10.53061552
_cell_angle_alpha   121.38828761
_cell_angle_beta   90.00000000
_cell_angle_gamma   90.00000000
_symmetry_Int_Tables_number   1
_chemical_formula_structural   RbYbS2O9
_chemical_formula_sum   'Rb4 Yb4 S8 O36'
_cell_volume   826.85490817
_cell_formula_units_Z   4
loop_
 _symmetry_equiv_pos_site_id
 _symmetry_equiv_pos_as_xyz
  1  'x, y, z'
loop_
 _atom_site_type_symbol
 _atom_site_label
 _atom_site_symmetry_multiplicity
 _atom_site_fract_x
 _atom_site_fract_y
 _atom_site_fract_z
 _atom_site_occupancy
  Rb  Rb0  1  0.82083290  0.53755304  0.32006448  1
  Rb  Rb1  1  0.32083290  0.96244696  0.17993552  1
  Rb  Rb2  1  0.17916710  0.46244696  0.67993552  1
  Rb  Rb3  1  0.67916710  0.03755304  0.82006448  1
  Yb  Yb4  1  0.38665163  0.72275763  0.48077416  1
  Yb  Yb5  1  0.88665163  0.77724237  0.01922584  1
  Yb  Yb6  1  0.61334837  0.27724237  0.51922584  1
  Yb  Yb7  1  0.11334837  0.22275763  0.98077416  1
  S  S8  1  0.37328840  0.37942452  0.31125926  1
  S  S9  1  0.87328840  0.12057548  0.18874074  1
  S  S10  1  0.62671160  0.62057548  0.68874074  1
  S  S11  1  0.12671160  0.87942452  0.81125926  1
  S  S12  1  0.18796510  0.60139646  0.12480002  1
  S  S13  1  0.68796510  0.89860354  0.37519998  1
  S  S14  1  0.81203490  0.39860354  0.87519998  1
  S  S15  1  0.31203490  0.10139646  0.62480002  1
  O  O16  1  0.49778383  0.47034002  0.30380323  1
  O  O17  1  0.99778383  0.02965998  0.19619677  1
  O  O18  1  0.50221617  0.52965998  0.69619677  1
  O  O19  1  0.00221617  0.97034002  0.80380323  1
  O  O20  1  0.42891405  0.27619439  0.35941938  1
  O  O21  1  0.92891405  0.22380561  0.14058062  1
  O  O22  1  0.57108595  0.72380561  0.64058062  1
  O  O23  1  0.07108595  0.77619439  0.85941938  1
  O  O24  1  0.30481549  0.27900325  0.15899350  1
  O  O25  1  0.80481549  0.22099675  0.34100650  1
  O  O26  1  0.69518451  0.72099675  0.84100650  1
  O  O27  1  0.19518451  0.77900325  0.65899350  1
  O  O28  1  0.25854546  0.48524567  0.41635719  1
  O  O29  1  0.75854546  0.01475433  0.08364281  1
  O  O30  1  0.74145454  0.51475433  0.58364281  1
  O  O31  1  0.24145454  0.98524567  0.91635719  1
  O  O32  1  0.10485810  0.71511340  0.10874125  1
  O  O33  1  0.60485810  0.78488660  0.39125875  1
  O  O34  1  0.89514190  0.28488660  0.89125875  1
  O  O35  1  0.39514190  0.21511340  0.60874125  1
  O  O36  1  0.28758295  0.68276223  0.26044848  1
  O  O37  1  0.78758295  0.81723777  0.23955152  1
  O  O38  1  0.71241705  0.31723777  0.73955152  1
  O  O39  1  0.21241705  0.18276223  0.76044848  1
  O  O40  1  0.08813008  0.49372461  0.13470305  1
  O  O41  1  0.58813008  0.00627539  0.36529695  1
  O  O42  1  0.91186992  0.50627539  0.86529695  1
  O  O43  1  0.41186992  0.99372461  0.63470305  1
  O  O44  1  0.29299356  0.51927106  0.99373371  1
  O  O45  1  0.79299356  0.98072894  0.50626629  1
  O  O46  1  0.70700644  0.48072894  0.00626629  1
  O  O47  1  0.20700644  0.01927106  0.49373371  1
  O  O48  1  0.12152518  0.80414948  0.45851999  1
  O  O49  1  0.62152518  0.69585052  0.04148001  1
  O  O50  1  0.87847482  0.19585052  0.54148001  1
  O  O51  1  0.37847482  0.30414948  0.95851999  1
