# generated using pymatgen
data_Hf3Sn
_symmetry_space_group_name_H-M   'P 1'
_cell_length_a   5.62198440
_cell_length_b   5.62198440
_cell_length_c   5.62198440
_cell_angle_alpha   134.75799204
_cell_angle_beta   134.75799204
_cell_angle_gamma   65.90645863
_symmetry_Int_Tables_number   1
_chemical_formula_structural   Hf3Sn
_chemical_formula_sum   'Hf3 Sn1'
_cell_volume   88.23584865
_cell_formula_units_Z   1
loop_
 _symmetry_equiv_pos_site_id
 _symmetry_equiv_pos_as_xyz
  1  'x, y, z'
loop_
 _atom_site_type_symbol
 _atom_site_label
 _atom_site_symmetry_multiplicity
 _atom_site_fract_x
 _atom_site_fract_y
 _atom_site_fract_z
 _atom_site_occupancy
  Hf  Hf0  1  0.74999900  0.24999900  0.50000000  1
  Hf  Hf1  1  0.24999900  0.74999900  0.50000000  1
  Hf  Hf2  1  0.50000000  0.50000000  0.00000000  1
  Sn  Sn3  1  0.00000000  0.00000000  0.00000000  1
