# generated using pymatgen
data_Li2V2P2O11
_symmetry_space_group_name_H-M   'P 1'
_cell_length_a   6.75665808
_cell_length_b   7.39512602
_cell_length_c   9.87015770
_cell_angle_alpha   90.00000000
_cell_angle_beta   90.00000000
_cell_angle_gamma   90.00000000
_symmetry_Int_Tables_number   1
_chemical_formula_structural   Li2V2P2O11
_chemical_formula_sum   'Li4 V4 P4 O22'
_cell_volume   493.17563551
_cell_formula_units_Z   2
loop_
 _symmetry_equiv_pos_site_id
 _symmetry_equiv_pos_as_xyz
  1  'x, y, z'
loop_
 _atom_site_type_symbol
 _atom_site_label
 _atom_site_symmetry_multiplicity
 _atom_site_fract_x
 _atom_site_fract_y
 _atom_site_fract_z
 _atom_site_occupancy
  Li  Li0  1  0.46556013  0.29421558  0.65400654  1
  Li  Li1  1  0.46556013  0.70578442  0.34599346  1
  Li  Li2  1  0.53443987  0.79421558  0.84599346  1
  Li  Li3  1  0.53443987  0.20578442  0.15400654  1
  V  V4  1  0.04010498  0.70353844  0.51205991  1
  V  V5  1  0.04010498  0.29646156  0.48794009  1
  V  V6  1  0.95989502  0.20353844  0.98794009  1
  V  V7  1  0.95989502  0.79646156  0.01205991  1
  P  P8  1  0.78863583  0.51953609  0.77345418  1
  P  P9  1  0.78863583  0.48046391  0.22654582  1
  P  P10  1  0.21136417  0.01953609  0.72654582  1
  P  P11  1  0.21136417  0.98046391  0.27345418  1
  O  O12  1  0.57336317  0.50447806  0.73401132  1
  O  O13  1  0.57336317  0.49552194  0.26598868  1
  O  O14  1  0.42663683  0.00447806  0.76598868  1
  O  O15  1  0.42663683  0.99552194  0.23401132  1
  O  O16  1  0.80619542  0.69247979  0.86532630  1
  O  O17  1  0.80619542  0.30752021  0.13467370  1
  O  O18  1  0.19380458  0.19247979  0.63467370  1
  O  O19  1  0.19380458  0.80752021  0.36532630  1
  O  O20  1  0.85509544  0.35120939  0.85887523  1
  O  O21  1  0.85509544  0.64879061  0.14112477  1
  O  O22  1  0.14490456  0.85120939  0.64112477  1
  O  O23  1  0.14490456  0.14879061  0.35887523  1
  O  O24  1  0.93525444  0.53101491  0.65414930  1
  O  O25  1  0.93525444  0.46898509  0.34585070  1
  O  O26  1  0.06474556  0.03101491  0.84585070  1
  O  O27  1  0.06474556  0.96898509  0.15414930  1
  O  O28  1  0.81831673  0.77937704  0.47322464  1
  O  O29  1  0.81831673  0.22062296  0.52677536  1
  O  O30  1  0.18168327  0.27937704  0.02677536  1
  O  O31  1  0.18168327  0.72062296  0.97322464  1
  O  O32  1  0.20587674  0.50000000  0.50000000  1
  O  O33  1  0.79412326  0.00000000  0.00000000  1
