# generated using pymatgen
data_ReS6N5Cl6
_symmetry_space_group_name_H-M   'P 1'
_cell_length_a   10.58200731
_cell_length_b   12.47925825
_cell_length_c   14.06645854
_cell_angle_alpha   90.00000000
_cell_angle_beta   90.00000000
_cell_angle_gamma   90.00000000
_symmetry_Int_Tables_number   1
_chemical_formula_structural   ReS6N5Cl6
_chemical_formula_sum   'Re4 S24 N20 Cl24'
_cell_volume   1857.55465086
_cell_formula_units_Z   4
loop_
 _symmetry_equiv_pos_site_id
 _symmetry_equiv_pos_as_xyz
  1  'x, y, z'
loop_
 _atom_site_type_symbol
 _atom_site_label
 _atom_site_symmetry_multiplicity
 _atom_site_fract_x
 _atom_site_fract_y
 _atom_site_fract_z
 _atom_site_occupancy
  Re  Re0  1  0.65844118  0.24192713  0.26110734  1
  Re  Re1  1  0.84155882  0.75807287  0.76110734  1
  Re  Re2  1  0.15844118  0.25807287  0.73889266  1
  Re  Re3  1  0.34155882  0.74192713  0.23889266  1
  S  S4  1  0.22096619  0.14260217  0.16972461  1
  S  S5  1  0.27903381  0.85739783  0.66972461  1
  S  S6  1  0.72096619  0.35739783  0.83027539  1
  S  S7  1  0.77903381  0.64260217  0.33027539  1
  S  S8  1  0.14677457  0.06635531  0.29276717  1
  S  S9  1  0.35322543  0.93364469  0.79276717  1
  S  S10  1  0.64677457  0.43364469  0.70723283  1
  S  S11  1  0.85322543  0.56635531  0.20723283  1
  S  S12  1  0.54237472  0.44661034  0.13564449  1
  S  S13  1  0.95762528  0.55338966  0.63564449  1
  S  S14  1  0.04237472  0.05338966  0.86435551  1
  S  S15  1  0.45762528  0.94661034  0.36435551  1
  S  S16  1  0.58090407  0.03625232  0.11999665  1
  S  S17  1  0.91909593  0.96374768  0.61999665  1
  S  S18  1  0.08090407  0.46374768  0.88000335  1
  S  S19  1  0.41909593  0.53625232  0.38000335  1
  S  S20  1  0.18198595  0.37035884  0.23357861  1
  S  S21  1  0.31801405  0.62964116  0.73357861  1
  S  S22  1  0.68198595  0.12964116  0.76642139  1
  S  S23  1  0.81801405  0.87035884  0.26642139  1
  S  S24  1  0.08332536  0.26407823  0.40636292  1
  S  S25  1  0.41667464  0.73592177  0.90636292  1
  S  S26  1  0.58332536  0.23592177  0.59363708  1
  S  S27  1  0.91667464  0.76407823  0.09363708  1
  N  N28  1  0.59436667  0.34355745  0.18277435  1
  N  N29  1  0.90563333  0.65644255  0.68277435  1
  N  N30  1  0.09436667  0.15644255  0.81722565  1
  N  N31  1  0.40563333  0.84355745  0.31722565  1
  N  N32  1  0.61551293  0.12627124  0.18953954  1
  N  N33  1  0.88448707  0.87372876  0.68953954  1
  N  N34  1  0.11551293  0.37372876  0.81046046  1
  N  N35  1  0.38448707  0.62627124  0.31046046  1
  N  N36  1  0.21434196  0.26778481  0.17612361  1
  N  N37  1  0.28565804  0.73221519  0.67612361  1
  N  N38  1  0.71434196  0.23221519  0.82387639  1
  N  N39  1  0.78565804  0.76778481  0.32387639  1
  N  N40  1  0.12452787  0.35680982  0.33655969  1
  N  N41  1  0.37547213  0.64319018  0.83655969  1
  N  N42  1  0.62452787  0.14319018  0.66344031  1
  N  N43  1  0.87547213  0.85680982  0.16344031  1
  N  N44  1  0.10452612  0.14724440  0.37113166  1
  N  N45  1  0.39547388  0.85275560  0.87113166  1
  N  N46  1  0.60452612  0.35275560  0.62886834  1
  N  N47  1  0.89547388  0.64724440  0.12886834  1
  Cl  Cl48  1  0.46443461  0.24047013  0.35252427  1
  Cl  Cl49  1  0.03556539  0.75952987  0.85252427  1
  Cl  Cl50  1  0.96443461  0.25952987  0.64747573  1
  Cl  Cl51  1  0.53556539  0.74047013  0.14747573  1
  Cl  Cl52  1  0.86668119  0.24587704  0.19113258  1
  Cl  Cl53  1  0.63331881  0.75412296  0.69113258  1
  Cl  Cl54  1  0.36668119  0.25412296  0.80886742  1
  Cl  Cl55  1  0.13331881  0.74587704  0.30886742  1
  Cl  Cl56  1  0.74437757  0.13032376  0.38312911  1
  Cl  Cl57  1  0.75562243  0.86967624  0.88312911  1
  Cl  Cl58  1  0.24437757  0.36967624  0.61687089  1
  Cl  Cl59  1  0.25562243  0.63032376  0.11687089  1
  Cl  Cl60  1  0.73559492  0.38876474  0.36457690  1
  Cl  Cl61  1  0.76440508  0.61123526  0.86457690  1
  Cl  Cl62  1  0.23559492  0.11123526  0.63542310  1
  Cl  Cl63  1  0.26440508  0.88876474  0.13542310  1
  Cl  Cl64  1  0.45600931  0.40251361  0.00860556  1
  Cl  Cl65  1  0.04399069  0.59748639  0.50860556  1
  Cl  Cl66  1  0.95600931  0.09748639  0.99139444  1
  Cl  Cl67  1  0.54399069  0.90251361  0.49139444  1
  Cl  Cl68  1  0.49147958  0.10605121  0.00134106  1
  Cl  Cl69  1  0.00852042  0.89394879  0.50134106  1
  Cl  Cl70  1  0.99147958  0.39394879  0.99865894  1
  Cl  Cl71  1  0.50852042  0.60605121  0.49865894  1
