# generated using pymatgen
data_Ho4CoB13
_symmetry_space_group_name_H-M   'P 1'
_cell_length_a   7.28454241
_cell_length_b   7.28454241
_cell_length_c   6.87185110
_cell_angle_alpha   90.00000000
_cell_angle_beta   90.00000000
_cell_angle_gamma   90.00000000
_symmetry_Int_Tables_number   1
_chemical_formula_structural   Ho4CoB13
_chemical_formula_sum   'Ho8 Co2 B26'
_cell_volume   364.65174211
_cell_formula_units_Z   2
loop_
 _symmetry_equiv_pos_site_id
 _symmetry_equiv_pos_as_xyz
  1  'x, y, z'
loop_
 _atom_site_type_symbol
 _atom_site_label
 _atom_site_symmetry_multiplicity
 _atom_site_fract_x
 _atom_site_fract_y
 _atom_site_fract_z
 _atom_site_occupancy
  Ho  Ho0  1  0.18172108  0.68476257  0.50000000  1
  Ho  Ho1  1  0.81827892  0.31523743  0.50000000  1
  Ho  Ho2  1  0.31827892  0.18476257  0.00000000  1
  Ho  Ho3  1  0.68172108  0.81523743  0.00000000  1
  Ho  Ho4  1  0.68476257  0.81827892  0.50000000  1
  Ho  Ho5  1  0.31523743  0.18172108  0.50000000  1
  Ho  Ho6  1  0.18476257  0.68172108  0.00000000  1
  Ho  Ho7  1  0.81523743  0.31827892  -0.00000000  1
  Co  Co8  1  0.50000000  0.50000000  0.50000000  1
  Co  Co9  1  0.00000000  -0.00000000  0.00000000  1
  B  B10  1  0.50000000  0.50000000  -0.00000000  1
  B  B11  1  0.00000000  -0.00000000  0.50000000  1
  B  B12  1  0.40919837  0.90919837  0.25000000  1
  B  B13  1  0.59080163  0.09080163  0.25000000  1
  B  B14  1  0.09080163  0.40919837  0.75000000  1
  B  B15  1  0.90919837  0.59080163  0.75000000  1
  B  B16  1  0.90919837  0.59080163  0.25000000  1
  B  B17  1  0.09080163  0.40919837  0.25000000  1
  B  B18  1  0.40919837  0.90919837  0.75000000  1
  B  B19  1  0.59080163  0.09080163  0.75000000  1
  B  B20  1  0.67003015  0.53908073  0.24569453  1
  B  B21  1  0.32996985  0.46091927  0.24569453  1
  B  B22  1  0.82996985  0.03908073  0.74569453  1
  B  B23  1  0.17003015  0.96091927  0.74569453  1
  B  B24  1  0.53908073  0.32996985  0.24569453  1
  B  B25  1  0.46091927  0.67003015  0.24569453  1
  B  B26  1  0.03908073  0.17003015  0.74569453  1
  B  B27  1  0.96091927  0.82996985  0.74569453  1
  B  B28  1  0.32996985  0.46091927  0.75430547  1
  B  B29  1  0.67003015  0.53908073  0.75430547  1
  B  B30  1  0.17003015  0.96091927  0.25430547  1
  B  B31  1  0.82996985  0.03908073  0.25430547  1
  B  B32  1  0.46091927  0.67003015  0.75430547  1
  B  B33  1  0.53908073  0.32996985  0.75430547  1
  B  B34  1  0.96091927  0.82996985  0.25430547  1
  B  B35  1  0.03908073  0.17003015  0.25430547  1
