# generated using pymatgen
data_PmEr3
_symmetry_space_group_name_H-M   'P 1'
_cell_length_a   7.20026692
_cell_length_b   7.20026640
_cell_length_c   5.69568738
_cell_angle_alpha   90.00000000
_cell_angle_beta   90.00000000
_cell_angle_gamma   119.99999207
_symmetry_Int_Tables_number   1
_chemical_formula_structural   PmEr3
_chemical_formula_sum   'Pm2 Er6'
_cell_volume   255.72546203
_cell_formula_units_Z   2
loop_
 _symmetry_equiv_pos_site_id
 _symmetry_equiv_pos_as_xyz
  1  'x, y, z'
loop_
 _atom_site_type_symbol
 _atom_site_label
 _atom_site_symmetry_multiplicity
 _atom_site_fract_x
 _atom_site_fract_y
 _atom_site_fract_z
 _atom_site_occupancy
  Pm  Pm0  1  0.66666600  0.33333400  0.25000100  1
  Pm  Pm1  1  0.33333400  0.66666700  0.75000000  1
  Er  Er2  1  0.83493664  0.16506336  0.75000000  1
  Er  Er3  1  0.33012771  0.16506336  0.75000000  1
  Er  Er4  1  0.83493564  0.66987129  0.75000000  1
  Er  Er5  1  0.16506536  0.83493664  0.25000100  1
  Er  Er6  1  0.66987229  0.83493664  0.25000100  1
  Er  Er7  1  0.16506336  0.33012771  0.25000100  1
