# generated using pymatgen
data_YMg2
_symmetry_space_group_name_H-M   'P 1'
_cell_length_a   6.02826714
_cell_length_b   6.02826940
_cell_length_c   6.05642204
_cell_angle_alpha   119.84632931
_cell_angle_beta   60.15366749
_cell_angle_gamma   119.99999043
_symmetry_Int_Tables_number   1
_chemical_formula_structural   YMg2
_chemical_formula_sum   'Y2 Mg4'
_cell_volume   155.98798596
_cell_formula_units_Z   2
loop_
 _symmetry_equiv_pos_site_id
 _symmetry_equiv_pos_as_xyz
  1  'x, y, z'
loop_
 _atom_site_type_symbol
 _atom_site_label
 _atom_site_symmetry_multiplicity
 _atom_site_fract_x
 _atom_site_fract_y
 _atom_site_fract_z
 _atom_site_occupancy
  Y  Y0  1  0.87545425  0.45787675  0.37363326  1
  Y  Y1  1  0.12454375  0.20878825  0.62636674  1
  Mg  Mg2  1  0.00000000  0.83540133  0.00000000  1
  Mg  Mg3  1  0.50206733  0.33333400  1.00000000  1
  Mg  Mg4  1  0.49793167  0.83126567  1.00000000  1
  Mg  Mg5  1  0.49999900  0.83333200  0.50000100  1
