# generated using pymatgen
data_CuBi2Se3O11
_symmetry_space_group_name_H-M   'P 1'
_cell_length_a   5.68934355
_cell_length_b   8.74518188
_cell_length_c   11.00443979
_cell_angle_alpha   90.00000000
_cell_angle_beta   90.00000000
_cell_angle_gamma   108.98280989
_symmetry_Int_Tables_number   1
_chemical_formula_structural   CuBi2Se3O11
_chemical_formula_sum   'Cu2 Bi4 Se6 O22'
_cell_volume   517.74254398
_cell_formula_units_Z   2
loop_
 _symmetry_equiv_pos_site_id
 _symmetry_equiv_pos_as_xyz
  1  'x, y, z'
loop_
 _atom_site_type_symbol
 _atom_site_label
 _atom_site_symmetry_multiplicity
 _atom_site_fract_x
 _atom_site_fract_y
 _atom_site_fract_z
 _atom_site_occupancy
  Cu  Cu0  1  0.49950470  0.50000000  0.60393127  1
  Cu  Cu1  1  0.99950470  0.50000000  0.39606873  1
  Bi  Bi2  1  0.06995791  0.16578251  0.87893531  1
  Bi  Bi3  1  0.90417540  0.83421749  0.12106469  1
  Bi  Bi4  1  0.56995791  0.16578251  0.12106469  1
  Bi  Bi5  1  0.40417540  0.83421749  0.87893531  1
  Se  Se6  1  0.65944990  0.50000000  0.87768465  1
  Se  Se7  1  0.15944990  0.50000000  0.12231535  1
  Se  Se8  1  0.56667002  0.15850986  0.64844997  1
  Se  Se9  1  0.40816016  0.84149014  0.35155003  1
  Se  Se10  1  0.06667002  0.15850986  0.35155003  1
  Se  Se11  1  0.90816016  0.84149014  0.64844997  1
  O  O12  1  0.42288988  0.50000000  0.77317951  1
  O  O13  1  0.92288988  0.50000000  0.22682049  1
  O  O14  1  0.63161964  0.66329302  0.96394598  1
  O  O15  1  0.96832662  0.33670698  0.03605402  1
  O  O16  1  0.13161964  0.66329302  0.03605402  1
  O  O17  1  0.46832662  0.33670698  0.96394598  1
  O  O18  1  0.34625415  0.05672337  0.76161188  1
  O  O19  1  0.28953079  0.94327663  0.23838812  1
  O  O20  1  0.84625415  0.05672337  0.23838812  1
  O  O21  1  0.78953079  0.94327663  0.76161188  1
  O  O22  1  0.38642711  0.27236081  0.59045429  1
  O  O23  1  0.11406630  0.72763919  0.40954571  1
  O  O24  1  0.88642711  0.27236081  0.40954571  1
  O  O25  1  0.61406630  0.72763919  0.59045429  1
  O  O26  1  0.79224489  0.28979691  0.73120170  1
  O  O27  1  0.50244798  0.71020309  0.26879830  1
  O  O28  1  0.29224489  0.28979691  0.26879830  1
  O  O29  1  0.00244798  0.71020309  0.73120170  1
  O  O30  1  0.19962012  0.00000000  -0.00000000  1
  O  O31  1  0.69962012  0.00000000  -0.00000000  1
  O  O32  1  0.61465442  0.50000000  0.45411886  1
  O  O33  1  0.11465442  0.50000000  0.54588114  1
