# generated using pymatgen
data_TmMg2
_symmetry_space_group_name_H-M   'P 1'
_cell_length_a   5.96577614
_cell_length_b   5.96577664
_cell_length_c   5.97878282
_cell_angle_alpha   119.92804888
_cell_angle_beta   60.07194678
_cell_angle_gamma   119.99998669
_symmetry_Int_Tables_number   1
_chemical_formula_structural   TmMg2
_chemical_formula_sum   'Tm2 Mg4'
_cell_volume   150.62713269
_cell_formula_units_Z   2
loop_
 _symmetry_equiv_pos_site_id
 _symmetry_equiv_pos_as_xyz
  1  'x, y, z'
loop_
 _atom_site_type_symbol
 _atom_site_label
 _atom_site_symmetry_multiplicity
 _atom_site_fract_x
 _atom_site_fract_y
 _atom_site_fract_z
 _atom_site_occupancy
  Tm  Tm0  1  0.87477313  0.45855987  0.37568160  1
  Tm  Tm1  1  0.12522787  0.20810613  0.62431940  1
  Mg  Mg2  1  0.00000100  0.83117588  0.99999900  1
  Mg  Mg3  1  0.49784288  0.33333400  0.00000000  1
  Mg  Mg4  1  0.50215712  0.83549112  0.00000000  1
  Mg  Mg5  1  0.50000000  0.83333300  0.50000000  1
