# generated using pymatgen
data_Nb3NiSe6
_symmetry_space_group_name_H-M   'P 1'
_cell_length_a   6.06045804
_cell_length_b   6.06027678
_cell_length_c   12.52961967
_cell_angle_alpha   90.00905768
_cell_angle_beta   90.00000000
_cell_angle_gamma   120.00098635
_symmetry_Int_Tables_number   1
_chemical_formula_structural   Nb3NiSe6
_chemical_formula_sum   'Nb6 Ni2 Se12'
_cell_volume   398.53099591
_cell_formula_units_Z   2
loop_
 _symmetry_equiv_pos_site_id
 _symmetry_equiv_pos_as_xyz
  1  'x, y, z'
loop_
 _atom_site_type_symbol
 _atom_site_label
 _atom_site_symmetry_multiplicity
 _atom_site_fract_x
 _atom_site_fract_y
 _atom_site_fract_z
 _atom_site_occupancy
  Nb  Nb0  1  0.00005418  0.00000000  0.50000000  1
  Nb  Nb1  1  0.00002346  0.00000000  0.00000000  1
  Nb  Nb2  1  0.66668166  0.33329119  0.00075021  1
  Nb  Nb3  1  0.33339046  0.66670881  0.99924979  1
  Nb  Nb4  1  0.33332001  0.66670003  0.50076564  1
  Nb  Nb5  1  0.66661997  0.33329997  0.49923436  1
  Ni  Ni6  1  0.66669896  0.33332459  0.74998727  1
  Ni  Ni7  1  0.33337437  0.66667541  0.25001273  1
  Se  Se8  1  0.66747105  0.99829651  0.63331118  1
  Se  Se9  1  0.33082919  0.33259564  0.63333893  1
  Se  Se10  1  0.00165514  0.66910361  0.63332106  1
  Se  Se11  1  0.66917454  0.00170349  0.36668882  1
  Se  Se12  1  0.99823355  0.66740436  0.36666107  1
  Se  Se13  1  0.33255153  0.33089639  0.36667894  1
  Se  Se14  1  0.33257569  0.00171541  0.13334920  1
  Se  Se15  1  0.66914249  0.66743162  0.13331587  1
  Se  Se16  1  0.99828510  0.33083762  0.13332956  1
  Se  Se17  1  0.33086028  0.99828459  0.86665080  1
  Se  Se18  1  0.00171087  0.33256838  0.86668413  1
  Se  Se19  1  0.66744749  0.66916238  0.86667044  1
