# generated using pymatgen
data_Sr2UCdO6
_symmetry_space_group_name_H-M   'P 1'
_cell_length_a   6.11993096
_cell_length_b   5.95210792
_cell_length_c   8.49302863
_cell_angle_alpha   90.71253252
_cell_angle_beta   90.00000000
_cell_angle_gamma   90.00000000
_symmetry_Int_Tables_number   1
_chemical_formula_structural   Sr2UCdO6
_chemical_formula_sum   'Sr4 U2 Cd2 O12'
_cell_volume   309.34729567
_cell_formula_units_Z   2
loop_
 _symmetry_equiv_pos_site_id
 _symmetry_equiv_pos_as_xyz
  1  'x, y, z'
loop_
 _atom_site_type_symbol
 _atom_site_label
 _atom_site_symmetry_multiplicity
 _atom_site_fract_x
 _atom_site_fract_y
 _atom_site_fract_z
 _atom_site_occupancy
  Sr  Sr0  1  0.45313594  0.48692883  0.75595929  1
  Sr  Sr1  1  0.04686406  0.98692883  0.25595929  1
  Sr  Sr2  1  0.54686406  0.51307117  0.24404071  1
  Sr  Sr3  1  0.95313594  0.01307117  0.74404071  1
  U  U4  1  0.50000000  -0.00000000  -0.00000000  1
  U  U5  1  -0.00000000  0.50000000  0.50000000  1
  Cd  Cd6  1  0.50000000  -0.00000000  0.50000000  1
  Cd  Cd7  1  -0.00000000  0.50000000  -0.00000000  1
  O  O8  1  0.04592750  0.60176882  0.73399060  1
  O  O9  1  0.45407250  0.10176882  0.23399060  1
  O  O10  1  0.95407250  0.39823118  0.26600940  1
  O  O11  1  0.54592750  0.89823118  0.76600940  1
  O  O12  1  0.18854949  0.21427098  0.54375296  1
  O  O13  1  0.31145051  0.71427098  0.04375296  1
  O  O14  1  0.81145051  0.78572902  0.45624704  1
  O  O15  1  0.68854949  0.28572902  0.95624704  1
  O  O16  1  0.27745600  0.68654711  0.43704200  1
  O  O17  1  0.22254400  0.18654711  0.93704200  1
  O  O18  1  0.72254400  0.31345289  0.56295800  1
  O  O19  1  0.77745600  0.81345289  0.06295800  1
