# generated using pymatgen
data_Tm3Co11B4
_symmetry_space_group_name_H-M   'P 1'
_cell_length_a   4.97665399
_cell_length_b   4.97866109
_cell_length_c   9.71878089
_cell_angle_alpha   89.99981223
_cell_angle_beta   90.00037582
_cell_angle_gamma   119.98666741
_symmetry_Int_Tables_number   1
_chemical_formula_structural   Tm3Co11B4
_chemical_formula_sum   'Tm3 Co11 B4'
_cell_volume   208.56948260
_cell_formula_units_Z   1
loop_
 _symmetry_equiv_pos_site_id
 _symmetry_equiv_pos_as_xyz
  1  'x, y, z'
loop_
 _atom_site_type_symbol
 _atom_site_label
 _atom_site_symmetry_multiplicity
 _atom_site_fract_x
 _atom_site_fract_y
 _atom_site_fract_z
 _atom_site_occupancy
  Tm  Tm0  1  0.99997430  1.00000000  -0.00012581  1
  Tm  Tm1  1  0.99999564  1.00000000  0.34158558  1
  Tm  Tm2  1  0.00000228  -0.00000000  0.65870100  1
  Co  Co3  1  0.33318978  0.66642391  -0.00002012  1
  Co  Co4  1  0.66676587  0.33357609  -0.00002012  1
  Co  Co5  1  0.49999948  -0.00000000  0.49994340  1
  Co  Co6  1  0.49999907  0.50000006  0.49998578  1
  Co  Co7  1  0.99999901  0.49999994  0.49998578  1
  Co  Co8  1  0.49999139  -0.00000000  0.20226852  1
  Co  Co9  1  0.49999018  0.50000243  0.20220151  1
  Co  Co10  1  0.99998775  0.49999757  0.20220151  1
  Co  Co11  1  0.50000652  0.00000000  0.79757897  1
  Co  Co12  1  0.50000464  0.50000072  0.79759951  1
  Co  Co13  1  0.00000392  0.49999928  0.79759951  1
  B  B14  1  0.33341509  0.66684084  0.34998739  1
  B  B15  1  0.66657425  0.33315916  0.34998739  1
  B  B16  1  0.66661643  0.33323205  0.65027009  1
  B  B17  1  0.33338438  0.66676795  0.65027009  1
