# generated using pymatgen
data_EuP3
_symmetry_space_group_name_H-M   'P 1'
_cell_length_a   6.69717115
_cell_length_b   6.69717115
_cell_length_c   8.32993508
_cell_angle_alpha   78.71342997
_cell_angle_beta   78.71342997
_cell_angle_gamma   66.47045379
_symmetry_Int_Tables_number   1
_chemical_formula_structural   EuP3
_chemical_formula_sum   'Eu4 P12'
_cell_volume   333.04100680
_cell_formula_units_Z   4
loop_
 _symmetry_equiv_pos_site_id
 _symmetry_equiv_pos_as_xyz
  1  'x, y, z'
loop_
 _atom_site_type_symbol
 _atom_site_label
 _atom_site_symmetry_multiplicity
 _atom_site_fract_x
 _atom_site_fract_y
 _atom_site_fract_z
 _atom_site_occupancy
  Eu  Eu0  1  0.70715275  0.70715275  0.22706658  1
  Eu  Eu1  1  0.29284725  0.29284725  0.77293342  1
  Eu  Eu2  1  0.04258888  0.04258888  0.25786263  1
  Eu  Eu3  1  0.95741112  0.95741112  0.74213737  1
  P  P4  1  0.32126480  0.32126480  0.16227001  1
  P  P5  1  0.67873520  0.67873520  0.83772999  1
  P  P6  1  0.42340811  0.42340811  0.36694435  1
  P  P7  1  0.57659189  0.57659189  0.63305565  1
  P  P8  1  0.15778174  0.64082049  0.02213142  1
  P  P9  1  0.64082049  0.15778174  0.02213142  1
  P  P10  1  0.84221826  0.35917951  0.97786858  1
  P  P11  1  0.35917951  0.84221826  0.97786858  1
  P  P12  1  0.09274107  0.60955771  0.49021752  1
  P  P13  1  0.60955771  0.09274107  0.49021752  1
  P  P14  1  0.90725893  0.39044229  0.50978248  1
  P  P15  1  0.39044229  0.90725893  0.50978248  1
