# generated using pymatgen
data_Zn3Ag
_symmetry_space_group_name_H-M   'P 1'
_cell_length_a   5.82915895
_cell_length_b   5.82915911
_cell_length_c   4.27213973
_cell_angle_alpha   90.00000000
_cell_angle_beta   90.00000000
_cell_angle_gamma   119.99999917
_symmetry_Int_Tables_number   1
_chemical_formula_structural   Zn3Ag
_chemical_formula_sum   'Zn6 Ag2'
_cell_volume   125.71522918
_cell_formula_units_Z   2
loop_
 _symmetry_equiv_pos_site_id
 _symmetry_equiv_pos_as_xyz
  1  'x, y, z'
loop_
 _atom_site_type_symbol
 _atom_site_label
 _atom_site_symmetry_multiplicity
 _atom_site_fract_x
 _atom_site_fract_y
 _atom_site_fract_z
 _atom_site_occupancy
  Zn  Zn0  1  0.16308733  0.32617466  0.25000100  1
  Zn  Zn1  1  0.67382434  0.83691267  0.25000100  1
  Zn  Zn2  1  0.16308833  0.83691267  0.25000100  1
  Zn  Zn3  1  0.83691367  0.67382634  0.75000100  1
  Zn  Zn4  1  0.32617466  0.16308633  0.75000100  1
  Zn  Zn5  1  0.83691167  0.16308633  0.75000100  1
  Ag  Ag6  1  0.33333400  0.66666700  0.75000100  1
  Ag  Ag7  1  0.66666700  0.33333400  0.25000100  1
