# generated using pymatgen
data_Hg2BOF4
_symmetry_space_group_name_H-M   'P 1'
_cell_length_a   10.04013487
_cell_length_b   10.01370853
_cell_length_c   11.80886084
_cell_angle_alpha   90.00000000
_cell_angle_beta   90.00000000
_cell_angle_gamma   90.00000000
_symmetry_Int_Tables_number   1
_chemical_formula_structural   Hg2BOF4
_chemical_formula_sum   'Hg16 B8 O8 F32'
_cell_volume   1187.25087330
_cell_formula_units_Z   8
loop_
 _symmetry_equiv_pos_site_id
 _symmetry_equiv_pos_as_xyz
  1  'x, y, z'
loop_
 _atom_site_type_symbol
 _atom_site_label
 _atom_site_symmetry_multiplicity
 _atom_site_fract_x
 _atom_site_fract_y
 _atom_site_fract_z
 _atom_site_occupancy
  Hg  Hg0  1  0.68970034  0.53088806  0.04272885  1
  Hg  Hg1  1  0.18970034  0.96911194  0.95727115  1
  Hg  Hg2  1  0.31029966  0.03088806  0.45727115  1
  Hg  Hg3  1  0.81029966  0.46911194  0.54272885  1
  Hg  Hg4  1  0.31029966  0.46911194  0.95727115  1
  Hg  Hg5  1  0.81029966  0.03088806  0.04272885  1
  Hg  Hg6  1  0.68970034  0.96911194  0.54272885  1
  Hg  Hg7  1  0.18970034  0.53088806  0.45727115  1
  Hg  Hg8  1  0.82150525  0.49769860  0.22863742  1
  Hg  Hg9  1  0.32150525  0.00230140  0.77136258  1
  Hg  Hg10  1  0.17849475  0.99769860  0.27136258  1
  Hg  Hg11  1  0.67849475  0.50230140  0.72863742  1
  Hg  Hg12  1  0.17849475  0.50230140  0.77136258  1
  Hg  Hg13  1  0.67849475  0.99769860  0.22863742  1
  Hg  Hg14  1  0.82150525  0.00230140  0.72863742  1
  Hg  Hg15  1  0.32150525  0.49769860  0.27136258  1
  B  B16  1  0.07150036  0.28798912  0.11749078  1
  B  B17  1  0.57150036  0.21201088  0.88250922  1
  B  B18  1  0.92849964  0.78798912  0.38250922  1
  B  B19  1  0.42849964  0.71201088  0.61749078  1
  B  B20  1  0.92849964  0.71201088  0.88250922  1
  B  B21  1  0.42849964  0.78798912  0.11749078  1
  B  B22  1  0.07150036  0.21201088  0.61749078  1
  B  B23  1  0.57150036  0.28798912  0.38250922  1
  O  O24  1  0.92671351  0.46041665  0.38677213  1
  O  O25  1  0.42671351  0.03958335  0.61322787  1
  O  O26  1  0.07328649  0.96041665  0.11322787  1
  O  O27  1  0.57328649  0.53958335  0.88677213  1
  O  O28  1  0.07328649  0.53958335  0.61322787  1
  O  O29  1  0.57328649  0.96041665  0.38677213  1
  O  O30  1  0.92671351  0.03958335  0.88677213  1
  O  O31  1  0.42671351  0.46041665  0.11322787  1
  F  F32  1  0.59237114  0.42853377  0.36840507  1
  F  F33  1  0.09237114  0.07146623  0.63159493  1
  F  F34  1  0.40762886  0.92853377  0.13159493  1
  F  F35  1  0.90762886  0.57146623  0.86840507  1
  F  F36  1  0.40762886  0.57146623  0.63159493  1
  F  F37  1  0.90762886  0.92853377  0.36840507  1
  F  F38  1  0.59237114  0.07146623  0.86840507  1
  F  F39  1  0.09237114  0.42853377  0.13159493  1
  F  F40  1  0.99169474  0.73532359  0.28450045  1
  F  F41  1  0.49169474  0.76467641  0.71549955  1
  F  F42  1  0.00830526  0.23532359  0.21549955  1
  F  F43  1  0.50830526  0.26467641  0.78450045  1
  F  F44  1  0.00830526  0.26467641  0.71549955  1
  F  F45  1  0.50830526  0.23532359  0.28450045  1
  F  F46  1  0.99169474  0.76467641  0.78450045  1
  F  F47  1  0.49169474  0.73532359  0.21549955  1
  F  F48  1  0.80157286  0.72423704  0.39654118  1
  F  F49  1  0.30157286  0.77576296  0.60345882  1
  F  F50  1  0.19842714  0.22423704  0.10345882  1
  F  F51  1  0.69842714  0.27576296  0.89654118  1
  F  F52  1  0.19842714  0.27576296  0.60345882  1
  F  F53  1  0.69842714  0.22423704  0.39654118  1
  F  F54  1  0.80157286  0.77576296  0.89654118  1
  F  F55  1  0.30157286  0.72423704  0.10345882  1
  F  F56  1  0.50831559  0.76430637  0.02140210  1
  F  F57  1  0.00831559  0.73569363  0.97859790  1
  F  F58  1  0.49168441  0.26430637  0.47859790  1
  F  F59  1  0.99168441  0.23569363  0.52140210  1
  F  F60  1  0.49168441  0.23569363  0.97859790  1
  F  F61  1  0.99168441  0.26430637  0.02140210  1
  F  F62  1  0.50831559  0.73569363  0.52140210  1
  F  F63  1  0.00831559  0.76430637  0.47859790  1
