# generated using pymatgen
data_Th2Co7
_symmetry_space_group_name_H-M   'P 1'
_cell_length_a   4.96418376
_cell_length_b   4.96418376
_cell_length_c   12.74795251
_cell_angle_alpha   78.77249912
_cell_angle_beta   78.77249912
_cell_angle_gamma   60.00000295
_symmetry_Int_Tables_number   1
_chemical_formula_structural   Th2Co7
_chemical_formula_sum   'Th4 Co14'
_cell_volume   265.09623537
_cell_formula_units_Z   2
loop_
 _symmetry_equiv_pos_site_id
 _symmetry_equiv_pos_as_xyz
  1  'x, y, z'
loop_
 _atom_site_type_symbol
 _atom_site_label
 _atom_site_symmetry_multiplicity
 _atom_site_fract_x
 _atom_site_fract_y
 _atom_site_fract_z
 _atom_site_occupancy
  Th  Th0  1  0.05081114  0.05081114  0.84756659  1
  Th  Th1  1  0.94918886  0.94918886  0.15243341  1
  Th  Th2  1  0.14622771  0.14622771  0.56131687  1
  Th  Th3  1  0.85377229  0.85377229  0.43868313  1
  Co  Co4  1  0.50000000  0.50000000  0.50000000  1
  Co  Co5  1  0.27834635  0.27834635  0.16496094  1
  Co  Co6  1  0.72165365  0.72165365  0.83503906  1
  Co  Co7  1  0.38805174  0.38805174  0.83584478  1
  Co  Co8  1  0.61194826  0.61194826  0.16415522  1
  Co  Co9  1  0.50000000  0.50000000  -0.00000000  1
  Co  Co10  1  0.50000000  0.00000000  -0.00000000  1
  Co  Co11  1  -0.00000000  0.50000000  -0.00000000  1
  Co  Co12  1  0.10956980  0.60749761  0.67543497  1
  Co  Co13  1  0.60749761  0.60749761  0.67543497  1
  Co  Co14  1  0.60749761  0.10956980  0.67543497  1
  Co  Co15  1  0.89043020  0.39250239  0.32456503  1
  Co  Co16  1  0.39250239  0.39250239  0.32456503  1
  Co  Co17  1  0.39250239  0.89043020  0.32456503  1
