# generated using pymatgen
data_GeSe2
_symmetry_space_group_name_H-M   'P 1'
_cell_length_a   7.94159241
_cell_length_b   7.33273355
_cell_length_c   12.65508440
_cell_angle_alpha   80.21729302
_cell_angle_beta   71.71337479
_cell_angle_gamma   57.21306670
_symmetry_Int_Tables_number   1
_chemical_formula_structural   GeSe2
_chemical_formula_sum   'Ge6 Se12'
_cell_volume   588.25941270
_cell_formula_units_Z   6
loop_
 _symmetry_equiv_pos_site_id
 _symmetry_equiv_pos_as_xyz
  1  'x, y, z'
loop_
 _atom_site_type_symbol
 _atom_site_label
 _atom_site_symmetry_multiplicity
 _atom_site_fract_x
 _atom_site_fract_y
 _atom_site_fract_z
 _atom_site_occupancy
  Ge  Ge0  1  0.75682937  0.50000000  0.50000000  1
  Ge  Ge1  1  0.00682937  -0.00000000  -0.00000000  1
  Ge  Ge2  1  0.01298173  0.25491116  0.22043544  1
  Ge  Ge3  1  0.48832833  0.74508884  0.77956456  1
  Ge  Ge4  1  0.01789289  0.24508884  0.72043544  1
  Ge  Ge5  1  0.98341717  0.75491116  0.27956456  1
  Se  Se6  1  0.67220537  0.43827635  0.34746967  1
  Se  Se7  1  0.45795140  0.56172365  0.65253033  1
  Se  Se8  1  0.86048172  0.06172365  0.84746967  1
  Se  Se9  1  0.76967504  0.93827635  0.15253033  1
  Se  Se10  1  0.06654876  0.17764941  0.53176385  1
  Se  Se11  1  0.77596202  0.82235059  0.46823615  1
  Se  Se12  1  0.99419816  0.32235059  0.03176385  1
  Se  Se13  1  0.34831261  0.67764941  0.96823615  1
  Se  Se14  1  0.23036734  0.37636919  0.23808915  1
  Se  Se15  1  0.84482568  0.62363081  0.76191085  1
  Se  Se16  1  0.35673653  0.12363081  0.73808915  1
  Se  Se17  1  0.21845650  0.87636919  0.26191085  1
