# generated using pymatgen
data_Gd3NbO7
_symmetry_space_group_name_H-M   'P 1'
_cell_length_a   6.54238959
_cell_length_b   6.54238959
_cell_length_c   7.63057172
_cell_angle_alpha   90.00000000
_cell_angle_beta   90.00000000
_cell_angle_gamma   109.65893099
_symmetry_Int_Tables_number   1
_chemical_formula_structural   Gd3NbO7
_chemical_formula_sum   'Gd6 Nb2 O14'
_cell_volume   307.57282065
_cell_formula_units_Z   2
loop_
 _symmetry_equiv_pos_site_id
 _symmetry_equiv_pos_as_xyz
  1  'x, y, z'
loop_
 _atom_site_type_symbol
 _atom_site_label
 _atom_site_symmetry_multiplicity
 _atom_site_fract_x
 _atom_site_fract_y
 _atom_site_fract_z
 _atom_site_occupancy
  Gd  Gd0  1  0.50000000  0.50000000  0.50000000  1
  Gd  Gd1  1  0.50000000  0.50000000  0.00000000  1
  Gd  Gd2  1  0.00030537  0.53503946  0.25000000  1
  Gd  Gd3  1  0.53503946  0.00030537  0.75000000  1
  Gd  Gd4  1  0.99969463  0.46496054  0.75000000  1
  Gd  Gd5  1  0.46496054  0.99969463  0.25000000  1
  Nb  Nb6  1  0.00000000  -0.00000000  0.50000000  1
  Nb  Nb7  1  0.00000000  -0.00000000  0.00000000  1
  O  O8  1  0.92780419  0.67950664  0.53170569  1
  O  O9  1  0.67950664  0.92780419  0.46829431  1
  O  O10  1  0.92780419  0.67950664  0.96829431  1
  O  O11  1  0.67950664  0.92780419  0.03170569  1
  O  O12  1  0.07219581  0.32049336  0.46829431  1
  O  O13  1  0.32049336  0.07219581  0.53170569  1
  O  O14  1  0.07219581  0.32049336  0.03170569  1
  O  O15  1  0.32049336  0.07219581  0.96829431  1
  O  O16  1  0.63078730  0.36921270  0.25000000  1
  O  O17  1  0.36921270  0.63078730  0.75000000  1
  O  O18  1  0.36450249  0.63549751  0.25000000  1
  O  O19  1  0.63549751  0.36450249  0.75000000  1
  O  O20  1  0.06532509  0.93467491  0.25000000  1
  O  O21  1  0.93467491  0.06532509  0.75000000  1
