# generated using pymatgen
data_BaYCo4O7
_symmetry_space_group_name_H-M   'P 1'
_cell_length_a   6.36643502
_cell_length_b   6.37660189
_cell_length_c   10.41530948
_cell_angle_alpha   90.36194698
_cell_angle_beta   89.27493542
_cell_angle_gamma   119.94726969
_symmetry_Int_Tables_number   1
_chemical_formula_structural   BaYCo4O7
_chemical_formula_sum   'Ba2 Y2 Co8 O14'
_cell_volume   366.33985136
_cell_formula_units_Z   2
loop_
 _symmetry_equiv_pos_site_id
 _symmetry_equiv_pos_as_xyz
  1  'x, y, z'
loop_
 _atom_site_type_symbol
 _atom_site_label
 _atom_site_symmetry_multiplicity
 _atom_site_fract_x
 _atom_site_fract_y
 _atom_site_fract_z
 _atom_site_occupancy
  Ba  Ba0  1  0.66889289  0.33858018  0.99486194  1
  Ba  Ba1  1  0.33031271  0.66141982  0.49486194  1
  Y  Y2  1  0.66997329  0.33652545  0.62359040  1
  Y  Y3  1  0.33344784  0.66347455  0.12359040  1
  Co  Co4  1  0.00346214  0.00446223  0.05911726  1
  Co  Co5  1  0.99899991  0.99553777  0.55911726  1
  Co  Co6  1  0.15471311  0.81559993  0.81706349  1
  Co  Co7  1  0.65678584  0.84026083  0.81410736  1
  Co  Co8  1  0.17601685  0.33747589  0.81523408  1
  Co  Co9  1  0.33911317  0.18440007  0.31706349  1
  Co  Co10  1  0.81652502  0.15973917  0.31410736  1
  Co  Co11  1  0.83854097  0.66252411  0.31523408  1
  O  O12  1  0.52001230  0.52655525  0.75177596  1
  O  O13  1  0.99677142  0.48532790  0.75153138  1
  O  O14  1  0.49689120  0.00368012  0.75800237  1
  O  O15  1  0.99345705  0.47344475  0.25177596  1
  O  O16  1  0.51144352  0.51467210  0.25153138  1
  O  O17  1  0.49321109  0.99631988  0.25800237  1
  O  O18  1  0.99723402  0.00809628  0.25263907  1
  O  O19  1  0.98913774  0.99190372  0.75263907  1
  O  O20  1  0.11359575  0.78105883  0.00434461  1
  O  O21  1  0.67021792  0.88859057  0.99340627  1
  O  O22  1  0.22554798  0.33381597  0.99952580  1
  O  O23  1  0.33253692  0.21894117  0.50434461  1
  O  O24  1  0.78162735  0.11140943  0.49340627  1
  O  O25  1  0.89173201  0.66618403  0.49952580  1
