# generated using pymatgen
data_MnH12N8O15
_symmetry_space_group_name_H-M   'P 1'
_cell_length_a   8.20917201
_cell_length_b   12.75001712
_cell_length_c   14.96455345
_cell_angle_alpha   90.00000000
_cell_angle_beta   90.00000000
_cell_angle_gamma   90.00000000
_symmetry_Int_Tables_number   1
_chemical_formula_structural   MnH12N8O15
_chemical_formula_sum   'Mn4 H48 N32 O60'
_cell_volume   1566.29616801
_cell_formula_units_Z   4
loop_
 _symmetry_equiv_pos_site_id
 _symmetry_equiv_pos_as_xyz
  1  'x, y, z'
loop_
 _atom_site_type_symbol
 _atom_site_label
 _atom_site_symmetry_multiplicity
 _atom_site_fract_x
 _atom_site_fract_y
 _atom_site_fract_z
 _atom_site_occupancy
  Mn  Mn0  1  0.48790441  0.56802867  0.21217213  1
  Mn  Mn1  1  0.51209559  0.43197133  0.71217213  1
  Mn  Mn2  1  0.48790441  0.93197133  0.71217213  1
  Mn  Mn3  1  0.51209559  0.06802867  0.21217213  1
  H  H4  1  0.11742739  0.56488486  0.73849519  1
  H  H5  1  0.88257261  0.43511514  0.23849519  1
  H  H6  1  0.11742739  0.93511514  0.23849519  1
  H  H7  1  0.88257261  0.06488486  0.73849519  1
  H  H8  1  0.01844803  0.57206669  0.63871005  1
  H  H9  1  0.98155197  0.42793331  0.13871005  1
  H  H10  1  0.01844803  0.92793331  0.13871005  1
  H  H11  1  0.98155197  0.07206669  0.63871005  1
  H  H12  1  0.91548260  0.55193401  0.73687393  1
  H  H13  1  0.08451740  0.44806599  0.23687393  1
  H  H14  1  0.91548260  0.94806599  0.23687393  1
  H  H15  1  0.08451740  0.05193401  0.73687393  1
  H  H16  1  0.03469562  0.45753744  0.69305160  1
  H  H17  1  0.96530438  0.54246256  0.19305160  1
  H  H18  1  0.03469562  0.04246256  0.19305160  1
  H  H19  1  0.96530438  0.95753744  0.69305160  1
  H  H20  1  0.68542062  0.66572872  0.43819486  1
  H  H21  1  0.31457938  0.33427128  0.93819486  1
  H  H22  1  0.68542062  0.83427128  0.93819486  1
  H  H23  1  0.31457938  0.16572872  0.43819486  1
  H  H24  1  0.80075998  0.70345884  0.35037540  1
  H  H25  1  0.19924002  0.29654116  0.85037540  1
  H  H26  1  0.80075998  0.79654116  0.85037540  1
  H  H27  1  0.19924002  0.20345884  0.35037540  1
  H  H28  1  0.89035042  0.66312230  0.44786417  1
  H  H29  1  0.10964958  0.33687770  0.94786417  1
  H  H30  1  0.89035042  0.83687770  0.94786417  1
  H  H31  1  0.10964958  0.16312230  0.44786417  1
  H  H32  1  0.78667540  0.77935367  0.44255959  1
  H  H33  1  0.21332460  0.22064633  0.94255959  1
  H  H34  1  0.78667540  0.72064633  0.94255959  1
  H  H35  1  0.21332460  0.27935367  0.44255959  1
  H  H36  1  0.83792006  0.17853230  0.03749954  1
  H  H37  1  0.16207994  0.82146770  0.53749954  1
  H  H38  1  0.83792006  0.32146770  0.53749954  1
  H  H39  1  0.16207994  0.67853230  0.03749954  1
  H  H40  1  0.65600341  0.14957104  0.98974796  1
  H  H41  1  0.34399659  0.85042896  0.48974796  1
  H  H42  1  0.65600341  0.35042896  0.48974796  1
  H  H43  1  0.34399659  0.64957104  0.98974796  1
  H  H44  1  0.80114757  0.20833404  0.92892475  1
  H  H45  1  0.19885243  0.79166596  0.42892475  1
  H  H46  1  0.80114757  0.29166596  0.42892475  1
  H  H47  1  0.19885243  0.70833404  0.92892475  1
  H  H48  1  0.70215255  0.27520692  0.00976313  1
  H  H49  1  0.29784745  0.72479308  0.50976313  1
  H  H50  1  0.70215255  0.22479308  0.50976313  1
  H  H51  1  0.29784745  0.77520692  0.00976313  1
  N  N52  1  0.02087828  0.53713181  0.70201711  1
  N  N53  1  0.97912172  0.46286819  0.20201711  1
  N  N54  1  0.02087828  0.96286819  0.20201711  1
  N  N55  1  0.97912172  0.03713181  0.70201711  1
  N  N56  1  0.79183677  0.70341091  0.41932545  1
  N  N57  1  0.20816323  0.29658909  0.91932545  1
  N  N58  1  0.79183677  0.79658909  0.91932545  1
  N  N59  1  0.20816323  0.20341091  0.41932545  1
  N  N60  1  0.75081524  0.20287344  0.99256656  1
  N  N61  1  0.24918476  0.79712656  0.49256656  1
  N  N62  1  0.75081524  0.29712656  0.49256656  1
  N  N63  1  0.24918476  0.70287344  0.99256656  1
  N  N64  1  0.71758494  0.71104372  0.16185567  1
  N  N65  1  0.28241506  0.28895628  0.66185567  1
  N  N66  1  0.71758494  0.78895628  0.66185567  1
  N  N67  1  0.28241506  0.21104372  0.16185567  1
  N  N68  1  0.46059908  0.43298655  0.34984273  1
  N  N69  1  0.53940092  0.56701345  0.84984273  1
  N  N70  1  0.46059908  0.06701345  0.84984273  1
  N  N71  1  0.53940092  0.93298655  0.34984273  1
  N  N72  1  0.50873417  0.43733313  0.06978183  1
  N  N73  1  0.49126583  0.56266687  0.56978183  1
  N  N74  1  0.50873417  0.06266687  0.56978183  1
  N  N75  1  0.49126583  0.93733313  0.06978183  1
  N  N76  1  0.24821317  0.70056137  0.27404014  1
  N  N77  1  0.75178683  0.29943863  0.77404014  1
  N  N78  1  0.24821317  0.79943863  0.77404014  1
  N  N79  1  0.75178683  0.20056137  0.27404014  1
  N  N80  1  0.03432869  0.49536188  0.47843896  1
  N  N81  1  0.96567131  0.50463812  0.97843896  1
  N  N82  1  0.03432869  0.00463812  0.97843896  1
  N  N83  1  0.96567131  0.99536188  0.47843896  1
  O  O84  1  0.58091505  0.69654040  0.12218988  1
  O  O85  1  0.41908495  0.30345960  0.62218988  1
  O  O86  1  0.58091505  0.80345960  0.62218988  1
  O  O87  1  0.41908495  0.19654040  0.12218988  1
  O  O88  1  0.74428404  0.65136133  0.23064248  1
  O  O89  1  0.25571596  0.34863867  0.73064248  1
  O  O90  1  0.74428404  0.84863867  0.73064248  1
  O  O91  1  0.25571596  0.15136133  0.23064248  1
  O  O92  1  0.81694150  0.77655346  0.13630610  1
  O  O93  1  0.18305850  0.22344654  0.63630610  1
  O  O94  1  0.81694150  0.72344654  0.63630610  1
  O  O95  1  0.18305850  0.27655346  0.13630610  1
  O  O96  1  0.34681834  0.44341894  0.29145895  1
  O  O97  1  0.65318166  0.55658106  0.79145895  1
  O  O98  1  0.34681834  0.05658106  0.79145895  1
  O  O99  1  0.65318166  0.94341894  0.29145895  1
  O  O100  1  0.59352661  0.48230506  0.33489722  1
  O  O101  1  0.40647339  0.51769494  0.83489722  1
  O  O102  1  0.59352661  0.01769494  0.83489722  1
  O  O103  1  0.40647339  0.98230506  0.33489722  1
  O  O104  1  0.44193308  0.37794815  0.41776943  1
  O  O105  1  0.55806692  0.62205185  0.91776943  1
  O  O106  1  0.44193308  0.12205185  0.91776943  1
  O  O107  1  0.55806692  0.87794815  0.41776943  1
  O  O108  1  0.61794662  0.43951933  0.13068036  1
  O  O109  1  0.38205338  0.56048067  0.63068036  1
  O  O110  1  0.61794662  0.06048067  0.63068036  1
  O  O111  1  0.38205338  0.93951933  0.13068036  1
  O  O112  1  0.38507763  0.49703008  0.08011506  1
  O  O113  1  0.61492237  0.50296992  0.58011506  1
  O  O114  1  0.38507763  0.00296992  0.58011506  1
  O  O115  1  0.61492237  0.99703008  0.08011506  1
  O  O116  1  0.52283528  0.37911640  0.00298684  1
  O  O117  1  0.47716472  0.62088360  0.50298684  1
  O  O118  1  0.52283528  0.12088360  0.50298684  1
  O  O119  1  0.47716472  0.87911640  0.00298684  1
  O  O120  1  0.22155055  0.64923228  0.20236328  1
  O  O121  1  0.77844945  0.35076772  0.70236328  1
  O  O122  1  0.22155055  0.85076772  0.70236328  1
  O  O123  1  0.77844945  0.14923228  0.20236328  1
  O  O124  1  0.38779138  0.68972964  0.31088589  1
  O  O125  1  0.61220862  0.31027036  0.81088589  1
  O  O126  1  0.38779138  0.81027036  0.81088589  1
  O  O127  1  0.61220862  0.18972964  0.31088589  1
  O  O128  1  0.14213086  0.75930649  0.30789658  1
  O  O129  1  0.85786914  0.24069351  0.80789658  1
  O  O130  1  0.14213086  0.74069351  0.80789658  1
  O  O131  1  0.85786914  0.25930649  0.30789658  1
  O  O132  1  0.00451135  0.48598629  0.39668047  1
  O  O133  1  0.99548865  0.51401371  0.89668047  1
  O  O134  1  0.00451135  0.01401371  0.89668047  1
  O  O135  1  0.99548865  0.98598629  0.39668047  1
  O  O136  1  0.03113090  0.58756799  0.51448866  1
  O  O137  1  0.96886910  0.41243201  0.01448866  1
  O  O138  1  0.03113090  0.91243201  0.01448866  1
  O  O139  1  0.96886910  0.08756799  0.51448866  1
  O  O140  1  0.06515533  0.41648990  0.52701805  1
  O  O141  1  0.93484467  0.58351010  0.02701805  1
  O  O142  1  0.06515533  0.08351010  0.02701805  1
  O  O143  1  0.93484467  0.91648990  0.52701805  1
