# generated using pymatgen
data_Ba3P2(SeO)4
_symmetry_space_group_name_H-M   'P 1'
_cell_length_a   6.90975141
_cell_length_b   7.23937638
_cell_length_c   12.90648453
_cell_angle_alpha   82.29427117
_cell_angle_beta   78.80151767
_cell_angle_gamma   80.92352379
_symmetry_Int_Tables_number   1
_chemical_formula_structural   Ba3P2(SeO)4
_chemical_formula_sum   'Ba6 P4 Se8 O8'
_cell_volume   621.81319652
_cell_formula_units_Z   2
loop_
 _symmetry_equiv_pos_site_id
 _symmetry_equiv_pos_as_xyz
  1  'x, y, z'
loop_
 _atom_site_type_symbol
 _atom_site_label
 _atom_site_symmetry_multiplicity
 _atom_site_fract_x
 _atom_site_fract_y
 _atom_site_fract_z
 _atom_site_occupancy
  Ba  Ba0  1  0.64826098  0.68236410  0.37507299  1
  Ba  Ba1  1  0.35173902  0.31763590  0.62492701  1
  Ba  Ba2  1  0.95448575  0.81593935  0.64910821  1
  Ba  Ba3  1  0.04551425  0.18406065  0.35089179  1
  Ba  Ba4  1  0.29411227  0.73224287  0.11116835  1
  Ba  Ba5  1  0.70588773  0.26775713  0.88883165  1
  P  P6  1  0.14071995  0.69483211  0.38528403  1
  P  P7  1  0.85928005  0.30516789  0.61471597  1
  P  P8  1  0.39141744  0.80366149  0.80936998  1
  P  P9  1  0.60858256  0.19633851  0.19063002  1
  Se  Se10  1  0.65799618  0.76413152  0.88781131  1
  Se  Se11  1  0.34200382  0.23586848  0.11218869  1
  Se  Se12  1  0.54147357  0.16446083  0.36709258  1
  Se  Se13  1  0.45852643  0.83553917  0.63290742  1
  Se  Se14  1  0.75912817  0.45002932  0.13880605  1
  Se  Se15  1  0.24087183  0.54997068  0.86119395  1
  Se  Se16  1  0.79492208  0.94076087  0.13144871  1
  Se  Se17  1  0.20507792  0.05923913  0.86855129  1
  O  O18  1  0.06943127  0.56036097  0.32002412  1
  O  O19  1  0.93056873  0.43963903  0.67997588  1
  O  O20  1  0.95480918  0.82582110  0.43734259  1
  O  O21  1  0.04519082  0.17417890  0.56265741  1
  O  O22  1  0.25685671  0.59296529  0.47253393  1
  O  O23  1  0.74314329  0.40703471  0.52746607  1
  O  O24  1  0.28070654  0.82044014  0.30526912  1
  O  O25  1  0.71929346  0.17955986  0.69473088  1
