# generated using pymatgen
data_AlH6ClO4
_symmetry_space_group_name_H-M   'P 1'
_cell_length_a   5.22388434
_cell_length_b   7.26777380
_cell_length_c   8.05281978
_cell_angle_alpha   115.96665040
_cell_angle_beta   107.80007273
_cell_angle_gamma   92.36925684
_symmetry_Int_Tables_number   1
_chemical_formula_structural   AlH6ClO4
_chemical_formula_sum   'Al2 H12 Cl2 O8'
_cell_volume   256.17167133
_cell_formula_units_Z   2
loop_
 _symmetry_equiv_pos_site_id
 _symmetry_equiv_pos_as_xyz
  1  'x, y, z'
loop_
 _atom_site_type_symbol
 _atom_site_label
 _atom_site_symmetry_multiplicity
 _atom_site_fract_x
 _atom_site_fract_y
 _atom_site_fract_z
 _atom_site_occupancy
  Al  Al0  1  0.20000466  0.95000466  0.90000933  1
  Al  Al1  1  0.79999534  0.04999534  0.09999067  1
  H  H2  1  0.49005397  0.32360808  0.14769608  1
  H  H3  1  0.15764212  0.82408801  0.14769608  1
  H  H4  1  0.50994603  0.67639192  0.85230392  1
  H  H5  1  0.84235788  0.17591199  0.85230392  1
  H  H6  1  0.85927103  0.58797927  0.70428388  1
  H  H7  1  0.34501286  0.11630461  0.70428388  1
  H  H8  1  0.14072897  0.41202073  0.29571612  1
  H  H9  1  0.65498714  0.88369539  0.29571612  1
  H  H10  1  0.81419417  0.68543751  0.56073900  1
  H  H11  1  0.24654483  0.87530150  0.56073900  1
  H  H12  1  0.18580583  0.31456249  0.43926100  1
  H  H13  1  0.75345517  0.12469850  0.43926100  1
  Cl  Cl14  1  0.41236935  0.66236935  0.32473870  1
  Cl  Cl15  1  0.58763065  0.33763065  0.67526130  1
  O  O16  1  0.49857942  0.17736628  0.07537087  1
  O  O17  1  0.07679145  0.89800459  0.07537087  1
  O  O18  1  0.50142058  0.82263372  0.92462913  1
  O  O19  1  0.92320855  0.10199541  0.92462913  1
  O  O20  1  0.95489322  0.68425530  0.67449849  1
  O  O21  1  0.21960527  0.99024319  0.67449849  1
  O  O22  1  0.04510678  0.31574470  0.32550151  1
  O  O23  1  0.78039473  0.00975681  0.32550151  1
