# generated using pymatgen
data_BaCoAs2O7
_symmetry_space_group_name_H-M   'P 1'
_cell_length_a   5.59617036
_cell_length_b   7.49395125
_cell_length_c   7.91626875
_cell_angle_alpha   101.71325038
_cell_angle_beta   91.82394823
_cell_angle_gamma   96.09612255
_symmetry_Int_Tables_number   1
_chemical_formula_structural   BaCoAs2O7
_chemical_formula_sum   'Ba2 Co2 As4 O14'
_cell_volume   322.75003848
_cell_formula_units_Z   2
loop_
 _symmetry_equiv_pos_site_id
 _symmetry_equiv_pos_as_xyz
  1  'x, y, z'
loop_
 _atom_site_type_symbol
 _atom_site_label
 _atom_site_symmetry_multiplicity
 _atom_site_fract_x
 _atom_site_fract_y
 _atom_site_fract_z
 _atom_site_occupancy
  Ba  Ba0  1  0.19952672  0.27742183  0.92738746  1
  Ba  Ba1  1  0.80047328  0.72257817  0.07261254  1
  Co  Co2  1  0.18537362  0.11589012  0.39394105  1
  Co  Co3  1  0.81462638  0.88410988  0.60605895  1
  As  As4  1  0.70334925  0.31962601  0.59958790  1
  As  As5  1  0.29665075  0.68037399  0.40041210  1
  As  As6  1  0.69207346  0.22521613  0.20054160  1
  As  As7  1  0.30792654  0.77478387  0.79945840  1
  O  O8  1  0.70218867  0.34373647  0.03953362  1
  O  O9  1  0.29781133  0.65626353  0.96046638  1
  O  O10  1  0.93234697  0.09884916  0.19456588  1
  O  O11  1  0.06765303  0.90115084  0.80543412  1
  O  O12  1  0.90482947  0.15502797  0.59128042  1
  O  O13  1  0.09517053  0.84497203  0.40871958  1
  O  O14  1  0.72900275  0.39485152  0.39866390  1
  O  O15  1  0.27099725  0.60514848  0.60133610  1
  O  O16  1  0.41311855  0.21973751  0.60225584  1
  O  O17  1  0.58688145  0.78026249  0.39774416  1
  O  O18  1  0.42078650  0.09519383  0.19581341  1
  O  O19  1  0.57921350  0.90480617  0.80418659  1
  O  O20  1  0.78953964  0.51020533  0.74891155  1
  O  O21  1  0.21046036  0.48979467  0.25108845  1
