# generated using pymatgen
data_H2S
_symmetry_space_group_name_H-M   'P 1'
_cell_length_a   7.91734400
_cell_length_b   7.91734400
_cell_length_c   7.91734400
_cell_angle_alpha   97.64640571
_cell_angle_beta   116.18348661
_cell_angle_gamma   115.19457410
_symmetry_Int_Tables_number   1
_chemical_formula_structural   H2S
_chemical_formula_sum   'H16 S8'
_cell_volume   370.19448342
_cell_formula_units_Z   8
loop_
 _symmetry_equiv_pos_site_id
 _symmetry_equiv_pos_as_xyz
  1  'x, y, z'
loop_
 _atom_site_type_symbol
 _atom_site_label
 _atom_site_symmetry_multiplicity
 _atom_site_fract_x
 _atom_site_fract_y
 _atom_site_fract_z
 _atom_site_occupancy
  H  H0  1  0.16827801  0.27665100  0.76820074  1
  H  H1  1  0.50845026  0.90007727  0.73179926  1
  H  H2  1  0.99154974  0.22334900  0.89162701  1
  H  H3  1  0.33172199  0.59992273  0.60837299  1
  H  H4  1  0.83172199  0.72334900  0.23179926  1
  H  H5  1  0.49154974  0.09992273  0.26820074  1
  H  H6  1  0.00845026  0.77665100  0.10837299  1
  H  H7  1  0.66827801  0.40007727  0.39162701  1
  H  H8  1  0.30724058  0.58596634  0.09945612  1
  H  H9  1  0.48651022  0.70778446  0.40054388  1
  H  H10  1  0.01348978  0.91403366  0.72127424  1
  H  H11  1  0.19275942  0.79221554  0.77872576  1
  H  H12  1  0.69275942  0.41403366  0.90054388  1
  H  H13  1  0.51348978  0.29221554  0.59945612  1
  H  H14  1  0.98651022  0.08596634  0.27872576  1
  H  H15  1  0.80724058  0.20778446  0.22127424  1
  S  S16  1  0.49331753  0.24331753  0.75000000  1
  S  S17  1  0.00668247  0.25668247  0.25000000  1
  S  S18  1  0.50668247  0.75668247  0.25000000  1
  S  S19  1  0.99331753  0.74331753  0.75000000  1
  S  S20  1  0.03054577  0.75000000  0.28054577  1
  S  S21  1  0.46945423  0.25000000  0.21945423  1
  S  S22  1  0.96945423  0.25000000  0.71945423  1
  S  S23  1  0.53054577  0.75000000  0.78054577  1
