# generated using pymatgen
data_KNbV2O8
_symmetry_space_group_name_H-M   'P 1'
_cell_length_a   5.68247006
_cell_length_b   8.70743123
_cell_length_c   15.20182654
_cell_angle_alpha   90.00000000
_cell_angle_beta   90.00000000
_cell_angle_gamma   90.00000000
_symmetry_Int_Tables_number   1
_chemical_formula_structural   KNbV2O8
_chemical_formula_sum   'K4 Nb4 V8 O32'
_cell_volume   752.18207910
_cell_formula_units_Z   4
loop_
 _symmetry_equiv_pos_site_id
 _symmetry_equiv_pos_as_xyz
  1  'x, y, z'
loop_
 _atom_site_type_symbol
 _atom_site_label
 _atom_site_symmetry_multiplicity
 _atom_site_fract_x
 _atom_site_fract_y
 _atom_site_fract_z
 _atom_site_occupancy
  K  K0  1  0.25000000  0.94927494  0.87433698  1
  K  K1  1  0.25000000  0.55072506  0.37433698  1
  K  K2  1  0.75000000  0.05072506  0.12566302  1
  K  K3  1  0.75000000  0.44927494  0.62566302  1
  Nb  Nb4  1  0.25000000  0.81002315  0.61638986  1
  Nb  Nb5  1  0.25000000  0.68997685  0.11638986  1
  Nb  Nb6  1  0.75000000  0.18997685  0.38361014  1
  Nb  Nb7  1  0.75000000  0.31002315  0.88361014  1
  V  V8  1  0.25000000  0.51262852  0.78726599  1
  V  V9  1  0.25000000  0.98737148  0.28726599  1
  V  V10  1  0.75000000  0.48737148  0.21273401  1
  V  V11  1  0.75000000  0.01262852  0.71273401  1
  V  V12  1  0.25000000  0.20951872  0.52898837  1
  V  V13  1  0.25000000  0.29048128  0.02898837  1
  V  V14  1  0.75000000  0.79048128  0.47101163  1
  V  V15  1  0.75000000  0.70951872  0.97101163  1
  O  O16  1  0.00692529  0.89898605  0.69951458  1
  O  O17  1  0.49307471  0.60101395  0.19951458  1
  O  O18  1  0.50692529  0.10101395  0.30048542  1
  O  O19  1  0.99307471  0.39898605  0.80048542  1
  O  O20  1  0.99307471  0.10101395  0.30048542  1
  O  O21  1  0.50692529  0.39898605  0.80048542  1
  O  O22  1  0.49307471  0.89898605  0.69951458  1
  O  O23  1  0.00692529  0.60101395  0.19951458  1
  O  O24  1  0.99886835  0.73120781  0.53604790  1
  O  O25  1  0.50113165  0.76879219  0.03604790  1
  O  O26  1  0.49886835  0.26879219  0.46395210  1
  O  O27  1  0.00113165  0.23120781  0.96395210  1
  O  O28  1  0.00113165  0.26879219  0.46395210  1
  O  O29  1  0.49886835  0.23120781  0.96395210  1
  O  O30  1  0.50113165  0.73120781  0.53604790  1
  O  O31  1  0.99886835  0.76879219  0.03604790  1
  O  O32  1  0.25000000  0.61641679  0.68447119  1
  O  O33  1  0.25000000  0.88358321  0.18447119  1
  O  O34  1  0.75000000  0.38358321  0.31552881  1
  O  O35  1  0.75000000  0.11641679  0.81552881  1
  O  O36  1  0.25000000  0.01177810  0.55162846  1
  O  O37  1  0.25000000  0.48822190  0.05162846  1
  O  O38  1  0.75000000  0.98822190  0.44837154  1
  O  O39  1  0.75000000  0.51177810  0.94837154  1
  O  O40  1  0.25000000  0.64101464  0.86629991  1
  O  O41  1  0.25000000  0.85898536  0.36629991  1
  O  O42  1  0.75000000  0.35898536  0.13370009  1
  O  O43  1  0.75000000  0.14101464  0.63370009  1
  O  O44  1  0.75000000  0.81159815  0.87999394  1
  O  O45  1  0.75000000  0.68840185  0.37999394  1
  O  O46  1  0.25000000  0.18840185  0.12000606  1
  O  O47  1  0.25000000  0.31159815  0.62000606  1
