# generated using pymatgen
data_NaNb2H7O9
_symmetry_space_group_name_H-M   'P 1'
_cell_length_a   6.48859177
_cell_length_b   10.13773895
_cell_length_c   12.88467724
_cell_angle_alpha   100.04301711
_cell_angle_beta   90.00000000
_cell_angle_gamma   90.00000000
_symmetry_Int_Tables_number   1
_chemical_formula_structural   NaNb2H7O9
_chemical_formula_sum   'Na4 Nb8 H28 O36'
_cell_volume   834.56263829
_cell_formula_units_Z   4
loop_
 _symmetry_equiv_pos_site_id
 _symmetry_equiv_pos_as_xyz
  1  'x, y, z'
loop_
 _atom_site_type_symbol
 _atom_site_label
 _atom_site_symmetry_multiplicity
 _atom_site_fract_x
 _atom_site_fract_y
 _atom_site_fract_z
 _atom_site_occupancy
  Na  Na0  1  0.75093666  0.46796651  0.15923741  1
  Na  Na1  1  0.25093666  0.53203349  0.34076259  1
  Na  Na2  1  0.24906334  0.53203349  0.84076259  1
  Na  Na3  1  0.74906334  0.46796651  0.65923741  1
  Nb  Nb4  1  0.78000904  0.83270690  0.09475014  1
  Nb  Nb5  1  0.28000904  0.16729310  0.40524986  1
  Nb  Nb6  1  0.21999096  0.16729310  0.90524986  1
  Nb  Nb7  1  0.71999096  0.83270690  0.59475014  1
  Nb  Nb8  1  0.68190052  0.99975485  0.89196292  1
  Nb  Nb9  1  0.18190052  0.00024515  0.60803708  1
  Nb  Nb10  1  0.31809948  0.00024515  0.10803708  1
  Nb  Nb11  1  0.81809948  0.99975485  0.39196292  1
  H  H12  1  0.28809844  0.87180283  0.88817100  1
  H  H13  1  0.78809844  0.12819717  0.61182900  1
  H  H14  1  0.71190156  0.12819717  0.11182900  1
  H  H15  1  0.21190156  0.87180283  0.38817100  1
  H  H16  1  0.00768315  0.22387746  0.13656304  1
  H  H17  1  0.50768315  0.77612254  0.36343696  1
  H  H18  1  0.99231685  0.77612254  0.86343696  1
  H  H19  1  0.49231685  0.22387746  0.63656304  1
  H  H20  1  0.91259121  0.22361333  0.24875767  1
  H  H21  1  0.41259121  0.77638667  0.25124233  1
  H  H22  1  0.08740879  0.77638667  0.75124233  1
  H  H23  1  0.58740879  0.22361333  0.74875767  1
  H  H24  1  0.88383420  0.38090603  0.94286242  1
  H  H25  1  0.38383420  0.61909397  0.55713758  1
  H  H26  1  0.11616580  0.61909397  0.05713758  1
  H  H27  1  0.61616580  0.38090603  0.44286242  1
  H  H28  1  0.66358398  0.31434280  0.94085049  1
  H  H29  1  0.16358398  0.68565720  0.55914951  1
  H  H30  1  0.33641602  0.68565720  0.05914951  1
  H  H31  1  0.83641602  0.31434280  0.44085049  1
  H  H32  1  0.83952121  0.65244551  0.36469220  1
  H  H33  1  0.33952121  0.34755449  0.13530780  1
  H  H34  1  0.16047879  0.34755449  0.63530780  1
  H  H35  1  0.66047879  0.65244551  0.86469220  1
  H  H36  1  0.83843842  0.50335465  0.38461160  1
  H  H37  1  0.33843842  0.49664535  0.11538840  1
  H  H38  1  0.16156158  0.49664535  0.61538840  1
  H  H39  1  0.66156158  0.50335465  0.88461160  1
  O  O40  1  0.75309010  0.82451471  0.93967094  1
  O  O41  1  0.25309010  0.17548529  0.56032906  1
  O  O42  1  0.24690990  0.17548529  0.06032906  1
  O  O43  1  0.74690990  0.82451471  0.43967094  1
  O  O44  1  0.52568464  0.17123339  0.88204682  1
  O  O45  1  0.02568464  0.82876661  0.61795318  1
  O  O46  1  0.47431536  0.82876661  0.11795318  1
  O  O47  1  0.97431536  0.17123339  0.38204682  1
  O  O48  1  0.69161870  0.92672264  0.75019543  1
  O  O49  1  0.19161870  0.07327736  0.74980457  1
  O  O50  1  0.30838130  0.07327736  0.24980457  1
  O  O51  1  0.80838130  0.92672264  0.25019543  1
  O  O52  1  0.93866737  0.08287282  0.91466690  1
  O  O53  1  0.43866737  0.91712718  0.58533310  1
  O  O54  1  0.06133263  0.91712718  0.08533310  1
  O  O55  1  0.56133263  0.08287282  0.41466690  1
  O  O56  1  0.85836800  0.66518074  0.10331239  1
  O  O57  1  0.35836800  0.33481926  0.39668761  1
  O  O58  1  0.14163200  0.33481926  0.89668761  1
  O  O59  1  0.64163200  0.66518074  0.60331239  1
  O  O60  1  0.36265349  0.95005498  0.92934534  1
  O  O61  1  0.86265349  0.04994502  0.57065466  1
  O  O62  1  0.63734651  0.04994502  0.07065466  1
  O  O63  1  0.13734651  0.95005498  0.42934534  1
  O  O64  1  0.88213063  0.24915284  0.17950560  1
  O  O65  1  0.38213063  0.75084716  0.32049440  1
  O  O66  1  0.11786937  0.75084716  0.82049440  1
  O  O67  1  0.61786937  0.24915284  0.67950560  1
  O  O68  1  0.73977740  0.39938895  0.96660030  1
  O  O69  1  0.23977740  0.60061105  0.53339970  1
  O  O70  1  0.26022260  0.60061105  0.03339970  1
  O  O71  1  0.76022260  0.39938895  0.46660030  1
  O  O72  1  0.88193873  0.56097325  0.33244603  1
  O  O73  1  0.38193873  0.43902675  0.16755397  1
  O  O74  1  0.11806127  0.43902675  0.66755397  1
  O  O75  1  0.61806127  0.56097325  0.83244603  1
