# generated using pymatgen
data_Cu3AsO7
_symmetry_space_group_name_H-M   'P 1'
_cell_length_a   6.22859593
_cell_length_b   7.60895664
_cell_length_c   11.92469850
_cell_angle_alpha   98.97641163
_cell_angle_beta   90.00000000
_cell_angle_gamma   90.00000000
_symmetry_Int_Tables_number   1
_chemical_formula_structural   Cu3AsO7
_chemical_formula_sum   'Cu12 As4 O28'
_cell_volume   558.22705662
_cell_formula_units_Z   4
loop_
 _symmetry_equiv_pos_site_id
 _symmetry_equiv_pos_as_xyz
  1  'x, y, z'
loop_
 _atom_site_type_symbol
 _atom_site_label
 _atom_site_symmetry_multiplicity
 _atom_site_fract_x
 _atom_site_fract_y
 _atom_site_fract_z
 _atom_site_occupancy
  Cu  Cu0  1  0.63823105  0.19721442  0.16503918  1
  Cu  Cu1  1  0.13823105  0.80278558  0.33496082  1
  Cu  Cu2  1  0.36176895  0.80278558  0.83496082  1
  Cu  Cu3  1  0.86176895  0.19721442  0.66503918  1
  Cu  Cu4  1  0.88258966  0.20086694  0.37994965  1
  Cu  Cu5  1  0.38258966  0.79913306  0.12005035  1
  Cu  Cu6  1  0.11741034  0.79913306  0.62005035  1
  Cu  Cu7  1  0.61741034  0.20086694  0.87994965  1
  Cu  Cu8  1  0.86278260  0.62678995  0.09158847  1
  Cu  Cu9  1  0.36278260  0.37321005  0.40841153  1
  Cu  Cu10  1  0.13721740  0.37321005  0.90841153  1
  Cu  Cu11  1  0.63721740  0.62678995  0.59158847  1
  As  As12  1  0.65272651  0.69942985  0.32282858  1
  As  As13  1  0.15272651  0.30057015  0.17717142  1
  As  As14  1  0.34727349  0.30057015  0.67717142  1
  As  As15  1  0.84727349  0.69942985  0.82282858  1
  O  O16  1  0.58585568  0.57541542  0.42751025  1
  O  O17  1  0.08585568  0.42458458  0.07248975  1
  O  O18  1  0.41414432  0.42458458  0.57248975  1
  O  O19  1  0.91414432  0.57541542  0.92751025  1
  O  O20  1  0.84708979  0.85618999  0.36297504  1
  O  O21  1  0.34708979  0.14381001  0.13702496  1
  O  O22  1  0.15291021  0.14381001  0.63702496  1
  O  O23  1  0.65291021  0.85618999  0.86297504  1
  O  O24  1  0.43117101  0.82160451  0.28519897  1
  O  O25  1  0.93117101  0.17839549  0.21480103  1
  O  O26  1  0.56882899  0.17839549  0.71480103  1
  O  O27  1  0.06882899  0.82160451  0.78519897  1
  O  O28  1  0.72501813  0.53682537  0.21311677  1
  O  O29  1  0.22501813  0.46317463  0.28688323  1
  O  O30  1  0.27498187  0.46317463  0.78688323  1
  O  O31  1  0.77498187  0.53682537  0.71311677  1
  O  O32  1  0.71245237  0.23668085  0.02310996  1
  O  O33  1  0.21245237  0.76331915  0.47689004  1
  O  O34  1  0.28754763  0.76331915  0.97689004  1
  O  O35  1  0.78754763  0.23668085  0.52310996  1
  O  O36  1  0.10357546  0.79120651  0.17705981  1
  O  O37  1  0.60357546  0.20879349  0.32294019  1
  O  O38  1  0.89642454  0.20879349  0.82294019  1
  O  O39  1  0.39642454  0.79120651  0.67705981  1
  O  O40  1  0.66811216  0.81359664  0.09832074  1
  O  O41  1  0.16811216  0.18640336  0.40167926  1
  O  O42  1  0.33188784  0.18640336  0.90167926  1
  O  O43  1  0.83188784  0.81359664  0.59832074  1
