# generated using pymatgen
data_VAsO5
_symmetry_space_group_name_H-M   'P 1'
_cell_length_a   6.42412593
_cell_length_b   6.44321816
_cell_length_c   8.73628078
_cell_angle_alpha   90.00000000
_cell_angle_beta   90.00000000
_cell_angle_gamma   90.21305035
_symmetry_Int_Tables_number   1
_chemical_formula_structural   VAsO5
_chemical_formula_sum   'V4 As4 O20'
_cell_volume   361.61002600
_cell_formula_units_Z   4
loop_
 _symmetry_equiv_pos_site_id
 _symmetry_equiv_pos_as_xyz
  1  'x, y, z'
loop_
 _atom_site_type_symbol
 _atom_site_label
 _atom_site_symmetry_multiplicity
 _atom_site_fract_x
 _atom_site_fract_y
 _atom_site_fract_z
 _atom_site_occupancy
  V  V0  1  0.53507637  0.65823247  0.32492821  1
  V  V1  1  0.03507637  0.15823247  0.17507179  1
  V  V2  1  0.46492363  0.34176753  0.67507179  1
  V  V3  1  0.96492363  0.84176753  0.82492821  1
  As  As4  1  0.53569405  0.15917532  0.25257152  1
  As  As5  1  0.03569405  0.65917532  0.24742848  1
  As  As6  1  0.46430595  0.84082468  0.74742848  1
  As  As7  1  0.96430595  0.34082468  0.75257152  1
  O  O8  1  0.51097225  0.63861056  0.61958419  1
  O  O9  1  0.01097225  0.13861056  0.88041581  1
  O  O10  1  0.48902775  0.36138944  0.38041581  1
  O  O11  1  0.98902775  0.86138944  0.11958419  1
  O  O12  1  0.53137909  0.64007944  0.14249585  1
  O  O13  1  0.03137909  0.14007944  0.35750415  1
  O  O14  1  0.46862091  0.35992056  0.85750415  1
  O  O15  1  0.96862091  0.85992056  0.64249585  1
  O  O16  1  0.74482789  0.21148985  0.13591401  1
  O  O17  1  0.24482789  0.71148985  0.36408599  1
  O  O18  1  0.25517211  0.78851015  0.86408599  1
  O  O19  1  0.75517211  0.28851015  0.63591401  1
  O  O20  1  0.82767295  0.61188331  0.36576372  1
  O  O21  1  0.32767295  0.11188331  0.13423628  1
  O  O22  1  0.17232705  0.38811669  0.63423628  1
  O  O23  1  0.67232705  0.88811669  0.86576372  1
  O  O24  1  0.59189691  0.94389541  0.36076268  1
  O  O25  1  0.09189691  0.44389541  0.13923732  1
  O  O26  1  0.40810309  0.05610459  0.63923732  1
  O  O27  1  0.90810309  0.55610459  0.86076268  1
