# generated using pymatgen
data_Hg5(SeO4)2
_symmetry_space_group_name_H-M   'P 1'
_cell_length_a   6.37312376
_cell_length_b   9.58343162
_cell_length_c   19.51525869
_cell_angle_alpha   90.40520641
_cell_angle_beta   90.00000000
_cell_angle_gamma   109.42103754
_symmetry_Int_Tables_number   1
_chemical_formula_structural   Hg5(SeO4)2
_chemical_formula_sum   'Hg20 Se8 O32'
_cell_volume   1124.07046960
_cell_formula_units_Z   4
loop_
 _symmetry_equiv_pos_site_id
 _symmetry_equiv_pos_as_xyz
  1  'x, y, z'
loop_
 _atom_site_type_symbol
 _atom_site_label
 _atom_site_symmetry_multiplicity
 _atom_site_fract_x
 _atom_site_fract_y
 _atom_site_fract_z
 _atom_site_occupancy
  Hg  Hg0  1  0.21770620  0.03300320  0.00344141  1
  Hg  Hg1  1  0.18470300  0.96699680  0.49655859  1
  Hg  Hg2  1  0.78229380  0.96699680  0.99655859  1
  Hg  Hg3  1  0.81529700  0.03300320  0.50344141  1
  Hg  Hg4  1  0.07111097  0.34910730  0.03576561  1
  Hg  Hg5  1  0.72200367  0.65089270  0.46423439  1
  Hg  Hg6  1  0.92888903  0.65089270  0.96423439  1
  Hg  Hg7  1  0.27799633  0.34910730  0.53576561  1
  Hg  Hg8  1  0.06706072  0.13548729  0.27413250  1
  Hg  Hg9  1  0.93157343  0.86451271  0.22586750  1
  Hg  Hg10  1  0.93293928  0.86451271  0.72586750  1
  Hg  Hg11  1  0.06842657  0.13548729  0.77413250  1
  Hg  Hg12  1  0.30980058  0.44775079  0.92630966  1
  Hg  Hg13  1  0.86204979  0.55224921  0.57369034  1
  Hg  Hg14  1  0.69019942  0.55224921  0.07369034  1
  Hg  Hg15  1  0.13795021  0.44775079  0.42630966  1
  Hg  Hg16  1  0.98597708  0.49888767  0.24769875  1
  Hg  Hg17  1  0.48708941  0.50111233  0.25230125  1
  Hg  Hg18  1  0.01402292  0.50111233  0.75230125  1
  Hg  Hg19  1  0.51291059  0.49888767  0.74769875  1
  Se  Se20  1  0.59528132  0.19550124  0.12627308  1
  Se  Se21  1  0.39978008  0.80449876  0.37372692  1
  Se  Se22  1  0.40471868  0.80449876  0.87372692  1
  Se  Se23  1  0.60021992  0.19550124  0.62627308  1
  Se  Se24  1  0.38456644  0.77123644  0.14143721  1
  Se  Se25  1  0.61333000  0.22876356  0.35856279  1
  Se  Se26  1  0.61543356  0.22876356  0.85856279  1
  Se  Se27  1  0.38667000  0.77123644  0.64143721  1
  O  O28  1  0.64771183  0.87509793  0.12173890  1
  O  O29  1  0.77261390  0.12490207  0.37826110  1
  O  O30  1  0.35228817  0.12490207  0.87826110  1
  O  O31  1  0.22738610  0.87509793  0.62173890  1
  O  O32  1  0.57652803  0.14969282  0.03865882  1
  O  O33  1  0.42683521  0.85030718  0.46134118  1
  O  O34  1  0.42347197  0.85030718  0.96134118  1
  O  O35  1  0.57316479  0.14969282  0.53865882  1
  O  O36  1  0.35817794  0.75349763  0.22733650  1
  O  O37  1  0.60468031  0.24650237  0.27266350  1
  O  O38  1  0.64182206  0.24650237  0.77266350  1
  O  O39  1  0.39531969  0.75349763  0.72733650  1
  O  O40  1  0.79392217  0.61882443  0.20621984  1
  O  O41  1  0.17509775  0.38117557  0.29378016  1
  O  O42  1  0.20607783  0.38117557  0.79378016  1
  O  O43  1  0.82490225  0.61882443  0.70621984  1
  O  O44  1  0.19885222  0.84533874  0.11244106  1
  O  O45  1  0.35351348  0.15466126  0.38755894  1
  O  O46  1  0.80114778  0.15466126  0.88755894  1
  O  O47  1  0.64648652  0.84533874  0.61244106  1
  O  O48  1  0.88188783  0.28879478  0.13133961  1
  O  O49  1  0.59309305  0.71120522  0.36866039  1
  O  O50  1  0.11811217  0.71120522  0.86866039  1
  O  O51  1  0.40690695  0.28879478  0.63133961  1
  O  O52  1  0.48556210  0.33844078  0.12767102  1
  O  O53  1  0.14712132  0.66155922  0.37232898  1
  O  O54  1  0.51443790  0.66155922  0.87232898  1
  O  O55  1  0.85287868  0.33844078  0.62767102  1
  O  O56  1  0.33896594  0.59805746  0.10982196  1
  O  O57  1  0.74090848  0.40194254  0.39017804  1
  O  O58  1  0.66103406  0.40194254  0.89017804  1
  O  O59  1  0.25909152  0.59805746  0.60982196  1
