# generated using pymatgen
data_Zr4Ni2N
_symmetry_space_group_name_H-M   'P 1'
_cell_length_a   8.68040784
_cell_length_b   8.68040784
_cell_length_c   8.68040784
_cell_angle_alpha   60.00000000
_cell_angle_beta   60.00000000
_cell_angle_gamma   60.00000000
_symmetry_Int_Tables_number   1
_chemical_formula_structural   Zr4Ni2N
_chemical_formula_sum   'Zr16 Ni8 N4'
_cell_volume   462.49324542
_cell_formula_units_Z   4
loop_
 _symmetry_equiv_pos_site_id
 _symmetry_equiv_pos_as_xyz
  1  'x, y, z'
loop_
 _atom_site_type_symbol
 _atom_site_label
 _atom_site_symmetry_multiplicity
 _atom_site_fract_x
 _atom_site_fract_y
 _atom_site_fract_z
 _atom_site_occupancy
  Zr  Zr0  1  -0.00000000  -0.00000000  0.50000000  1
  Zr  Zr1  1  -0.00000000  0.50000000  0.00000000  1
  Zr  Zr2  1  0.50000000  -0.00000000  0.00000000  1
  Zr  Zr3  1  -0.00000000  -0.00000000  0.00000000  1
  Zr  Zr4  1  0.44148616  0.80851384  0.80851384  1
  Zr  Zr5  1  0.80851384  0.44148616  0.44148616  1
  Zr  Zr6  1  0.80851384  0.44148616  0.80851384  1
  Zr  Zr7  1  0.44148616  0.80851384  0.44148616  1
  Zr  Zr8  1  0.80851384  0.80851384  0.44148616  1
  Zr  Zr9  1  0.44148616  0.44148616  0.80851384  1
  Zr  Zr10  1  0.55851384  0.19148616  0.19148616  1
  Zr  Zr11  1  0.19148616  0.55851384  0.55851384  1
  Zr  Zr12  1  0.19148616  0.55851384  0.19148616  1
  Zr  Zr13  1  0.55851384  0.19148616  0.55851384  1
  Zr  Zr14  1  0.19148616  0.19148616  0.55851384  1
  Zr  Zr15  1  0.55851384  0.55851384  0.19148616  1
  Ni  Ni16  1  0.21422759  0.21422759  0.85731723  1
  Ni  Ni17  1  0.21422759  0.85731723  0.21422759  1
  Ni  Ni18  1  0.85731723  0.21422759  0.21422759  1
  Ni  Ni19  1  0.21422759  0.21422759  0.21422759  1
  Ni  Ni20  1  0.78577241  0.78577241  0.14268277  1
  Ni  Ni21  1  0.78577241  0.14268277  0.78577241  1
  Ni  Ni22  1  0.14268277  0.78577241  0.78577241  1
  Ni  Ni23  1  0.78577241  0.78577241  0.78577241  1
  N  N24  1  0.50000000  0.50000000  0.00000000  1
  N  N25  1  0.50000000  -0.00000000  0.50000000  1
  N  N26  1  -0.00000000  0.50000000  0.50000000  1
  N  N27  1  0.50000000  0.50000000  0.50000000  1
