# generated using pymatgen
data_CeFe9Si4
_symmetry_space_group_name_H-M   'P 1'
_cell_length_a   7.79185919
_cell_length_b   7.79185919
_cell_length_c   7.97863238
_cell_angle_alpha   119.22860140
_cell_angle_beta   119.22860140
_cell_angle_gamma   90.00000000
_symmetry_Int_Tables_number   1
_chemical_formula_structural   CeFe9Si4
_chemical_formula_sum   'Ce2 Fe18 Si8'
_cell_volume   350.36253480
_cell_formula_units_Z   2
loop_
 _symmetry_equiv_pos_site_id
 _symmetry_equiv_pos_as_xyz
  1  'x, y, z'
loop_
 _atom_site_type_symbol
 _atom_site_label
 _atom_site_symmetry_multiplicity
 _atom_site_fract_x
 _atom_site_fract_y
 _atom_site_fract_z
 _atom_site_occupancy
  Ce  Ce0  1  0.75000000  0.75000000  0.50000000  1
  Ce  Ce1  1  0.25000000  0.25000000  0.50000000  1
  Fe  Fe2  1  0.29928077  0.56673726  -0.00000000  1
  Fe  Fe3  1  0.70071923  0.43326274  0.00000000  1
  Fe  Fe4  1  0.20071923  0.06673726  0.00000000  1
  Fe  Fe5  1  0.79928077  0.93326274  -0.00000000  1
  Fe  Fe6  1  0.43326274  0.29928077  -0.00000000  1
  Fe  Fe7  1  0.56673726  0.70071923  0.00000000  1
  Fe  Fe8  1  0.93326274  0.20071923  0.00000000  1
  Fe  Fe9  1  0.06673726  0.79928077  -0.00000000  1
  Fe  Fe10  1  0.55492753  0.30289008  0.35781761  1
  Fe  Fe11  1  0.80289008  0.05492753  0.35781761  1
  Fe  Fe12  1  0.30289008  0.80289008  0.35781761  1
  Fe  Fe13  1  0.05492753  0.55492753  0.35781761  1
  Fe  Fe14  1  0.44507247  0.69710992  0.64218239  1
  Fe  Fe15  1  0.19710992  0.94507247  0.64218239  1
  Fe  Fe16  1  0.69710992  0.19710992  0.64218239  1
  Fe  Fe17  1  0.94507247  0.44507247  0.64218239  1
  Fe  Fe18  1  -0.00000000  0.50000000  0.00000000  1
  Fe  Fe19  1  0.50000000  -0.00000000  0.00000000  1
  Si  Si20  1  0.94956636  0.79233879  0.24190516  1
  Si  Si21  1  0.29233879  0.44956636  0.24190516  1
  Si  Si22  1  0.79233879  0.29233879  0.24190516  1
  Si  Si23  1  0.44956636  0.94956636  0.24190516  1
  Si  Si24  1  0.05043364  0.20766121  0.75809484  1
  Si  Si25  1  0.70766121  0.55043364  0.75809484  1
  Si  Si26  1  0.20766121  0.70766121  0.75809484  1
  Si  Si27  1  0.55043364  0.05043364  0.75809484  1
