# generated using pymatgen
data_Rb(WO3)3
_symmetry_space_group_name_H-M   'P 1'
_cell_length_a   7.52153310
_cell_length_b   7.52153310
_cell_length_c   7.74201615
_cell_angle_alpha   90.00000000
_cell_angle_beta   90.00000000
_cell_angle_gamma   120.00000116
_symmetry_Int_Tables_number   1
_chemical_formula_structural   Rb(WO3)3
_chemical_formula_sum   'Rb2 W6 O18'
_cell_volume   379.31275070
_cell_formula_units_Z   2
loop_
 _symmetry_equiv_pos_site_id
 _symmetry_equiv_pos_as_xyz
  1  'x, y, z'
loop_
 _atom_site_type_symbol
 _atom_site_label
 _atom_site_symmetry_multiplicity
 _atom_site_fract_x
 _atom_site_fract_y
 _atom_site_fract_z
 _atom_site_occupancy
  Rb  Rb0  1  -0.00000000  -0.00000000  0.51111800  1
  Rb  Rb1  1  -0.00000000  -0.00000000  0.01111800  1
  W  W2  1  0.50190145  0.00011425  0.24895456  1
  W  W3  1  -0.00011425  0.50178720  0.24895456  1
  W  W4  1  0.49821280  0.49809855  0.24895456  1
  W  W5  1  0.49809855  -0.00011425  0.74895456  1
  W  W6  1  0.00011425  0.49821280  0.74895456  1
  W  W7  1  0.50178720  0.50190145  0.74895456  1
  O  O8  1  0.79054686  0.21058490  0.23317751  1
  O  O9  1  0.78941510  0.57996196  0.23317751  1
  O  O10  1  0.42003804  0.20945314  0.23317751  1
  O  O11  1  0.20945314  0.78941510  0.73317751  1
  O  O12  1  0.21058490  0.42003804  0.73317751  1
  O  O13  1  0.57996196  0.79054686  0.73317751  1
  O  O14  1  0.21008544  0.42089335  0.26449517  1
  O  O15  1  0.57910665  0.78919209  0.26449517  1
  O  O16  1  0.21080791  0.78991456  0.26449517  1
  O  O17  1  0.78991456  0.57910665  0.76449517  1
  O  O18  1  0.42089335  0.21080791  0.76449517  1
  O  O19  1  0.78919209  0.21008544  0.76449517  1
  O  O20  1  0.51280040  0.02601315  0.49900009  1
  O  O21  1  0.97398685  0.48678725  0.49900009  1
  O  O22  1  0.51321275  0.48719960  0.49900009  1
  O  O23  1  0.48719960  0.97398685  0.99900009  1
  O  O24  1  0.02601315  0.51321275  0.99900009  1
  O  O25  1  0.48678725  0.51280040  0.99900009  1
