# generated using pymatgen
data_Tb6Fe23
_symmetry_space_group_name_H-M   'P 1'
_cell_length_a   8.54380435
_cell_length_b   8.54380435
_cell_length_c   8.54380435
_cell_angle_alpha   60.00000000
_cell_angle_beta   60.00000000
_cell_angle_gamma   60.00000000
_symmetry_Int_Tables_number   1
_chemical_formula_structural   Tb6Fe23
_chemical_formula_sum   'Tb6 Fe23'
_cell_volume   441.00030046
_cell_formula_units_Z   1
loop_
 _symmetry_equiv_pos_site_id
 _symmetry_equiv_pos_as_xyz
  1  'x, y, z'
loop_
 _atom_site_type_symbol
 _atom_site_label
 _atom_site_symmetry_multiplicity
 _atom_site_fract_x
 _atom_site_fract_y
 _atom_site_fract_z
 _atom_site_occupancy
  Tb  Tb0  1  0.79022568  0.20977432  0.20977432  1
  Tb  Tb1  1  0.79022568  0.20977432  0.79022568  1
  Tb  Tb2  1  0.79022568  0.79022568  0.20977432  1
  Tb  Tb3  1  0.20977432  0.79022568  0.79022568  1
  Tb  Tb4  1  0.20977432  0.79022568  0.20977432  1
  Tb  Tb5  1  0.20977432  0.20977432  0.79022568  1
  Fe  Fe6  1  0.50000000  0.50000000  0.50000000  1
  Fe  Fe7  1  0.50000000  -0.00000000  -0.00000000  1
  Fe  Fe8  1  0.50000000  -0.00000000  0.50000000  1
  Fe  Fe9  1  0.50000000  0.50000000  -0.00000000  1
  Fe  Fe10  1  0.00000000  0.50000000  0.50000000  1
  Fe  Fe11  1  0.00000000  0.50000000  -0.00000000  1
  Fe  Fe12  1  0.00000000  -0.00000000  0.50000000  1
  Fe  Fe13  1  0.86473815  0.37842062  0.37842062  1
  Fe  Fe14  1  0.37842062  0.86473815  0.37842062  1
  Fe  Fe15  1  0.37842062  0.37842062  0.86473815  1
  Fe  Fe16  1  0.37842062  0.37842062  0.37842062  1
  Fe  Fe17  1  0.13526185  0.62157938  0.62157938  1
  Fe  Fe18  1  0.62157938  0.13526185  0.62157938  1
  Fe  Fe19  1  0.62157938  0.62157938  0.13526185  1
  Fe  Fe20  1  0.62157938  0.62157938  0.62157938  1
  Fe  Fe21  1  0.47175502  0.17608166  0.17608166  1
  Fe  Fe22  1  0.17608166  0.47175502  0.17608166  1
  Fe  Fe23  1  0.17608166  0.17608166  0.47175502  1
  Fe  Fe24  1  0.17608166  0.17608166  0.17608166  1
  Fe  Fe25  1  0.52824498  0.82391834  0.82391834  1
  Fe  Fe26  1  0.82391834  0.52824498  0.82391834  1
  Fe  Fe27  1  0.82391834  0.82391834  0.52824498  1
  Fe  Fe28  1  0.82391834  0.82391834  0.82391834  1
