# generated using pymatgen
data_Hf9FeW4
_symmetry_space_group_name_H-M   'P 1'
_cell_length_a   8.43968545
_cell_length_b   8.71255610
_cell_length_c   8.71255610
_cell_angle_alpha   119.98555328
_cell_angle_beta   90.00000000
_cell_angle_gamma   90.00000000
_symmetry_Int_Tables_number   1
_chemical_formula_structural   Hf9FeW4
_chemical_formula_sum   'Hf18 Fe2 W8'
_cell_volume   554.89558706
_cell_formula_units_Z   2
loop_
 _symmetry_equiv_pos_site_id
 _symmetry_equiv_pos_as_xyz
  1  'x, y, z'
loop_
 _atom_site_type_symbol
 _atom_site_label
 _atom_site_symmetry_multiplicity
 _atom_site_fract_x
 _atom_site_fract_y
 _atom_site_fract_z
 _atom_site_occupancy
  Hf  Hf0  1  0.55906210  0.79883257  0.59764061  1
  Hf  Hf1  1  0.55901843  0.79881381  0.20118619  1
  Hf  Hf2  1  0.55906210  0.40235939  0.20116743  1
  Hf  Hf3  1  0.44093790  0.20116743  0.40235939  1
  Hf  Hf4  1  0.44098157  0.20118619  0.79881381  1
  Hf  Hf5  1  0.44093790  0.59764061  0.79883257  1
  Hf  Hf6  1  0.05906210  0.20116743  0.40235939  1
  Hf  Hf7  1  0.05901843  0.20118619  0.79881381  1
  Hf  Hf8  1  0.05906210  0.59764061  0.79883257  1
  Hf  Hf9  1  0.94093790  0.79883257  0.59764061  1
  Hf  Hf10  1  0.94098157  0.79881381  0.20118619  1
  Hf  Hf11  1  0.94093790  0.40235939  0.20116743  1
  Hf  Hf12  1  0.75000000  0.45996197  0.91993333  1
  Hf  Hf13  1  0.75000000  0.45996171  0.54003829  1
  Hf  Hf14  1  0.75000000  0.08006667  0.54003803  1
  Hf  Hf15  1  0.25000000  0.54003803  0.08006667  1
  Hf  Hf16  1  0.25000000  0.54003829  0.45996171  1
  Hf  Hf17  1  0.25000000  0.91993333  0.45996197  1
  Fe  Fe18  1  0.75000000  0.66669538  0.33330462  1
  Fe  Fe19  1  0.25000000  0.33330462  0.66669538  1
  W  W20  1  0.75000000  0.11224668  0.22447340  1
  W  W21  1  0.75000000  0.11224431  0.88775569  1
  W  W22  1  0.75000000  0.77552660  0.88775332  1
  W  W23  1  0.25000000  0.88775332  0.77552660  1
  W  W24  1  0.25000000  0.88775569  0.11224431  1
  W  W25  1  0.25000000  0.22447340  0.11224668  1
  W  W26  1  0.50000000  -0.00000000  0.00000000  1
  W  W27  1  -0.00000000  -0.00000000  0.00000000  1
