# generated using pymatgen
data_ZnB3H3O7
_symmetry_space_group_name_H-M   'P 1'
_cell_length_a   6.89339049
_cell_length_b   7.91254584
_cell_length_c   9.93819500
_cell_angle_alpha   90.00000000
_cell_angle_beta   90.00000000
_cell_angle_gamma   108.04192672
_symmetry_Int_Tables_number   1
_chemical_formula_structural   ZnB3H3O7
_chemical_formula_sum   'Zn4 B12 H12 O28'
_cell_volume   515.41798831
_cell_formula_units_Z   4
loop_
 _symmetry_equiv_pos_site_id
 _symmetry_equiv_pos_as_xyz
  1  'x, y, z'
loop_
 _atom_site_type_symbol
 _atom_site_label
 _atom_site_symmetry_multiplicity
 _atom_site_fract_x
 _atom_site_fract_y
 _atom_site_fract_z
 _atom_site_occupancy
  Zn  Zn0  1  0.57356598  0.35149410  0.77885860  1
  Zn  Zn1  1  0.07356598  0.85149410  0.72114140  1
  Zn  Zn2  1  0.42643402  0.64850590  0.22114140  1
  Zn  Zn3  1  0.92643402  0.14850590  0.27885860  1
  B  B4  1  0.60475239  0.71253170  0.66996762  1
  B  B5  1  0.10475239  0.21253170  0.83003238  1
  B  B6  1  0.39524761  0.28746830  0.33003238  1
  B  B7  1  0.89524761  0.78746830  0.16996762  1
  B  B8  1  0.25056568  0.48175673  0.67020064  1
  B  B9  1  0.75056568  0.98175673  0.82979936  1
  B  B10  1  0.74943432  0.51824327  0.32979936  1
  B  B11  1  0.24943432  0.01824327  0.17020064  1
  B  B12  1  0.33090542  0.74407639  0.51611849  1
  B  B13  1  0.83090542  0.24407639  0.98388151  1
  B  B14  1  0.66909458  0.25592361  0.48388151  1
  B  B15  1  0.16909458  0.75592361  0.01611849  1
  H  H16  1  0.82309240  0.51175268  0.97281963  1
  H  H17  1  0.32309240  0.01175268  0.52718037  1
  H  H18  1  0.17690760  0.48824732  0.02718037  1
  H  H19  1  0.67690760  0.98824732  0.47281963  1
  H  H20  1  0.85378730  0.28955166  0.65068098  1
  H  H21  1  0.35378730  0.78955166  0.84931902  1
  H  H22  1  0.14621270  0.71044834  0.34931902  1
  H  H23  1  0.64621270  0.21044834  0.15068098  1
  H  H24  1  0.32279797  0.11368575  0.91908917  1
  H  H25  1  0.82279797  0.61368575  0.58091083  1
  H  H26  1  0.67720203  0.88631425  0.08091083  1
  H  H27  1  0.17720203  0.38631425  0.41908917  1
  O  O28  1  0.45384634  0.53297319  0.71176191  1
  O  O29  1  0.95384634  0.03297319  0.78823809  1
  O  O30  1  0.54615366  0.46702681  0.28823809  1
  O  O31  1  0.04615366  0.96702681  0.21176191  1
  O  O32  1  0.19227992  0.58161999  0.57612398  1
  O  O33  1  0.69227992  0.08161999  0.92387602  1
  O  O34  1  0.80772008  0.41838001  0.42387602  1
  O  O35  1  0.30772008  0.91838001  0.07612398  1
  O  O36  1  0.54407456  0.76930321  0.54325158  1
  O  O37  1  0.04407456  0.26930321  0.95674842  1
  O  O38  1  0.45592544  0.23069679  0.45674842  1
  O  O39  1  0.95592544  0.73069679  0.04325158  1
  O  O40  1  0.60837040  0.83138715  0.78416035  1
  O  O41  1  0.10837040  0.33138715  0.71583965  1
  O  O42  1  0.39162960  0.16861285  0.21583965  1
  O  O43  1  0.89162960  0.66861285  0.28416035  1
  O  O44  1  0.75927854  0.39354567  0.93076082  1
  O  O45  1  0.25927854  0.89354567  0.56923918  1
  O  O46  1  0.24072146  0.60645433  0.06923918  1
  O  O47  1  0.74072146  0.10645433  0.43076082  1
  O  O48  1  0.70538794  0.26222234  0.63209726  1
  O  O49  1  0.20538794  0.76222234  0.86790274  1
  O  O50  1  0.29461206  0.73777766  0.36790274  1
  O  O51  1  0.79461206  0.23777766  0.13209726  1
  O  O52  1  0.30694027  0.18050893  0.83898337  1
  O  O53  1  0.80694027  0.68050893  0.66101663  1
  O  O54  1  0.69305973  0.81949107  0.16101663  1
  O  O55  1  0.19305973  0.31949107  0.33898337  1
