# generated using pymatgen
data_BaV2ZnO7
_symmetry_space_group_name_H-M   'P 1'
_cell_length_a   5.66717117
_cell_length_b   7.60741859
_cell_length_c   15.41664265
_cell_angle_alpha   90.00000000
_cell_angle_beta   90.00000000
_cell_angle_gamma   96.59133293
_symmetry_Int_Tables_number   1
_chemical_formula_structural   BaV2ZnO7
_chemical_formula_sum   'Ba4 V8 Zn4 O28'
_cell_volume   660.25742701
_cell_formula_units_Z   4
loop_
 _symmetry_equiv_pos_site_id
 _symmetry_equiv_pos_as_xyz
  1  'x, y, z'
loop_
 _atom_site_type_symbol
 _atom_site_label
 _atom_site_symmetry_multiplicity
 _atom_site_fract_x
 _atom_site_fract_y
 _atom_site_fract_z
 _atom_site_occupancy
  Ba  Ba0  1  0.21531579  0.64537278  0.21528239  1
  Ba  Ba1  1  0.71531579  0.14537278  0.28471761  1
  Ba  Ba2  1  0.78468421  0.35462722  0.78471761  1
  Ba  Ba3  1  0.28468421  0.85462722  0.71528239  1
  V  V4  1  0.24825308  0.16690068  0.13380604  1
  V  V5  1  0.74825308  0.66690068  0.36619396  1
  V  V6  1  0.75174692  0.83309932  0.86619396  1
  V  V7  1  0.25174692  0.33309932  0.63380604  1
  V  V8  1  0.29577977  0.21269139  0.93798276  1
  V  V9  1  0.79577977  0.71269139  0.56201724  1
  V  V10  1  0.70422023  0.78730861  0.06201724  1
  V  V11  1  0.20422023  0.28730861  0.43798276  1
  Zn  Zn12  1  0.29139641  0.86887273  0.44922818  1
  Zn  Zn13  1  0.79139641  0.36887273  0.05077182  1
  Zn  Zn14  1  0.70860359  0.13112727  0.55077182  1
  Zn  Zn15  1  0.20860359  0.63112727  0.94922818  1
  O  O16  1  0.25432242  0.02237941  0.21691362  1
  O  O17  1  0.75432242  0.52237941  0.28308638  1
  O  O18  1  0.74567758  0.97762059  0.78308638  1
  O  O19  1  0.24567758  0.47762059  0.71691362  1
  O  O20  1  0.24442915  0.05882965  0.02834981  1
  O  O21  1  0.74442915  0.55882965  0.47165019  1
  O  O22  1  0.75557085  0.94117035  0.97165019  1
  O  O23  1  0.25557085  0.44117035  0.52834981  1
  O  O24  1  0.27050359  0.11645394  0.83980771  1
  O  O25  1  0.77050359  0.61645394  0.66019229  1
  O  O26  1  0.72949641  0.88354606  0.16019229  1
  O  O27  1  0.22949641  0.38354606  0.33980771  1
  O  O28  1  0.58051816  0.32081283  0.94802346  1
  O  O29  1  0.08051816  0.82081283  0.55197654  1
  O  O30  1  0.41948184  0.67918717  0.05197654  1
  O  O31  1  0.91948184  0.17918717  0.44802346  1
  O  O32  1  0.08935034  0.36930334  0.94612315  1
  O  O33  1  0.58935034  0.86930334  0.55387685  1
  O  O34  1  0.91064966  0.63069666  0.05387685  1
  O  O35  1  0.41064966  0.13069666  0.44612315  1
  O  O36  1  0.00495773  0.28965943  0.14341619  1
  O  O37  1  0.50495773  0.78965943  0.35658381  1
  O  O38  1  0.99504227  0.71034057  0.85658381  1
  O  O39  1  0.49504227  0.21034057  0.64341619  1
  O  O40  1  0.50752656  0.30876769  0.13818457  1
  O  O41  1  0.00752656  0.80876769  0.36181543  1
  O  O42  1  0.49247344  0.69123231  0.86181543  1
  O  O43  1  0.99247344  0.19123231  0.63818457  1
