# generated using pymatgen
data_Sr3(SnAs2)2
_symmetry_space_group_name_H-M   'P 1'
_cell_length_a   7.81314390
_cell_length_b   7.81247800
_cell_length_c   19.42399992
_cell_angle_alpha   90.00000000
_cell_angle_beta   90.00000000
_cell_angle_gamma   111.77615030
_symmetry_Int_Tables_number   1
_chemical_formula_structural   Sr3(SnAs2)2
_chemical_formula_sum   'Sr12 Sn8 As16'
_cell_volume   1101.03427515
_cell_formula_units_Z   4
loop_
 _symmetry_equiv_pos_site_id
 _symmetry_equiv_pos_as_xyz
  1  'x, y, z'
loop_
 _atom_site_type_symbol
 _atom_site_label
 _atom_site_symmetry_multiplicity
 _atom_site_fract_x
 _atom_site_fract_y
 _atom_site_fract_z
 _atom_site_occupancy
  Sr  Sr0  1  0.51038264  0.21159323  0.68251502  1
  Sr  Sr1  1  0.98961736  0.78840677  0.18251502  1
  Sr  Sr2  1  0.48961736  0.78840677  0.31748498  1
  Sr  Sr3  1  0.01038264  0.21159323  0.81748498  1
  Sr  Sr4  1  0.51111479  0.25861164  0.94026307  1
  Sr  Sr5  1  0.98888521  0.74138836  0.44026307  1
  Sr  Sr6  1  0.48888521  0.74138836  0.05973693  1
  Sr  Sr7  1  0.01111479  0.25861164  0.55973693  1
  Sr  Sr8  1  0.50474832  0.26314080  0.43862884  1
  Sr  Sr9  1  0.99525168  0.73685920  0.93862884  1
  Sr  Sr10  1  0.49525168  0.73685920  0.56137116  1
  Sr  Sr11  1  0.00474832  0.26314080  0.06137116  1
  Sn  Sn12  1  0.52886393  0.20760695  0.12242421  1
  Sn  Sn13  1  0.97113607  0.79239305  0.62242421  1
  Sn  Sn14  1  0.47113607  0.79239305  0.87757579  1
  Sn  Sn15  1  0.02886393  0.20760695  0.37757579  1
  Sn  Sn16  1  0.90980651  0.32176450  0.25602268  1
  Sn  Sn17  1  0.59019349  0.67823550  0.75602268  1
  Sn  Sn18  1  0.09019349  0.67823550  0.74397732  1
  Sn  Sn19  1  0.40980651  0.32176450  0.24397732  1
  As  As20  1  0.75945808  0.00419078  0.94534287  1
  As  As21  1  0.74054192  0.99580922  0.44534287  1
  As  As22  1  0.24054192  0.99580922  0.05465713  1
  As  As23  1  0.25945808  0.00419078  0.55465713  1
  As  As24  1  0.72194837  0.02310585  0.18261738  1
  As  As25  1  0.77805163  0.97689415  0.68261738  1
  As  As26  1  0.27805163  0.97689415  0.81738262  1
  As  As27  1  0.22194837  0.02310585  0.31738262  1
  As  As28  1  0.75342654  0.50928700  0.06336641  1
  As  As29  1  0.74657346  0.49071300  0.56336641  1
  As  As30  1  0.24657346  0.49071300  0.93663359  1
  As  As31  1  0.25342654  0.50928700  0.43663359  1
  As  As32  1  0.72713551  0.52639951  0.30552409  1
  As  As33  1  0.77286449  0.47360049  0.80552409  1
  As  As34  1  0.27286449  0.47360049  0.69447591  1
  As  As35  1  0.22713551  0.52639951  0.19447591  1
