# generated using pymatgen
data_SiO2
_symmetry_space_group_name_H-M   'P 1'
_cell_length_a   13.66879041
_cell_length_b   20.34308244
_cell_length_c   20.53570005
_cell_angle_alpha   90.00000000
_cell_angle_beta   90.00000000
_cell_angle_gamma   90.00000000
_symmetry_Int_Tables_number   1
_chemical_formula_structural   SiO2
_chemical_formula_sum   'Si96 O192'
_cell_volume   5710.26621459
_cell_formula_units_Z   96
loop_
 _symmetry_equiv_pos_site_id
 _symmetry_equiv_pos_as_xyz
  1  'x, y, z'
loop_
 _atom_site_type_symbol
 _atom_site_label
 _atom_site_symmetry_multiplicity
 _atom_site_fract_x
 _atom_site_fract_y
 _atom_site_fract_z
 _atom_site_occupancy
  Si  Si0  1  0.16483040  0.94307418  0.07688527  1
  Si  Si1  1  0.33516960  0.55692582  0.57688527  1
  Si  Si2  1  0.83516960  0.44307418  0.92311473  1
  Si  Si3  1  0.66483040  0.05692582  0.42311473  1
  Si  Si4  1  0.83516960  0.05692582  0.92311473  1
  Si  Si5  1  0.66483040  0.44307418  0.42311473  1
  Si  Si6  1  0.16483040  0.55692582  0.07688527  1
  Si  Si7  1  0.33516960  0.94307418  0.57688527  1
  Si  Si8  1  0.31295589  0.97067748  0.19158090  1
  Si  Si9  1  0.18704411  0.52932252  0.69158090  1
  Si  Si10  1  0.68704411  0.47067748  0.80841910  1
  Si  Si11  1  0.81295589  0.02932252  0.30841910  1
  Si  Si12  1  0.68704411  0.02932252  0.80841910  1
  Si  Si13  1  0.81295589  0.47067748  0.30841910  1
  Si  Si14  1  0.31295589  0.52932252  0.19158090  1
  Si  Si15  1  0.18704411  0.97067748  0.69158090  1
  Si  Si16  1  0.53253280  0.93794767  0.22056204  1
  Si  Si17  1  0.96746720  0.56205233  0.72056204  1
  Si  Si18  1  0.46746720  0.43794767  0.77943796  1
  Si  Si19  1  0.03253280  0.06205233  0.27943796  1
  Si  Si20  1  0.46746720  0.06205233  0.77943796  1
  Si  Si21  1  0.03253280  0.43794767  0.27943796  1
  Si  Si22  1  0.53253280  0.56205233  0.22056204  1
  Si  Si23  1  0.96746720  0.93794767  0.72056204  1
  Si  Si24  1  0.52822686  0.93584919  0.37799053  1
  Si  Si25  1  0.97177314  0.56415081  0.87799053  1
  Si  Si26  1  0.47177314  0.43584919  0.62200947  1
  Si  Si27  1  0.02822686  0.06415081  0.12200947  1
  Si  Si28  1  0.47177314  0.06415081  0.62200947  1
  Si  Si29  1  0.02822686  0.43584919  0.12200947  1
  Si  Si30  1  0.52822686  0.56415081  0.37799053  1
  Si  Si31  1  0.97177314  0.93584919  0.87799053  1
  Si  Si32  1  0.31590750  0.97159888  0.42847927  1
  Si  Si33  1  0.18409250  0.52840112  0.92847927  1
  Si  Si34  1  0.68409250  0.47159888  0.57152073  1
  Si  Si35  1  0.81590750  0.02840112  0.07152073  1
  Si  Si36  1  0.68409250  0.02840112  0.57152073  1
  Si  Si37  1  0.81590750  0.47159888  0.07152073  1
  Si  Si38  1  0.31590750  0.52840112  0.42847927  1
  Si  Si39  1  0.18409250  0.97159888  0.92847927  1
  Si  Si40  1  0.17384565  0.94086444  0.31314990  1
  Si  Si41  1  0.32615435  0.55913556  0.81314990  1
  Si  Si42  1  0.82615435  0.44086444  0.68685010  1
  Si  Si43  1  0.67384565  0.05913556  0.18685010  1
  Si  Si44  1  0.82615435  0.05913556  0.68685010  1
  Si  Si45  1  0.67384565  0.44086444  0.18685010  1
  Si  Si46  1  0.17384565  0.55913556  0.31314990  1
  Si  Si47  1  0.32615435  0.94086444  0.81314990  1
  Si  Si48  1  0.17637899  0.17211848  0.07657203  1
  Si  Si49  1  0.32362101  0.32788152  0.57657203  1
  Si  Si50  1  0.82362101  0.67211848  0.92342797  1
  Si  Si51  1  0.67637899  0.82788152  0.42342797  1
  Si  Si52  1  0.82362101  0.82788152  0.92342797  1
  Si  Si53  1  0.67637899  0.67211848  0.42342797  1
  Si  Si54  1  0.17637899  0.32788152  0.07657203  1
  Si  Si55  1  0.32362101  0.17211848  0.57657203  1
  Si  Si56  1  0.31826773  0.12951451  0.19116982  1
  Si  Si57  1  0.18173227  0.37048549  0.69116982  1
  Si  Si58  1  0.68173227  0.62951451  0.80883018  1
  Si  Si59  1  0.81826773  0.87048549  0.30883018  1
  Si  Si60  1  0.68173227  0.87048549  0.80883018  1
  Si  Si61  1  0.81826773  0.62951451  0.30883018  1
  Si  Si62  1  0.31826773  0.37048549  0.19116982  1
  Si  Si63  1  0.18173227  0.12951451  0.69116982  1
  Si  Si64  1  0.53370874  0.17277920  0.22593705  1
  Si  Si65  1  0.96629126  0.32722080  0.72593705  1
  Si  Si66  1  0.46629126  0.67277920  0.77406295  1
  Si  Si67  1  0.03370874  0.82722080  0.27406295  1
  Si  Si68  1  0.46629126  0.82722080  0.77406295  1
  Si  Si69  1  0.03370874  0.67277920  0.27406295  1
  Si  Si70  1  0.53370874  0.32722080  0.22593705  1
  Si  Si71  1  0.96629126  0.17277920  0.72593705  1
  Si  Si72  1  0.53002863  0.17357264  0.38021707  1
  Si  Si73  1  0.96997137  0.32642736  0.88021707  1
  Si  Si74  1  0.46997137  0.67357264  0.61978293  1
  Si  Si75  1  0.03002863  0.82642736  0.11978293  1
  Si  Si76  1  0.46997137  0.82642736  0.61978293  1
  Si  Si77  1  0.03002863  0.67357264  0.11978293  1
  Si  Si78  1  0.53002863  0.32642736  0.38021707  1
  Si  Si79  1  0.96997137  0.17357264  0.88021707  1
  Si  Si80  1  0.31804081  0.12977983  0.42975229  1
  Si  Si81  1  0.18195919  0.37022017  0.92975229  1
  Si  Si82  1  0.68195919  0.62977983  0.57024771  1
  Si  Si83  1  0.81804081  0.87022017  0.07024771  1
  Si  Si84  1  0.68195919  0.87022017  0.57024771  1
  Si  Si85  1  0.81804081  0.62977983  0.07024771  1
  Si  Si86  1  0.31804081  0.37022017  0.42975229  1
  Si  Si87  1  0.18195919  0.12977983  0.92975229  1
  Si  Si88  1  0.18308457  0.17301384  0.31218570  1
  Si  Si89  1  0.31691543  0.32698616  0.81218570  1
  Si  Si90  1  0.81691543  0.67301384  0.68781430  1
  Si  Si91  1  0.68308457  0.82698616  0.18781430  1
  Si  Si92  1  0.81691543  0.82698616  0.68781430  1
  Si  Si93  1  0.68308457  0.67301384  0.18781430  1
  Si  Si94  1  0.18308457  0.32698616  0.31218570  1
  Si  Si95  1  0.31691543  0.17301384  0.81218570  1
  O  O96  1  0.25607783  0.94471846  0.12731001  1
  O  O97  1  0.24392217  0.55528154  0.62731001  1
  O  O98  1  0.74392217  0.44471846  0.87268999  1
  O  O99  1  0.75607783  0.05528154  0.37268999  1
  O  O100  1  0.74392217  0.05528154  0.87268999  1
  O  O101  1  0.75607783  0.44471846  0.37268999  1
  O  O102  1  0.25607783  0.55528154  0.12731001  1
  O  O103  1  0.24392217  0.94471846  0.62731001  1
  O  O104  1  0.42267330  0.94051848  0.19096508  1
  O  O105  1  0.07732670  0.55948152  0.69096508  1
  O  O106  1  0.57732670  0.44051848  0.80903492  1
  O  O107  1  0.92267330  0.05948152  0.30903492  1
  O  O108  1  0.57732670  0.05948152  0.80903492  1
  O  O109  1  0.92267330  0.44051848  0.30903492  1
  O  O110  1  0.42267330  0.55948152  0.19096508  1
  O  O111  1  0.07732670  0.94051848  0.69096508  1
  O  O112  1  0.52848592  0.94049468  0.29937146  1
  O  O113  1  0.97151408  0.55950532  0.79937146  1
  O  O114  1  0.47151408  0.44049468  0.70062854  1
  O  O115  1  0.02848592  0.05950532  0.20062854  1
  O  O116  1  0.47151408  0.05950532  0.70062854  1
  O  O117  1  0.02848592  0.44049468  0.20062854  1
  O  O118  1  0.52848592  0.55950532  0.29937146  1
  O  O119  1  0.97151408  0.94049468  0.79937146  1
  O  O120  1  0.41693492  0.93703971  0.40471471  1
  O  O121  1  0.08306508  0.56296029  0.90471471  1
  O  O122  1  0.58306508  0.43703971  0.59528529  1
  O  O123  1  0.91693492  0.06296029  0.09528529  1
  O  O124  1  0.58306508  0.06296029  0.59528529  1
  O  O125  1  0.91693492  0.43703971  0.09528529  1
  O  O126  1  0.41693492  0.56296029  0.40471471  1
  O  O127  1  0.08306508  0.93703971  0.90471471  1
  O  O128  1  0.22569508  0.94603403  0.38393148  1
  O  O129  1  0.27430492  0.55396597  0.88393148  1
  O  O130  1  0.77430492  0.44603403  0.61606852  1
  O  O131  1  0.72569508  0.05396597  0.11606852  1
  O  O132  1  0.77430492  0.05396597  0.61606852  1
  O  O133  1  0.72569508  0.44603403  0.11606852  1
  O  O134  1  0.22569508  0.55396597  0.38393148  1
  O  O135  1  0.27430492  0.94603403  0.88393148  1
  O  O136  1  0.25646806  0.94658376  0.25670643  1
  O  O137  1  0.24353194  0.55341624  0.75670643  1
  O  O138  1  0.74353194  0.44658376  0.74329357  1
  O  O139  1  0.75646806  0.05341624  0.24329357  1
  O  O140  1  0.74353194  0.05341624  0.74329357  1
  O  O141  1  0.75646806  0.44658376  0.24329357  1
  O  O142  1  0.25646806  0.55341624  0.25670643  1
  O  O143  1  0.24353194  0.94658376  0.75670643  1
  O  O144  1  0.26614170  0.15666374  0.12577204  1
  O  O145  1  0.23385830  0.34333626  0.62577204  1
  O  O146  1  0.73385830  0.65666374  0.87422796  1
  O  O147  1  0.76614170  0.84333626  0.37422796  1
  O  O148  1  0.73385830  0.84333626  0.87422796  1
  O  O149  1  0.76614170  0.65666374  0.37422796  1
  O  O150  1  0.26614170  0.34333626  0.12577204  1
  O  O151  1  0.23385830  0.15666374  0.62577204  1
  O  O152  1  0.42987842  0.15593102  0.19172497  1
  O  O153  1  0.07012158  0.34406898  0.69172497  1
  O  O154  1  0.57012158  0.65593102  0.80827503  1
  O  O155  1  0.92987842  0.84406898  0.30827503  1
  O  O156  1  0.57012158  0.84406898  0.80827503  1
  O  O157  1  0.92987842  0.65593102  0.30827503  1
  O  O158  1  0.42987842  0.34406898  0.19172497  1
  O  O159  1  0.07012158  0.15593102  0.69172497  1
  O  O160  1  0.52730696  0.15471952  0.30312702  1
  O  O161  1  0.97269304  0.34528048  0.80312702  1
  O  O162  1  0.47269304  0.65471952  0.69687298  1
  O  O163  1  0.02730696  0.84528048  0.19687298  1
  O  O164  1  0.47269304  0.84528048  0.69687298  1
  O  O165  1  0.02730696  0.65471952  0.19687298  1
  O  O166  1  0.52730696  0.34528048  0.30312702  1
  O  O167  1  0.97269304  0.15471952  0.80312702  1
  O  O168  1  0.42220112  0.16291028  0.41112903  1
  O  O169  1  0.07779888  0.33708972  0.91112903  1
  O  O170  1  0.57779888  0.66291028  0.58887097  1
  O  O171  1  0.92220112  0.83708972  0.08887097  1
  O  O172  1  0.57779888  0.83708972  0.58887097  1
  O  O173  1  0.92220112  0.66291028  0.08887097  1
  O  O174  1  0.42220112  0.33708972  0.41112903  1
  O  O175  1  0.07779888  0.16291028  0.91112903  1
  O  O176  1  0.23273389  0.15763879  0.38236237  1
  O  O177  1  0.26726611  0.34236121  0.88236237  1
  O  O178  1  0.76726611  0.65763879  0.61763763  1
  O  O179  1  0.73273389  0.84236121  0.11763763  1
  O  O180  1  0.76726611  0.84236121  0.61763763  1
  O  O181  1  0.73273389  0.65763879  0.11763763  1
  O  O182  1  0.23273389  0.34236121  0.38236237  1
  O  O183  1  0.26726611  0.15763879  0.88236237  1
  O  O184  1  0.26124583  0.15573263  0.25522655  1
  O  O185  1  0.23875417  0.34426737  0.75522655  1
  O  O186  1  0.73875417  0.65573263  0.74477345  1
  O  O187  1  0.76124583  0.84426737  0.24477345  1
  O  O188  1  0.73875417  0.84426737  0.74477345  1
  O  O189  1  0.76124583  0.65573263  0.24477345  1
  O  O190  1  0.26124583  0.34426737  0.25522655  1
  O  O191  1  0.23875417  0.15573263  0.75522655  1
  O  O192  1  0.31765562  0.05005509  0.19121526  1
  O  O193  1  0.18234438  0.44994491  0.69121526  1
  O  O194  1  0.68234438  0.55005509  0.80878474  1
  O  O195  1  0.81765562  0.94994491  0.30878474  1
  O  O196  1  0.68234438  0.94994491  0.80878474  1
  O  O197  1  0.81765562  0.55005509  0.30878474  1
  O  O198  1  0.31765562  0.44994491  0.19121526  1
  O  O199  1  0.18234438  0.05005509  0.69121526  1
  O  O200  1  0.32693284  0.05073261  0.42164694  1
  O  O201  1  0.17306716  0.44926739  0.92164694  1
  O  O202  1  0.67306716  0.55073261  0.57835306  1
  O  O203  1  0.82693284  0.94926739  0.07835306  1
  O  O204  1  0.67306716  0.94926739  0.57835306  1
  O  O205  1  0.82693284  0.55073261  0.07835306  1
  O  O206  1  0.32693284  0.44926739  0.42164694  1
  O  O207  1  0.17306716  0.05073261  0.92164694  1
  O  O208  1  0.10883151  0.87289579  0.08285110  1
  O  O209  1  0.39116849  0.62710421  0.58285110  1
  O  O210  1  0.89116849  0.37289579  0.91714890  1
  O  O211  1  0.60883151  0.12710421  0.41714890  1
  O  O212  1  0.89116849  0.12710421  0.91714890  1
  O  O213  1  0.60883151  0.37289579  0.41714890  1
  O  O214  1  0.10883151  0.62710421  0.08285110  1
  O  O215  1  0.39116849  0.87289579  0.58285110  1
  O  O216  1  0.08820105  0.00219624  0.09220652  1
  O  O217  1  0.41179895  0.49780376  0.59220652  1
  O  O218  1  0.91179895  0.50219624  0.90779348  1
  O  O219  1  0.58820105  0.99780376  0.40779348  1
  O  O220  1  0.91179895  0.99780376  0.90779348  1
  O  O221  1  0.58820105  0.50219624  0.40779348  1
  O  O222  1  0.08820105  0.49780376  0.09220652  1
  O  O223  1  0.41179895  0.00219624  0.59220652  1
  O  O224  1  0.07845217  0.13275623  0.09927490  1
  O  O225  1  0.42154783  0.36724377  0.59927490  1
  O  O226  1  0.92154783  0.63275623  0.90072510  1
  O  O227  1  0.57845217  0.86724377  0.40072510  1
  O  O228  1  0.92154783  0.86724377  0.90072510  1
  O  O229  1  0.57845217  0.63275623  0.40072510  1
  O  O230  1  0.07845217  0.36724377  0.09927490  1
  O  O231  1  0.42154783  0.13275623  0.59927490  1
  O  O232  1  0.11956120  0.87005837  0.30827329  1
  O  O233  1  0.38043880  0.62994163  0.80827329  1
  O  O234  1  0.88043880  0.37005837  0.69172671  1
  O  O235  1  0.61956120  0.12994163  0.19172671  1
  O  O236  1  0.88043880  0.12994163  0.69172671  1
  O  O237  1  0.61956120  0.37005837  0.19172671  1
  O  O238  1  0.11956120  0.62994163  0.30827329  1
  O  O239  1  0.38043880  0.87005837  0.80827329  1
  O  O240  1  0.09402050  0.99931214  0.30563109  1
  O  O241  1  0.40597950  0.50068786  0.80563109  1
  O  O242  1  0.90597950  0.49931214  0.69436891  1
  O  O243  1  0.59402050  0.00068786  0.19436891  1
  O  O244  1  0.90597950  0.00068786  0.69436891  1
  O  O245  1  0.59402050  0.49931214  0.19436891  1
  O  O246  1  0.09402050  0.50068786  0.30563109  1
  O  O247  1  0.40597950  0.99931214  0.80563109  1
  O  O248  1  0.08425317  0.12960720  0.30340141  1
  O  O249  1  0.41574683  0.37039280  0.80340141  1
  O  O250  1  0.91574683  0.62960720  0.69659859  1
  O  O251  1  0.58425317  0.87039280  0.19659859  1
  O  O252  1  0.91574683  0.87039280  0.69659859  1
  O  O253  1  0.58425317  0.62960720  0.19659859  1
  O  O254  1  0.08425317  0.37039280  0.30340141  1
  O  O255  1  0.41574683  0.12960720  0.80340141  1
  O  O256  1  0.29299085  0.95125189  0.50345202  1
  O  O257  1  0.20700915  0.54874811  0.00345202  1
  O  O258  1  0.70700915  0.45125189  0.49654798  1
  O  O259  1  0.79299085  0.04874811  0.99654798  1
  O  O260  1  0.70700915  0.04874811  0.49654798  1
  O  O261  1  0.79299085  0.45125189  0.99654798  1
  O  O262  1  0.29299085  0.54874811  0.50345202  1
  O  O263  1  0.20700915  0.95125189  0.00345202  1
  O  O264  1  0.29008920  0.14893729  0.50418994  1
  O  O265  1  0.20991080  0.35106271  0.00418994  1
  O  O266  1  0.70991080  0.64893729  0.49581006  1
  O  O267  1  0.79008920  0.85106271  0.99581006  1
  O  O268  1  0.70991080  0.85106271  0.49581006  1
  O  O269  1  0.79008920  0.64893729  0.99581006  1
  O  O270  1  0.29008920  0.35106271  0.50418994  1
  O  O271  1  0.20991080  0.14893729  0.00418994  1
  O  O272  1  0.15136921  0.25000000  0.07729392  1
  O  O273  1  0.34863079  0.25000000  0.57729392  1
  O  O274  1  0.84863079  0.75000000  0.92270608  1
  O  O275  1  0.65136921  0.75000000  0.42270608  1
  O  O276  1  0.15277158  0.25000000  0.30787939  1
  O  O277  1  0.34722842  0.25000000  0.80787939  1
  O  O278  1  0.84722842  0.75000000  0.69212061  1
  O  O279  1  0.65277158  0.75000000  0.19212061  1
  O  O280  1  0.55922605  0.25000000  0.21600362  1
  O  O281  1  0.94077395  0.25000000  0.71600362  1
  O  O282  1  0.44077395  0.75000000  0.78399638  1
  O  O283  1  0.05922605  0.75000000  0.28399638  1
  O  O284  1  0.56166513  0.25000000  0.38989411  1
  O  O285  1  0.93833487  0.25000000  0.88989411  1
  O  O286  1  0.43833487  0.75000000  0.61010589  1
  O  O287  1  0.06166513  0.75000000  0.11010589  1
