# generated using pymatgen
data_Ba4U2As6O25
_symmetry_space_group_name_H-M   'P 1'
_cell_length_a   5.73926584
_cell_length_b   13.56164100
_cell_length_c   32.20594479
_cell_angle_alpha   90.00000000
_cell_angle_beta   90.00000000
_cell_angle_gamma   90.00000000
_symmetry_Int_Tables_number   1
_chemical_formula_structural   Ba4U2As6O25
_chemical_formula_sum   'Ba16 U8 As24 O100'
_cell_volume   2506.71309218
_cell_formula_units_Z   4
loop_
 _symmetry_equiv_pos_site_id
 _symmetry_equiv_pos_as_xyz
  1  'x, y, z'
loop_
 _atom_site_type_symbol
 _atom_site_label
 _atom_site_symmetry_multiplicity
 _atom_site_fract_x
 _atom_site_fract_y
 _atom_site_fract_z
 _atom_site_occupancy
  Ba  Ba0  1  0.50528764  0.62360509  0.82935356  1
  Ba  Ba1  1  0.49471236  0.37639491  0.32935356  1
  Ba  Ba2  1  0.50528764  0.87639491  0.32935356  1
  Ba  Ba3  1  0.49471236  0.12360509  0.82935356  1
  Ba  Ba4  1  0.48242760  0.30092475  0.96308391  1
  Ba  Ba5  1  0.51757240  0.69907525  0.46308391  1
  Ba  Ba6  1  0.48242760  0.19907525  0.46308391  1
  Ba  Ba7  1  0.51757240  0.80092475  0.96308391  1
  Ba  Ba8  1  0.47554303  0.55185567  0.06032327  1
  Ba  Ba9  1  0.52445697  0.44814433  0.56032327  1
  Ba  Ba10  1  0.47554303  0.94814433  0.56032327  1
  Ba  Ba11  1  0.52445697  0.05185567  0.06032327  1
  Ba  Ba12  1  0.49728317  0.87240251  0.19245923  1
  Ba  Ba13  1  0.50271683  0.12759749  0.69245923  1
  Ba  Ba14  1  0.49728317  0.62759749  0.69245923  1
  Ba  Ba15  1  0.50271683  0.37240251  0.19245923  1
  U  U16  1  0.93439859  0.63579872  0.15938000  1
  U  U17  1  0.06560141  0.36420128  0.65938000  1
  U  U18  1  0.93439859  0.86420128  0.65938000  1
  U  U19  1  0.06560141  0.13579872  0.15938000  1
  U  U20  1  0.05985688  0.38707894  0.86269508  1
  U  U21  1  0.94014312  0.61292106  0.36269508  1
  U  U22  1  0.05985688  0.11292106  0.36269508  1
  U  U23  1  0.94014312  0.88707894  0.86269508  1
  As  As24  1  0.00216442  0.50993496  0.25876390  1
  As  As25  1  0.99783558  0.49006504  0.75876390  1
  As  As26  1  0.00216442  0.99006504  0.75876390  1
  As  As27  1  0.99783558  0.00993496  0.25876390  1
  As  As28  1  0.95105614  0.47349342  0.97349489  1
  As  As29  1  0.04894386  0.52650658  0.47349489  1
  As  As30  1  0.95105614  0.02650658  0.47349489  1
  As  As31  1  0.04894386  0.97349342  0.97349489  1
  As  As32  1  0.99612263  0.26130363  0.76308850  1
  As  As33  1  0.00387737  0.73869637  0.26308850  1
  As  As34  1  0.99612263  0.23869637  0.26308850  1
  As  As35  1  0.00387737  0.76130363  0.76308850  1
  As  As36  1  0.01903975  0.72331073  0.04856511  1
  As  As37  1  0.98096025  0.27668927  0.54856511  1
  As  As38  1  0.01903975  0.77668927  0.54856511  1
  As  As39  1  0.98096025  0.22331073  0.04856511  1
  As  As40  1  0.00345029  0.13799624  0.90416041  1
  As  As41  1  0.99654971  0.86200376  0.40416041  1
  As  As42  1  0.00345029  0.36200376  0.40416041  1
  As  As43  1  0.99654971  0.63799624  0.90416041  1
  As  As44  1  0.99070418  0.38723873  0.11818691  1
  As  As45  1  0.00929582  0.61276127  0.61818691  1
  As  As46  1  0.99070418  0.11276127  0.61818691  1
  As  As47  1  0.00929582  0.88723873  0.11818691  1
  O  O48  1  0.83996988  0.37587468  0.76080752  1
  O  O49  1  0.16003012  0.62412532  0.26080752  1
  O  O50  1  0.83996988  0.12412532  0.26080752  1
  O  O51  1  0.16003012  0.87587468  0.76080752  1
  O  O52  1  0.16851365  0.26752819  0.71937656  1
  O  O53  1  0.83148635  0.73247181  0.21937656  1
  O  O54  1  0.16851365  0.23247181  0.21937656  1
  O  O55  1  0.83148635  0.76752819  0.71937656  1
  O  O56  1  0.22708097  0.42867865  0.25958118  1
  O  O57  1  0.77291903  0.57132135  0.75958118  1
  O  O58  1  0.22708097  0.07132135  0.75958118  1
  O  O59  1  0.77291903  0.92867865  0.25958118  1
  O  O60  1  0.15906538  0.26456289  0.80789611  1
  O  O61  1  0.84093462  0.73543711  0.30789611  1
  O  O62  1  0.15906538  0.23543711  0.30789611  1
  O  O63  1  0.84093462  0.76456289  0.80789611  1
  O  O64  1  0.06061464  0.64311025  0.08998695  1
  O  O65  1  0.93938536  0.35688975  0.58998695  1
  O  O66  1  0.06061464  0.85688975  0.58998695  1
  O  O67  1  0.93938536  0.14311025  0.08998695  1
  O  O68  1  0.77088019  0.18026309  0.76199916  1
  O  O69  1  0.22911981  0.81973691  0.26199916  1
  O  O70  1  0.77088019  0.31973691  0.26199916  1
  O  O71  1  0.22911981  0.68026309  0.76199916  1
  O  O72  1  0.83123870  0.51601090  0.30259358  1
  O  O73  1  0.16876130  0.48398910  0.80259358  1
  O  O74  1  0.83123870  0.98398910  0.80259358  1
  O  O75  1  0.16876130  0.01601090  0.30259358  1
  O  O76  1  0.09228507  0.04853060  0.86971474  1
  O  O77  1  0.90771493  0.95146940  0.36971474  1
  O  O78  1  0.09228507  0.45146940  0.36971474  1
  O  O79  1  0.90771493  0.54853060  0.86971474  1
  O  O80  1  0.80273431  0.48461734  0.12619048  1
  O  O81  1  0.19726569  0.51538266  0.62619048  1
  O  O82  1  0.80273431  0.01538266  0.62619048  1
  O  O83  1  0.19726569  0.98461734  0.12619048  1
  O  O84  1  0.70802480  0.45644945  0.00188642  1
  O  O85  1  0.29197520  0.54355055  0.50188642  1
  O  O86  1  0.70802480  0.04355055  0.50188642  1
  O  O87  1  0.29197520  0.95644945  0.00188642  1
  O  O88  1  0.83819600  0.51353514  0.21401937  1
  O  O89  1  0.16180400  0.48646486  0.71401937  1
  O  O90  1  0.83819600  0.98646486  0.71401937  1
  O  O91  1  0.16180400  0.01353514  0.21401937  1
  O  O92  1  0.76970040  0.34648768  0.84821139  1
  O  O93  1  0.23029960  0.65351232  0.34821139  1
  O  O94  1  0.76970040  0.15351232  0.34821139  1
  O  O95  1  0.23029960  0.84648768  0.84821139  1
  O  O96  1  0.65029636  0.68130428  0.14191858  1
  O  O97  1  0.34970364  0.31869572  0.64191858  1
  O  O98  1  0.65029636  0.81869572  0.64191858  1
  O  O99  1  0.34970364  0.18130428  0.14191858  1
  O  O100  1  0.34375464  0.43128252  0.88073827  1
  O  O101  1  0.65624536  0.56871748  0.38073827  1
  O  O102  1  0.34375464  0.06871748  0.38073827  1
  O  O103  1  0.65624536  0.93128252  0.88073827  1
  O  O104  1  0.90687194  0.29714368  0.15265034  1
  O  O105  1  0.09312806  0.70285632  0.65265034  1
  O  O106  1  0.90687194  0.20285632  0.65265034  1
  O  O107  1  0.09312806  0.79714368  0.15265034  1
  O  O108  1  0.18799500  0.23634491  0.89556138  1
  O  O109  1  0.81200500  0.76365509  0.39556138  1
  O  O110  1  0.18799500  0.26365509  0.39556138  1
  O  O111  1  0.81200500  0.73634491  0.89556138  1
  O  O112  1  0.27593493  0.41660537  0.11893161  1
  O  O113  1  0.72406507  0.58339463  0.61893161  1
  O  O114  1  0.27593493  0.08339463  0.61893161  1
  O  O115  1  0.72406507  0.91660537  0.11893161  1
  O  O116  1  0.93077655  0.39341525  0.93169414  1
  O  O117  1  0.06922345  0.60658475  0.43169414  1
  O  O118  1  0.93077655  0.10658475  0.43169414  1
  O  O119  1  0.06922345  0.89341525  0.93169414  1
  O  O120  1  0.91119309  0.34537305  0.06797665  1
  O  O121  1  0.08880691  0.65462695  0.56797665  1
  O  O122  1  0.91119309  0.15462695  0.56797665  1
  O  O123  1  0.08880691  0.84537305  0.06797665  1
  O  O124  1  0.21362683  0.46316199  0.99632745  1
  O  O125  1  0.78637317  0.53683801  0.49632745  1
  O  O126  1  0.21362683  0.03683801  0.49632745  1
  O  O127  1  0.78637317  0.96316199  0.99632745  1
  O  O128  1  0.74085996  0.71875447  0.03186110  1
  O  O129  1  0.25914004  0.28124553  0.53186110  1
  O  O130  1  0.74085996  0.78124553  0.53186110  1
  O  O131  1  0.25914004  0.21875447  0.03186110  1
  O  O132  1  0.23749260  0.70183700  0.01482251  1
  O  O133  1  0.76250740  0.29816300  0.51482251  1
  O  O134  1  0.23749260  0.79816300  0.51482251  1
  O  O135  1  0.76250740  0.20183700  0.01482251  1
  O  O136  1  0.22491580  0.59450551  0.17298461  1
  O  O137  1  0.77508420  0.40549449  0.67298461  1
  O  O138  1  0.22491580  0.90549449  0.67298461  1
  O  O139  1  0.77508420  0.09450551  0.17298461  1
  O  O140  1  0.90302640  0.59792708  0.95398877  1
  O  O141  1  0.09697360  0.40207292  0.45398877  1
  O  O142  1  0.90302640  0.90207292  0.45398877  1
  O  O143  1  0.09697360  0.09792708  0.95398877  1
  O  O144  1  0.71736559  0.16492362  0.90349938  1
  O  O145  1  0.28263441  0.83507638  0.40349938  1
  O  O146  1  0.71736559  0.33507638  0.40349938  1
  O  O147  1  0.28263441  0.66492362  0.90349938  1
