# generated using pymatgen
data_Mn6Ga29
_symmetry_space_group_name_H-M   'P 1'
_cell_length_a   6.30805211
_cell_length_b   9.94309125
_cell_length_c   18.91275559
_cell_angle_alpha   90.54833756
_cell_angle_beta   91.03770737
_cell_angle_gamma   90.42918432
_symmetry_Int_Tables_number   1
_chemical_formula_structural   Mn6Ga29
_chemical_formula_sum   'Mn12 Ga58'
_cell_volume   1185.95340355
_cell_formula_units_Z   2
loop_
 _symmetry_equiv_pos_site_id
 _symmetry_equiv_pos_as_xyz
  1  'x, y, z'
loop_
 _atom_site_type_symbol
 _atom_site_label
 _atom_site_symmetry_multiplicity
 _atom_site_fract_x
 _atom_site_fract_y
 _atom_site_fract_z
 _atom_site_occupancy
  Mn  Mn0  1  0.99815595  0.15897887  0.66463795  1
  Mn  Mn1  1  0.00184405  0.84102113  0.33536205  1
  Mn  Mn2  1  0.99619744  0.84611110  0.99489254  1
  Mn  Mn3  1  0.00380256  0.15388890  0.00510746  1
  Mn  Mn4  1  0.50521807  0.65392536  0.50393262  1
  Mn  Mn5  1  0.49478193  0.34607464  0.49606738  1
  Mn  Mn6  1  0.50136785  0.33754500  0.83492174  1
  Mn  Mn7  1  0.49863215  0.66245500  0.16507826  1
  Mn  Mn8  1  0.49033524  0.64715818  0.82732469  1
  Mn  Mn9  1  0.50966476  0.35284182  0.17267531  1
  Mn  Mn10  1  0.01314399  0.85010895  0.67166808  1
  Mn  Mn11  1  0.98685601  0.14989105  0.32833192  1
  Ga  Ga12  1  0.97492546  0.42548376  0.66313110  1
  Ga  Ga13  1  0.02507454  0.57451624  0.33686890  1
  Ga  Ga14  1  0.96968566  0.98675577  0.22772981  1
  Ga  Ga15  1  0.03031434  0.01324423  0.77227019  1
  Ga  Ga16  1  0.95390658  0.99284044  0.56222824  1
  Ga  Ga17  1  0.04609342  0.00715956  0.43777176  1
  Ga  Ga18  1  0.94436808  0.60674494  0.97843688  1
  Ga  Ga19  1  0.05563192  0.39325506  0.02156312  1
  Ga  Ga20  1  0.93671121  0.01260957  0.89602463  1
  Ga  Ga21  1  0.06328879  0.98739043  0.10397537  1
  Ga  Ga22  1  0.81673348  0.49143466  0.51927642  1
  Ga  Ga23  1  0.18326652  0.50856534  0.48072358  1
  Ga  Ga24  1  0.81518664  0.51578066  0.17200630  1
  Ga  Ga25  1  0.18481336  0.48421934  0.82799370  1
  Ga  Ga26  1  0.80830626  0.50089919  0.84778937  1
  Ga  Ga27  1  0.19169374  0.49910081  0.15221063  1
  Ga  Ga28  1  0.77788772  0.71334739  0.59847750  1
  Ga  Ga29  1  0.22211228  0.28665261  0.40152250  1
  Ga  Ga30  1  0.76473671  0.74443102  0.42122330  1
  Ga  Ga31  1  0.23526329  0.25556898  0.57877670  1
  Ga  Ga32  1  0.76359765  0.74617748  0.75223056  1
  Ga  Ga33  1  0.23640235  0.25382252  0.24776944  1
  Ga  Ga34  1  0.75546935  0.24673027  0.75217425  1
  Ga  Ga35  1  0.24453065  0.75326973  0.24782575  1
  Ga  Ga36  1  0.75145784  0.75611114  0.08312042  1
  Ga  Ga37  1  0.24854216  0.24388886  0.91687958  1
  Ga  Ga38  1  0.74910196  0.25932132  0.92552286  1
  Ga  Ga39  1  0.25089804  0.74067868  0.07447714  1
  Ga  Ga40  1  0.74071138  0.74926277  0.25427307  1
  Ga  Ga41  1  0.25928862  0.25073723  0.74572693  1
  Ga  Ga42  1  0.73270322  0.23933528  0.58064680  1
  Ga  Ga43  1  0.26729678  0.76066472  0.41935320  1
  Ga  Ga44  1  0.70785126  0.78577829  0.90572512  1
  Ga  Ga45  1  0.29214874  0.21422171  0.09427488  1
  Ga  Ga46  1  0.69149117  0.99553156  0.67679273  1
  Ga  Ga47  1  0.30850883  0.00446844  0.32320727  1
  Ga  Ga48  1  0.68775829  0.99265456  0.35119193  1
  Ga  Ga49  1  0.31224171  0.00734544  0.64880807  1
  Ga  Ga50  1  0.55043012  0.48983354  0.72836346  1
  Ga  Ga51  1  0.44956988  0.51016646  0.27163654  1
  Ga  Ga52  1  0.55239968  0.89393272  0.52381415  1
  Ga  Ga53  1  0.44760032  0.10606728  0.47618585  1
  Ga  Ga54  1  0.48718663  0.92583180  0.16044621  1
  Ga  Ga55  1  0.51281337  0.07416820  0.83955379  1
  Ga  Ga56  1  0.47526147  0.50489054  0.93662631  1
  Ga  Ga57  1  0.52473853  0.49510946  0.06337369  1
  Ga  Ga58  1  0.45384043  0.49450342  0.60323756  1
  Ga  Ga59  1  0.54615957  0.50549658  0.39676244  1
  Ga  Ga60  1  0.36355399  0.85963056  0.77277608  1
  Ga  Ga61  1  0.63644601  0.14036944  0.22722392  1
  Ga  Ga62  1  0.31241794  0.99681362  0.98142611  1
  Ga  Ga63  1  0.68758206  0.00318638  0.01857389  1
  Ga  Ga64  1  0.24548681  0.75643140  0.90705646  1
  Ga  Ga65  1  0.75451319  0.24356860  0.09294354  1
  Ga  Ga66  1  0.23939473  0.74348489  0.58522599  1
  Ga  Ga67  1  0.76060527  0.25651511  0.41477401  1
  Ga  Ga68  1  0.17009231  0.63930849  0.71889142  1
  Ga  Ga69  1  0.82990769  0.36069151  0.28110858  1
