# generated using pymatgen
data_Te3As2
_symmetry_space_group_name_H-M   'P 1'
_cell_length_a   7.06654152
_cell_length_b   10.79690113
_cell_length_c   16.35333578
_cell_angle_alpha   90.00000000
_cell_angle_beta   90.00000000
_cell_angle_gamma   102.21952622
_symmetry_Int_Tables_number   1
_chemical_formula_structural   Te3As2
_chemical_formula_sum   'Te24 As16'
_cell_volume   1219.43811108
_cell_formula_units_Z   8
loop_
 _symmetry_equiv_pos_site_id
 _symmetry_equiv_pos_as_xyz
  1  'x, y, z'
loop_
 _atom_site_type_symbol
 _atom_site_label
 _atom_site_symmetry_multiplicity
 _atom_site_fract_x
 _atom_site_fract_y
 _atom_site_fract_z
 _atom_site_occupancy
  Te  Te0  1  -0.00000000  -0.00000000  0.50000000  1
  Te  Te1  1  -0.00000000  -0.00000000  -0.00000000  1
  Te  Te2  1  0.01023878  0.00618348  0.75000000  1
  Te  Te3  1  0.98976122  0.99381652  0.25000000  1
  Te  Te4  1  0.50710519  0.00578668  0.62564135  1
  Te  Te5  1  0.49289481  0.99421332  0.12564135  1
  Te  Te6  1  0.49289481  0.99421332  0.37435865  1
  Te  Te7  1  0.50710519  0.00578668  0.87435865  1
  Te  Te8  1  0.77402535  0.32848279  0.50135323  1
  Te  Te9  1  0.22597465  0.67151721  0.00135323  1
  Te  Te10  1  0.22597465  0.67151721  0.49864677  1
  Te  Te11  1  0.77402535  0.32848279  0.99864677  1
  Te  Te12  1  0.78603648  0.33061002  0.75000000  1
  Te  Te13  1  0.21396352  0.66938998  0.25000000  1
  Te  Te14  1  0.76333159  0.33382308  0.25000000  1
  Te  Te15  1  0.23666841  0.66617692  0.75000000  1
  Te  Te16  1  0.28175671  0.32963004  0.62492205  1
  Te  Te17  1  0.71824329  0.67036996  0.12492205  1
  Te  Te18  1  0.71824329  0.67036996  0.37507795  1
  Te  Te19  1  0.28175671  0.32963004  0.87507795  1
  Te  Te20  1  0.26207544  0.33578802  0.12321867  1
  Te  Te21  1  0.73792456  0.66421198  0.62321867  1
  Te  Te22  1  0.73792456  0.66421198  0.87678133  1
  Te  Te23  1  0.26207544  0.33578802  0.37678133  1
  As  As24  1  0.61993849  0.79725239  0.75000000  1
  As  As25  1  0.38006151  0.20274761  0.25000000  1
  As  As26  1  0.60287442  0.82217240  0.25000000  1
  As  As27  1  0.39712558  0.17782760  0.75000000  1
  As  As28  1  0.60299904  0.82967338  0.49136400  1
  As  As29  1  0.39700096  0.17032662  0.99136400  1
  As  As30  1  0.39700096  0.17032662  0.50863600  1
  As  As31  1  0.60299904  0.82967338  0.00863600  1
  As  As32  1  0.89687444  0.17245658  0.62908881  1
  As  As33  1  0.10312556  0.82754342  0.12908881  1
  As  As34  1  0.10312556  0.82754342  0.37091119  1
  As  As35  1  0.89687444  0.17245658  0.87091119  1
  As  As36  1  0.88925481  0.18334204  0.12129325  1
  As  As37  1  0.11074519  0.81665796  0.62129325  1
  As  As38  1  0.11074519  0.81665796  0.87870675  1
  As  As39  1  0.88925481  0.18334204  0.37870675  1
