# generated using pymatgen
data_Sb2IrC3O3F13
_symmetry_space_group_name_H-M   'P 1'
_cell_length_a   8.66146094
_cell_length_b   8.93403446
_cell_length_c   10.91336776
_cell_angle_alpha   69.35471028
_cell_angle_beta   77.11417430
_cell_angle_gamma   88.46591523
_symmetry_Int_Tables_number   1
_chemical_formula_structural   Sb2IrC3O3F13
_chemical_formula_sum   'Sb4 Ir2 C6 O6 F26'
_cell_volume   769.11590499
_cell_formula_units_Z   2
loop_
 _symmetry_equiv_pos_site_id
 _symmetry_equiv_pos_as_xyz
  1  'x, y, z'
loop_
 _atom_site_type_symbol
 _atom_site_label
 _atom_site_symmetry_multiplicity
 _atom_site_fract_x
 _atom_site_fract_y
 _atom_site_fract_z
 _atom_site_occupancy
  Sb  Sb0  1  0.67860121  0.75169158  0.63924293  1
  Sb  Sb1  1  0.32139879  0.24830842  0.36075707  1
  Sb  Sb2  1  0.31967026  0.20556632  0.83875643  1
  Sb  Sb3  1  0.68032974  0.79443368  0.16124357  1
  Ir  Ir4  1  0.78134398  0.30217067  0.70350552  1
  Ir  Ir5  1  0.21865602  0.69782933  0.29649448  1
  C  C6  1  0.88251904  0.10827641  0.75145862  1
  C  C7  1  0.11748096  0.89172359  0.24854138  1
  C  C8  1  0.80141715  0.29859398  0.51817982  1
  C  C9  1  0.19858285  0.70140602  0.48182018  1
  C  C10  1  0.76620400  0.31467785  0.88452088  1
  C  C11  1  0.23379600  0.68532215  0.11547912  1
  O  O12  1  0.94703959  0.99200022  0.77898225  1
  O  O13  1  0.05296041  0.00799978  0.22101775  1
  O  O14  1  0.80994259  0.29411391  0.41416748  1
  O  O15  1  0.19005741  0.70588609  0.58583252  1
  O  O16  1  0.76209387  0.32587105  0.98559407  1
  O  O17  1  0.23790613  0.67412895  0.01440593  1
  F  F18  1  0.98072853  0.43006223  0.64523031  1
  F  F19  1  0.01927147  0.56993777  0.35476969  1
  F  F20  1  0.66677130  0.51633094  0.64473262  1
  F  F21  1  0.33322870  0.48366906  0.35526738  1
  F  F22  1  0.86369695  0.78689789  0.49721807  1
  F  F23  1  0.13630305  0.21310211  0.50278193  1
  F  F24  1  0.54540148  0.79871098  0.51575475  1
  F  F25  1  0.45459852  0.20128902  0.48424525  1
  F  F26  1  0.80815738  0.67000046  0.76592069  1
  F  F27  1  0.19184262  0.32999954  0.23407931  1
  F  F28  1  0.70204994  0.96630152  0.63231084  1
  F  F29  1  0.29795006  0.03369848  0.36768916  1
  F  F30  1  0.49607249  0.69744626  0.78271420  1
  F  F31  1  0.50392751  0.30255374  0.21728580  1
  F  F32  1  0.55744750  0.18105769  0.76179003  1
  F  F33  1  0.44255250  0.81894231  0.23820997  1
  F  F34  1  0.32800228  0.02332683  0.99595256  1
  F  F35  1  0.67199772  0.97667317  0.00404744  1
  F  F36  1  0.33110836  0.38437606  0.67723476  1
  F  F37  1  0.66889164  0.61562394  0.32276524  1
  F  F38  1  0.40112652  0.33591144  0.91741466  1
  F  F39  1  0.59887348  0.66408856  0.08258534  1
  F  F40  1  0.27306726  0.06045178  0.75867937  1
  F  F41  1  0.72693274  0.93954822  0.24132063  1
  F  F42  1  0.10089994  0.22690838  0.90736977  1
  F  F43  1  0.89910006  0.77309162  0.09263023  1
