# generated using pymatgen
data_U(PO3)4
_symmetry_space_group_name_H-M   'P 1'
_cell_length_a   11.03909608
_cell_length_b   11.03909608
_cell_length_c   11.03909608
_cell_angle_alpha   93.97268109
_cell_angle_beta   117.73349650
_cell_angle_gamma   117.73349650
_symmetry_Int_Tables_number   1
_chemical_formula_structural   U(PO3)4
_chemical_formula_sum   'U4 P16 O48'
_cell_volume   981.26577508
_cell_formula_units_Z   4
loop_
 _symmetry_equiv_pos_site_id
 _symmetry_equiv_pos_as_xyz
  1  'x, y, z'
loop_
 _atom_site_type_symbol
 _atom_site_label
 _atom_site_symmetry_multiplicity
 _atom_site_fract_x
 _atom_site_fract_y
 _atom_site_fract_z
 _atom_site_occupancy
  U  U0  1  0.00000000  0.78477278  0.78477278  1
  U  U1  1  -0.00000000  0.21522722  0.21522722  1
  U  U2  1  0.50000000  -0.00000000  0.50000000  1
  U  U3  1  0.50000000  0.50000000  0.00000000  1
  P  P4  1  0.39678995  0.06566688  0.14820775  1
  P  P5  1  0.60321005  0.75141780  0.66887693  1
  P  P6  1  0.91745913  0.24858220  0.85179225  1
  P  P7  1  0.08254087  0.93433312  0.33112307  1
  P  P8  1  0.39678995  0.33112307  0.24858220  1
  P  P9  1  0.60321005  0.85179225  0.93433312  1
  P  P10  1  0.91745913  0.66887693  0.06566688  1
  P  P11  1  0.08254087  0.14820775  0.75141780  1
  P  P12  1  0.61633104  0.21970996  0.05373935  1
  P  P13  1  0.38366896  0.43740831  0.60337892  1
  P  P14  1  0.16597061  0.56259169  0.94626065  1
  P  P15  1  0.83402939  0.78029004  0.39662108  1
  P  P16  1  0.61633104  0.39662108  0.56259169  1
  P  P17  1  0.38366896  0.94626065  0.78029004  1
  P  P18  1  0.16597061  0.60337892  0.21970996  1
  P  P19  1  0.83402939  0.05373935  0.43740831  1
  O  O20  1  0.44828316  0.22414158  0.22414158  1
  O  O21  1  0.55171684  0.77585842  0.77585842  1
  O  O22  1  -0.00000000  0.22414158  0.77585842  1
  O  O23  1  0.00000000  0.77585842  0.22414158  1
  O  O24  1  0.23785695  0.98859989  -0.00036222  1
  O  O25  1  0.76214305  0.76178083  0.75074294  1
  O  O26  1  0.98896211  0.23821917  0.00036222  1
  O  O27  1  0.01103789  0.01140011  0.24925706  1
  O  O28  1  0.23785695  0.24925706  0.23821917  1
  O  O29  1  0.76214305  0.00036222  0.01140011  1
  O  O30  1  0.98896211  0.75074294  0.98859989  1
  O  O31  1  0.01103789  -0.00036222  0.76178083  1
  O  O32  1  0.41216035  0.98982803  0.25645311  1
  O  O33  1  0.58783965  0.84429276  0.57766768  1
  O  O34  1  0.73337493  0.15570724  0.74354689  1
  O  O35  1  0.26662507  0.01017197  0.42233232  1
  O  O36  1  0.41216035  0.42233232  0.15570724  1
  O  O37  1  0.58783965  0.74354689  0.01017197  1
  O  O38  1  0.73337493  0.57766768  0.98982803  1
  O  O39  1  0.26662507  0.25645311  0.84429276  1
  O  O40  1  0.54778830  0.11256744  0.13086979  1
  O  O41  1  0.45221170  0.58308149  0.56477914  1
  O  O42  1  0.98169764  0.41691851  0.86913021  1
  O  O43  1  0.01830236  0.88743256  0.43522086  1
  O  O44  1  0.54778830  0.43522086  0.41691851  1
  O  O45  1  0.45221170  0.86913021  0.88743256  1
  O  O46  1  0.98169764  0.56477914  0.11256744  1
  O  O47  1  0.01830236  0.13086979  0.58308149  1
  O  O48  1  0.58925541  0.34038739  0.06233345  1
  O  O49  1  0.41074459  0.47307805  0.75113198  1
  O  O50  1  0.27805394  0.52692195  0.93766655  1
  O  O51  1  0.72194606  0.65961261  0.24886802  1
  O  O52  1  0.58925541  0.24886802  0.52692195  1
  O  O53  1  0.41074459  0.93766655  0.65961261  1
  O  O54  1  0.27805394  0.75113198  0.34038739  1
  O  O55  1  0.72194606  0.06233345  0.47307805  1
  O  O56  1  0.79008018  0.26096519  0.11859953  1
  O  O57  1  0.20991982  0.32851935  0.47088501  1
  O  O58  1  0.14236566  0.67148065  0.88140047  1
  O  O59  1  0.85763434  0.73903481  0.52911499  1
  O  O60  1  0.79008018  0.52911499  0.67148065  1
  O  O61  1  0.20991982  0.88140047  0.73903481  1
  O  O62  1  0.14236566  0.47088501  0.26096519  1
  O  O63  1  0.85763434  0.11859953  0.32851935  1
  O  O64  1  0.50000000  0.11665650  0.88334350  1
  O  O65  1  0.50000000  0.38334350  0.61665650  1
  O  O66  1  0.23331300  0.61665650  0.11665650  1
  O  O67  1  0.76668700  0.88334350  0.38334350  1
