# generated using pymatgen
data_ThTe2MoO9
_symmetry_space_group_name_H-M   'P 1'
_cell_length_a   7.14983340
_cell_length_b   11.03527231
_cell_length_c   11.43037196
_cell_angle_alpha   109.43464073
_cell_angle_beta   108.22539483
_cell_angle_gamma   90.00000000
_symmetry_Int_Tables_number   1
_chemical_formula_structural   ThTe2MoO9
_chemical_formula_sum   'Th4 Te8 Mo4 O36'
_cell_volume   802.33834991
_cell_formula_units_Z   4
loop_
 _symmetry_equiv_pos_site_id
 _symmetry_equiv_pos_as_xyz
  1  'x, y, z'
loop_
 _atom_site_type_symbol
 _atom_site_label
 _atom_site_symmetry_multiplicity
 _atom_site_fract_x
 _atom_site_fract_y
 _atom_site_fract_z
 _atom_site_occupancy
  Th  Th0  1  0.30710624  0.97702314  0.30533456  1
  Th  Th1  1  0.00177167  0.52297686  0.69466544  1
  Th  Th2  1  0.69289376  0.02297686  0.69466544  1
  Th  Th3  1  0.99822833  0.47702314  0.30533456  1
  Te  Te4  1  0.77427362  0.78426620  0.21924167  1
  Te  Te5  1  0.55503195  0.71573380  0.78075833  1
  Te  Te6  1  0.22572638  0.21573380  0.78075833  1
  Te  Te7  1  0.44496805  0.28426620  0.21924167  1
  Te  Te8  1  0.18713733  0.83312771  0.52594234  1
  Te  Te9  1  0.66119499  0.66687229  0.47405766  1
  Te  Te10  1  0.81286267  0.16687229  0.47405766  1
  Te  Te11  1  0.33880501  0.33312771  0.52594234  1
  Mo  Mo12  1  0.25410711  0.59453999  0.07991413  1
  Mo  Mo13  1  0.17419298  0.90546001  0.92008587  1
  Mo  Mo14  1  0.74589289  0.40546001  0.92008587  1
  Mo  Mo15  1  0.82580702  0.09453999  0.07991413  1
  O  O16  1  0.02206204  0.88379077  0.36630708  1
  O  O17  1  0.65575497  0.61620923  0.63369292  1
  O  O18  1  0.97793796  0.11620923  0.63369292  1
  O  O19  1  0.34424503  0.38379077  0.36630708  1
  O  O20  1  0.39369305  0.90814560  0.49113309  1
  O  O21  1  0.90255996  0.59185440  0.50886691  1
  O  O22  1  0.60630695  0.09185440  0.50886691  1
  O  O23  1  0.09744004  0.40814560  0.49113309  1
  O  O24  1  0.78285990  0.66285055  0.30892966  1
  O  O25  1  0.47393024  0.83714945  0.69107034  1
  O  O26  1  0.21714010  0.33714945  0.69107034  1
  O  O27  1  0.52606976  0.16285055  0.30892966  1
  O  O28  1  0.17534737  0.74909946  0.15528786  1
  O  O29  1  0.02005951  0.75090054  0.84471214  1
  O  O30  1  0.82465263  0.25090054  0.84471214  1
  O  O31  1  0.97994049  0.24909946  0.15528786  1
  O  O32  1  0.21241091  0.66367686  0.42571454  1
  O  O33  1  0.78669637  0.83632314  0.57428546  1
  O  O34  1  0.78758909  0.33632314  0.57428546  1
  O  O35  1  0.21330363  0.16367686  0.42571454  1
  O  O36  1  0.19249389  0.99912971  0.09081982  1
  O  O37  1  0.10167407  0.50087029  0.90918018  1
  O  O38  1  0.80750611  0.00087029  0.90918018  1
  O  O39  1  0.89832593  0.49912971  0.09081982  1
  O  O40  1  0.29662864  0.50173399  0.18581814  1
  O  O41  1  0.11081050  0.99826601  0.81418186  1
  O  O42  1  0.70337136  0.49826601  0.81418186  1
  O  O43  1  0.88918950  0.00173399  0.18581814  1
  O  O44  1  0.59147347  0.88550858  0.28053202  1
  O  O45  1  0.31094145  0.61449142  0.71946798  1
  O  O46  1  0.40852653  0.11449142  0.71946798  1
  O  O47  1  0.68905855  0.38550858  0.28053202  1
  O  O48  1  0.48537903  0.63841713  0.06849736  1
  O  O49  1  0.41688167  0.86158287  0.93150264  1
  O  O50  1  0.51462097  0.36158287  0.93150264  1
  O  O51  1  0.58311833  0.13841713  0.06849736  1
