# generated using pymatgen
data_Mn8Si8Mo3
_symmetry_space_group_name_H-M   'P 1'
_cell_length_a   4.83947515
_cell_length_b   12.76596583
_cell_length_c   15.23396919
_cell_angle_alpha   90.00000000
_cell_angle_beta   90.00000000
_cell_angle_gamma   90.00000000
_symmetry_Int_Tables_number   1
_chemical_formula_structural   Mn8Si8Mo3
_chemical_formula_sum   'Mn32 Si32 Mo12'
_cell_volume   941.16336695
_cell_formula_units_Z   4
loop_
 _symmetry_equiv_pos_site_id
 _symmetry_equiv_pos_as_xyz
  1  'x, y, z'
loop_
 _atom_site_type_symbol
 _atom_site_label
 _atom_site_symmetry_multiplicity
 _atom_site_fract_x
 _atom_site_fract_y
 _atom_site_fract_z
 _atom_site_occupancy
  Mn  Mn0  1  0.98797115  0.86516180  0.17406689  1
  Mn  Mn1  1  0.51202885  0.36516180  0.32593311  1
  Mn  Mn2  1  0.48797115  0.13483820  0.82593311  1
  Mn  Mn3  1  0.01202885  0.63483820  0.67406689  1
  Mn  Mn4  1  0.01202885  0.13483820  0.82593311  1
  Mn  Mn5  1  0.48797115  0.63483820  0.67406689  1
  Mn  Mn6  1  0.51202885  0.86516180  0.17406689  1
  Mn  Mn7  1  0.98797115  0.36516180  0.32593311  1
  Mn  Mn8  1  0.00405412  0.56005389  0.12156535  1
  Mn  Mn9  1  0.49594588  0.06005389  0.37843465  1
  Mn  Mn10  1  0.50405412  0.43994611  0.87843465  1
  Mn  Mn11  1  0.99594588  0.93994611  0.62156535  1
  Mn  Mn12  1  0.99594588  0.43994611  0.87843465  1
  Mn  Mn13  1  0.50405412  0.93994611  0.62156535  1
  Mn  Mn14  1  0.49594588  0.56005389  0.12156535  1
  Mn  Mn15  1  0.00405412  0.06005389  0.37843465  1
  Mn  Mn16  1  0.25000000  0.63600242  0.84396533  1
  Mn  Mn17  1  0.25000000  0.13600242  0.65603467  1
  Mn  Mn18  1  0.75000000  0.36399758  0.15603467  1
  Mn  Mn19  1  0.75000000  0.86399758  0.34396533  1
  Mn  Mn20  1  0.25000000  0.95283547  0.90655252  1
  Mn  Mn21  1  0.25000000  0.45283547  0.59344748  1
  Mn  Mn22  1  0.75000000  0.04716453  0.09344748  1
  Mn  Mn23  1  0.75000000  0.54716453  0.40655252  1
  Mn  Mn24  1  0.25000000  0.62236479  0.50423619  1
  Mn  Mn25  1  0.25000000  0.12236479  0.99576381  1
  Mn  Mn26  1  0.75000000  0.37763521  0.49576381  1
  Mn  Mn27  1  0.75000000  0.87763521  0.00423619  1
  Mn  Mn28  1  0.25000000  0.81212331  0.75140095  1
  Mn  Mn29  1  0.25000000  0.31212331  0.74859905  1
  Mn  Mn30  1  0.75000000  0.18787669  0.24859905  1
  Mn  Mn31  1  0.75000000  0.68787669  0.25140095  1
  Si  Si32  1  0.00180838  0.71374936  0.38136449  1
  Si  Si33  1  0.49819162  0.21374936  0.11863551  1
  Si  Si34  1  0.50180838  0.28625064  0.61863551  1
  Si  Si35  1  0.99819162  0.78625064  0.88136449  1
  Si  Si36  1  0.99819162  0.28625064  0.61863551  1
  Si  Si37  1  0.50180838  0.78625064  0.88136449  1
  Si  Si38  1  0.49819162  0.71374936  0.38136449  1
  Si  Si39  1  0.00180838  0.21374936  0.11863551  1
  Si  Si40  1  0.25000000  0.70951404  0.19481778  1
  Si  Si41  1  0.25000000  0.20951404  0.30518222  1
  Si  Si42  1  0.75000000  0.29048596  0.80518222  1
  Si  Si43  1  0.75000000  0.79048596  0.69481778  1
  Si  Si44  1  0.25000000  0.91117120  0.30128148  1
  Si  Si45  1  0.25000000  0.41117120  0.19871852  1
  Si  Si46  1  0.75000000  0.08882880  0.69871852  1
  Si  Si47  1  0.75000000  0.58882880  0.80128148  1
  Si  Si48  1  0.25000000  0.55189016  0.98210964  1
  Si  Si49  1  0.25000000  0.05189016  0.51789036  1
  Si  Si50  1  0.75000000  0.44810984  0.01789036  1
  Si  Si51  1  0.75000000  0.94810984  0.48210964  1
  Si  Si52  1  0.25000000  0.94889142  0.06034846  1
  Si  Si53  1  0.25000000  0.44889142  0.43965154  1
  Si  Si54  1  0.75000000  0.05110858  0.93965154  1
  Si  Si55  1  0.75000000  0.55110858  0.56034846  1
  Si  Si56  1  0.25000000  0.77437484  0.60270382  1
  Si  Si57  1  0.25000000  0.27437484  0.89729618  1
  Si  Si58  1  0.75000000  0.22562516  0.39729618  1
  Si  Si59  1  0.75000000  0.72562516  0.10270382  1
  Si  Si60  1  0.25000000  0.99522451  0.75278320  1
  Si  Si61  1  0.25000000  0.49522451  0.74721680  1
  Si  Si62  1  0.75000000  0.00477549  0.24721680  1
  Si  Si63  1  0.75000000  0.50477549  0.25278320  1
  Mo  Mo64  1  0.25000000  0.56637849  0.30402528  1
  Mo  Mo65  1  0.25000000  0.06637849  0.19597472  1
  Mo  Mo66  1  0.75000000  0.43362151  0.69597472  1
  Mo  Mo67  1  0.75000000  0.93362151  0.80402528  1
  Mo  Mo68  1  0.25000000  0.86521786  0.45770425  1
  Mo  Mo69  1  0.25000000  0.36521786  0.04229575  1
  Mo  Mo70  1  0.75000000  0.13478214  0.54229575  1
  Mo  Mo71  1  0.75000000  0.63478214  0.95770425  1
  Mo  Mo72  1  0.25000000  0.74769715  0.02806073  1
  Mo  Mo73  1  0.25000000  0.24769715  0.47193927  1
  Mo  Mo74  1  0.75000000  0.25230285  0.97193927  1
  Mo  Mo75  1  0.75000000  0.75230285  0.52806073  1
