# generated using pymatgen
data_Sm5Co19
_symmetry_space_group_name_H-M   'P 1'
_cell_length_a   4.98992523
_cell_length_b   4.99092106
_cell_length_c   31.91102386
_cell_angle_alpha   90.00000000
_cell_angle_beta   90.00000000
_cell_angle_gamma   120.01189398
_symmetry_Int_Tables_number   1
_chemical_formula_structural   Sm5Co19
_chemical_formula_sum   'Sm10 Co38'
_cell_volume   688.16732063
_cell_formula_units_Z   2
loop_
 _symmetry_equiv_pos_site_id
 _symmetry_equiv_pos_as_xyz
  1  'x, y, z'
loop_
 _atom_site_type_symbol
 _atom_site_label
 _atom_site_symmetry_multiplicity
 _atom_site_fract_x
 _atom_site_fract_y
 _atom_site_fract_z
 _atom_site_occupancy
  Sm  Sm0  1  0.66663893  0.33324853  0.02065501  1
  Sm  Sm1  1  0.33336107  0.66675147  0.97934499  1
  Sm  Sm2  1  0.33336107  0.66675147  0.52065501  1
  Sm  Sm3  1  0.66663893  0.33324853  0.47934499  1
  Sm  Sm4  1  0.66666279  0.33333726  0.13057084  1
  Sm  Sm5  1  0.33333721  0.66666274  0.86942916  1
  Sm  Sm6  1  0.33333721  0.66666274  0.63057084  1
  Sm  Sm7  1  0.66666279  0.33333726  0.36942916  1
  Sm  Sm8  1  0.66670443  0.33329090  0.25000000  1
  Sm  Sm9  1  0.33329557  0.66670910  0.75000000  1
  Co  Co10  1  0.83432110  0.66862663  0.56576525  1
  Co  Co11  1  0.83425541  0.16580665  0.56574257  1
  Co  Co12  1  0.33143987  0.16574964  0.56575511  1
  Co  Co13  1  0.16567890  0.33137337  0.43423475  1
  Co  Co14  1  0.16574459  0.83419335  0.43425743  1
  Co  Co15  1  0.66856013  0.83425036  0.43424489  1
  Co  Co16  1  0.16567890  0.33137337  0.06576525  1
  Co  Co17  1  0.16574459  0.83419335  0.06574257  1
  Co  Co18  1  0.66856013  0.83425036  0.06575511  1
  Co  Co19  1  0.83432110  0.66862663  0.93423475  1
  Co  Co20  1  0.83425541  0.16580665  0.93425743  1
  Co  Co21  1  0.33143987  0.16574964  0.93424489  1
  Co  Co22  1  0.83354233  0.66703352  0.68841406  1
  Co  Co23  1  0.83348481  0.16650437  0.68840843  1
  Co  Co24  1  0.33296810  0.16645224  0.68841419  1
  Co  Co25  1  0.16645767  0.33296648  0.31158594  1
  Co  Co26  1  0.16651519  0.83349563  0.31159157  1
  Co  Co27  1  0.66703190  0.83354776  0.31158581  1
  Co  Co28  1  0.16645767  0.33296648  0.18841406  1
  Co  Co29  1  0.16651519  0.83349563  0.18840843  1
  Co  Co30  1  0.66703190  0.83354776  0.18841419  1
  Co  Co31  1  0.83354233  0.66703352  0.81158594  1
  Co  Co32  1  0.83348481  0.16650437  0.81159157  1
  Co  Co33  1  0.33296810  0.16645224  0.81158581  1
  Co  Co34  1  0.66675346  0.33320100  0.62630296  1
  Co  Co35  1  0.33324654  0.66679900  0.37369704  1
  Co  Co36  1  0.33324654  0.66679900  0.12630296  1
  Co  Co37  1  0.66675346  0.33320100  0.87369704  1
  Co  Co38  1  0.99989708  0.00014864  0.62647178  1
  Co  Co39  1  0.00010292  0.99985136  0.37352822  1
  Co  Co40  1  0.00010292  0.99985136  0.12647178  1
  Co  Co41  1  0.99989708  0.00014864  0.87352822  1
  Co  Co42  1  0.66695293  0.33319096  0.75000000  1
  Co  Co43  1  0.33304707  0.66680904  0.25000000  1
  Co  Co44  1  0.99973637  0.00011619  0.75000000  1
  Co  Co45  1  0.00026363  0.99988381  0.25000000  1
  Co  Co46  1  0.00000000  -0.00000000  0.50000000  1
  Co  Co47  1  0.00000000  -0.00000000  0.00000000  1
