# generated using pymatgen
data_K2Pd(NO3)4
_symmetry_space_group_name_H-M   'P 1'
_cell_length_a   7.66150423
_cell_length_b   8.00216490
_cell_length_c   9.60727885
_cell_angle_alpha   99.49526278
_cell_angle_beta   90.00000000
_cell_angle_gamma   90.00000000
_symmetry_Int_Tables_number   1
_chemical_formula_structural   K2Pd(NO3)4
_chemical_formula_sum   'K4 Pd2 N8 O24'
_cell_volume   580.93914222
_cell_formula_units_Z   2
loop_
 _symmetry_equiv_pos_site_id
 _symmetry_equiv_pos_as_xyz
  1  'x, y, z'
loop_
 _atom_site_type_symbol
 _atom_site_label
 _atom_site_symmetry_multiplicity
 _atom_site_fract_x
 _atom_site_fract_y
 _atom_site_fract_z
 _atom_site_occupancy
  K  K0  1  0.56385019  0.34910226  0.16944092  1
  K  K1  1  0.06385019  0.65089774  0.33055908  1
  K  K2  1  0.43614981  0.65089774  0.83055908  1
  K  K3  1  0.93614981  0.34910226  0.66944092  1
  Pd  Pd4  1  0.50000000  0.00000000  0.50000000  1
  Pd  Pd5  1  -0.00000000  0.00000000  0.00000000  1
  N  N6  1  0.55204533  0.18075019  0.78709991  1
  N  N7  1  0.05204533  0.81924981  0.71290009  1
  N  N8  1  0.44795467  0.81924981  0.21290009  1
  N  N9  1  0.94795467  0.18075019  0.28709991  1
  N  N10  1  0.64749186  0.67324386  0.53058716  1
  N  N11  1  0.14749186  0.32675614  0.96941284  1
  N  N12  1  0.35250814  0.32675614  0.46941284  1
  N  N13  1  0.85250814  0.67324386  0.03058716  1
  O  O14  1  0.62186384  0.15988969  0.65880303  1
  O  O15  1  0.12186384  0.84011031  0.84119697  1
  O  O16  1  0.37813616  0.84011031  0.34119697  1
  O  O17  1  0.87813616  0.15988969  0.15880303  1
  O  O18  1  0.43682300  0.08408715  0.81613655  1
  O  O19  1  0.93682300  0.91591285  0.68386345  1
  O  O20  1  0.56317700  0.91591285  0.18386345  1
  O  O21  1  0.06317700  0.08408715  0.31613655  1
  O  O22  1  0.61222907  0.30363424  0.87174545  1
  O  O23  1  0.11222907  0.69636576  0.62825455  1
  O  O24  1  0.38777093  0.69636576  0.12825455  1
  O  O25  1  0.88777093  0.30363424  0.37174545  1
  O  O26  1  0.54675367  0.79520539  0.59666231  1
  O  O27  1  0.04675367  0.20479461  0.90333769  1
  O  O28  1  0.45324633  0.20479461  0.40333769  1
  O  O29  1  0.95324633  0.79520539  0.09666231  1
  O  O30  1  0.66873213  0.54914679  0.59313762  1
  O  O31  1  0.16873213  0.45085321  0.90686238  1
  O  O32  1  0.33126787  0.45085321  0.40686238  1
  O  O33  1  0.83126787  0.54914679  0.09313762  1
  O  O34  1  0.71294227  0.68566587  0.41477615  1
  O  O35  1  0.21294227  0.31433413  0.08522385  1
  O  O36  1  0.28705773  0.31433413  0.58522385  1
  O  O37  1  0.78705773  0.68566587  0.91477615  1
