# generated using pymatgen
data_Dy2Ni17
_symmetry_space_group_name_H-M   'P 1'
_cell_length_a   8.03907421
_cell_length_b   8.22848733
_cell_length_c   8.22848733
_cell_angle_alpha   120.00560664
_cell_angle_beta   90.00000000
_cell_angle_gamma   90.00000000
_symmetry_Int_Tables_number   1
_chemical_formula_structural   Dy2Ni17
_chemical_formula_sum   'Dy4 Ni34'
_cell_volume   471.35936479
_cell_formula_units_Z   2
loop_
 _symmetry_equiv_pos_site_id
 _symmetry_equiv_pos_as_xyz
  1  'x, y, z'
loop_
 _atom_site_type_symbol
 _atom_site_label
 _atom_site_symmetry_multiplicity
 _atom_site_fract_x
 _atom_site_fract_y
 _atom_site_fract_z
 _atom_site_occupancy
  Dy  Dy0  1  0.75000000  -0.00005936  0.00005936  1
  Dy  Dy1  1  0.25000000  0.00005936  -0.00005936  1
  Dy  Dy2  1  0.25000000  0.66683750  0.33316250  1
  Dy  Dy3  1  0.75000000  0.33316250  0.66683750  1
  Ni  Ni4  1  0.60232286  0.66668259  0.33331741  1
  Ni  Ni5  1  0.39767714  0.33331741  0.66668259  1
  Ni  Ni6  1  0.10232286  0.33331741  0.66668259  1
  Ni  Ni7  1  0.89767714  0.66668259  0.33331741  1
  Ni  Ni8  1  0.50000000  0.50000000  -0.00000000  1
  Ni  Ni9  1  0.50000000  0.50000000  0.50000000  1
  Ni  Ni10  1  0.50000000  0.00000000  0.50000000  1
  Ni  Ni11  1  0.00000000  0.50000000  -0.00000000  1
  Ni  Ni12  1  0.00000000  0.50000000  0.50000000  1
  Ni  Ni13  1  0.00000000  0.00000000  0.50000000  1
  Ni  Ni14  1  0.75000000  0.67173290  0.04142377  1
  Ni  Ni15  1  0.75000000  0.36968952  0.32815341  1
  Ni  Ni16  1  0.75000000  0.95848213  0.63026062  1
  Ni  Ni17  1  0.75000000  0.36973938  0.04151787  1
  Ni  Ni18  1  0.75000000  0.95857623  0.32826710  1
  Ni  Ni19  1  0.75000000  0.67184659  0.63031048  1
  Ni  Ni20  1  0.25000000  0.32826710  0.95857623  1
  Ni  Ni21  1  0.25000000  0.63031048  0.67184659  1
  Ni  Ni22  1  0.25000000  0.04151787  0.36973938  1
  Ni  Ni23  1  0.25000000  0.63026062  0.95848213  1
  Ni  Ni24  1  0.25000000  0.04142377  0.67173290  1
  Ni  Ni25  1  0.25000000  0.32815341  0.36968952  1
  Ni  Ni26  1  0.48028221  0.83424925  0.66859207  1
  Ni  Ni27  1  0.48037705  0.83428183  0.16571817  1
  Ni  Ni28  1  0.48028221  0.33140793  0.16575075  1
  Ni  Ni29  1  0.51971779  0.16575075  0.33140793  1
  Ni  Ni30  1  0.51962295  0.16571817  0.83428183  1
  Ni  Ni31  1  0.51971779  0.66859207  0.83424925  1
  Ni  Ni32  1  0.98028221  0.16575075  0.33140793  1
  Ni  Ni33  1  0.98037705  0.16571817  0.83428183  1
  Ni  Ni34  1  0.98028221  0.66859207  0.83424925  1
  Ni  Ni35  1  0.01971779  0.83424925  0.66859207  1
  Ni  Ni36  1  0.01962295  0.83428183  0.16571817  1
  Ni  Ni37  1  0.01971779  0.33140793  0.16575075  1
