# generated using pymatgen
data_Mn2O3
_symmetry_space_group_name_H-M   'P 1'
_cell_length_a   10.51999073
_cell_length_b   10.51999073
_cell_length_c   10.64882186
_cell_angle_alpha   60.39940374
_cell_angle_beta   60.39940376
_cell_angle_gamma   60.00000119
_symmetry_Int_Tables_number   1
_chemical_formula_structural   Mn2O3
_chemical_formula_sum   'Mn32 O48'
_cell_volume   838.32593108
_cell_formula_units_Z   16
loop_
 _symmetry_equiv_pos_site_id
 _symmetry_equiv_pos_as_xyz
  1  'x, y, z'
loop_
 _atom_site_type_symbol
 _atom_site_label
 _atom_site_symmetry_multiplicity
 _atom_site_fract_x
 _atom_site_fract_y
 _atom_site_fract_z
 _atom_site_occupancy
  Mn  Mn0  1  0.24962613  0.24827042  0.75423183  1
  Mn  Mn1  1  0.24827042  0.74787162  0.75423183  1
  Mn  Mn2  1  0.74787162  0.24962613  0.75423183  1
  Mn  Mn3  1  0.75037387  0.75172958  0.24576817  1
  Mn  Mn4  1  0.75172958  0.25212838  0.24576817  1
  Mn  Mn5  1  0.25212838  0.75037387  0.24576817  1
  Mn  Mn6  1  0.00000000  0.50000000  0.50000000  1
  Mn  Mn7  1  0.50000000  -0.00000000  0.50000000  1
  Mn  Mn8  1  0.00000000  -0.00000000  0.50000000  1
  Mn  Mn9  1  0.50000000  -0.00000000  -0.00000000  1
  Mn  Mn10  1  0.00000000  0.50000000  -0.00000000  1
  Mn  Mn11  1  0.50000000  0.50000000  -0.00000000  1
  Mn  Mn12  1  0.76302709  0.76302709  0.71091872  1
  Mn  Mn13  1  0.23697291  0.23697291  0.28908128  1
  Mn  Mn14  1  0.50000000  0.50000000  0.50000000  1
  Mn  Mn15  1  0.00000000  -0.00000000  -0.00000000  1
  Mn  Mn16  1  0.39041863  0.86039538  0.88207773  1
  Mn  Mn17  1  0.86039538  0.86710827  0.88207773  1
  Mn  Mn18  1  0.86710827  0.39041863  0.88207773  1
  Mn  Mn19  1  0.60958137  0.13960462  0.11792227  1
  Mn  Mn20  1  0.13960462  0.13289173  0.11792227  1
  Mn  Mn21  1  0.13289173  0.60958137  0.11792227  1
  Mn  Mn22  1  0.36635123  0.36889887  0.37929899  1
  Mn  Mn23  1  0.36889887  0.88545092  0.37929899  1
  Mn  Mn24  1  0.88545092  0.36635123  0.37929899  1
  Mn  Mn25  1  0.63364877  0.63110113  0.62070101  1
  Mn  Mn26  1  0.63110113  0.11454908  0.62070101  1
  Mn  Mn27  1  0.11454908  0.63364877  0.62070101  1
  Mn  Mn28  1  0.38810056  0.38810056  0.83569832  1
  Mn  Mn29  1  0.61189944  0.61189944  0.16430168  1
  Mn  Mn30  1  0.88413234  0.88413234  0.34760298  1
  Mn  Mn31  1  0.11586766  0.11586766  0.65239702  1
  O  O32  1  0.06083665  0.28076749  0.93056215  1
  O  O33  1  0.28076749  0.72783371  0.93056215  1
  O  O34  1  0.72783371  0.06083665  0.93056215  1
  O  O35  1  0.93916335  0.71923251  0.06943785  1
  O  O36  1  0.71923251  0.27216629  0.06943785  1
  O  O37  1  0.27216629  0.93916335  0.06943785  1
  O  O38  1  0.18188287  0.01500984  0.31863233  1
  O  O39  1  0.01500984  0.48447497  0.31863233  1
  O  O40  1  0.48447497  0.18188287  0.31863233  1
  O  O41  1  0.81811713  0.98499016  0.68136767  1
  O  O42  1  0.98499016  0.51552503  0.68136767  1
  O  O43  1  0.51552503  0.81811713  0.68136767  1
  O  O44  1  0.43709931  0.20745943  0.58268917  1
  O  O45  1  0.20745943  0.77275209  0.58268917  1
  O  O46  1  0.77275209  0.43709931  0.58268917  1
  O  O47  1  0.56290069  0.79254057  0.41731083  1
  O  O48  1  0.79254057  0.22724791  0.41731083  1
  O  O49  1  0.22724791  0.56290069  0.41731083  1
  O  O50  1  0.31526334  0.45488784  0.17542289  1
  O  O51  1  0.45488784  0.05442593  0.17542289  1
  O  O52  1  0.05442593  0.31526334  0.17542289  1
  O  O53  1  0.68473666  0.54511216  0.82457711  1
  O  O54  1  0.54511216  0.94557407  0.82457711  1
  O  O55  1  0.94557407  0.68473666  0.82457711  1
  O  O56  1  0.47900366  0.66002459  0.05924212  1
  O  O57  1  0.66002459  0.80172962  0.05924212  1
  O  O58  1  0.80172962  0.47900366  0.05924212  1
  O  O59  1  0.52099634  0.33997541  0.94075788  1
  O  O60  1  0.33997541  0.19827038  0.94075788  1
  O  O61  1  0.19827038  0.52099634  0.94075788  1
  O  O62  1  0.71735395  0.55571576  0.30505257  1
  O  O63  1  0.55571576  0.42187772  0.30505257  1
  O  O64  1  0.42187772  0.71735395  0.30505257  1
  O  O65  1  0.28264605  0.44428424  0.69494743  1
  O  O66  1  0.44428424  0.57812228  0.69494743  1
  O  O67  1  0.57812228  0.28264605  0.69494743  1
  O  O68  1  0.99083174  0.82801896  0.48249079  1
  O  O69  1  0.82801896  0.69865851  0.48249079  1
  O  O70  1  0.69865851  0.99083174  0.48249079  1
  O  O71  1  0.00916826  0.17198104  0.51750921  1
  O  O72  1  0.17198104  0.30134149  0.51750921  1
  O  O73  1  0.30134149  0.00916826  0.51750921  1
  O  O74  1  0.78374858  0.93581871  0.21011277  1
  O  O75  1  0.93581871  0.07031995  0.21011277  1
  O  O76  1  0.07031995  0.78374858  0.21011277  1
  O  O77  1  0.21625142  0.06418129  0.78988723  1
  O  O78  1  0.06418129  0.92968005  0.78988723  1
  O  O79  1  0.92968005  0.21625142  0.78988723  1
