# generated using pymatgen
data_GdH2I3O10
_symmetry_space_group_name_H-M   'P 1'
_cell_length_a   6.69213784
_cell_length_b   7.39127327
_cell_length_c   10.11497192
_cell_angle_alpha   109.88645317
_cell_angle_beta   90.00000000
_cell_angle_gamma   90.00000000
_symmetry_Int_Tables_number   1
_chemical_formula_structural   GdH2I3O10
_chemical_formula_sum   'Gd2 H4 I6 O20'
_cell_volume   470.48624164
_cell_formula_units_Z   2
loop_
 _symmetry_equiv_pos_site_id
 _symmetry_equiv_pos_as_xyz
  1  'x, y, z'
loop_
 _atom_site_type_symbol
 _atom_site_label
 _atom_site_symmetry_multiplicity
 _atom_site_fract_x
 _atom_site_fract_y
 _atom_site_fract_z
 _atom_site_occupancy
  Gd  Gd0  1  0.15514116  0.26069153  0.69076775  1
  Gd  Gd1  1  0.65514116  0.73930847  0.30923225  1
  H  H2  1  0.47010186  0.28928000  0.08308092  1
  H  H3  1  0.97010186  0.71072000  0.91691908  1
  H  H4  1  0.37266032  0.09802776  0.98198342  1
  H  H5  1  0.87266032  0.90197224  0.01801658  1
  I  I6  1  0.13417715  0.66160376  0.53508291  1
  I  I7  1  0.63417715  0.33839624  0.46491709  1
  I  I8  1  0.99652131  0.35975534  0.08693775  1
  I  I9  1  0.49652131  0.64024466  0.91306225  1
  I  I10  1  0.68326284  0.02555406  0.71993711  1
  I  I11  1  0.18326284  0.97444594  0.28006289  1
  O  O12  1  0.02274298  0.53775604  0.64715595  1
  O  O13  1  0.52274298  0.46224396  0.35284405  1
  O  O14  1  0.93995319  0.59029476  0.39769460  1
  O  O15  1  0.43995319  0.40970524  0.60230540  1
  O  O16  1  0.06154378  0.90891645  0.63714872  1
  O  O17  1  0.56154378  0.09108355  0.36285128  1
  O  O18  1  0.98261204  0.23677601  0.89569149  1
  O  O19  1  0.48261204  0.76322399  0.10430851  1
  O  O20  1  0.94129612  0.16048211  0.14783615  1
  O  O21  1  0.44129612  0.83951789  0.85216385  1
  O  O22  1  0.80194473  0.19961605  0.64767596  1
  O  O23  1  0.30194473  0.80038395  0.35232404  1
  O  O24  1  0.11133489  0.16150301  0.44326721  1
  O  O25  1  0.61133489  0.83849699  0.55673279  1
  O  O26  1  0.24334631  0.53284135  0.89479451  1
  O  O27  1  0.74334631  0.46715865  0.10520549  1
  O  O28  1  0.44804212  0.15744802  0.76835021  1
  O  O29  1  0.94804212  0.84255198  0.23164979  1
  O  O30  1  0.35155918  0.20735440  0.06955770  1
  O  O31  1  0.85155918  0.79264560  0.93044230  1
