# generated using pymatgen
data_RbFeCu(PO4)2
_symmetry_space_group_name_H-M   'P 1'
_cell_length_a   8.26816466
_cell_length_b   9.27076041
_cell_length_c   10.05073523
_cell_angle_alpha   90.00000000
_cell_angle_beta   90.00000000
_cell_angle_gamma   115.99124346
_symmetry_Int_Tables_number   1
_chemical_formula_structural   RbFeCu(PO4)2
_chemical_formula_sum   'Rb4 Fe4 Cu4 P8 O32'
_cell_volume   692.49215820
_cell_formula_units_Z   4
loop_
 _symmetry_equiv_pos_site_id
 _symmetry_equiv_pos_as_xyz
  1  'x, y, z'
loop_
 _atom_site_type_symbol
 _atom_site_label
 _atom_site_symmetry_multiplicity
 _atom_site_fract_x
 _atom_site_fract_y
 _atom_site_fract_z
 _atom_site_occupancy
  Rb  Rb0  1  0.58256398  0.42412603  0.86634680  1
  Rb  Rb1  1  0.08256398  0.92412603  0.63365320  1
  Rb  Rb2  1  0.41743602  0.57587397  0.13365320  1
  Rb  Rb3  1  0.91743602  0.07587397  0.36634680  1
  Fe  Fe4  1  0.48162638  0.25459889  0.37620319  1
  Fe  Fe5  1  0.98162638  0.75459889  0.12379681  1
  Fe  Fe6  1  0.51837362  0.74540111  0.62379681  1
  Fe  Fe7  1  0.01837362  0.24540111  0.87620319  1
  Cu  Cu8  1  0.86692155  0.44140725  0.61844769  1
  Cu  Cu9  1  0.36692155  0.94140725  0.88155231  1
  Cu  Cu10  1  0.13307845  0.55859275  0.38155231  1
  Cu  Cu11  1  0.63307845  0.05859275  0.11844769  1
  P  P12  1  0.76292291  0.64066748  0.41130179  1
  P  P13  1  0.26292291  0.14066748  0.08869821  1
  P  P14  1  0.23707709  0.35933252  0.58869821  1
  P  P15  1  0.73707709  0.85933252  0.91130179  1
  P  P16  1  0.63236905  0.13816095  0.65927635  1
  P  P17  1  0.13236905  0.63816095  0.84072365  1
  P  P18  1  0.36763095  0.86183905  0.34072365  1
  P  P19  1  0.86763095  0.36183905  0.15927635  1
  O  O20  1  0.90626029  0.59578774  0.47754948  1
  O  O21  1  0.40626029  0.09578774  0.02245052  1
  O  O22  1  0.09373971  0.40421226  0.52245052  1
  O  O23  1  0.59373971  0.90421226  0.97754948  1
  O  O24  1  0.71419189  0.74461306  0.50910705  1
  O  O25  1  0.21419189  0.24461306  0.99089295  1
  O  O26  1  0.28580811  0.25538694  0.49089295  1
  O  O27  1  0.78580811  0.75538694  0.00910705  1
  O  O28  1  0.35192056  0.24874735  0.20984939  1
  O  O29  1  0.85192056  0.74874735  0.29015061  1
  O  O30  1  0.64807944  0.75125265  0.79015061  1
  O  O31  1  0.14807944  0.25125265  0.70984939  1
  O  O32  1  0.59612501  0.48876146  0.36832443  1
  O  O33  1  0.09612501  0.98876146  0.13167557  1
  O  O34  1  0.40387499  0.51123854  0.63167557  1
  O  O35  1  0.90387499  0.01123854  0.86832443  1
  O  O36  1  0.96043414  0.60139539  0.76092330  1
  O  O37  1  0.46043414  0.10139539  0.73907670  1
  O  O38  1  0.03956586  0.39860461  0.23907670  1
  O  O39  1  0.53956586  0.89860461  0.26092330  1
  O  O40  1  0.64460950  0.98655659  0.61107168  1
  O  O41  1  0.14460950  0.48655659  0.88892832  1
  O  O42  1  0.35539050  0.01344341  0.38892832  1
  O  O43  1  0.85539050  0.51344341  0.11107168  1
  O  O44  1  0.80364072  0.25330112  0.74228711  1
  O  O45  1  0.30364072  0.75330112  0.75771289  1
  O  O46  1  0.19635928  0.74669888  0.25771289  1
  O  O47  1  0.69635928  0.24669888  0.24228711  1
  O  O48  1  0.64695516  0.25325417  0.53847584  1
  O  O49  1  0.14695516  0.75325417  0.96152416  1
  O  O50  1  0.35304484  0.74674583  0.46152416  1
  O  O51  1  0.85304484  0.24674583  0.03847584  1
