# generated using pymatgen
data_Er2ZrS5
_symmetry_space_group_name_H-M   'P 1'
_cell_length_a   7.23053399
_cell_length_b   7.71627321
_cell_length_c   11.56241694
_cell_angle_alpha   90.00000000
_cell_angle_beta   90.00000000
_cell_angle_gamma   90.00000000
_symmetry_Int_Tables_number   1
_chemical_formula_structural   Er2ZrS5
_chemical_formula_sum   'Er8 Zr4 S20'
_cell_volume   645.09933513
_cell_formula_units_Z   4
loop_
 _symmetry_equiv_pos_site_id
 _symmetry_equiv_pos_as_xyz
  1  'x, y, z'
loop_
 _atom_site_type_symbol
 _atom_site_label
 _atom_site_symmetry_multiplicity
 _atom_site_fract_x
 _atom_site_fract_y
 _atom_site_fract_z
 _atom_site_occupancy
  Er  Er0  1  0.97867865  0.00208929  0.17901427  1
  Er  Er1  1  0.52132135  0.49791071  0.67901427  1
  Er  Er2  1  0.02132135  0.50208929  0.82098573  1
  Er  Er3  1  0.47867865  0.99791071  0.32098573  1
  Er  Er4  1  0.02132135  0.99791071  0.82098573  1
  Er  Er5  1  0.47867865  0.50208929  0.32098573  1
  Er  Er6  1  0.97867865  0.49791071  0.17901427  1
  Er  Er7  1  0.52132135  0.00208929  0.67901427  1
  Zr  Zr8  1  0.42044461  0.75000000  0.00687078  1
  Zr  Zr9  1  0.07955539  0.75000000  0.50687078  1
  Zr  Zr10  1  0.57955539  0.25000000  0.99312922  1
  Zr  Zr11  1  0.92044461  0.25000000  0.49312922  1
  S  S12  1  0.66106816  0.53826655  0.90391694  1
  S  S13  1  0.83893184  0.96173345  0.40391694  1
  S  S14  1  0.33893184  0.03826655  0.09608306  1
  S  S15  1  0.16106816  0.46173345  0.59608306  1
  S  S16  1  0.33893184  0.46173345  0.09608306  1
  S  S17  1  0.16106816  0.03826655  0.59608306  1
  S  S18  1  0.66106816  0.96173345  0.90391694  1
  S  S19  1  0.83893184  0.53826655  0.40391694  1
  S  S20  1  0.66987868  0.75000000  0.18297457  1
  S  S21  1  0.83012132  0.75000000  0.68297457  1
  S  S22  1  0.33012132  0.25000000  0.81702543  1
  S  S23  1  0.16987868  0.25000000  0.31702543  1
  S  S24  1  0.04846232  0.75000000  0.00206984  1
  S  S25  1  0.45153768  0.75000000  0.50206984  1
  S  S26  1  0.95153768  0.25000000  0.99793016  1
  S  S27  1  0.54846232  0.25000000  0.49793016  1
  S  S28  1  0.30737736  0.75000000  0.79081711  1
  S  S29  1  0.19262264  0.75000000  0.29081711  1
  S  S30  1  0.69262264  0.25000000  0.20918289  1
  S  S31  1  0.80737736  0.25000000  0.70918289  1
