# generated using pymatgen
data_Ba2Y3Si2O8F5
_symmetry_space_group_name_H-M   'P 1'
_cell_length_a   5.15796696
_cell_length_b   8.99257050
_cell_length_c   12.80228728
_cell_angle_alpha   90.00000000
_cell_angle_beta   90.00000000
_cell_angle_gamma   90.00000000
_symmetry_Int_Tables_number   1
_chemical_formula_structural   Ba2Y3Si2O8F5
_chemical_formula_sum   'Ba4 Y6 Si4 O16 F10'
_cell_volume   593.81337529
_cell_formula_units_Z   2
loop_
 _symmetry_equiv_pos_site_id
 _symmetry_equiv_pos_as_xyz
  1  'x, y, z'
loop_
 _atom_site_type_symbol
 _atom_site_label
 _atom_site_symmetry_multiplicity
 _atom_site_fract_x
 _atom_site_fract_y
 _atom_site_fract_z
 _atom_site_occupancy
  Ba  Ba0  1  0.14126269  0.35207799  0.20784029  1
  Ba  Ba1  1  0.14126269  0.64792201  0.79215971  1
  Ba  Ba2  1  0.14126269  0.14792201  0.70784029  1
  Ba  Ba3  1  0.14126269  0.85207799  0.29215971  1
  Y  Y4  1  0.12930603  0.50000000  0.50000000  1
  Y  Y5  1  0.12930603  0.00000000  -0.00000000  1
  Y  Y6  1  0.69161307  0.32302571  0.93959409  1
  Y  Y7  1  0.69161307  0.67697429  0.06040591  1
  Y  Y8  1  0.69161307  0.17697429  0.43959409  1
  Y  Y9  1  0.69161307  0.82302571  0.56040591  1
  Si  Si10  1  0.69599230  0.42631721  0.65732929  1
  Si  Si11  1  0.69599230  0.57368279  0.34267071  1
  Si  Si12  1  0.69599230  0.07368279  0.15732929  1
  Si  Si13  1  0.69599230  0.92631721  0.84267071  1
  O  O14  1  0.38204305  0.42201182  0.64253441  1
  O  O15  1  0.38204305  0.57798818  0.35746559  1
  O  O16  1  0.38204305  0.07798818  0.14253441  1
  O  O17  1  0.38204305  0.92201182  0.85746559  1
  O  O18  1  0.85280660  0.18583482  0.07478135  1
  O  O19  1  0.85280660  0.81416518  0.92521865  1
  O  O20  1  0.85280660  0.31416518  0.57478135  1
  O  O21  1  0.85280660  0.68583482  0.42521865  1
  O  O22  1  0.82046196  0.09037293  0.87392489  1
  O  O23  1  0.82046196  0.90962707  0.12607511  1
  O  O24  1  0.82046196  0.40962707  0.37392489  1
  O  O25  1  0.82046196  0.59037293  0.62607511  1
  O  O26  1  0.79850413  0.38019729  0.77437170  1
  O  O27  1  0.79850413  0.61980271  0.22562830  1
  O  O28  1  0.79850413  0.11980271  0.27437170  1
  O  O29  1  0.79850413  0.88019729  0.72562830  1
  F  F30  1  0.97667106  0.50000000  0.00000000  1
  F  F31  1  0.97667106  0.00000000  0.50000000  1
  F  F32  1  0.52368311  0.43755017  0.08959474  1
  F  F33  1  0.52368311  0.56244983  0.91040526  1
  F  F34  1  0.52368311  0.06244983  0.58959474  1
  F  F35  1  0.52368311  0.93755017  0.41040526  1
  F  F36  1  0.29469454  0.22861929  0.92405220  1
  F  F37  1  0.29469454  0.77138071  0.07594780  1
  F  F38  1  0.29469454  0.27138071  0.42405220  1
  F  F39  1  0.29469454  0.72861929  0.57594780  1
