# generated using pymatgen
data_Na2MgP4(H2O3)6
_symmetry_space_group_name_H-M   'P 1'
_cell_length_a   8.36792467
_cell_length_b   9.12976281
_cell_length_c   11.57947625
_cell_angle_alpha   90.00000000
_cell_angle_beta   90.00000000
_cell_angle_gamma   113.47589526
_symmetry_Int_Tables_number   1
_chemical_formula_structural   Na2MgP4(H2O3)6
_chemical_formula_sum   'Na4 Mg2 P8 H24 O36'
_cell_volume   811.41560918
_cell_formula_units_Z   2
loop_
 _symmetry_equiv_pos_site_id
 _symmetry_equiv_pos_as_xyz
  1  'x, y, z'
loop_
 _atom_site_type_symbol
 _atom_site_label
 _atom_site_symmetry_multiplicity
 _atom_site_fract_x
 _atom_site_fract_y
 _atom_site_fract_z
 _atom_site_occupancy
  Na  Na0  1  0.75575311  0.08767126  0.25000000  1
  Na  Na1  1  0.24424689  0.91232874  0.75000000  1
  Na  Na2  1  0.01424924  0.55435852  0.25000000  1
  Na  Na3  1  0.98575076  0.44564148  0.75000000  1
  Mg  Mg4  1  0.52750117  0.26237654  0.75000000  1
  Mg  Mg5  1  0.47249883  0.73762346  0.25000000  1
  P  P6  1  0.69841328  0.35200749  0.01098794  1
  P  P7  1  0.30158672  0.64799251  0.51098794  1
  P  P8  1  0.30158672  0.64799251  0.98901206  1
  P  P9  1  0.69841328  0.35200749  0.48901206  1
  P  P10  1  0.31536020  0.16693031  0.00038146  1
  P  P11  1  0.68463980  0.83306969  0.50038146  1
  P  P12  1  0.68463980  0.83306969  -0.00038146  1
  P  P13  1  0.31536020  0.16693031  0.49961854  1
  H  H14  1  0.74531208  0.12872165  0.00595533  1
  H  H15  1  0.25468792  0.87127835  0.50595533  1
  H  H16  1  0.25468792  0.87127835  0.99404467  1
  H  H17  1  0.74531208  0.12872165  0.49404467  1
  H  H18  1  0.19090085  0.34097031  0.98485848  1
  H  H19  1  0.80909915  0.65902969  0.48485848  1
  H  H20  1  0.80909915  0.65902969  0.01514152  1
  H  H21  1  0.19090085  0.34097031  0.51514152  1
  H  H22  1  0.38523317  0.98594838  0.18185610  1
  H  H23  1  0.61476683  0.01405162  0.68185610  1
  H  H24  1  0.61476683  0.01405162  0.81814390  1
  H  H25  1  0.38523317  0.98594838  0.31814390  1
  H  H26  1  0.10348669  0.28211238  0.18205973  1
  H  H27  1  0.89651331  0.71788762  0.68205973  1
  H  H28  1  0.89651331  0.71788762  0.81794027  1
  H  H29  1  0.10348669  0.28211238  0.31794027  1
  H  H30  1  0.07339595  0.88173700  0.18323291  1
  H  H31  1  0.92660405  0.11826300  0.68323291  1
  H  H32  1  0.92660405  0.11826300  0.81676709  1
  H  H33  1  0.07339595  0.88173700  0.31676709  1
  H  H34  1  0.41380796  0.48951343  0.81661265  1
  H  H35  1  0.58619204  0.51048657  0.31661265  1
  H  H36  1  0.58619204  0.51048657  0.18338735  1
  H  H37  1  0.41380796  0.48951343  0.68338735  1
  O  O38  1  0.75172100  0.21787602  0.06308417  1
  O  O39  1  0.24827900  0.78212398  0.56308417  1
  O  O40  1  0.24827900  0.78212398  0.93691583  1
  O  O41  1  0.75172100  0.21787602  0.43691583  1
  O  O42  1  0.49587782  0.30080811  0.05063518  1
  O  O43  1  0.50412218  0.69919189  0.55063518  1
  O  O44  1  0.50412218  0.69919189  0.94936482  1
  O  O45  1  0.49587782  0.30080811  0.44936482  1
  O  O46  1  0.71089737  0.35659022  0.88080568  1
  O  O47  1  0.28910263  0.64340978  0.38080568  1
  O  O48  1  0.28910263  0.64340978  0.11919432  1
  O  O49  1  0.71089737  0.35659022  0.61919432  1
  O  O50  1  0.79311704  0.50538136  0.07788354  1
  O  O51  1  0.20688296  0.49461864  0.57788354  1
  O  O52  1  0.20688296  0.49461864  0.92211646  1
  O  O53  1  0.79311704  0.50538136  0.42211646  1
  O  O54  1  0.17947677  0.24043743  0.03173977  1
  O  O55  1  0.82052323  0.75956257  0.53173977  1
  O  O56  1  0.82052323  0.75956257  0.96826023  1
  O  O57  1  0.17947677  0.24043743  0.46826023  1
  O  O58  1  0.26841203  0.01379872  0.06989405  1
  O  O59  1  0.73158797  0.98620128  0.56989405  1
  O  O60  1  0.73158797  0.98620128  0.93010595  1
  O  O61  1  0.26841203  0.01379872  0.43010595  1
  O  O62  1  0.33641841  0.15079287  0.87247674  1
  O  O63  1  0.66358159  0.84920713  0.37247674  1
  O  O64  1  0.66358159  0.84920713  0.12752326  1
  O  O65  1  0.33641841  0.15079287  0.62752326  1
  O  O66  1  0.44346030  0.96205953  0.25000000  1
  O  O67  1  0.55653970  0.03794047  0.75000000  1
  O  O68  1  0.03708269  0.29039272  0.25000000  1
  O  O69  1  0.96291731  0.70960728  0.75000000  1
  O  O70  1  0.01756629  0.81524777  0.25000000  1
  O  O71  1  0.98243371  0.18475223  0.75000000  1
  O  O72  1  0.47468604  0.46966238  0.75000000  1
  O  O73  1  0.52531396  0.53033762  0.25000000  1
