# generated using pymatgen
data_K3V5Te4(HO3)8
_symmetry_space_group_name_H-M   'P 1'
_cell_length_a   7.65892133
_cell_length_b   9.03824627
_cell_length_c   17.15362587
_cell_angle_alpha   90.00000000
_cell_angle_beta   90.00000000
_cell_angle_gamma   90.00000000
_symmetry_Int_Tables_number   1
_chemical_formula_structural   K3V5Te4(HO3)8
_chemical_formula_sum   'K6 V10 Te8 H16 O48'
_cell_volume   1187.42916839
_cell_formula_units_Z   2
loop_
 _symmetry_equiv_pos_site_id
 _symmetry_equiv_pos_as_xyz
  1  'x, y, z'
loop_
 _atom_site_type_symbol
 _atom_site_label
 _atom_site_symmetry_multiplicity
 _atom_site_fract_x
 _atom_site_fract_y
 _atom_site_fract_z
 _atom_site_occupancy
  K  K0  1  0.75000000  0.95333673  0.75000000  1
  K  K1  1  0.25000000  0.04666327  0.25000000  1
  K  K2  1  0.25000000  0.97641595  0.75000000  1
  K  K3  1  0.75000000  0.02358405  0.25000000  1
  K  K4  1  0.75000000  0.39099114  0.75000000  1
  K  K5  1  0.25000000  0.60900886  0.25000000  1
  V  V6  1  0.05595467  0.24487504  0.90835533  1
  V  V7  1  0.05595467  0.24487504  0.59164467  1
  V  V8  1  0.44404533  0.24487504  0.90835533  1
  V  V9  1  0.44404533  0.24487504  0.59164467  1
  V  V10  1  0.94404533  0.75512496  0.09164467  1
  V  V11  1  0.94404533  0.75512496  0.40835533  1
  V  V12  1  0.55595467  0.75512496  0.09164467  1
  V  V13  1  0.55595467  0.75512496  0.40835533  1
  V  V14  1  0.25000000  0.44054571  0.75000000  1
  V  V15  1  0.75000000  0.55945429  0.25000000  1
  Te  Te16  1  0.75000000  0.45716628  0.99933659  1
  Te  Te17  1  0.75000000  0.45716628  0.50066341  1
  Te  Te18  1  0.25000000  0.54283372  0.00066341  1
  Te  Te19  1  0.25000000  0.54283372  0.49933659  1
  Te  Te20  1  0.75000000  0.01500939  0.97674616  1
  Te  Te21  1  0.75000000  0.01500939  0.52325384  1
  Te  Te22  1  0.25000000  0.98499061  0.02325384  1
  Te  Te23  1  0.25000000  0.98499061  0.47674616  1
  H  H24  1  0.00674944  0.69968550  0.68032775  1
  H  H25  1  0.00674944  0.69968550  0.81967225  1
  H  H26  1  0.49325056  0.69968550  0.68032775  1
  H  H27  1  0.49325056  0.69968550  0.81967225  1
  H  H28  1  0.99325056  0.30031450  0.31967225  1
  H  H29  1  0.99325056  0.30031450  0.18032775  1
  H  H30  1  0.50674944  0.30031450  0.31967225  1
  H  H31  1  0.50674944  0.30031450  0.18032775  1
  H  H32  1  0.02131409  0.80105427  0.60579886  1
  H  H33  1  0.02131409  0.80105427  0.89420114  1
  H  H34  1  0.47868591  0.80105427  0.60579886  1
  H  H35  1  0.47868591  0.80105427  0.89420114  1
  H  H36  1  0.97868591  0.19894573  0.39420114  1
  H  H37  1  0.97868591  0.19894573  0.10579886  1
  H  H38  1  0.52131409  0.19894573  0.39420114  1
  H  H39  1  0.52131409  0.19894573  0.10579886  1
  O  O40  1  0.94081070  0.16135515  0.83897294  1
  O  O41  1  0.94081070  0.16135515  0.66102706  1
  O  O42  1  0.55918930  0.16135515  0.83897294  1
  O  O43  1  0.55918930  0.16135515  0.66102706  1
  O  O44  1  0.05918930  0.83864485  0.16102706  1
  O  O45  1  0.05918930  0.83864485  0.33897294  1
  O  O46  1  0.44081070  0.83864485  0.16102706  1
  O  O47  1  0.44081070  0.83864485  0.33897294  1
  O  O48  1  0.93506658  0.43681383  0.92396139  1
  O  O49  1  0.93506658  0.43681383  0.57603861  1
  O  O50  1  0.56493342  0.43681383  0.92396139  1
  O  O51  1  0.56493342  0.43681383  0.57603861  1
  O  O52  1  0.06493342  0.56318617  0.07603861  1
  O  O53  1  0.06493342  0.56318617  0.42396139  1
  O  O54  1  0.43506658  0.56318617  0.07603861  1
  O  O55  1  0.43506658  0.56318617  0.42396139  1
  O  O56  1  0.93273742  0.15222101  0.00251900  1
  O  O57  1  0.93273742  0.15222101  0.49748100  1
  O  O58  1  0.56726258  0.15222101  0.00251900  1
  O  O59  1  0.56726258  0.15222101  0.49748100  1
  O  O60  1  0.06726258  0.84777899  0.99748100  1
  O  O61  1  0.06726258  0.84777899  0.50251900  1
  O  O62  1  0.43273742  0.84777899  0.99748100  1
  O  O63  1  0.43273742  0.84777899  0.50251900  1
  O  O64  1  0.25000000  0.08330452  0.92295725  1
  O  O65  1  0.25000000  0.08330452  0.57704275  1
  O  O66  1  0.75000000  0.91669548  0.07704275  1
  O  O67  1  0.75000000  0.91669548  0.42295725  1
  O  O68  1  0.25000000  0.33138012  0.84024531  1
  O  O69  1  0.25000000  0.33138012  0.65975469  1
  O  O70  1  0.75000000  0.66861988  0.15975469  1
  O  O71  1  0.75000000  0.66861988  0.34024531  1
  O  O72  1  0.25000000  0.33225314  0.99618651  1
  O  O73  1  0.25000000  0.33225314  0.50381349  1
  O  O74  1  0.75000000  0.66774686  0.00381349  1
  O  O75  1  0.75000000  0.66774686  0.49618651  1
  O  O76  1  0.06641076  0.54283220  0.75000000  1
  O  O77  1  0.43358924  0.54283220  0.75000000  1
  O  O78  1  0.93358924  0.45716780  0.25000000  1
  O  O79  1  0.56641076  0.45716780  0.25000000  1
  O  O80  1  0.99979458  0.80321863  0.66221846  1
  O  O81  1  0.99979458  0.80321863  0.83778154  1
  O  O82  1  0.50020542  0.80321863  0.66221846  1
  O  O83  1  0.50020542  0.80321863  0.83778154  1
  O  O84  1  0.00020542  0.19678137  0.33778154  1
  O  O85  1  0.00020542  0.19678137  0.16221846  1
  O  O86  1  0.49979458  0.19678137  0.33778154  1
  O  O87  1  0.49979458  0.19678137  0.16221846  1
