# generated using pymatgen
data_MgCrH10O9
_symmetry_space_group_name_H-M   'P 1'
_cell_length_a   6.24805982
_cell_length_b   6.45712371
_cell_length_c   11.02137448
_cell_angle_alpha   75.23512781
_cell_angle_beta   81.03784577
_cell_angle_gamma   70.21238106
_symmetry_Int_Tables_number   1
_chemical_formula_structural   MgCrH10O9
_chemical_formula_sum   'Mg2 Cr2 H20 O18'
_cell_volume   403.39915336
_cell_formula_units_Z   2
loop_
 _symmetry_equiv_pos_site_id
 _symmetry_equiv_pos_as_xyz
  1  'x, y, z'
loop_
 _atom_site_type_symbol
 _atom_site_label
 _atom_site_symmetry_multiplicity
 _atom_site_fract_x
 _atom_site_fract_y
 _atom_site_fract_z
 _atom_site_occupancy
  Mg  Mg0  1  0.00000000  0.00000000  -0.00000000  1
  Mg  Mg1  1  0.00000000  0.50000000  0.50000000  1
  Cr  Cr2  1  0.64799256  0.97838504  0.28972254  1
  Cr  Cr3  1  0.35200744  0.02161496  0.71027746  1
  H  H4  1  0.66094479  0.31959287  0.62756611  1
  H  H5  1  0.33905521  0.68040713  0.37243389  1
  H  H6  1  0.56306848  0.59197104  0.60554338  1
  H  H7  1  0.43693152  0.40802896  0.39445662  1
  H  H8  1  0.90303177  0.32288201  0.79396466  1
  H  H9  1  0.09696823  0.67711799  0.20603534  1
  H  H10  1  0.66423401  0.34130554  0.87242543  1
  H  H11  1  0.33576599  0.65869446  0.12757457  1
  H  H12  1  0.74926011  0.89736004  0.85950561  1
  H  H13  1  0.25073989  0.10263996  0.14049439  1
  H  H14  1  0.76749257  0.72062265  0.99276015  1
  H  H15  1  0.23250743  0.27937735  0.00723985  1
  H  H16  1  0.30360224  0.60708992  0.87385273  1
  H  H17  1  0.69639776  0.39291008  0.12614727  1
  H  H18  1  0.29402869  0.43021968  0.80171365  1
  H  H19  1  0.70597131  0.56978032  0.19828635  1
  H  H20  1  0.10193952  0.80198711  0.59359314  1
  H  H21  1  0.89806048  0.19801289  0.40640686  1
  H  H22  1  0.83200340  0.86014527  0.62018847  1
  H  H23  1  0.16799660  0.13985473  0.37981153  1
  O  O24  1  0.82646533  0.72108118  0.34022891  1
  O  O25  1  0.17353467  0.27891882  0.65977109  1
  O  O26  1  0.38438181  0.96157061  0.29472304  1
  O  O27  1  0.61561819  0.03842939  0.70527696  1
  O  O28  1  0.35297145  0.84734182  0.62281331  1
  O  O29  1  0.64702855  0.15265818  0.37718669  1
  O  O30  1  0.26660818  0.92225220  0.85840739  1
  O  O31  1  0.73339182  0.07774780  0.14159261  1
  O  O32  1  0.69962432  0.46114178  0.59598119  1
  O  O33  1  0.30037568  0.53885822  0.40401881  1
  O  O34  1  0.83117678  0.29513785  0.87952209  1
  O  O35  1  0.16882322  0.70486215  0.12047791  1
  O  O36  1  0.84105969  0.82370476  0.93274719  1
  O  O37  1  0.15894031  0.17629524  0.06725281  1
  O  O38  1  0.35670745  0.44379963  0.87417965  1
  O  O39  1  0.64329255  0.55620037  0.12582035  1
  O  O40  1  0.96861490  0.76089812  0.58159078  1
  O  O41  1  0.03138510  0.23910188  0.41840922  1
