# generated using pymatgen
data_Li2PH3O4
_symmetry_space_group_name_H-M   'P 1'
_cell_length_a   5.10665974
_cell_length_b   9.08403306
_cell_length_c   18.21751302
_cell_angle_alpha   90.00000000
_cell_angle_beta   91.48469398
_cell_angle_gamma   90.00000000
_symmetry_Int_Tables_number   1
_chemical_formula_structural   Li2PH3O4
_chemical_formula_sum   'Li16 P8 H24 O32'
_cell_volume   844.80969835
_cell_formula_units_Z   8
loop_
 _symmetry_equiv_pos_site_id
 _symmetry_equiv_pos_as_xyz
  1  'x, y, z'
loop_
 _atom_site_type_symbol
 _atom_site_label
 _atom_site_symmetry_multiplicity
 _atom_site_fract_x
 _atom_site_fract_y
 _atom_site_fract_z
 _atom_site_occupancy
  Li  Li0  1  0.31997384  0.85445633  0.95515475  1
  Li  Li1  1  0.68002616  0.35445633  0.54484525  1
  Li  Li2  1  0.68002616  0.14554367  0.04484525  1
  Li  Li3  1  0.31997384  0.64554367  0.45515475  1
  Li  Li4  1  0.31389273  0.17965843  0.89033549  1
  Li  Li5  1  0.68610727  0.67965843  0.60966451  1
  Li  Li6  1  0.68610727  0.82034157  0.10966451  1
  Li  Li7  1  0.31389273  0.32034157  0.39033549  1
  Li  Li8  1  0.80807095  0.34328653  0.94446886  1
  Li  Li9  1  0.19192905  0.84328653  0.55553114  1
  Li  Li10  1  0.19192905  0.65671347  0.05553114  1
  Li  Li11  1  0.80807095  0.15671347  0.44446886  1
  Li  Li12  1  0.80745997  0.67001849  0.94998874  1
  Li  Li13  1  0.19254003  0.17001849  0.55001126  1
  Li  Li14  1  0.19254003  0.32998151  0.05001126  1
  Li  Li15  1  0.80745997  0.82998151  0.44998874  1
  P  P16  1  0.30439418  0.51197122  0.90588880  1
  P  P17  1  0.69560582  0.01197122  0.59411120  1
  P  P18  1  0.69560582  0.48802878  0.09411120  1
  P  P19  1  0.30439418  0.98802878  0.40588880  1
  P  P20  1  0.80494199  0.00214333  0.89688108  1
  P  P21  1  0.19505801  0.50214333  0.60311892  1
  P  P22  1  0.19505801  0.99785667  0.10311892  1
  P  P23  1  0.80494199  0.49785667  0.39688108  1
  H  H24  1  0.73647324  0.01209867  0.82126896  1
  H  H25  1  0.26352676  0.51209867  0.67873104  1
  H  H26  1  0.26352676  0.98790133  0.17873104  1
  H  H27  1  0.73647324  0.48790133  0.32126896  1
  H  H28  1  0.43616951  0.25672377  0.75801555  1
  H  H29  1  0.56383049  0.75672377  0.74198445  1
  H  H30  1  0.56383049  0.74327623  0.24198445  1
  H  H31  1  0.43616951  0.24327623  0.25801555  1
  H  H32  1  0.12584691  0.25648164  0.76295679  1
  H  H33  1  0.87415309  0.75648164  0.73704321  1
  H  H34  1  0.87415309  0.74351836  0.23704321  1
  H  H35  1  0.12584691  0.24351836  0.26295679  1
  H  H36  1  0.21466624  0.91174734  0.79813110  1
  H  H37  1  0.78533376  0.41174734  0.70186890  1
  H  H38  1  0.78533376  0.08825266  0.20186890  1
  H  H39  1  0.21466624  0.58825266  0.29813110  1
  H  H40  1  0.26328494  0.93429517  0.71513968  1
  H  H41  1  0.73671506  0.43429517  0.78486032  1
  H  H42  1  0.73671506  0.06570483  0.28486032  1
  H  H43  1  0.26328494  0.56570483  0.21513968  1
  H  H44  1  0.21501651  0.52788632  0.83231688  1
  H  H45  1  0.78498349  0.02788632  0.66768312  1
  H  H46  1  0.78498349  0.47211368  0.16768312  1
  H  H47  1  0.21501651  0.97211368  0.33231688  1
  O  O48  1  0.18889831  0.36603863  0.93489659  1
  O  O49  1  0.81110169  0.86603863  0.56510341  1
  O  O50  1  0.81110169  0.63396137  0.06510341  1
  O  O51  1  0.18889831  0.13396137  0.43489659  1
  O  O52  1  0.60479309  0.50790354  0.90472620  1
  O  O53  1  0.39520691  0.00790354  0.59527380  1
  O  O54  1  0.39520691  0.49209646  0.09527380  1
  O  O55  1  0.60479309  0.99209646  0.40472620  1
  O  O56  1  0.19393028  0.64663099  0.94664167  1
  O  O57  1  0.80606972  0.14663099  0.55335833  1
  O  O58  1  0.80606972  0.35336901  0.05335833  1
  O  O59  1  0.19393028  0.85336901  0.44664167  1
  O  O60  1  0.68071423  0.86159707  0.92609728  1
  O  O61  1  0.31928577  0.36159707  0.57390272  1
  O  O62  1  0.31928577  0.13840293  0.07390272  1
  O  O63  1  0.68071423  0.63840293  0.42609728  1
  O  O64  1  0.10629320  0.99936989  0.90110811  1
  O  O65  1  0.89370680  0.49936989  0.59889189  1
  O  O66  1  0.89370680  0.00063011  0.09889189  1
  O  O67  1  0.10629320  0.50063011  0.40110811  1
  O  O68  1  0.68393387  0.14212685  0.93133432  1
  O  O69  1  0.31606613  0.64212685  0.56866568  1
  O  O70  1  0.31606613  0.85787315  0.06866568  1
  O  O71  1  0.68393387  0.35787315  0.43133432  1
  O  O72  1  0.28655213  0.20575443  0.77989273  1
  O  O73  1  0.71344787  0.70575443  0.72010727  1
  O  O74  1  0.71344787  0.79424557  0.22010727  1
  O  O75  1  0.28655213  0.29424557  0.27989273  1
  O  O76  1  0.23479520  0.85735018  0.75168371  1
  O  O77  1  0.76520480  0.35735018  0.74831629  1
  O  O78  1  0.76520480  0.14264982  0.24831629  1
  O  O79  1  0.23479520  0.64264982  0.25168371  1
