# generated using pymatgen
data_Na2Al3P3(HO7)2
_symmetry_space_group_name_H-M   'P 1'
_cell_length_a   8.56703473
_cell_length_b   8.57152826
_cell_length_c   14.46011070
_cell_angle_alpha   90.00000000
_cell_angle_beta   90.00000000
_cell_angle_gamma   90.00000000
_symmetry_Int_Tables_number   1
_chemical_formula_structural   Na2Al3P3(HO7)2
_chemical_formula_sum   'Na8 Al12 P12 H8 O56'
_cell_volume   1061.84324002
_cell_formula_units_Z   4
loop_
 _symmetry_equiv_pos_site_id
 _symmetry_equiv_pos_as_xyz
  1  'x, y, z'
loop_
 _atom_site_type_symbol
 _atom_site_label
 _atom_site_symmetry_multiplicity
 _atom_site_fract_x
 _atom_site_fract_y
 _atom_site_fract_z
 _atom_site_occupancy
  Na  Na0  1  0.52194336  0.76146059  0.46391168  1
  Na  Na1  1  0.47805664  0.73853941  0.96391168  1
  Na  Na2  1  0.97805664  0.26146059  0.53608832  1
  Na  Na3  1  0.02194336  0.23853941  0.03608832  1
  Na  Na4  1  0.99722445  0.21979743  0.78928381  1
  Na  Na5  1  0.00277555  0.28020257  0.28928381  1
  Na  Na6  1  0.50277555  0.71979743  0.21071619  1
  Na  Na7  1  0.49722445  0.78020257  0.71071619  1
  Al  Al8  1  0.88220309  0.65457956  0.54154203  1
  Al  Al9  1  0.11779691  0.84542044  0.04154203  1
  Al  Al10  1  0.61779691  0.15457956  0.45845797  1
  Al  Al11  1  0.38220309  0.34542044  0.95845797  1
  Al  Al12  1  0.11736128  0.86521779  0.69833576  1
  Al  Al13  1  0.88263872  0.63478221  0.19833576  1
  Al  Al14  1  0.38263872  0.36521779  0.30166424  1
  Al  Al15  1  0.61736128  0.13478221  0.80166424  1
  Al  Al16  1  0.38929621  0.39184898  0.61354568  1
  Al  Al17  1  0.61070379  0.10815102  0.11354568  1
  Al  Al18  1  0.11070379  0.89184898  0.38645432  1
  Al  Al19  1  0.88929621  0.60815102  0.88645432  1
  P  P20  1  0.21453958  0.53760262  0.79228021  1
  P  P21  1  0.78546042  0.96239738  0.29228021  1
  P  P22  1  0.28546042  0.03760262  0.20771979  1
  P  P23  1  0.71453958  0.46239738  0.70771979  1
  P  P24  1  0.77622956  0.97163612  0.62759968  1
  P  P25  1  0.22377044  0.52836388  0.12759968  1
  P  P26  1  0.72377044  0.47163612  0.37240032  1
  P  P27  1  0.27622956  0.02836388  0.87240032  1
  P  P28  1  0.29742473  0.05136770  0.54546184  1
  P  P29  1  0.70257527  0.44863230  0.04546184  1
  P  P30  1  0.20257527  0.55136770  0.45453816  1
  P  P31  1  0.79742473  0.94863230  0.95453816  1
  H  H32  1  0.08388787  0.61017698  0.64489437  1
  H  H33  1  0.91611213  0.88982302  0.14489437  1
  H  H34  1  0.41611213  0.11017698  0.35510563  1
  H  H35  1  0.58388787  0.38982302  0.85510563  1
  H  H36  1  0.63843711  0.38203597  0.54782819  1
  H  H37  1  0.36156289  0.11796403  0.04782819  1
  H  H38  1  0.86156289  0.88203597  0.45217181  1
  H  H39  1  0.13843711  0.61796403  0.95217181  1
  O  O40  1  0.31798309  0.51618742  0.87888020  1
  O  O41  1  0.68201691  0.98381258  0.37888020  1
  O  O42  1  0.18201691  0.01618742  0.12111980  1
  O  O43  1  0.81798309  0.48381258  0.62111980  1
  O  O44  1  0.46209429  0.01820353  0.50751461  1
  O  O45  1  0.53790571  0.48179647  0.00751461  1
  O  O46  1  0.03790571  0.51820353  0.49248539  1
  O  O47  1  0.96209429  0.98179647  0.99248539  1
  O  O48  1  0.02516122  0.70598223  0.63574548  1
  O  O49  1  0.97483878  0.79401777  0.13574548  1
  O  O50  1  0.47483878  0.20598223  0.36425452  1
  O  O51  1  0.52516122  0.29401777  0.86425452  1
  O  O52  1  0.54997221  0.31091960  0.54198460  1
  O  O53  1  0.45002779  0.18908040  0.04198460  1
  O  O54  1  0.95002779  0.81091960  0.45801540  1
  O  O55  1  0.04997221  0.68908040  0.95801540  1
  O  O56  1  0.73831661  0.80372674  0.59247092  1
  O  O57  1  0.26168339  0.69627326  0.09247092  1
  O  O58  1  0.76168339  0.30372674  0.40752908  1
  O  O59  1  0.23831661  0.19627326  0.90752908  1
  O  O60  1  0.26911278  0.92543052  0.62021314  1
  O  O61  1  0.73088722  0.57456948  0.12021314  1
  O  O62  1  0.23088722  0.42543052  0.37978686  1
  O  O63  1  0.76911278  0.07456948  0.87978686  1
  O  O64  1  0.64986778  0.00560099  0.70181508  1
  O  O65  1  0.35013222  0.49439901  0.20181508  1
  O  O66  1  0.85013222  0.50560099  0.29818492  1
  O  O67  1  0.14986778  0.99439901  0.79818492  1
  O  O68  1  0.72948553  0.58858860  0.45388482  1
  O  O69  1  0.27051447  0.91141140  0.95388482  1
  O  O70  1  0.77051447  0.08858860  0.54611518  1
  O  O71  1  0.22948553  0.41141140  0.04611518  1
  O  O72  1  0.94171576  0.98761767  0.67115648  1
  O  O73  1  0.05828424  0.51238233  0.17115648  1
  O  O74  1  0.55828424  0.48761767  0.32884352  1
  O  O75  1  0.44171576  0.01238233  0.82884352  1
  O  O76  1  0.73723947  0.29078521  0.73990687  1
  O  O77  1  0.26276053  0.20921479  0.23990687  1
  O  O78  1  0.76276053  0.79078521  0.26009313  1
  O  O79  1  0.23723947  0.70921479  0.76009313  1
  O  O80  1  0.24910367  0.42395122  0.71156739  1
  O  O81  1  0.75089633  0.07604878  0.21156739  1
  O  O82  1  0.25089633  0.92395122  0.28843261  1
  O  O83  1  0.74910367  0.57604878  0.78843261  1
  O  O84  1  0.04050351  0.50351852  0.81772643  1
  O  O85  1  0.95949649  0.99648148  0.31772643  1
  O  O86  1  0.45949649  0.00351852  0.18227357  1
  O  O87  1  0.54050351  0.49648148  0.68227357  1
  O  O88  1  0.27463723  0.21527094  0.58814377  1
  O  O89  1  0.72536277  0.28472906  0.08814377  1
  O  O90  1  0.22536277  0.71527094  0.41185623  1
  O  O91  1  0.77463723  0.78472906  0.91185623  1
  O  O92  1  0.17430205  0.04131930  0.46683966  1
  O  O93  1  0.82569795  0.45868070  0.96683966  1
  O  O94  1  0.32569795  0.54131930  0.53316034  1
  O  O95  1  0.67430205  0.95868070  0.03316034  1
