# generated using pymatgen
data_Li7La3Hf2O12
_symmetry_space_group_name_H-M   'P 1'
_cell_length_a   11.28282211
_cell_length_b   11.28282211
_cell_length_c   11.28282211
_cell_angle_alpha   108.35944409
_cell_angle_beta   108.35944409
_cell_angle_gamma   111.71841587
_symmetry_Int_Tables_number   1
_chemical_formula_structural   Li7La3Hf2O12
_chemical_formula_sum   'Li28 La12 Hf8 O48'
_cell_volume   1104.40359036
_cell_formula_units_Z   4
loop_
 _symmetry_equiv_pos_site_id
 _symmetry_equiv_pos_as_xyz
  1  'x, y, z'
loop_
 _atom_site_type_symbol
 _atom_site_label
 _atom_site_symmetry_multiplicity
 _atom_site_fract_x
 _atom_site_fract_y
 _atom_site_fract_z
 _atom_site_occupancy
  Li  Li0  1  0.12500000  0.87500000  0.75000000  1
  Li  Li1  1  0.62500000  0.37500000  0.75000000  1
  Li  Li2  1  0.37500000  0.62500000  0.25000000  1
  Li  Li3  1  0.87500000  0.12500000  0.25000000  1
  Li  Li4  1  0.69659190  0.44659190  0.39318380  1
  Li  Li5  1  0.55340810  0.94659190  0.75000000  1
  Li  Li6  1  0.94659190  0.19659190  0.89318380  1
  Li  Li7  1  0.80340810  0.69659190  0.25000000  1
  Li  Li8  1  0.30340810  0.55340810  0.60681620  1
  Li  Li9  1  0.44659190  0.05340810  0.25000000  1
  Li  Li10  1  0.05340810  0.80340810  0.10681620  1
  Li  Li11  1  0.19659190  0.30340810  0.75000000  1
  Li  Li12  1  0.71884153  0.22513740  0.83343208  1
  Li  Li13  1  0.89170532  0.72513740  0.50629588  1
  Li  Li14  1  0.72513740  0.21884153  0.33343208  1
  Li  Li15  1  0.38540945  0.71884153  0.49370412  1
  Li  Li16  1  0.28115847  0.77486260  0.16656792  1
  Li  Li17  1  0.10829468  0.27486260  0.49370412  1
  Li  Li18  1  0.27486260  0.78115847  0.66656792  1
  Li  Li19  1  0.61459055  0.28115847  0.50629588  1
  Li  Li20  1  0.21884153  0.88540945  0.99370412  1
  Li  Li21  1  0.39170532  0.38540945  0.66656792  1
  Li  Li22  1  0.22513740  0.39170532  0.00629588  1
  Li  Li23  1  0.88540945  0.89170532  0.16656792  1
  Li  Li24  1  0.78115847  0.11459055  0.00629588  1
  Li  Li25  1  0.60829468  0.61459055  0.33343208  1
  Li  Li26  1  0.77486260  0.60829468  0.99370412  1
  Li  Li27  1  0.11459055  0.10829468  0.83343208  1
  La  La28  1  0.87500000  0.62500000  0.75000000  1
  La  La29  1  0.37500000  0.12500000  0.75000000  1
  La  La30  1  0.12500000  0.37500000  0.25000000  1
  La  La31  1  0.62500000  0.87500000  0.25000000  1
  La  La32  1  0.25000000  0.62142940  0.87142940  1
  La  La33  1  0.25000000  0.12142940  0.37142940  1
  La  La34  1  0.12142940  0.75000000  0.37142940  1
  La  La35  1  0.87857060  0.25000000  0.62857060  1
  La  La36  1  0.75000000  0.37857060  0.12857060  1
  La  La37  1  0.75000000  0.87857060  0.62857060  1
  La  La38  1  0.62142940  0.75000000  0.87142940  1
  La  La39  1  0.37857060  0.25000000  0.12857060  1
  Hf  Hf40  1  -0.00000000  0.50000000  0.00000000  1
  Hf  Hf41  1  -0.00000000  -0.00000000  0.50000000  1
  Hf  Hf42  1  -0.00000000  0.50000000  0.50000000  1
  Hf  Hf43  1  0.50000000  -0.00000000  0.50000000  1
  Hf  Hf44  1  0.50000000  -0.00000000  0.00000000  1
  Hf  Hf45  1  0.50000000  0.50000000  0.50000000  1
  Hf  Hf46  1  0.50000000  0.50000000  0.00000000  1
  Hf  Hf47  1  -0.00000000  -0.00000000  0.00000000  1
  O  O48  1  0.09767246  0.68599286  0.97887531  1
  O  O49  1  0.20711755  0.18599286  0.58832040  1
  O  O50  1  0.18599286  0.59767246  0.47887531  1
  O  O51  1  0.61879715  0.09767246  0.41167960  1
  O  O52  1  0.90232754  0.31400714  0.02112469  1
  O  O53  1  0.79288245  0.81400714  0.41167960  1
  O  O54  1  0.81400714  0.40232754  0.52112469  1
  O  O55  1  0.38120285  0.90232754  0.58832040  1
  O  O56  1  0.59767246  0.11879715  0.91167960  1
  O  O57  1  0.70711755  0.61879715  0.52112469  1
  O  O58  1  0.68599286  0.70711755  0.08832040  1
  O  O59  1  0.11879715  0.20711755  0.02112469  1
  O  O60  1  0.40232754  0.88120285  0.08832040  1
  O  O61  1  0.29288245  0.38120285  0.47887531  1
  O  O62  1  0.31400714  0.29288245  0.91167960  1
  O  O63  1  0.88120285  0.79288245  0.97887531  1
  O  O64  1  0.68005085  0.98037049  0.09222394  1
  O  O65  1  0.38814654  0.48037049  0.30031964  1
  O  O66  1  0.48037049  0.18005085  0.59222394  1
  O  O67  1  0.08782691  0.68005085  0.69968036  1
  O  O68  1  0.31994915  0.01962951  0.90777606  1
  O  O69  1  0.61185346  0.51962951  0.69968036  1
  O  O70  1  0.51962951  0.81994915  0.40777606  1
  O  O71  1  0.91217309  0.31994915  0.30031964  1
  O  O72  1  0.18005085  0.58782691  0.19968036  1
  O  O73  1  0.88814654  0.08782691  0.40777606  1
  O  O74  1  0.98037049  0.88814654  0.80031964  1
  O  O75  1  0.58782691  0.38814654  0.90777606  1
  O  O76  1  0.81994915  0.41217309  0.80031964  1
  O  O77  1  0.11185346  0.91217309  0.59222394  1
  O  O78  1  0.01962951  0.11185346  0.19968036  1
  O  O79  1  0.41217309  0.61185346  0.09222394  1
  O  O80  1  0.42027691  0.79859793  0.82369791  1
  O  O81  1  0.47490002  0.29859793  0.37832102  1
  O  O82  1  0.29859793  0.92027691  0.32369791  1
  O  O83  1  0.09657900  0.42027691  0.62167898  1
  O  O84  1  0.57972309  0.20140207  0.17630209  1
  O  O85  1  0.52509998  0.70140207  0.62167898  1
  O  O86  1  0.70140207  0.07972309  0.67630209  1
  O  O87  1  0.90342100  0.57972309  0.37832102  1
  O  O88  1  0.92027691  0.59657900  0.12167898  1
  O  O89  1  0.97490002  0.09657900  0.67630209  1
  O  O90  1  0.79859793  0.97490002  0.87832102  1
  O  O91  1  0.59657900  0.47490002  0.17630209  1
  O  O92  1  0.07972309  0.40342100  0.87832102  1
  O  O93  1  0.02509998  0.90342100  0.32369791  1
  O  O94  1  0.20140207  0.02509998  0.12167898  1
  O  O95  1  0.40342100  0.52509998  0.82369791  1
