# generated using pymatgen
data_Nd6Fe13Ge
_symmetry_space_group_name_H-M   'P 1'
_cell_length_a   8.02182915
_cell_length_b   8.02182915
_cell_length_c   12.86465365
_cell_angle_alpha   108.16640912
_cell_angle_beta   108.16640912
_cell_angle_gamma   90.00000000
_symmetry_Int_Tables_number   1
_chemical_formula_structural   Nd6Fe13Ge
_chemical_formula_sum   'Nd12 Fe26 Ge2'
_cell_volume   743.02203365
_cell_formula_units_Z   2
loop_
 _symmetry_equiv_pos_site_id
 _symmetry_equiv_pos_as_xyz
  1  'x, y, z'
loop_
 _atom_site_type_symbol
 _atom_site_label
 _atom_site_symmetry_multiplicity
 _atom_site_fract_x
 _atom_site_fract_y
 _atom_site_fract_z
 _atom_site_occupancy
  Nd  Nd0  1  0.39162987  0.39162987  0.78325975  1
  Nd  Nd1  1  0.89162987  0.89162987  0.78325975  1
  Nd  Nd2  1  0.60837013  0.60837013  0.21674025  1
  Nd  Nd3  1  0.10837013  0.10837013  0.21674025  1
  Nd  Nd4  1  0.97725158  0.47725158  0.62257086  1
  Nd  Nd5  1  0.64531929  0.14531929  0.62257086  1
  Nd  Nd6  1  0.14531929  0.97725158  0.62257086  1
  Nd  Nd7  1  0.47725158  0.64531929  0.62257086  1
  Nd  Nd8  1  0.02274842  0.52274842  0.37742914  1
  Nd  Nd9  1  0.35468071  0.85468071  0.37742914  1
  Nd  Nd10  1  0.85468071  0.02274842  0.37742914  1
  Nd  Nd11  1  0.52274842  0.35468071  0.37742914  1
  Fe  Fe12  1  0.70898359  0.56509936  0.00000000  1
  Fe  Fe13  1  0.29101641  0.43490064  1.00000000  1
  Fe  Fe14  1  0.79101641  0.06509936  1.00000000  1
  Fe  Fe15  1  0.20898359  0.93490064  0.00000000  1
  Fe  Fe16  1  0.56509936  0.29101641  1.00000000  1
  Fe  Fe17  1  0.43490064  0.70898359  0.00000000  1
  Fe  Fe18  1  0.06509936  0.20898359  0.00000000  1
  Fe  Fe19  1  0.93490064  0.79101641  1.00000000  1
  Fe  Fe20  1  0.11896994  0.61896994  0.87930247  1
  Fe  Fe21  1  0.76033253  0.26033253  0.87930247  1
  Fe  Fe22  1  0.26033253  0.11896994  0.87930247  1
  Fe  Fe23  1  0.61896994  0.76033253  0.87930247  1
  Fe  Fe24  1  0.88103006  0.38103006  0.12069753  1
  Fe  Fe25  1  0.23966747  0.73966747  0.12069753  1
  Fe  Fe26  1  0.73966747  0.88103006  0.12069753  1
  Fe  Fe27  1  0.38103006  0.23966747  0.12069753  1
  Fe  Fe28  1  0.29128787  0.79128787  0.80934590  1
  Fe  Fe29  1  0.51805803  0.01805803  0.80934590  1
  Fe  Fe30  1  0.01805803  0.29128787  0.80934590  1
  Fe  Fe31  1  0.79128787  0.51805803  0.80934590  1
  Fe  Fe32  1  0.70871213  0.20871213  0.19065410  1
  Fe  Fe33  1  0.48194197  0.98194197  0.19065410  1
  Fe  Fe34  1  0.98194197  0.70871213  0.19065410  1
  Fe  Fe35  1  0.20871213  0.48194197  0.19065410  1
  Fe  Fe36  1  0.00000000  0.50000000  0.00000000  1
  Fe  Fe37  1  0.50000000  0.00000000  0.00000000  1
  Ge  Ge38  1  0.25000000  0.25000000  0.50000000  1
  Ge  Ge39  1  0.75000000  0.75000000  0.50000000  1
