# generated using pymatgen
data_Yb5(Ni2Ge5)2
_symmetry_space_group_name_H-M   'P 1'
_cell_length_a   4.19464235
_cell_length_b   12.84024169
_cell_length_c   12.84024169
_cell_angle_alpha   90.00000000
_cell_angle_beta   90.00000000
_cell_angle_gamma   90.00000000
_symmetry_Int_Tables_number   1
_chemical_formula_structural   Yb5(Ni2Ge5)2
_chemical_formula_sum   'Yb10 Ni8 Ge20'
_cell_volume   691.57826253
_cell_formula_units_Z   2
loop_
 _symmetry_equiv_pos_site_id
 _symmetry_equiv_pos_as_xyz
  1  'x, y, z'
loop_
 _atom_site_type_symbol
 _atom_site_label
 _atom_site_symmetry_multiplicity
 _atom_site_fract_x
 _atom_site_fract_y
 _atom_site_fract_z
 _atom_site_occupancy
  Yb  Yb0  1  0.00000000  0.50000000  0.50000000  1
  Yb  Yb1  1  -0.00000000  -0.00000000  0.00000000  1
  Yb  Yb2  1  0.50000000  0.32124544  0.82124544  1
  Yb  Yb3  1  0.50000000  0.67875456  0.17875456  1
  Yb  Yb4  1  0.50000000  0.17875456  0.32124544  1
  Yb  Yb5  1  0.50000000  0.82124544  0.67875456  1
  Yb  Yb6  1  0.50000000  0.61072930  0.88927070  1
  Yb  Yb7  1  0.50000000  0.38927070  0.11072930  1
  Yb  Yb8  1  0.50000000  0.88927070  0.38927070  1
  Yb  Yb9  1  0.50000000  0.11072930  0.61072930  1
  Ni  Ni10  1  -0.00000000  0.47169455  0.74690554  1
  Ni  Ni11  1  0.00000000  0.52830545  0.25309446  1
  Ni  Ni12  1  0.00000000  0.02830545  0.24690554  1
  Ni  Ni13  1  -0.00000000  0.97169455  0.75309446  1
  Ni  Ni14  1  0.00000000  0.74690554  0.52830545  1
  Ni  Ni15  1  -0.00000000  0.25309446  0.47169455  1
  Ni  Ni16  1  0.00000000  0.24690554  0.97169455  1
  Ni  Ni17  1  -0.00000000  0.75309446  0.02830545  1
  Ge  Ge18  1  0.00000000  0.43350165  0.93350165  1
  Ge  Ge19  1  -0.00000000  0.56649835  0.06649835  1
  Ge  Ge20  1  -0.00000000  0.06649835  0.43350165  1
  Ge  Ge21  1  0.00000000  0.93350165  0.56649835  1
  Ge  Ge22  1  0.00000000  0.65188493  0.69806426  1
  Ge  Ge23  1  -0.00000000  0.34811507  0.30193574  1
  Ge  Ge24  1  0.00000000  0.84811507  0.19806426  1
  Ge  Ge25  1  -0.00000000  0.15188493  0.80193574  1
  Ge  Ge26  1  0.00000000  0.69806426  0.34811507  1
  Ge  Ge27  1  -0.00000000  0.30193574  0.65188493  1
  Ge  Ge28  1  0.00000000  0.19806426  0.15188493  1
  Ge  Ge29  1  -0.00000000  0.80193574  0.84811507  1
  Ge  Ge30  1  0.50000000  0.83942357  0.00309234  1
  Ge  Ge31  1  0.50000000  0.16057643  0.99690766  1
  Ge  Ge32  1  0.50000000  0.66057643  0.50309234  1
  Ge  Ge33  1  0.50000000  0.33942357  0.49690766  1
  Ge  Ge34  1  0.50000000  0.00309234  0.16057643  1
  Ge  Ge35  1  0.50000000  0.99690766  0.83942357  1
  Ge  Ge36  1  0.50000000  0.50309234  0.33942357  1
  Ge  Ge37  1  0.50000000  0.49690766  0.66057643  1
