# generated using pymatgen
data_K2NdH4N5O17
_symmetry_space_group_name_H-M   'P 1'
_cell_length_a   8.44388869
_cell_length_b   8.44388869
_cell_length_c   12.25199914
_cell_angle_alpha   108.44720025
_cell_angle_beta   108.44720025
_cell_angle_gamma   94.68770308
_symmetry_Int_Tables_number   1
_chemical_formula_structural   K2NdH4N5O17
_chemical_formula_sum   'K4 Nd2 H8 N10 O34'
_cell_volume   769.87141947
_cell_formula_units_Z   2
loop_
 _symmetry_equiv_pos_site_id
 _symmetry_equiv_pos_as_xyz
  1  'x, y, z'
loop_
 _atom_site_type_symbol
 _atom_site_label
 _atom_site_symmetry_multiplicity
 _atom_site_fract_x
 _atom_site_fract_y
 _atom_site_fract_z
 _atom_site_occupancy
  K  K0  1  0.19425568  0.72055206  0.29837109  1
  K  K1  1  0.27944794  0.80574432  0.70162891  1
  K  K2  1  0.32781903  0.35411541  0.79837109  1
  K  K3  1  0.64588459  0.67218097  0.20162891  1
  Nd  Nd4  1  0.74922385  0.25077615  0.50000000  1
  Nd  Nd5  1  0.99922385  0.00077615  -0.00000000  1
  H  H6  1  0.52791022  0.10689039  0.21417362  1
  H  H7  1  0.89310961  0.47208978  0.78582638  1
  H  H8  1  0.85728323  0.93626340  0.71417362  1
  H  H9  1  0.06373660  0.14271677  0.28582638  1
  H  H10  1  0.71398700  0.13602473  0.22185428  1
  H  H11  1  0.86397527  0.28601300  0.77814572  1
  H  H12  1  0.83582955  0.75786728  0.72185428  1
  H  H13  1  0.24213272  0.16417045  0.27814572  1
  N  N14  1  0.05711507  0.43919480  0.48200631  1
  N  N15  1  0.56080520  0.94288493  0.51799369  1
  N  N16  1  0.79281151  0.67489124  0.98200631  1
  N  N17  1  0.32510876  0.20718849  0.01799369  1
  N  N18  1  0.52786058  0.43861797  0.35312566  1
  N  N19  1  0.56138203  0.47213942  0.64687434  1
  N  N20  1  0.66450769  0.07526508  0.85312566  1
  N  N21  1  0.92473492  0.33549231  0.14687434  1
  N  N22  1  0.00199545  0.99800455  0.50000000  1
  N  N23  1  0.25199545  0.74800455  -0.00000000  1
  O  O24  1  0.97581736  0.29103976  0.40259944  1
  O  O25  1  0.70896024  0.02418264  0.59740056  1
  O  O26  1  0.86155968  0.67678208  0.90259944  1
  O  O27  1  0.32321792  0.13844032  0.09740056  1
  O  O28  1  0.01491353  0.49397414  0.57716490  1
  O  O29  1  0.50602586  0.98508647  0.42283510  1
  O  O30  1  0.83319076  0.81225137  0.07716490  1
  O  O31  1  0.18774863  0.16680924  0.92283510  1
  O  O32  1  0.16992746  0.52520956  0.46817563  1
  O  O33  1  0.47479044  0.83007254  0.53182437  1
  O  O34  1  0.69296606  0.54824817  0.96817563  1
  O  O35  1  0.45175183  0.30703394  0.03182437  1
  O  O36  1  0.68935921  0.47123026  0.38666344  1
  O  O37  1  0.52876974  0.31064079  0.61333656  1
  O  O38  1  0.66543318  0.94730423  0.88666344  1
  O  O39  1  0.05269577  0.33456682  0.11333656  1
  O  O40  1  0.46175975  0.31774313  0.37751358  1
  O  O41  1  0.68225687  0.53824025  0.62248642  1
  O  O42  1  0.80977046  0.16575383  0.87751358  1
  O  O43  1  0.83424617  0.19022954  0.12248642  1
  O  O44  1  0.43789622  0.51992884  0.29810294  1
  O  O45  1  0.48007116  0.56210378  0.70189706  1
  O  O46  1  0.52817411  0.11020672  0.79810294  1
  O  O47  1  0.88979328  0.47182589  0.20189706  1
  O  O48  1  0.03634175  0.13926067  0.58961744  1
  O  O49  1  0.86073933  0.96365825  0.41038256  1
  O  O50  1  0.20035678  0.80327569  0.08961744  1
  O  O51  1  0.19672431  0.79964322  0.91038256  1
  O  O52  1  0.10285191  0.89714809  0.50000000  1
  O  O53  1  0.35285191  0.64714809  -0.00000000  1
  O  O54  1  0.64155922  0.09314795  0.25987681  1
  O  O55  1  0.90685205  0.35844078  0.74012319  1
  O  O56  1  0.91672886  0.86831760  0.75987681  1
  O  O57  1  0.13168240  0.08327114  0.24012319  1
