# generated using pymatgen
data_Co5(PO6)2
_symmetry_space_group_name_H-M   'P 1'
_cell_length_a   5.43065701
_cell_length_b   8.88954706
_cell_length_c   16.94256567
_cell_angle_alpha   90.00000000
_cell_angle_beta   90.00000000
_cell_angle_gamma   90.00000000
_symmetry_Int_Tables_number   1
_chemical_formula_structural   Co5(PO6)2
_chemical_formula_sum   'Co20 P8 O48'
_cell_volume   817.92067360
_cell_formula_units_Z   4
loop_
 _symmetry_equiv_pos_site_id
 _symmetry_equiv_pos_as_xyz
  1  'x, y, z'
loop_
 _atom_site_type_symbol
 _atom_site_label
 _atom_site_symmetry_multiplicity
 _atom_site_fract_x
 _atom_site_fract_y
 _atom_site_fract_z
 _atom_site_occupancy
  Co  Co0  1  0.05547969  0.62841985  0.62750949  1
  Co  Co1  1  0.55547969  0.87158015  0.37249051  1
  Co  Co2  1  0.94452031  0.12841985  0.87249051  1
  Co  Co3  1  0.44452031  0.37158015  0.12750949  1
  Co  Co4  1  0.53021164  0.63218921  0.52579644  1
  Co  Co5  1  0.03021164  0.86781079  0.47420356  1
  Co  Co6  1  0.46978836  0.13218921  0.97420356  1
  Co  Co7  1  0.96978836  0.36781079  0.02579644  1
  Co  Co8  1  0.56401312  0.63451568  0.72024238  1
  Co  Co9  1  0.06401312  0.86548432  0.27975762  1
  Co  Co10  1  0.43598688  0.13451568  0.77975762  1
  Co  Co11  1  0.93598688  0.36548432  0.22024238  1
  Co  Co12  1  0.71718210  0.22608918  0.42962208  1
  Co  Co13  1  0.21718210  0.27391082  0.57037792  1
  Co  Co14  1  0.28281790  0.72608918  0.07037792  1
  Co  Co15  1  0.78281790  0.77391082  0.92962208  1
  Co  Co16  1  0.41088304  0.49729601  0.31864999  1
  Co  Co17  1  0.91088304  0.00270399  0.68135001  1
  Co  Co18  1  0.58911696  0.99729601  0.18135001  1
  Co  Co19  1  0.08911696  0.50270399  0.81864999  1
  P  P20  1  0.68048930  0.31837802  0.62135953  1
  P  P21  1  0.18048930  0.18162198  0.37864047  1
  P  P22  1  0.31951070  0.81837802  0.87864047  1
  P  P23  1  0.81951070  0.68162198  0.12135953  1
  P  P24  1  0.87854896  0.56694024  0.37429587  1
  P  P25  1  0.37854896  0.93305976  0.62570413  1
  P  P26  1  0.12145104  0.06694024  0.12570413  1
  P  P27  1  0.62145104  0.43305976  0.87429587  1
  O  O28  1  0.42818469  0.25799566  0.35904767  1
  O  O29  1  0.92818469  0.24200434  0.64095233  1
  O  O30  1  0.57181531  0.75799566  0.14095233  1
  O  O31  1  0.07181531  0.74200434  0.85904767  1
  O  O32  1  0.71320527  0.49588653  0.62269319  1
  O  O33  1  0.21320527  0.00411347  0.37730681  1
  O  O34  1  0.28679473  0.99588653  0.87730681  1
  O  O35  1  0.78679473  0.50411347  0.12269319  1
  O  O36  1  0.46999473  0.26972516  0.67689395  1
  O  O37  1  0.96999473  0.23027484  0.32310605  1
  O  O38  1  0.53000527  0.76972516  0.82310605  1
  O  O39  1  0.03000527  0.73027484  0.17689395  1
  O  O40  1  0.58732221  0.27890476  0.53694359  1
  O  O41  1  0.08732221  0.22109524  0.46305641  1
  O  O42  1  0.41267779  0.77890476  0.96305641  1
  O  O43  1  0.91267779  0.72109524  0.03694359  1
  O  O44  1  0.88617369  0.74394778  0.37644513  1
  O  O45  1  0.38617369  0.75605222  0.62355487  1
  O  O46  1  0.11382631  0.24394778  0.12355487  1
  O  O47  1  0.61382631  0.25605222  0.87644513  1
  O  O48  1  0.67683977  0.50775346  0.43164644  1
  O  O49  1  0.17683977  0.99224654  0.56835356  1
  O  O50  1  0.32316023  0.00775346  0.06835356  1
  O  O51  1  0.82316023  0.49224654  0.93164644  1
  O  O52  1  0.13416101  0.50844394  0.39085787  1
  O  O53  1  0.63416101  0.99155606  0.60914213  1
  O  O54  1  0.86583899  0.00844394  0.10914213  1
  O  O55  1  0.36583899  0.49155606  0.89085787  1
  O  O56  1  0.77618077  0.52223260  0.29106411  1
  O  O57  1  0.27618077  0.97776740  0.70893589  1
  O  O58  1  0.22381923  0.02223260  0.20893589  1
  O  O59  1  0.72381923  0.47776740  0.79106411  1
  O  O60  1  0.24241549  0.55719899  0.72025770  1
  O  O61  1  0.74241549  0.94280101  0.27974230  1
  O  O62  1  0.75758451  0.05719899  0.77974230  1
  O  O63  1  0.25758451  0.44280101  0.22025770  1
  O  O64  1  0.37318942  0.75458707  0.30966439  1
  O  O65  1  0.87318942  0.74541293  0.69033561  1
  O  O66  1  0.62681058  0.25458707  0.19033561  1
  O  O67  1  0.12681058  0.24541293  0.80966439  1
  O  O68  1  0.89156469  0.72522163  0.53768656  1
  O  O69  1  0.39156469  0.77477837  0.46231344  1
  O  O70  1  0.10843531  0.22522163  0.96231344  1
  O  O71  1  0.60843531  0.27477837  0.03768656  1
  O  O72  1  0.23079512  0.50467556  0.56506007  1
  O  O73  1  0.73079512  0.99532444  0.43493993  1
  O  O74  1  0.76920488  0.00467556  0.93493993  1
  O  O75  1  0.26920488  0.49532444  0.06506007  1
