# generated using pymatgen
data_Li3V(H4O3)4
_symmetry_space_group_name_H-M   'P 1'
_cell_length_a   6.54777168
_cell_length_b   7.35667301
_cell_length_c   12.39237973
_cell_angle_alpha   78.63307918
_cell_angle_beta   90.00000000
_cell_angle_gamma   90.00000000
_symmetry_Int_Tables_number   1
_chemical_formula_structural   Li3V(H4O3)4
_chemical_formula_sum   'Li6 V2 H32 O24'
_cell_volume   585.22976545
_cell_formula_units_Z   2
loop_
 _symmetry_equiv_pos_site_id
 _symmetry_equiv_pos_as_xyz
  1  'x, y, z'
loop_
 _atom_site_type_symbol
 _atom_site_label
 _atom_site_symmetry_multiplicity
 _atom_site_fract_x
 _atom_site_fract_y
 _atom_site_fract_z
 _atom_site_occupancy
  Li  Li0  1  0.14484062  0.80434690  0.44449468  1
  Li  Li1  1  0.85515938  0.30434690  0.94449468  1
  Li  Li2  1  0.65044195  0.24399264  0.14274191  1
  Li  Li3  1  0.34955805  0.74399264  0.64274191  1
  Li  Li4  1  0.54768167  0.34766303  0.38819140  1
  Li  Li5  1  0.45231833  0.84766303  0.88819140  1
  V  V6  1  0.04621604  0.71017541  0.20634319  1
  V  V7  1  0.95378396  0.21017541  0.70634319  1
  H  H8  1  0.09934444  0.03382323  0.28919010  1
  H  H9  1  0.90065556  0.53382323  0.78919010  1
  H  H10  1  0.14037217  0.15862625  0.38166508  1
  H  H11  1  0.85962783  0.65862625  0.88166508  1
  H  H12  1  0.03783126  0.36214122  0.12163369  1
  H  H13  1  0.96216874  0.86214122  0.62163369  1
  H  H14  1  0.02784177  0.14210376  0.12694176  1
  H  H15  1  0.97215823  0.64210376  0.62694176  1
  H  H16  1  0.53209874  0.70322530  0.46772580  1
  H  H17  1  0.46790126  0.20322530  0.96772580  1
  H  H18  1  0.51946181  0.91880972  0.46138156  1
  H  H19  1  0.48053819  0.41880972  0.96138156  1
  H  H20  1  0.41682055  0.96489256  0.19845549  1
  H  H21  1  0.58317945  0.46489256  0.69845549  1
  H  H22  1  0.64423771  0.89006185  0.19314551  1
  H  H23  1  0.35576229  0.39006185  0.69314551  1
  H  H24  1  0.41151850  0.47747963  0.19864353  1
  H  H25  1  0.58848150  0.97747963  0.69864353  1
  H  H26  1  0.64467576  0.54530286  0.20138729  1
  H  H27  1  0.35532424  0.04530286  0.70138729  1
  H  H28  1  0.20004163  0.58253272  0.90341426  1
  H  H29  1  0.79995837  0.08253272  0.40341426  1
  H  H30  1  0.26918437  0.59306657  0.02338051  1
  H  H31  1  0.73081563  0.09306657  0.52338051  1
  H  H32  1  0.17193328  0.07689606  0.91108459  1
  H  H33  1  0.82806672  0.57689606  0.41108459  1
  H  H34  1  0.24807696  0.98855983  0.03157730  1
  H  H35  1  0.75192304  0.48855983  0.53157730  1
  H  H36  1  0.23407984  0.29613931  0.51670512  1
  H  H37  1  0.76592016  0.79613931  0.01670512  1
  H  H38  1  0.17729111  0.44537203  0.40573194  1
  H  H39  1  0.82270889  0.94537203  0.90573194  1
  O  O40  1  0.20367877  0.22016169  0.65801509  1
  O  O41  1  0.79632123  0.72016169  0.15801509  1
  O  O42  1  0.18205593  0.54885407  0.14841833  1
  O  O43  1  0.81794407  0.04885407  0.64841833  1
  O  O44  1  0.15364922  0.93403242  0.16987339  1
  O  O45  1  0.84635078  0.43403242  0.66987339  1
  O  O46  1  0.04854386  0.63911483  0.34992743  1
  O  O47  1  0.95145614  0.13911483  0.84992743  1
  O  O48  1  0.06235731  0.05086008  0.36449873  1
  O  O49  1  0.93764269  0.55086008  0.86449873  1
  O  O50  1  0.04856240  0.76071529  0.60177074  1
  O  O51  1  0.95143760  0.26071529  0.10177074  1
  O  O52  1  0.43838515  0.80181845  0.48393843  1
  O  O53  1  0.56161485  0.30181845  0.98393843  1
  O  O54  1  0.56232196  0.99760889  0.20664304  1
  O  O55  1  0.43767804  0.49760889  0.70664304  1
  O  O56  1  0.55259496  0.43394908  0.22497423  1
  O  O57  1  0.44740504  0.93394908  0.72497423  1
  O  O58  1  0.32289271  0.60643029  0.94549576  1
  O  O59  1  0.67710729  0.10643029  0.44549576  1
  O  O60  1  0.29839617  0.03043487  0.95475036  1
  O  O61  1  0.70160383  0.53043487  0.45475036  1
  O  O62  1  0.25847354  0.32979911  0.43529976  1
  O  O63  1  0.74152646  0.82979911  0.93529976  1
