# generated using pymatgen
data_LiCu2BP2(HO5)2
_symmetry_space_group_name_H-M   'P 1'
_cell_length_a   5.43617590
_cell_length_b   8.02953545
_cell_length_c   17.65339258
_cell_angle_alpha   90.00000000
_cell_angle_beta   90.00000000
_cell_angle_gamma   90.00000000
_symmetry_Int_Tables_number   1
_chemical_formula_structural   LiCu2BP2(HO5)2
_chemical_formula_sum   'Li4 Cu8 B4 P8 H8 O40'
_cell_volume   770.57000535
_cell_formula_units_Z   4
loop_
 _symmetry_equiv_pos_site_id
 _symmetry_equiv_pos_as_xyz
  1  'x, y, z'
loop_
 _atom_site_type_symbol
 _atom_site_label
 _atom_site_symmetry_multiplicity
 _atom_site_fract_x
 _atom_site_fract_y
 _atom_site_fract_z
 _atom_site_occupancy
  Li  Li0  1  0.25960415  0.37113331  0.45396868  1
  Li  Li1  1  0.24039585  0.62886669  0.95396868  1
  Li  Li2  1  0.75960415  0.12886669  0.54603132  1
  Li  Li3  1  0.74039585  0.87113331  0.04603132  1
  Cu  Cu4  1  0.04391724  0.67165265  0.51759368  1
  Cu  Cu5  1  0.45608276  0.32834735  0.01759368  1
  Cu  Cu6  1  0.54391724  0.82834735  0.48240632  1
  Cu  Cu7  1  0.95608276  0.17165265  0.98240632  1
  Cu  Cu8  1  0.03173884  0.32282193  0.65755439  1
  Cu  Cu9  1  0.46826116  0.67717807  0.15755439  1
  Cu  Cu10  1  0.53173884  0.17717807  0.34244561  1
  Cu  Cu11  1  0.96826116  0.82282193  0.84244561  1
  B  B12  1  0.28099729  0.08352448  0.76421685  1
  B  B13  1  0.21900271  0.91647552  0.26421685  1
  B  B14  1  0.78099729  0.41647552  0.23578315  1
  B  B15  1  0.71900271  0.58352448  0.73578315  1
  P  P16  1  0.06672257  0.99473858  0.40666752  1
  P  P17  1  0.43327743  0.00526142  0.90666752  1
  P  P18  1  0.56672257  0.50526142  0.59333248  1
  P  P19  1  0.93327743  0.49473858  0.09333248  1
  P  P20  1  0.25356743  0.96297185  0.61851091  1
  P  P21  1  0.24643257  0.03702815  0.11851091  1
  P  P22  1  0.75356743  0.53702815  0.38148909  1
  P  P23  1  0.74643257  0.46297185  0.88148909  1
  H  H24  1  0.04639152  0.63077902  0.68048879  1
  H  H25  1  0.45360848  0.36922098  0.18048879  1
  H  H26  1  0.54639152  0.86922098  0.31951121  1
  H  H27  1  0.95360848  0.13077902  0.81951121  1
  H  H28  1  0.37913747  0.33655418  0.76060488  1
  H  H29  1  0.12086253  0.66344582  0.26060488  1
  H  H30  1  0.87913747  0.16344582  0.23939512  1
  H  H31  1  0.62086253  0.83655418  0.73939512  1
  O  O32  1  0.12693636  0.79227915  0.60887927  1
  O  O33  1  0.37306364  0.20772085  0.10887927  1
  O  O34  1  0.62693636  0.70772085  0.39112073  1
  O  O35  1  0.87306364  0.29227915  0.89112073  1
  O  O36  1  0.06842343  0.10710358  0.60622909  1
  O  O37  1  0.43157657  0.89289642  0.10622909  1
  O  O38  1  0.56842343  0.39289642  0.39377091  1
  O  O39  1  0.93157657  0.60710358  0.89377091  1
  O  O40  1  0.96994525  0.53753490  0.70886374  1
  O  O41  1  0.53005475  0.46246510  0.20886374  1
  O  O42  1  0.46994525  0.96246510  0.29113626  1
  O  O43  1  0.03005475  0.03753490  0.79113626  1
  O  O44  1  0.98129639  0.51938662  0.43391519  1
  O  O45  1  0.51870361  0.48061338  0.93391519  1
  O  O46  1  0.48129639  0.98061338  0.56608481  1
  O  O47  1  0.01870361  0.01938662  0.06608481  1
  O  O48  1  0.31396787  0.46550863  0.55908666  1
  O  O49  1  0.18603213  0.53449137  0.05908666  1
  O  O50  1  0.81396787  0.03449137  0.44091334  1
  O  O51  1  0.68603213  0.96550863  0.94091334  1
  O  O52  1  0.19341955  0.84916831  0.45042606  1
  O  O53  1  0.30658045  0.15083169  0.95042606  1
  O  O54  1  0.69341955  0.65083169  0.54957394  1
  O  O55  1  0.80658045  0.34916831  0.04957394  1
  O  O56  1  0.26995708  0.25545458  0.73605951  1
  O  O57  1  0.23004292  0.74454542  0.23605951  1
  O  O58  1  0.76995708  0.24454542  0.26394049  1
  O  O59  1  0.73004292  0.75545458  0.76394049  1
  O  O60  1  0.02819571  0.93434938  0.32238514  1
  O  O61  1  0.47180429  0.06565062  0.82238514  1
  O  O62  1  0.52819571  0.56565062  0.67761486  1
  O  O63  1  0.97180429  0.43434938  0.17761486  1
  O  O64  1  0.35343808  0.96744196  0.70275348  1
  O  O65  1  0.14656192  0.03255804  0.20275348  1
  O  O66  1  0.85343808  0.53255804  0.29724652  1
  O  O67  1  0.64656192  0.46744196  0.79724652  1
  O  O68  1  0.23703814  0.14977024  0.40693324  1
  O  O69  1  0.26296186  0.85022976  0.90693324  1
  O  O70  1  0.73703814  0.35022976  0.59306676  1
  O  O71  1  0.76296186  0.64977024  0.09306676  1
