# generated using pymatgen
data_TbFeSb3
_symmetry_space_group_name_H-M   'P 1'
_cell_length_a   6.10281382
_cell_length_b   12.02909547
_cell_length_c   12.45241575
_cell_angle_alpha   90.00000000
_cell_angle_beta   90.00000000
_cell_angle_gamma   90.00000000
_symmetry_Int_Tables_number   1
_chemical_formula_structural   TbFeSb3
_chemical_formula_sum   'Tb8 Fe8 Sb24'
_cell_volume   914.14840287
_cell_formula_units_Z   8
loop_
 _symmetry_equiv_pos_site_id
 _symmetry_equiv_pos_as_xyz
  1  'x, y, z'
loop_
 _atom_site_type_symbol
 _atom_site_label
 _atom_site_symmetry_multiplicity
 _atom_site_fract_x
 _atom_site_fract_y
 _atom_site_fract_z
 _atom_site_occupancy
  Tb  Tb0  1  0.25000000  0.50000000  0.70122988  1
  Tb  Tb1  1  0.75000000  0.00000000  0.29877012  1
  Tb  Tb2  1  0.75000000  0.50000000  0.29877012  1
  Tb  Tb3  1  0.25000000  -0.00000000  0.70122988  1
  Tb  Tb4  1  0.22199215  0.25000000  0.30473038  1
  Tb  Tb5  1  0.77800785  0.75000000  0.69526962  1
  Tb  Tb6  1  0.27800785  0.75000000  0.30473038  1
  Tb  Tb7  1  0.72199215  0.25000000  0.69526962  1
  Fe  Fe8  1  0.46237203  0.36093976  0.10385489  1
  Fe  Fe9  1  0.53762797  0.86093976  0.89614511  1
  Fe  Fe10  1  0.03762797  0.63906024  0.10385489  1
  Fe  Fe11  1  0.96237203  0.13906024  0.89614511  1
  Fe  Fe12  1  0.53762797  0.63906024  0.89614511  1
  Fe  Fe13  1  0.46237203  0.13906024  0.10385489  1
  Fe  Fe14  1  0.96237203  0.36093976  0.89614511  1
  Fe  Fe15  1  0.03762797  0.86093976  0.10385489  1
  Sb  Sb16  1  0.25000000  0.50000000  0.97200527  1
  Sb  Sb17  1  0.75000000  -0.00000000  0.02799473  1
  Sb  Sb18  1  0.75000000  0.50000000  0.02799473  1
  Sb  Sb19  1  0.25000000  -0.00000000  0.97200527  1
  Sb  Sb20  1  0.23359305  0.25000000  0.77787697  1
  Sb  Sb21  1  0.76640695  0.75000000  0.22212303  1
  Sb  Sb22  1  0.26640695  0.75000000  0.77787697  1
  Sb  Sb23  1  0.73359305  0.25000000  0.22212303  1
  Sb  Sb24  1  0.98656293  0.37584578  0.50341553  1
  Sb  Sb25  1  0.01343707  0.87584578  0.49658447  1
  Sb  Sb26  1  0.51343707  0.62415422  0.50341553  1
  Sb  Sb27  1  0.48656293  0.12415422  0.49658447  1
  Sb  Sb28  1  0.01343707  0.62415422  0.49658447  1
  Sb  Sb29  1  0.98656293  0.12415422  0.50341553  1
  Sb  Sb30  1  0.48656293  0.37584578  0.49658447  1
  Sb  Sb31  1  0.51343707  0.87584578  0.50341553  1
  Sb  Sb32  1  0.25000000  0.50000000  0.22476809  1
  Sb  Sb33  1  0.75000000  -0.00000000  0.77523191  1
  Sb  Sb34  1  0.75000000  0.50000000  0.77523191  1
  Sb  Sb35  1  0.25000000  0.00000000  0.22476809  1
  Sb  Sb36  1  0.61110523  0.25000000  0.94161566  1
  Sb  Sb37  1  0.38889477  0.75000000  0.05838434  1
  Sb  Sb38  1  0.88889477  0.75000000  0.94161566  1
  Sb  Sb39  1  0.11110523  0.25000000  0.05838434  1
