# generated using pymatgen
data_KFeCu(PO4)2
_symmetry_space_group_name_H-M   'P 1'
_cell_length_a   8.10054788
_cell_length_b   9.16305787
_cell_length_c   10.05624991
_cell_angle_alpha   90.00000000
_cell_angle_beta   90.00000000
_cell_angle_gamma   115.88550355
_symmetry_Int_Tables_number   1
_chemical_formula_structural   KFeCu(PO4)2
_chemical_formula_sum   'K4 Fe4 Cu4 P8 O32'
_cell_volume   671.54215795
_cell_formula_units_Z   4
loop_
 _symmetry_equiv_pos_site_id
 _symmetry_equiv_pos_as_xyz
  1  'x, y, z'
loop_
 _atom_site_type_symbol
 _atom_site_label
 _atom_site_symmetry_multiplicity
 _atom_site_fract_x
 _atom_site_fract_y
 _atom_site_fract_z
 _atom_site_occupancy
  K  K0  1  0.91733356  0.57483631  0.63430914  1
  K  K1  1  0.41733356  0.07483631  0.86569086  1
  K  K2  1  0.08266644  0.42516369  0.36569086  1
  K  K3  1  0.58266644  0.92516369  0.13430914  1
  Fe  Fe4  1  0.51459937  0.24309941  0.37440005  1
  Fe  Fe5  1  0.01459937  0.74309941  0.12559995  1
  Fe  Fe6  1  0.48540063  0.75690059  0.62559995  1
  Fe  Fe7  1  0.98540063  0.25690059  0.87440005  1
  Cu  Cu8  1  0.86786758  0.94738236  0.37964674  1
  Cu  Cu9  1  0.36786758  0.44738236  0.12035326  1
  Cu  Cu10  1  0.13213242  0.05261764  0.62035326  1
  Cu  Cu11  1  0.63213242  0.55261764  0.87964674  1
  P  P12  1  0.62844987  0.64090447  0.34032864  1
  P  P13  1  0.12844987  0.14090447  0.15967136  1
  P  P14  1  0.37155013  0.35909553  0.65967136  1
  P  P15  1  0.87155013  0.85909553  0.84032864  1
  P  P16  1  0.76772659  0.14827137  0.58746599  1
  P  P17  1  0.26772659  0.64827137  0.91253401  1
  P  P18  1  0.23227341  0.85172863  0.41253401  1
  P  P19  1  0.73227341  0.35172863  0.08746599  1
  O  O20  1  0.95034988  0.10710019  0.23583255  1
  O  O21  1  0.45034988  0.60710019  0.26416745  1
  O  O22  1  0.04965012  0.89289981  0.76416745  1
  O  O23  1  0.54965012  0.39289981  0.73583255  1
  O  O24  1  0.79888526  0.75578780  0.25326127  1
  O  O25  1  0.29888526  0.25578780  0.24673873  1
  O  O26  1  0.20111474  0.24421220  0.74673873  1
  O  O27  1  0.70111474  0.74421220  0.75326127  1
  O  O28  1  0.64748118  0.75610011  0.46203323  1
  O  O29  1  0.14748118  0.25610011  0.03796677  1
  O  O30  1  0.35251882  0.24389989  0.53796677  1
  O  O31  1  0.85251882  0.74389989  0.96203323  1
  O  O32  1  0.64333680  0.48828285  0.38583242  1
  O  O33  1  0.14333680  0.98828285  0.11416758  1
  O  O34  1  0.35666320  0.51171715  0.61416758  1
  O  O35  1  0.85666320  0.01171715  0.88583242  1
  O  O36  1  0.59697851  0.99608185  0.63156019  1
  O  O37  1  0.09697851  0.49608185  0.86843981  1
  O  O38  1  0.40302149  0.00391815  0.36843981  1
  O  O39  1  0.90302149  0.50391815  0.13156019  1
  O  O40  1  0.85808527  0.25966779  0.70767649  1
  O  O41  1  0.35808527  0.75966779  0.79232351  1
  O  O42  1  0.14191473  0.74033221  0.29232351  1
  O  O43  1  0.64191473  0.24033221  0.20767649  1
  O  O44  1  0.72236870  0.25313615  0.48678413  1
  O  O45  1  0.22236870  0.75313615  0.01321587  1
  O  O46  1  0.27763130  0.74686385  0.51321587  1
  O  O47  1  0.77763130  0.24686385  0.98678413  1
  O  O48  1  0.91479376  0.10215264  0.52315487  1
  O  O49  1  0.41479376  0.60215264  0.97684513  1
  O  O50  1  0.08520624  0.89784736  0.47684513  1
  O  O51  1  0.58520624  0.39784736  0.02315487  1
