# generated using pymatgen
data_InTe14(IrBr8)2
_symmetry_space_group_name_H-M   'P 1'
_cell_length_a   11.49612389
_cell_length_b   13.26466057
_cell_length_c   17.86194727
_cell_angle_alpha   78.68474058
_cell_angle_beta   85.40046593
_cell_angle_gamma   66.02109825
_symmetry_Int_Tables_number   1
_chemical_formula_structural   InTe14(IrBr8)2
_chemical_formula_sum   'In2 Te28 Ir4 Br32'
_cell_volume   2440.35442874
_cell_formula_units_Z   2
loop_
 _symmetry_equiv_pos_site_id
 _symmetry_equiv_pos_as_xyz
  1  'x, y, z'
loop_
 _atom_site_type_symbol
 _atom_site_label
 _atom_site_symmetry_multiplicity
 _atom_site_fract_x
 _atom_site_fract_y
 _atom_site_fract_z
 _atom_site_occupancy
  In  In0  1  0.95367879  0.07407870  0.79004846  1
  In  In1  1  0.04632121  0.92592130  0.20995154  1
  Te  Te2  1  0.08630250  0.27165463  0.91810530  1
  Te  Te3  1  0.91369750  0.72834537  0.08189470  1
  Te  Te4  1  0.02099089  0.76697007  0.93792846  1
  Te  Te5  1  0.97900911  0.23302993  0.06207154  1
  Te  Te6  1  0.16880065  0.56920489  0.13032201  1
  Te  Te7  1  0.83119935  0.43079511  0.86967799  1
  Te  Te8  1  0.25605183  0.56732148  0.97942330  1
  Te  Te9  1  0.74394817  0.43267852  0.02057670  1
  Te  Te10  1  0.93514627  0.59129761  0.90910680  1
  Te  Te11  1  0.06485373  0.40870239  0.09089320  1
  Te  Te12  1  0.39721780  0.25550315  0.98528392  1
  Te  Te13  1  0.60278220  0.74449685  0.01471608  1
  Te  Te14  1  0.26829645  0.43396895  0.80834238  1
  Te  Te15  1  0.73170355  0.56603105  0.19165762  1
  Te  Te16  1  0.57899843  0.16224137  0.35255572  1
  Te  Te17  1  0.42100157  0.83775863  0.64744428  1
  Te  Te18  1  0.51028247  0.97631785  0.70442527  1
  Te  Te19  1  0.48971753  0.02368215  0.29557473  1
  Te  Te20  1  0.79986986  0.95791847  0.40666130  1
  Te  Te21  1  0.20013014  0.04208153  0.59333870  1
  Te  Te22  1  0.32421904  0.17758049  0.61757006  1
  Te  Te23  1  0.67578096  0.82241951  0.38242994  1
  Te  Te24  1  0.64538761  0.97210109  0.55063359  1
  Te  Te25  1  0.35461239  0.02789891  0.44936641  1
  Te  Te26  1  0.26688050  0.35879272  0.42267746  1
  Te  Te27  1  0.73311950  0.64120728  0.57732254  1
  Te  Te28  1  0.55306988  0.30179498  0.51950673  1
  Te  Te29  1  0.44693012  0.69820502  0.48049327  1
  Ir  Ir30  1  0.17094125  0.42010541  0.94824933  1
  Ir  Ir31  1  0.82905875  0.57989459  0.05175067  1
  Ir  Ir32  1  0.45259558  0.16957300  0.48524358  1
  Ir  Ir33  1  0.54740442  0.83042700  0.51475642  1
  Br  Br34  1  0.44665448  0.31705096  0.10890532  1
  Br  Br35  1  0.55334552  0.68294904  0.89109468  1
  Br  Br36  1  0.38325669  0.18376484  0.84262096  1
  Br  Br37  1  0.61674331  0.81623516  0.15737904  1
  Br  Br38  1  0.31871834  0.10470898  0.06500854  1
  Br  Br39  1  0.68128166  0.89529102  0.93499146  1
  Br  Br40  1  0.50541068  0.39959718  0.87990455  1
  Br  Br41  1  0.49458932  0.60040282  0.12009545  1
  Br  Br42  1  0.19429129  0.65424126  0.77480490  1
  Br  Br43  1  0.80570871  0.34575874  0.22519510  1
  Br  Br44  1  0.07623791  0.42873388  0.73641998  1
  Br  Br45  1  0.92376209  0.57126612  0.26358002  1
  Br  Br46  1  0.07103486  0.31990059  0.49239622  1
  Br  Br47  1  0.92896514  0.68009941  0.50760378  1
  Br  Br48  1  0.29578362  0.45647772  0.55043837  1
  Br  Br49  1  0.70421638  0.54352228  0.44956163  1
  Br  Br50  1  0.46868377  0.43386930  0.36083051  1
  Br  Br51  1  0.53131623  0.56613070  0.63916949  1
  Br  Br52  1  0.24211576  0.29497049  0.29424436  1
  Br  Br53  1  0.75788424  0.70502951  0.70575564  1
  Br  Br54  1  0.58247542  0.22430130  0.66746555  1
  Br  Br55  1  0.41752458  0.77569870  0.33253445  1
  Br  Br56  1  0.79593055  0.18333746  0.48138784  1
  Br  Br57  1  0.20406945  0.81666254  0.51861216  1
  Br  Br58  1  0.84032189  0.10851924  0.91733099  1
  Br  Br59  1  0.15967811  0.89148076  0.08266901  1
  Br  Br60  1  0.19236670  0.97731271  0.82172620  1
  Br  Br61  1  0.80763330  0.02268729  0.17827380  1
  Br  Br62  1  0.90018365  0.93694335  0.73275514  1
  Br  Br63  1  0.09981635  0.06305665  0.26724486  1
  Br  Br64  1  0.90830319  0.25730835  0.69688146  1
  Br  Br65  1  0.09169681  0.74269165  0.30311854  1
