# generated using pymatgen
data_H4S(NO)2
_symmetry_space_group_name_H-M   'P 1'
_cell_length_a   6.04893336
_cell_length_b   12.04759647
_cell_length_c   17.21941834
_cell_angle_alpha   100.84189650
_cell_angle_beta   90.00000000
_cell_angle_gamma   90.00000000
_symmetry_Int_Tables_number   1
_chemical_formula_structural   H4S(NO)2
_chemical_formula_sum   'H48 S12 N24 O24'
_cell_volume   1232.46755984
_cell_formula_units_Z   12
loop_
 _symmetry_equiv_pos_site_id
 _symmetry_equiv_pos_as_xyz
  1  'x, y, z'
loop_
 _atom_site_type_symbol
 _atom_site_label
 _atom_site_symmetry_multiplicity
 _atom_site_fract_x
 _atom_site_fract_y
 _atom_site_fract_z
 _atom_site_occupancy
  H  H0  1  0.25877254  0.78229257  0.17526598  1
  H  H1  1  0.24122746  0.28229257  0.67526598  1
  H  H2  1  0.74122746  0.21770743  0.82473402  1
  H  H3  1  0.75877254  0.71770743  0.32473402  1
  H  H4  1  0.07939564  0.73945269  0.23997513  1
  H  H5  1  0.42060436  0.23945269  0.73997513  1
  H  H6  1  0.92060436  0.26054731  0.76002487  1
  H  H7  1  0.57939564  0.76054731  0.26002487  1
  H  H8  1  0.99139268  0.74768218  0.14584451  1
  H  H9  1  0.50860732  0.24768218  0.64584451  1
  H  H10  1  0.00860732  0.25231782  0.85415549  1
  H  H11  1  0.49139268  0.75231782  0.35415549  1
  H  H12  1  0.04567454  0.86438723  0.21464146  1
  H  H13  1  0.45432546  0.36438723  0.71464146  1
  H  H14  1  0.95432546  0.13561277  0.78535854  1
  H  H15  1  0.54567454  0.63561277  0.28535854  1
  H  H16  1  0.95718537  0.02667677  0.09532004  1
  H  H17  1  0.54281463  0.52667677  0.59532004  1
  H  H18  1  0.04281463  0.97332323  0.90467996  1
  H  H19  1  0.45718537  0.47332323  0.40467996  1
  H  H20  1  0.12650971  0.12287437  0.15105364  1
  H  H21  1  0.37349029  0.62287437  0.65105364  1
  H  H22  1  0.87349029  0.87712563  0.84894636  1
  H  H23  1  0.62650971  0.37712563  0.34894636  1
  H  H24  1  0.07959169  0.13420419  0.05778347  1
  H  H25  1  0.42040831  0.63420419  0.55778347  1
  H  H26  1  0.92040831  0.86579581  0.94221653  1
  H  H27  1  0.57959169  0.36579581  0.44221653  1
  H  H28  1  0.23187809  0.02486087  0.07945659  1
  H  H29  1  0.26812191  0.52486087  0.57945659  1
  H  H30  1  0.76812191  0.97513913  0.92054341  1
  H  H31  1  0.73187809  0.47513913  0.42054341  1
  H  H32  1  0.06157506  0.37976815  0.06793122  1
  H  H33  1  0.43842494  0.87976815  0.56793122  1
  H  H34  1  0.93842494  0.62023185  0.93206878  1
  H  H35  1  0.56157506  0.12023185  0.43206878  1
  H  H36  1  0.96838124  0.51436137  0.09689986  1
  H  H37  1  0.53161876  0.01436137  0.59689986  1
  H  H38  1  0.03161876  0.48563863  0.90310014  1
  H  H39  1  0.46838124  0.98563863  0.40310014  1
  H  H40  1  0.09347055  0.44476160  0.16196972  1
  H  H41  1  0.40652945  0.94476160  0.66196972  1
  H  H42  1  0.90652945  0.55523840  0.83803028  1
  H  H43  1  0.59347055  0.05523840  0.33803028  1
  H  H44  1  0.24467399  0.48840715  0.09301836  1
  H  H45  1  0.25532601  0.98840715  0.59301836  1
  H  H46  1  0.75532601  0.51159285  0.90698164  1
  H  H47  1  0.74467399  0.01159285  0.40698164  1
  S  S48  1  0.40732321  0.74986085  0.98100510  1
  S  S49  1  0.09267679  0.24986085  0.48100510  1
  S  S50  1  0.59267679  0.25013915  0.01899490  1
  S  S51  1  0.90732321  0.75013915  0.51899490  1
  S  S52  1  0.57792981  0.65437371  0.10252980  1
  S  S53  1  0.92207019  0.15437371  0.60252980  1
  S  S54  1  0.42207019  0.34562629  0.89747020  1
  S  S55  1  0.07792981  0.84562629  0.39747020  1
  S  S56  1  0.56834218  0.89073250  0.11550451  1
  S  S57  1  0.93165782  0.39073250  0.61550451  1
  S  S58  1  0.43165782  0.10926750  0.88449549  1
  S  S59  1  0.06834218  0.60926750  0.38449549  1
  N  N60  1  0.41156776  0.64802333  0.03111604  1
  N  N61  1  0.08843224  0.14802333  0.53111604  1
  N  N62  1  0.58843224  0.35197667  0.96888396  1
  N  N63  1  0.91156776  0.85197667  0.46888396  1
  N  N64  1  0.56406782  0.78030939  0.15841948  1
  N  N65  1  0.93593218  0.28030939  0.65841948  1
  N  N66  1  0.43593218  0.21969061  0.84158052  1
  N  N67  1  0.06406782  0.71969061  0.34158052  1
  N  N68  1  0.39673974  0.86892127  0.04401372  1
  N  N69  1  0.10326026  0.36892127  0.54401372  1
  N  N70  1  0.60326026  0.13107873  0.95598628  1
  N  N71  1  0.89673974  0.63107873  0.45598628  1
  N  N72  1  0.09232191  0.78280226  0.19258415  1
  N  N73  1  0.40767809  0.28280226  0.69258415  1
  N  N74  1  0.90767809  0.21719774  0.80741585  1
  N  N75  1  0.59232191  0.71719774  0.30741585  1
  N  N76  1  0.09775412  0.07782550  0.09547124  1
  N  N77  1  0.40224588  0.57782550  0.59547124  1
  N  N78  1  0.90224588  0.92217450  0.90452876  1
  N  N79  1  0.59775412  0.42217450  0.40452876  1
  N  N80  1  0.09191768  0.45638062  0.10450689  1
  N  N81  1  0.40808232  0.95638062  0.60450689  1
  N  N82  1  0.90808232  0.54361938  0.89549311  1
  N  N83  1  0.59191768  0.04361938  0.39549311  1
  O  O84  1  0.60095813  0.74368380  0.92956675  1
  O  O85  1  0.89904187  0.24368380  0.42956675  1
  O  O86  1  0.39904187  0.25631620  0.07043325  1
  O  O87  1  0.10095813  0.75631620  0.57043325  1
  O  O88  1  0.79683203  0.90843485  0.08960249  1
  O  O89  1  0.70316797  0.40843485  0.58960249  1
  O  O90  1  0.20316797  0.09156515  0.91039751  1
  O  O91  1  0.29683203  0.59156515  0.41039751  1
  O  O92  1  0.19525797  0.74093844  0.93975284  1
  O  O93  1  0.30474203  0.24093844  0.43975284  1
  O  O94  1  0.80474203  0.25906156  0.06024716  1
  O  O95  1  0.69525797  0.75906156  0.56024716  1
  O  O96  1  0.81214393  0.63101440  0.07845689  1
  O  O97  1  0.68785607  0.13101440  0.57845689  1
  O  O98  1  0.18785607  0.36898560  0.92154311  1
  O  O99  1  0.31214393  0.86898560  0.42154311  1
  O  O100  1  0.48186854  0.98404125  0.17387866  1
  O  O101  1  0.01813146  0.48404125  0.67387866  1
  O  O102  1  0.51813146  0.01595875  0.82612134  1
  O  O103  1  0.98186854  0.51595875  0.32612134  1
  O  O104  1  0.49620398  0.57692103  0.15233473  1
  O  O105  1  0.00379602  0.07692103  0.65233473  1
  O  O106  1  0.50379602  0.42307897  0.84766527  1
  O  O107  1  0.99620398  0.92307897  0.34766527  1
