# generated using pymatgen
data_Li7La3(SnO6)2
_symmetry_space_group_name_H-M   'P 1'
_cell_length_a   11.30599307
_cell_length_b   11.30599307
_cell_length_c   11.30599307
_cell_angle_alpha   108.14150967
_cell_angle_beta   108.14150967
_cell_angle_gamma   112.16468508
_symmetry_Int_Tables_number   1
_chemical_formula_structural   Li7La3(SnO6)2
_chemical_formula_sum   'Li28 La12 Sn8 O48'
_cell_volume   1110.65743222
_cell_formula_units_Z   4
loop_
 _symmetry_equiv_pos_site_id
 _symmetry_equiv_pos_as_xyz
  1  'x, y, z'
loop_
 _atom_site_type_symbol
 _atom_site_label
 _atom_site_symmetry_multiplicity
 _atom_site_fract_x
 _atom_site_fract_y
 _atom_site_fract_z
 _atom_site_occupancy
  Li  Li0  1  0.12500000  0.87500000  0.75000000  1
  Li  Li1  1  0.62500000  0.37500000  0.75000000  1
  Li  Li2  1  0.37500000  0.62500000  0.25000000  1
  Li  Li3  1  0.87500000  0.12500000  0.25000000  1
  Li  Li4  1  0.22679894  0.39517892  0.00614252  1
  Li  Li5  1  0.88903640  0.89517892  0.16837998  1
  Li  Li6  1  0.89517892  0.72679894  0.50614252  1
  Li  Li7  1  0.72065642  0.22679894  0.83162002  1
  Li  Li8  1  0.77320106  0.60482108  0.99385748  1
  Li  Li9  1  0.11096360  0.10482108  0.83162002  1
  Li  Li10  1  0.10482108  0.27320106  0.49385748  1
  Li  Li11  1  0.27934358  0.77320106  0.16837998  1
  Li  Li12  1  0.72679894  0.22065642  0.33162002  1
  Li  Li13  1  0.38903640  0.72065642  0.49385748  1
  Li  Li14  1  0.39517892  0.38903640  0.66837998  1
  Li  Li15  1  0.22065642  0.88903640  0.99385748  1
  Li  Li16  1  0.27320106  0.77934358  0.66837998  1
  Li  Li17  1  0.61096360  0.27934358  0.50614252  1
  Li  Li18  1  0.60482108  0.61096360  0.33162002  1
  Li  Li19  1  0.77934358  0.11096360  0.00614252  1
  Li  Li20  1  0.69659688  0.44659688  0.39319376  1
  Li  Li21  1  0.55340312  0.94659688  0.75000000  1
  Li  Li22  1  0.94659688  0.19659688  0.89319376  1
  Li  Li23  1  0.80340312  0.69659688  0.25000000  1
  Li  Li24  1  0.30340312  0.55340312  0.60680624  1
  Li  Li25  1  0.44659688  0.05340312  0.25000000  1
  Li  Li26  1  0.05340312  0.80340312  0.10680624  1
  Li  Li27  1  0.19659688  0.30340312  0.75000000  1
  La  La28  1  0.25000000  0.62288115  0.87288115  1
  La  La29  1  0.25000000  0.12288115  0.37288115  1
  La  La30  1  0.12288115  0.75000000  0.37288115  1
  La  La31  1  0.87711885  0.25000000  0.62711885  1
  La  La32  1  0.75000000  0.37711885  0.12711885  1
  La  La33  1  0.75000000  0.87711885  0.62711885  1
  La  La34  1  0.62288115  0.75000000  0.87288115  1
  La  La35  1  0.37711885  0.25000000  0.12711885  1
  La  La36  1  0.87500000  0.62500000  0.75000000  1
  La  La37  1  0.37500000  0.12500000  0.75000000  1
  La  La38  1  0.12500000  0.37500000  0.25000000  1
  La  La39  1  0.62500000  0.87500000  0.25000000  1
  Sn  Sn40  1  -0.00000000  0.50000000  -0.00000000  1
  Sn  Sn41  1  -0.00000000  -0.00000000  0.50000000  1
  Sn  Sn42  1  -0.00000000  0.50000000  0.50000000  1
  Sn  Sn43  1  0.50000000  -0.00000000  0.50000000  1
  Sn  Sn44  1  0.50000000  -0.00000000  -0.00000000  1
  Sn  Sn45  1  0.50000000  0.50000000  0.50000000  1
  Sn  Sn46  1  0.50000000  0.50000000  -0.00000000  1
  Sn  Sn47  1  -0.00000000  -0.00000000  -0.00000000  1
  O  O48  1  0.09937579  0.42296647  0.62367094  1
  O  O49  1  0.29929552  0.92296647  0.32359068  1
  O  O50  1  0.92296647  0.59937579  0.12367094  1
  O  O51  1  0.97570485  0.09937579  0.67640932  1
  O  O52  1  0.90062421  0.57703353  0.37632906  1
  O  O53  1  0.70070448  0.07703353  0.67640932  1
  O  O54  1  0.07703353  0.40062421  0.87632906  1
  O  O55  1  0.02429515  0.90062421  0.32359068  1
  O  O56  1  0.59937579  0.47570485  0.17640932  1
  O  O57  1  0.79929552  0.97570485  0.87632906  1
  O  O58  1  0.42296647  0.79929552  0.82359068  1
  O  O59  1  0.47570485  0.29929552  0.37632906  1
  O  O60  1  0.40062421  0.52429515  0.82359068  1
  O  O61  1  0.20070448  0.02429515  0.12367094  1
  O  O62  1  0.57703353  0.20070448  0.17640932  1
  O  O63  1  0.52429515  0.70070448  0.62367094  1
  O  O64  1  0.81247919  0.40108767  0.52131942  1
  O  O65  1  0.37976826  0.90108767  0.58860849  1
  O  O66  1  0.90108767  0.31247919  0.02131942  1
  O  O67  1  0.79115977  0.81247919  0.41139151  1
  O  O68  1  0.18752081  0.59891233  0.47868058  1
  O  O69  1  0.62023174  0.09891233  0.41139151  1
  O  O70  1  0.09891233  0.68752081  0.97868058  1
  O  O71  1  0.20884023  0.18752081  0.58860849  1
  O  O72  1  0.31247919  0.29115977  0.91139151  1
  O  O73  1  0.87976826  0.79115977  0.97868058  1
  O  O74  1  0.40108767  0.87976826  0.08860849  1
  O  O75  1  0.29115977  0.37976826  0.47868058  1
  O  O76  1  0.68752081  0.70884023  0.08860849  1
  O  O77  1  0.12023174  0.20884023  0.02131942  1
  O  O78  1  0.59891233  0.12023174  0.91139151  1
  O  O79  1  0.70884023  0.62023174  0.52131942  1
  O  O80  1  0.08784556  0.68088525  0.69837696  1
  O  O81  1  0.48250829  0.18088525  0.59303969  1
  O  O82  1  0.18088525  0.58784556  0.19837696  1
  O  O83  1  0.88946860  0.08784556  0.40696031  1
  O  O84  1  0.91215444  0.31911475  0.30162304  1
  O  O85  1  0.51749171  0.81911475  0.40696031  1
  O  O86  1  0.81911475  0.41215444  0.80162304  1
  O  O87  1  0.11053140  0.91215444  0.59303969  1
  O  O88  1  0.58784556  0.38946860  0.90696031  1
  O  O89  1  0.98250829  0.88946860  0.80162304  1
  O  O90  1  0.68088525  0.98250829  0.09303969  1
  O  O91  1  0.38946860  0.48250829  0.30162304  1
  O  O92  1  0.41215444  0.61053140  0.09303969  1
  O  O93  1  0.01749171  0.11053140  0.19837696  1
  O  O94  1  0.31911475  0.01749171  0.90696031  1
  O  O95  1  0.61053140  0.51749171  0.69837696  1
