# generated using pymatgen
data_Ba3Bi(BO2)9
_symmetry_space_group_name_H-M   'P 1'
_cell_length_a   7.30880975
_cell_length_b   7.30884109
_cell_length_c   17.62962275
_cell_angle_alpha   90.00000000
_cell_angle_beta   90.00000000
_cell_angle_gamma   120.00012889
_symmetry_Int_Tables_number   1
_chemical_formula_structural   Ba3Bi(BO2)9
_chemical_formula_sum   'Ba6 Bi2 B18 O36'
_cell_volume   815.58318508
_cell_formula_units_Z   2
loop_
 _symmetry_equiv_pos_site_id
 _symmetry_equiv_pos_as_xyz
  1  'x, y, z'
loop_
 _atom_site_type_symbol
 _atom_site_label
 _atom_site_symmetry_multiplicity
 _atom_site_fract_x
 _atom_site_fract_y
 _atom_site_fract_z
 _atom_site_occupancy
  Ba  Ba0  1  0.66667027  0.33333612  0.63366460  1
  Ba  Ba1  1  0.33332973  0.66666388  0.13366460  1
  Ba  Ba2  1  0.33332973  0.66666388  0.36633540  1
  Ba  Ba3  1  0.66667027  0.33333612  0.86633540  1
  Ba  Ba4  1  -0.00000265  0.99999686  0.75000000  1
  Ba  Ba5  1  0.00000265  0.00000314  0.25000000  1
  Bi  Bi6  1  -0.00000000  0.00000000  0.50000000  1
  Bi  Bi7  1  -0.00000000  0.00000000  -0.00000000  1
  B  B8  1  0.11844727  0.49527230  0.75000000  1
  B  B9  1  0.50471952  0.62317592  0.75000000  1
  B  B10  1  0.37681439  0.88154358  0.75000000  1
  B  B11  1  0.88155273  0.50472770  0.25000000  1
  B  B12  1  0.49528048  0.37682408  0.25000000  1
  B  B13  1  0.62318561  0.11845642  0.25000000  1
  B  B14  1  0.28659986  0.45171963  0.58633231  1
  B  B15  1  0.54827682  0.83488064  0.58633256  1
  B  B16  1  0.16511377  0.71339560  0.58633272  1
  B  B17  1  0.71340014  0.54828037  0.08633231  1
  B  B18  1  0.45172318  0.16511936  0.08633256  1
  B  B19  1  0.83488623  0.28660440  0.08633272  1
  B  B20  1  0.71340014  0.54828037  0.41366769  1
  B  B21  1  0.45172318  0.16511936  0.41366744  1
  B  B22  1  0.83488623  0.28660440  0.41366728  1
  B  B23  1  0.28659986  0.45171963  0.91366769  1
  B  B24  1  0.54827682  0.83488064  0.91366744  1
  B  B25  1  0.16511377  0.71339560  0.91366728  1
  O  O26  1  0.16724423  0.70802921  0.75000000  1
  O  O27  1  0.29195911  0.45921457  0.75000000  1
  O  O28  1  0.54077512  0.83274362  0.75000000  1
  O  O29  1  0.83275577  0.29197079  0.25000000  1
  O  O30  1  0.70804089  0.54078543  0.25000000  1
  O  O31  1  0.45922488  0.16725638  0.25000000  1
  O  O32  1  0.49721331  0.62195775  0.58616630  1
  O  O33  1  0.37803899  0.87525778  0.58616737  1
  O  O34  1  0.12473703  0.50278299  0.58616664  1
  O  O35  1  0.50278669  0.37804225  0.08616630  1
  O  O36  1  0.62196101  0.12474222  0.08616737  1
  O  O37  1  0.87526297  0.49721701  0.08616664  1
  O  O38  1  0.50278669  0.37804225  0.41383370  1
  O  O39  1  0.62196101  0.12474222  0.41383263  1
  O  O40  1  0.87526297  0.49721701  0.41383336  1
  O  O41  1  0.49721331  0.62195775  0.91383370  1
  O  O42  1  0.37803899  0.87525778  0.91383263  1
  O  O43  1  0.12473703  0.50278299  0.91383336  1
  O  O44  1  0.92135431  0.33285443  0.75000000  1
  O  O45  1  0.66713633  0.58850122  0.75000000  1
  O  O46  1  0.41148884  0.07863512  0.75000000  1
  O  O47  1  0.07864569  0.66714557  0.25000000  1
  O  O48  1  0.33286367  0.41149878  0.25000000  1
  O  O49  1  0.58851116  0.92136488  0.25000000  1
  O  O50  1  0.25183818  0.25399202  0.58554785  1
  O  O51  1  0.74600530  0.99784880  0.58554687  1
  O  O52  1  0.00214760  0.74815632  0.58554794  1
  O  O53  1  0.74816182  0.74600798  0.08554785  1
  O  O54  1  0.25399470  0.00215120  0.08554687  1
  O  O55  1  0.99785240  0.25184368  0.08554794  1
  O  O56  1  0.74816182  0.74600798  0.41445215  1
  O  O57  1  0.25399470  0.00215120  0.41445313  1
  O  O58  1  0.99785240  0.25184368  0.41445206  1
  O  O59  1  0.25183818  0.25399202  0.91445215  1
  O  O60  1  0.74600530  0.99784880  0.91445313  1
  O  O61  1  0.00214760  0.74815632  0.91445206  1
