# generated using pymatgen
data_BaLa2Ti3O10
_symmetry_space_group_name_H-M   'P 1'
_cell_length_a   3.93151978
_cell_length_b   7.74101933
_cell_length_c   14.55381376
_cell_angle_alpha   90.00000000
_cell_angle_beta   97.76257336
_cell_angle_gamma   90.00000000
_symmetry_Int_Tables_number   1
_chemical_formula_structural   BaLa2Ti3O10
_chemical_formula_sum   'Ba2 La4 Ti6 O20'
_cell_volume   438.87145110
_cell_formula_units_Z   2
loop_
 _symmetry_equiv_pos_site_id
 _symmetry_equiv_pos_as_xyz
  1  'x, y, z'
loop_
 _atom_site_type_symbol
 _atom_site_label
 _atom_site_symmetry_multiplicity
 _atom_site_fract_x
 _atom_site_fract_y
 _atom_site_fract_z
 _atom_site_occupancy
  Ba  Ba0  1  0.28503943  0.25000000  0.53224489  1
  Ba  Ba1  1  0.75279454  0.75000000  0.46775511  1
  La  La2  1  0.60446657  0.25000000  0.15275175  1
  La  La3  1  0.45171481  0.75000000  0.84724825  1
  La  La4  1  0.45468862  0.25000000  0.85144893  1
  La  La5  1  0.60323968  0.75000000  0.14855107  1
  Ti  Ti6  1  0.02146104  0.50000000  0.00000000  1
  Ti  Ti7  1  0.02146104  -0.00000000  0.00000000  1
  Ti  Ti8  1  0.16574448  0.50020552  0.29183744  1
  Ti  Ti9  1  0.87390703  0.49979448  0.70816256  1
  Ti  Ti10  1  0.16574448  0.99979448  0.29183744  1
  Ti  Ti11  1  0.87390703  0.00020552  0.70816256  1
  O  O12  1  0.50251977  0.50000000  0.00000000  1
  O  O13  1  0.50251977  -0.00000000  0.00000000  1
  O  O14  1  0.98419932  0.25000000  0.99125178  1
  O  O15  1  0.99294754  0.75000000  0.00874822  1
  O  O16  1  0.88702605  0.25000000  0.74198178  1
  O  O17  1  0.14504427  0.75000000  0.25801822  1
  O  O18  1  0.15154065  0.25000000  0.27162313  1
  O  O19  1  0.87991752  0.75000000  0.72837687  1
  O  O20  1  0.06984629  0.48627627  0.13448000  1
  O  O21  1  0.93536629  0.51372373  0.86552000  1
  O  O22  1  0.06984629  0.01372373  0.13448000  1
  O  O23  1  0.93536629  0.98627627  0.86552000  1
  O  O24  1  0.22523580  0.52476796  0.41472344  1
  O  O25  1  0.81051237  0.47523204  0.58527656  1
  O  O26  1  0.22523580  0.97523204  0.41472344  1
  O  O27  1  0.81051237  0.02476796  0.58527656  1
  O  O28  1  0.64698573  0.50401619  0.26447404  1
  O  O29  1  0.38251169  0.49598381  0.73552596  1
  O  O30  1  0.64698573  0.99598381  0.26447404  1
  O  O31  1  0.38251169  0.00401619  0.73552596  1
