# generated using pymatgen
data_Ag4TeSO4
_symmetry_space_group_name_H-M   'P 1'
_cell_length_a   8.97301699
_cell_length_b   8.97301699
_cell_length_c   8.97301699
_cell_angle_alpha   90.00000000
_cell_angle_beta   90.00000000
_cell_angle_gamma   90.00000000
_symmetry_Int_Tables_number   1
_chemical_formula_structural   Ag4TeSO4
_chemical_formula_sum   'Ag16 Te4 S4 O16'
_cell_volume   722.46276716
_cell_formula_units_Z   4
loop_
 _symmetry_equiv_pos_site_id
 _symmetry_equiv_pos_as_xyz
  1  'x, y, z'
loop_
 _atom_site_type_symbol
 _atom_site_label
 _atom_site_symmetry_multiplicity
 _atom_site_fract_x
 _atom_site_fract_y
 _atom_site_fract_z
 _atom_site_occupancy
  Ag  Ag0  1  0.49995383  -0.00004617  0.50004617  1
  Ag  Ag1  1  -0.00004617  0.50004617  0.49995383  1
  Ag  Ag2  1  0.50004617  0.49995383  -0.00004617  1
  Ag  Ag3  1  0.00004617  0.00004617  0.00004617  1
  Ag  Ag4  1  0.20542263  0.99046976  0.61264413  1
  Ag  Ag5  1  0.38735587  0.70542263  0.50953024  1
  Ag  Ag6  1  0.49046976  0.88735587  0.79457737  1
  Ag  Ag7  1  0.70542263  0.50953024  0.38735587  1
  Ag  Ag8  1  0.88735587  0.79457737  0.49046976  1
  Ag  Ag9  1  0.99046976  0.61264413  0.20542263  1
  Ag  Ag10  1  0.79457737  0.49046976  0.88735587  1
  Ag  Ag11  1  0.61264413  0.20542263  0.99046976  1
  Ag  Ag12  1  0.50953024  0.38735587  0.70542263  1
  Ag  Ag13  1  0.29457737  0.00953024  0.11264413  1
  Ag  Ag14  1  0.11264413  0.29457737  0.00953024  1
  Ag  Ag15  1  0.00953024  0.11264413  0.29457737  1
  Te  Te16  1  0.84412351  0.34412351  0.15587649  1
  Te  Te17  1  0.34412351  0.15587649  0.84412351  1
  Te  Te18  1  0.15587649  0.84412351  0.34412351  1
  Te  Te19  1  0.65587649  0.65587649  0.65587649  1
  S  S20  1  0.14319237  0.64319237  0.85680763  1
  S  S21  1  0.64319237  0.85680763  0.14319237  1
  S  S22  1  0.85680763  0.14319237  0.64319237  1
  S  S23  1  0.35680763  0.35680763  0.35680763  1
  O  O24  1  0.06969364  0.73644748  0.97522416  1
  O  O25  1  0.02477584  0.56969364  0.76355252  1
  O  O26  1  0.23644748  0.52477584  0.93030636  1
  O  O27  1  0.56969364  0.76355252  0.02477584  1
  O  O28  1  0.52477584  0.93030636  0.23644748  1
  O  O29  1  0.73644748  0.97522416  0.06969364  1
  O  O30  1  0.93030636  0.23644748  0.52477584  1
  O  O31  1  0.97522416  0.06969364  0.73644748  1
  O  O32  1  0.76355252  0.02477584  0.56969364  1
  O  O33  1  0.43030636  0.26355252  0.47522416  1
  O  O34  1  0.47522416  0.43030636  0.26355252  1
  O  O35  1  0.26355252  0.47522416  0.43030636  1
  O  O36  1  0.23882754  0.73882754  0.76117246  1
  O  O37  1  0.73882754  0.76117246  0.23882754  1
  O  O38  1  0.76117246  0.23882754  0.73882754  1
  O  O39  1  0.26117246  0.26117246  0.26117246  1
