# generated using pymatgen
data_BaYb6Si7O24
_symmetry_space_group_name_H-M   'P 1'
_cell_length_a   5.66568046
_cell_length_b   7.04704416
_cell_length_c   27.90655432
_cell_angle_alpha   90.00000000
_cell_angle_beta   90.00000000
_cell_angle_gamma   106.58722896
_symmetry_Int_Tables_number   1
_chemical_formula_structural   BaYb6Si7O24
_chemical_formula_sum   'Ba2 Yb12 Si14 O48'
_cell_volume   1067.83917960
_cell_formula_units_Z   2
loop_
 _symmetry_equiv_pos_site_id
 _symmetry_equiv_pos_as_xyz
  1  'x, y, z'
loop_
 _atom_site_type_symbol
 _atom_site_label
 _atom_site_symmetry_multiplicity
 _atom_site_fract_x
 _atom_site_fract_y
 _atom_site_fract_z
 _atom_site_occupancy
  Ba  Ba0  1  0.71294896  0.08844107  0.25000000  1
  Ba  Ba1  1  0.28705104  0.91155893  0.75000000  1
  Yb  Yb2  1  0.11197269  0.75939948  0.18740604  1
  Yb  Yb3  1  0.88802731  0.24060052  0.68740604  1
  Yb  Yb4  1  0.88802731  0.24060052  0.81259396  1
  Yb  Yb5  1  0.11197269  0.75939948  0.31259396  1
  Yb  Yb6  1  0.78290139  0.40827992  0.10072230  1
  Yb  Yb7  1  0.21709861  0.59172008  0.60072230  1
  Yb  Yb8  1  0.21709861  0.59172008  0.89927770  1
  Yb  Yb9  1  0.78290139  0.40827992  0.39927770  1
  Yb  Yb10  1  0.18160203  0.18176895  0.04237933  1
  Yb  Yb11  1  0.81839797  0.81823105  0.54237933  1
  Yb  Yb12  1  0.81839797  0.81823105  0.95762067  1
  Yb  Yb13  1  0.18160203  0.18176895  0.45762067  1
  Si  Si14  1  0.72207275  0.29814375  0.97361499  1
  Si  Si15  1  0.27792725  0.70185625  0.47361499  1
  Si  Si16  1  0.27792725  0.70185625  0.02638501  1
  Si  Si17  1  0.72207275  0.29814375  0.52638501  1
  Si  Si18  1  0.68048535  0.88649660  0.11098346  1
  Si  Si19  1  0.31951465  0.11350340  0.61098346  1
  Si  Si20  1  0.31951465  0.11350340  0.88901654  1
  Si  Si21  1  0.68048535  0.88649660  0.38901654  1
  Si  Si22  1  0.25162118  0.30314609  0.16974050  1
  Si  Si23  1  0.74837882  0.69685391  0.66974050  1
  Si  Si24  1  0.74837882  0.69685391  0.83025950  1
  Si  Si25  1  0.25162118  0.30314609  0.33025950  1
  Si  Si26  1  0.54643438  0.57639453  0.25000000  1
  Si  Si27  1  0.45356562  0.42360547  0.75000000  1
  O  O28  1  0.87961704  0.50855465  0.95051224  1
  O  O29  1  0.12038296  0.49144535  0.45051224  1
  O  O30  1  0.12038296  0.49144535  0.04948776  1
  O  O31  1  0.87961704  0.50855465  0.54948776  1
  O  O32  1  0.59392144  0.32511616  0.02464987  1
  O  O33  1  0.40607856  0.67488384  0.52464987  1
  O  O34  1  0.40607856  0.67488384  0.97535013  1
  O  O35  1  0.59392144  0.32511616  0.47535013  1
  O  O36  1  0.49799373  0.20442430  0.93498550  1
  O  O37  1  0.50200627  0.79557570  0.43498550  1
  O  O38  1  0.50200627  0.79557570  0.06501450  1
  O  O39  1  0.49799373  0.20442430  0.56501450  1
  O  O40  1  0.88550301  0.14428047  0.98098491  1
  O  O41  1  0.11449699  0.85571953  0.48098491  1
  O  O42  1  0.11449699  0.85571953  0.01901509  1
  O  O43  1  0.88550301  0.14428047  0.51901509  1
  O  O44  1  0.52033803  0.90446756  0.15899235  1
  O  O45  1  0.47966197  0.09553244  0.65899235  1
  O  O46  1  0.47966197  0.09553244  0.84100765  1
  O  O47  1  0.52033803  0.90446756  0.34100765  1
  O  O48  1  0.84853072  0.10239178  0.09396798  1
  O  O49  1  0.15146928  0.89760822  0.59396798  1
  O  O50  1  0.15146928  0.89760822  0.90603202  1
  O  O51  1  0.84853072  0.10239178  0.40603202  1
  O  O52  1  0.83595063  0.73296242  0.12491152  1
  O  O53  1  0.16404937  0.26703758  0.62491152  1
  O  O54  1  0.16404937  0.26703758  0.87508848  1
  O  O55  1  0.83595063  0.73296242  0.37508848  1
  O  O56  1  0.12873254  0.09180449  0.19716828  1
  O  O57  1  0.87126746  0.90819551  0.69716828  1
  O  O58  1  0.87126746  0.90819551  0.80283172  1
  O  O59  1  0.12873254  0.09180449  0.30283172  1
  O  O60  1  0.36785583  0.26820587  0.11801468  1
  O  O61  1  0.63214417  0.73179413  0.61801468  1
  O  O62  1  0.63214417  0.73179413  0.88198532  1
  O  O63  1  0.36785583  0.26820587  0.38198532  1
  O  O64  1  0.05924156  0.43453888  0.16560332  1
  O  O65  1  0.94075844  0.56546112  0.66560332  1
  O  O66  1  0.94075844  0.56546112  0.83439668  1
  O  O67  1  0.05924156  0.43453888  0.33439668  1
  O  O68  1  0.49703807  0.42084438  0.20343643  1
  O  O69  1  0.50296193  0.57915562  0.70343643  1
  O  O70  1  0.50296193  0.57915562  0.79656357  1
  O  O71  1  0.49703807  0.42084438  0.29656357  1
  O  O72  1  0.36025782  0.71472909  0.25000000  1
  O  O73  1  0.63974218  0.28527091  0.75000000  1
  O  O74  1  0.83067304  0.70974649  0.25000000  1
  O  O75  1  0.16932696  0.29025351  0.75000000  1
