# generated using pymatgen
data_TiCoGe2
_symmetry_space_group_name_H-M   'P 1'
_cell_length_a   7.74152764
_cell_length_b   8.83127117
_cell_length_c   9.93336654
_cell_angle_alpha   90.00000000
_cell_angle_beta   90.00000000
_cell_angle_gamma   90.00000000
_symmetry_Int_Tables_number   1
_chemical_formula_structural   TiCoGe2
_chemical_formula_sum   'Ti12 Co12 Ge24'
_cell_volume   679.11973352
_cell_formula_units_Z   12
loop_
 _symmetry_equiv_pos_site_id
 _symmetry_equiv_pos_as_xyz
  1  'x, y, z'
loop_
 _atom_site_type_symbol
 _atom_site_label
 _atom_site_symmetry_multiplicity
 _atom_site_fract_x
 _atom_site_fract_y
 _atom_site_fract_z
 _atom_site_occupancy
  Ti  Ti0  1  0.74008377  0.83070643  0.04673856  1
  Ti  Ti1  1  0.74008377  0.16929357  0.95326144  1
  Ti  Ti2  1  0.25991623  0.66929357  0.54673856  1
  Ti  Ti3  1  0.25991623  0.33070643  0.45326144  1
  Ti  Ti4  1  0.25991623  0.16929357  0.95326144  1
  Ti  Ti5  1  0.25991623  0.83070643  0.04673856  1
  Ti  Ti6  1  0.74008377  0.33070643  0.45326144  1
  Ti  Ti7  1  0.74008377  0.66929357  0.54673856  1
  Ti  Ti8  1  0.50000000  0.83420625  0.31894665  1
  Ti  Ti9  1  0.50000000  0.16579375  0.68105335  1
  Ti  Ti10  1  0.50000000  0.66579375  0.81894665  1
  Ti  Ti11  1  0.50000000  0.33420625  0.18105335  1
  Co  Co12  1  0.74863533  0.59169664  0.25024392  1
  Co  Co13  1  0.74863533  0.40830336  0.74975608  1
  Co  Co14  1  0.25136467  0.90830336  0.75024392  1
  Co  Co15  1  0.25136467  0.09169664  0.24975608  1
  Co  Co16  1  0.25136467  0.40830336  0.74975608  1
  Co  Co17  1  0.25136467  0.59169664  0.25024392  1
  Co  Co18  1  0.74863533  0.09169664  0.24975608  1
  Co  Co19  1  0.74863533  0.90830336  0.75024392  1
  Co  Co20  1  0.74439680  -0.00000000  0.50000000  1
  Co  Co21  1  0.25560320  0.50000000  0.00000000  1
  Co  Co22  1  0.25560320  -0.00000000  0.50000000  1
  Co  Co23  1  0.74439680  0.50000000  0.00000000  1
  Ge  Ge24  1  0.83834776  0.83788111  0.31866788  1
  Ge  Ge25  1  0.83834776  0.16211889  0.68133212  1
  Ge  Ge26  1  0.16165224  0.66211889  0.81866788  1
  Ge  Ge27  1  0.16165224  0.33788111  0.18133212  1
  Ge  Ge28  1  0.16165224  0.16211889  0.68133212  1
  Ge  Ge29  1  0.16165224  0.83788111  0.31866788  1
  Ge  Ge30  1  0.83834776  0.33788111  0.18133212  1
  Ge  Ge31  1  0.83834776  0.66211889  0.81866788  1
  Ge  Ge32  1  0.50000000  0.54010439  0.37997630  1
  Ge  Ge33  1  0.50000000  0.45989561  0.62002370  1
  Ge  Ge34  1  0.50000000  0.95989561  0.87997630  1
  Ge  Ge35  1  0.50000000  0.04010439  0.12002370  1
  Ge  Ge36  1  -0.00000000  0.54035901  0.37972613  1
  Ge  Ge37  1  -0.00000000  0.45964099  0.62027387  1
  Ge  Ge38  1  -0.00000000  0.95964099  0.87972613  1
  Ge  Ge39  1  -0.00000000  0.04035901  0.12027387  1
  Ge  Ge40  1  0.50000000  0.63218654  0.09904653  1
  Ge  Ge41  1  0.50000000  0.36781346  0.90095347  1
  Ge  Ge42  1  0.50000000  0.86781346  0.59904653  1
  Ge  Ge43  1  0.50000000  0.13218654  0.40095347  1
  Ge  Ge44  1  -0.00000000  0.63341488  0.09444512  1
  Ge  Ge45  1  -0.00000000  0.36658512  0.90555488  1
  Ge  Ge46  1  -0.00000000  0.86658512  0.59444512  1
  Ge  Ge47  1  -0.00000000  0.13341488  0.40555488  1
