# generated using pymatgen
data_Fe3P2O9
_symmetry_space_group_name_H-M   'P 1'
_cell_length_a   8.30641642
_cell_length_b   9.09593185
_cell_length_c   9.98874175
_cell_angle_alpha   90.00000000
_cell_angle_beta   90.00000000
_cell_angle_gamma   113.17601681
_symmetry_Int_Tables_number   1
_chemical_formula_structural   Fe3P2O9
_chemical_formula_sum   'Fe12 P8 O36'
_cell_volume   693.79156723
_cell_formula_units_Z   4
loop_
 _symmetry_equiv_pos_site_id
 _symmetry_equiv_pos_as_xyz
  1  'x, y, z'
loop_
 _atom_site_type_symbol
 _atom_site_label
 _atom_site_symmetry_multiplicity
 _atom_site_fract_x
 _atom_site_fract_y
 _atom_site_fract_z
 _atom_site_occupancy
  Fe  Fe0  1  0.10660582  0.52285608  0.61464094  1
  Fe  Fe1  1  0.39339418  0.97714392  0.11464094  1
  Fe  Fe2  1  0.89339418  0.47714392  0.38535906  1
  Fe  Fe3  1  0.60660582  0.02285608  0.88535906  1
  Fe  Fe4  1  0.87697163  0.93395034  0.38158138  1
  Fe  Fe5  1  0.62302837  0.56604966  0.88158138  1
  Fe  Fe6  1  0.12302837  0.06604966  0.61841862  1
  Fe  Fe7  1  0.37697163  0.43395034  0.11841862  1
  Fe  Fe8  1  0.51478471  0.78077754  0.62339217  1
  Fe  Fe9  1  0.98521529  0.71922246  0.12339217  1
  Fe  Fe10  1  0.48521529  0.21922246  0.37660783  1
  Fe  Fe11  1  0.01478471  0.28077754  0.87660783  1
  P  P12  1  0.78537915  0.16977662  0.59397820  1
  P  P13  1  0.71462085  0.33022338  0.09397820  1
  P  P14  1  0.21462085  0.83022338  0.40602180  1
  P  P15  1  0.28537915  0.66977662  0.90602180  1
  P  P16  1  0.62326212  0.64089042  0.32836112  1
  P  P17  1  0.87673788  0.85910958  0.82836112  1
  P  P18  1  0.37673788  0.35910958  0.67163888  1
  P  P19  1  0.12326212  0.14089042  0.17163888  1
  O  O20  1  0.90839566  0.30245478  0.68634226  1
  O  O21  1  0.59160434  0.19754522  0.18634226  1
  O  O22  1  0.09160434  0.69754522  0.31365774  1
  O  O23  1  0.40839566  0.80245478  0.81365774  1
  O  O24  1  0.71893074  0.23391716  0.47154090  1
  O  O25  1  0.78106926  0.26608284  0.97154090  1
  O  O26  1  0.28106926  0.76608284  0.52845910  1
  O  O27  1  0.21893074  0.73391716  0.02845910  1
  O  O28  1  0.62945642  0.04931024  0.67511139  1
  O  O29  1  0.87054358  0.45068976  0.17511139  1
  O  O30  1  0.37054358  0.95068976  0.32488861  1
  O  O31  1  0.12945642  0.54931024  0.82488861  1
  O  O32  1  0.89719292  0.07372079  0.54247587  1
  O  O33  1  0.60280708  0.42627921  0.04247587  1
  O  O34  1  0.10280708  0.92627921  0.45752413  1
  O  O35  1  0.39719292  0.57372079  0.95752413  1
  O  O36  1  0.64563259  0.48613661  0.37248229  1
  O  O37  1  0.85436741  0.01386339  0.87248229  1
  O  O38  1  0.35436741  0.51386339  0.62751771  1
  O  O39  1  0.14563259  0.98613661  0.12751771  1
  O  O40  1  0.64306405  0.76123000  0.44614584  1
  O  O41  1  0.85693595  0.73877000  0.94614584  1
  O  O42  1  0.35693595  0.23877000  0.55385416  1
  O  O43  1  0.14306405  0.26123000  0.05385416  1
  O  O44  1  0.44865619  0.59782949  0.25572275  1
  O  O45  1  0.05134381  0.90217051  0.75572275  1
  O  O46  1  0.55134381  0.40217051  0.74427725  1
  O  O47  1  0.94865619  0.09782949  0.24427725  1
  O  O48  1  0.78594392  0.74573376  0.24179678  1
  O  O49  1  0.71405608  0.75426624  0.74179678  1
  O  O50  1  0.21405608  0.25426624  0.75820322  1
  O  O51  1  0.28594392  0.24573376  0.25820322  1
  O  O52  1  0.92437596  0.57671602  0.55504842  1
  O  O53  1  0.57562404  0.92328398  0.05504842  1
  O  O54  1  0.07562404  0.42328398  0.44495158  1
  O  O55  1  0.42437596  0.07671602  0.94495158  1
