# generated using pymatgen
data_Rb3(SO4)2
_symmetry_space_group_name_H-M   'P 1'
_cell_length_a   11.89137475
_cell_length_b   11.91535308
_cell_length_c   16.58319983
_cell_angle_alpha   111.09568436
_cell_angle_beta   90.00000000
_cell_angle_gamma   119.93345086
_symmetry_Int_Tables_number   1
_chemical_formula_structural   Rb3(SO4)2
_chemical_formula_sum   'Rb24 S16 O64'
_cell_volume   1852.30817609
_cell_formula_units_Z   8
loop_
 _symmetry_equiv_pos_site_id
 _symmetry_equiv_pos_as_xyz
  1  'x, y, z'
loop_
 _atom_site_type_symbol
 _atom_site_label
 _atom_site_symmetry_multiplicity
 _atom_site_fract_x
 _atom_site_fract_y
 _atom_site_fract_z
 _atom_site_occupancy
  Rb  Rb0  1  0.75085267  1.00000000  0.25000000  1
  Rb  Rb1  1  0.24914733  0.00000000  0.75000000  1
  Rb  Rb2  1  0.74883179  0.49818728  0.74986730  1
  Rb  Rb3  1  0.25064451  0.50181272  0.75013270  1
  Rb  Rb4  1  0.25116821  0.50181272  0.25013270  1
  Rb  Rb5  1  0.74935549  0.49818728  0.24986730  1
  Rb  Rb6  1  0.75002896  0.00000000  0.75000000  1
  Rb  Rb7  1  0.24997104  1.00000000  0.25000000  1
  Rb  Rb8  1  0.86377010  0.20763074  0.56026152  1
  Rb  Rb9  1  0.65613937  0.79236926  0.93973848  1
  Rb  Rb10  1  0.13622990  0.79236926  0.43973848  1
  Rb  Rb11  1  0.34386063  0.20763074  0.06026152  1
  Rb  Rb12  1  0.64720762  0.28421312  0.44006787  1
  Rb  Rb13  1  0.36299449  0.71578688  0.05993213  1
  Rb  Rb14  1  0.35279238  0.71578688  0.55993213  1
  Rb  Rb15  1  0.63700551  0.28421312  0.94006787  1
  Rb  Rb16  1  0.15611357  0.30547835  0.43970756  1
  Rb  Rb17  1  0.85063521  0.69452165  0.06029244  1
  Rb  Rb18  1  0.84388643  0.69452165  0.56029244  1
  Rb  Rb19  1  0.14936479  0.30547835  0.93970756  1
  Rb  Rb20  1  0.64724100  0.79262638  0.43960912  1
  Rb  Rb21  1  0.85461462  0.20737362  0.06039088  1
  Rb  Rb22  1  0.35275900  0.20737362  0.56039088  1
  Rb  Rb23  1  0.14538538  0.79262638  0.93960912  1
  S  S24  1  0.95984764  0.92902049  0.36336950  1
  S  S25  1  0.03082715  0.07097951  0.13663050  1
  S  S26  1  0.04015236  0.07097951  0.63663050  1
  S  S27  1  0.96917285  0.92902049  0.86336950  1
  S  S28  1  0.95292864  0.41171292  0.36421019  1
  S  S29  1  0.54121572  0.58828708  0.13578981  1
  S  S30  1  0.04707136  0.58828708  0.63578981  1
  S  S31  1  0.45878428  0.41171292  0.86421019  1
  S  S32  1  0.43766688  0.89579954  0.36422200  1
  S  S33  1  0.54186734  0.10420046  0.13577800  1
  S  S34  1  0.56233312  0.10420046  0.63577800  1
  S  S35  1  0.45813266  0.89579954  0.86422200  1
  S  S36  1  0.53144438  0.59361238  0.63567378  1
  S  S37  1  0.93783199  0.40638762  0.86432622  1
  S  S38  1  0.46855562  0.40638762  0.36432622  1
  S  S39  1  0.06216801  0.59361238  0.13567378  1
  O  O40  1  0.93235723  0.88029345  0.26411745  1
  O  O41  1  0.05206379  0.11970655  0.23588255  1
  O  O42  1  0.06764277  0.11970655  0.73588255  1
  O  O43  1  0.94793621  0.88029345  0.76411745  1
  O  O44  1  0.90090005  0.01491632  0.40321531  1
  O  O45  1  0.88598373  0.98508368  0.09678469  1
  O  O46  1  0.09909995  0.98508368  0.59678469  1
  O  O47  1  0.11401627  0.01491632  0.90321531  1
  O  O48  1  0.10498928  0.01235514  0.39944564  1
  O  O49  1  0.09263414  0.98764486  0.10055436  1
  O  O50  1  0.89501072  0.98764486  0.60055436  1
  O  O51  1  0.90736586  0.01235514  0.89944564  1
  O  O52  1  0.89334645  0.79515130  0.37777664  1
  O  O53  1  0.09819514  0.20484870  0.12222336  1
  O  O54  1  0.10665355  0.20484870  0.62222336  1
  O  O55  1  0.90180486  0.79515130  0.87777664  1
  O  O56  1  0.91826017  0.35004977  0.26572579  1
  O  O57  1  0.56821040  0.64995023  0.23427421  1
  O  O58  1  0.08173983  0.64995023  0.73427421  1
  O  O59  1  0.43178960  0.35004977  0.76572579  1
  O  O60  1  0.10087684  0.49743613  0.39497215  1
  O  O61  1  0.60344071  0.50256387  0.10502785  1
  O  O62  1  0.89912316  0.50256387  0.60502785  1
  O  O63  1  0.39655929  0.49743613  0.89497215  1
  O  O64  1  0.89961799  0.50519571  0.40069481  1
  O  O65  1  0.39442228  0.49480429  0.09930519  1
  O  O66  1  0.10038201  0.49480429  0.59930519  1
  O  O67  1  0.60557772  0.50519571  0.90069481  1
  O  O68  1  0.89272130  0.29335873  0.39383729  1
  O  O69  1  0.59936257  0.70664127  0.10616271  1
  O  O70  1  0.10727870  0.70664127  0.60616271  1
  O  O71  1  0.40063743  0.29335873  0.89383729  1
  O  O72  1  0.39083587  0.81957963  0.26475278  1
  O  O73  1  0.57125625  0.18042037  0.23524722  1
  O  O74  1  0.60916413  0.18042037  0.73524722  1
  O  O75  1  0.42874375  0.81957963  0.76475278  1
  O  O76  1  0.38890289  0.78960173  0.40303576  1
  O  O77  1  0.59930115  0.21039827  0.09696424  1
  O  O78  1  0.61109711  0.21039827  0.59696424  1
  O  O79  1  0.40069885  0.78960173  0.90303576  1
  O  O80  1  0.38848043  0.99278925  0.39918802  1
  O  O81  1  0.39569118  0.00721075  0.10081198  1
  O  O82  1  0.61151957  0.00721075  0.60081198  1
  O  O83  1  0.60430882  0.99278925  0.89918802  1
  O  O84  1  0.58619700  0.97901618  0.38186717  1
  O  O85  1  0.60718082  0.02098382  0.11813283  1
  O  O86  1  0.41380300  0.02098382  0.61813283  1
  O  O87  1  0.39281918  0.97901618  0.88186717  1
  O  O88  1  0.55354935  0.66151047  0.73541856  1
  O  O89  1  0.89203888  0.33848953  0.76458144  1
  O  O90  1  0.44645065  0.33848953  0.26458144  1
  O  O91  1  0.10796112  0.66151047  0.23541856  1
  O  O92  1  0.59456101  0.70709963  0.60257423  1
  O  O93  1  0.88746138  0.29290037  0.89742577  1
  O  O94  1  0.40543899  0.29290037  0.39742577  1
  O  O95  1  0.11253862  0.70709963  0.10257423  1
  O  O96  1  0.38672395  0.49799485  0.59611507  1
  O  O97  1  0.88872910  0.50200515  0.90388493  1
  O  O98  1  0.61327605  0.50200515  0.40388493  1
  O  O99  1  0.11127090  0.49799485  0.09611507  1
  O  O100  1  0.59742804  0.51075960  0.61697071  1
  O  O101  1  0.08666844  0.48924040  0.88302929  1
  O  O102  1  0.40257196  0.48924040  0.38302929  1
  O  O103  1  0.91333156  0.51075960  0.11697071  1
