# generated using pymatgen
data_Er(BRh)4
_symmetry_space_group_name_H-M   'P 1'
_cell_length_a   7.53746189
_cell_length_b   7.53016332
_cell_length_c   11.81607267
_cell_angle_alpha   90.00000000
_cell_angle_beta   108.59940939
_cell_angle_gamma   90.00000000
_symmetry_Int_Tables_number   1
_chemical_formula_structural   Er(BRh)4
_chemical_formula_sum   'Er6 B24 Rh24'
_cell_volume   635.63296754
_cell_formula_units_Z   6
loop_
 _symmetry_equiv_pos_site_id
 _symmetry_equiv_pos_as_xyz
  1  'x, y, z'
loop_
 _atom_site_type_symbol
 _atom_site_label
 _atom_site_symmetry_multiplicity
 _atom_site_fract_x
 _atom_site_fract_y
 _atom_site_fract_z
 _atom_site_occupancy
  Er  Er0  1  0.91682852  0.25000000  0.83365704  1
  Er  Er1  1  0.41682852  0.75000000  0.83365704  1
  Er  Er2  1  0.08317148  0.75000000  0.16634296  1
  Er  Er3  1  0.58317148  0.25000000  0.16634296  1
  Er  Er4  1  0.25000000  0.25000000  0.50000000  1
  Er  Er5  1  0.75000000  0.75000000  0.50000000  1
  B  B6  1  0.22531069  0.07674272  0.72067553  1
  B  B7  1  0.99536483  0.57674272  0.72067553  1
  B  B8  1  0.50463517  0.57674272  0.27932447  1
  B  B9  1  0.27468931  0.07674272  0.27932447  1
  B  B10  1  0.77468931  0.92325728  0.27932447  1
  B  B11  1  0.00463517  0.42325728  0.27932447  1
  B  B12  1  0.49536483  0.42325728  0.72067553  1
  B  B13  1  0.72531069  0.92325728  0.72067553  1
  B  B14  1  0.30064330  0.39132572  0.94210554  1
  B  B15  1  0.14146223  0.89132572  0.94210554  1
  B  B16  1  0.35853777  0.89132572  0.05789446  1
  B  B17  1  0.19935670  0.39132572  0.05789446  1
  B  B18  1  0.69935670  0.60867428  0.05789446  1
  B  B19  1  0.85853777  0.10867428  0.05789446  1
  B  B20  1  0.64146223  0.10867428  0.94210554  1
  B  B21  1  0.80064330  0.60867428  0.94210554  1
  B  B22  1  0.83810600  0.08796410  0.39075978  1
  B  B23  1  0.05265378  0.58796410  0.39075978  1
  B  B24  1  0.44734622  0.58796410  0.60924022  1
  B  B25  1  0.66189400  0.08796410  0.60924022  1
  B  B26  1  0.16189400  0.91203590  0.60924022  1
  B  B27  1  0.94734622  0.41203590  0.60924022  1
  B  B28  1  0.55265378  0.41203590  0.39075978  1
  B  B29  1  0.33810600  0.91203590  0.39075978  1
  Rh  Rh30  1  0.34386733  0.09672184  0.91782117  1
  Rh  Rh31  1  0.07395384  0.59672184  0.91782117  1
  Rh  Rh32  1  0.42604616  0.59672184  0.08217883  1
  Rh  Rh33  1  0.15613267  0.09672184  0.08217883  1
  Rh  Rh34  1  0.65613267  0.90327816  0.08217883  1
  Rh  Rh35  1  0.92604616  0.40327816  0.08217883  1
  Rh  Rh36  1  0.57395384  0.40327816  0.91782117  1
  Rh  Rh37  1  0.84386733  0.90327816  0.91782117  1
  Rh  Rh38  1  0.22132858  0.36294911  0.74991363  1
  Rh  Rh39  1  0.02858505  0.86294911  0.74991363  1
  Rh  Rh40  1  0.47141495  0.86294911  0.25008637  1
  Rh  Rh41  1  0.27867142  0.36294911  0.25008637  1
  Rh  Rh42  1  0.77867142  0.63705089  0.25008637  1
  Rh  Rh43  1  0.97141495  0.13705089  0.25008637  1
  Rh  Rh44  1  0.52858505  0.13705089  0.74991363  1
  Rh  Rh45  1  0.72132858  0.63705089  0.74991363  1
  Rh  Rh46  1  0.94329590  0.12297591  0.58381874  1
  Rh  Rh47  1  0.14052284  0.62297591  0.58381874  1
  Rh  Rh48  1  0.35947716  0.62297591  0.41618126  1
  Rh  Rh49  1  0.55670410  0.12297591  0.41618126  1
  Rh  Rh50  1  0.05670410  0.87702409  0.41618126  1
  Rh  Rh51  1  0.85947716  0.37702409  0.41618126  1
  Rh  Rh52  1  0.64052284  0.37702409  0.58381874  1
  Rh  Rh53  1  0.44329590  0.87702409  0.58381874  1
