# generated using pymatgen
data_MnAl2P2H10O13F2
_symmetry_space_group_name_H-M   'P 1'
_cell_length_a   6.09654078
_cell_length_b   9.92046441
_cell_length_c   10.00096353
_cell_angle_alpha   97.30618047
_cell_angle_beta   99.68767606
_cell_angle_gamma   92.80178915
_symmetry_Int_Tables_number   1
_chemical_formula_structural   MnAl2P2H10O13F2
_chemical_formula_sum   'Mn2 Al4 P4 H20 O26 F4'
_cell_volume   589.86704143
_cell_formula_units_Z   2
loop_
 _symmetry_equiv_pos_site_id
 _symmetry_equiv_pos_as_xyz
  1  'x, y, z'
loop_
 _atom_site_type_symbol
 _atom_site_label
 _atom_site_symmetry_multiplicity
 _atom_site_fract_x
 _atom_site_fract_y
 _atom_site_fract_z
 _atom_site_occupancy
  Mn  Mn0  1  0.34763399  0.41136329  0.59165104  1
  Mn  Mn1  1  0.65236601  0.58863671  0.40834896  1
  Al  Al2  1  -0.00000000  0.50000000  -0.00000000  1
  Al  Al3  1  0.50000000  -0.00000000  -0.00000000  1
  Al  Al4  1  0.18518831  0.71620575  0.79894531  1
  Al  Al5  1  0.81481169  0.28379425  0.20105469  1
  P  P6  1  0.71052118  0.73151134  0.89671408  1
  P  P7  1  0.28947882  0.26848866  0.10328592  1
  P  P8  1  0.91398820  0.43934284  0.67016280  1
  P  P9  1  0.08601180  0.56065716  0.32983720  1
  H  H10  1  0.50108610  0.14913887  0.80954810  1
  H  H11  1  0.49891390  0.85086113  0.19045190  1
  H  H12  1  0.70044934  0.05235694  0.79946237  1
  H  H13  1  0.29955066  0.94764306  0.20053763  1
  H  H14  1  0.11288732  0.90815595  0.66132195  1
  H  H15  1  0.88711268  0.09184405  0.33867805  1
  H  H16  1  0.09554253  0.76945200  0.54910727  1
  H  H17  1  0.90445747  0.23054800  0.45089273  1
  H  H18  1  0.51930533  0.20262740  0.43545675  1
  H  H19  1  0.48069467  0.79737260  0.56454325  1
  H  H20  1  0.28310732  0.22987683  0.36287449  1
  H  H21  1  0.71689268  0.77012317  0.63712551  1
  H  H22  1  0.36544322  0.35231049  0.86346489  1
  H  H23  1  0.63455678  0.64768951  0.13653511  1
  H  H24  1  0.60757063  0.36665902  0.82065085  1
  H  H25  1  0.39242937  0.63334098  0.17934915  1
  H  H26  1  0.07082796  0.08885337  0.84288745  1
  H  H27  1  0.92917204  0.91114663  0.15711255  1
  H  H28  1  0.98865526  0.15524459  0.71030754  1
  H  H29  1  0.01134474  0.84475541  0.28969246  1
  O  O30  1  0.48372666  0.68905043  0.80293597  1
  O  O31  1  0.51627334  0.31094957  0.19706403  1
  O  O32  1  0.88248886  0.74479159  0.80059681  1
  O  O33  1  0.11751114  0.25520841  0.19940319  1
  O  O34  1  0.70255553  0.86928080  0.98779428  1
  O  O35  1  0.29744447  0.13071920  0.01220572  1
  O  O36  1  0.77710570  0.62669931  0.99628163  1
  O  O37  1  0.22289430  0.37330069  0.00371837  1
  O  O38  1  0.87745750  0.42431624  0.81668959  1
  O  O39  1  0.12254250  0.57568376  0.18331041  1
  O  O40  1  0.00071087  0.30823685  0.60157116  1
  O  O41  1  0.99928913  0.69176315  0.39842884  1
  O  O42  1  0.69340704  0.47587173  0.58585956  1
  O  O43  1  0.30659296  0.52412827  0.41414044  1
  O  O44  1  0.10804882  0.55201637  0.67662204  1
  O  O45  1  0.89195118  0.44798363  0.32337796  1
  O  O46  1  0.54989020  0.05728626  0.82552036  1
  O  O47  1  0.45010980  0.94271374  0.17447964  1
  O  O48  1  0.17289748  0.81814876  0.64240229  1
  O  O49  1  0.82710252  0.18185124  0.35759771  1
  O  O50  1  0.37083716  0.22175287  0.45447976  1
  O  O51  1  0.62916284  0.77824713  0.54552024  1
  O  O52  1  0.45138546  0.32665319  0.78808157  1
  O  O53  1  0.54861454  0.67334681  0.21191843  1
  O  O54  1  0.97213274  0.07128817  0.75226669  1
  O  O55  1  0.02786726  0.92871183  0.24773331  1
  F  F56  1  0.26294835  0.88094007  0.90962977  1
  F  F57  1  0.73705165  0.11905993  0.09037023  1
  F  F58  1  0.19214467  0.62386850  0.94847247  1
  F  F59  1  0.80785533  0.37613150  0.05152753  1
