# generated using pymatgen
data_Bi2(Pb2S3)3
_symmetry_space_group_name_H-M   'P 1'
_cell_length_a   4.19177135
_cell_length_b   7.22112344
_cell_length_c   31.54102899
_cell_angle_alpha   90.00000000
_cell_angle_beta   90.00000000
_cell_angle_gamma   106.87254724
_symmetry_Int_Tables_number   1
_chemical_formula_structural   Bi2(Pb2S3)3
_chemical_formula_sum   'Bi4 Pb12 S18'
_cell_volume   913.62655028
_cell_formula_units_Z   2
loop_
 _symmetry_equiv_pos_site_id
 _symmetry_equiv_pos_as_xyz
  1  'x, y, z'
loop_
 _atom_site_type_symbol
 _atom_site_label
 _atom_site_symmetry_multiplicity
 _atom_site_fract_x
 _atom_site_fract_y
 _atom_site_fract_z
 _atom_site_occupancy
  Bi  Bi0  1  0.31735176  0.63470353  0.82637292  1
  Bi  Bi1  1  0.68264824  0.36529647  0.17362708  1
  Bi  Bi2  1  0.31735176  0.63470353  0.67362708  1
  Bi  Bi3  1  0.68264824  0.36529647  0.32637292  1
  Pb  Pb4  1  0.42123850  0.84247701  0.25000000  1
  Pb  Pb5  1  0.57876150  0.15752299  0.75000000  1
  Pb  Pb6  1  0.50000000  0.00000000  0.50000000  1
  Pb  Pb7  1  0.50000000  0.00000000  0.00000000  1
  Pb  Pb8  1  0.22914849  0.45829698  0.44196297  1
  Pb  Pb9  1  0.77085151  0.54170302  0.55803703  1
  Pb  Pb10  1  0.22914849  0.45829698  0.05803703  1
  Pb  Pb11  1  0.77085151  0.54170302  0.94196297  1
  Pb  Pb12  1  0.04487248  0.08974497  0.88239863  1
  Pb  Pb13  1  0.95512752  0.91025503  0.11760137  1
  Pb  Pb14  1  0.04487248  0.08974497  0.61760137  1
  Pb  Pb15  1  0.95512752  0.91025503  0.38239863  1
  S  S16  1  0.40885618  0.81771236  0.91262333  1
  S  S17  1  0.59114382  0.18228764  0.08737667  1
  S  S18  1  0.40885618  0.81771236  0.58737667  1
  S  S19  1  0.59114382  0.18228764  0.41262333  1
  S  S20  1  0.13788073  0.27576145  0.97327122  1
  S  S21  1  0.86211927  0.72423855  0.02672878  1
  S  S22  1  0.13788073  0.27576145  0.52672878  1
  S  S23  1  0.86211927  0.72423855  0.47327122  1
  S  S24  1  0.77994450  0.55988901  0.25000000  1
  S  S25  1  0.22005550  0.44011099  0.75000000  1
  S  S26  1  0.94342220  0.88684440  0.80500353  1
  S  S27  1  0.05657780  0.11315560  0.19499647  1
  S  S28  1  0.94342220  0.88684440  0.69499647  1
  S  S29  1  0.05657780  0.11315560  0.30500353  1
  S  S30  1  0.68227441  0.36454882  0.85172465  1
  S  S31  1  0.31772559  0.63545118  0.14827535  1
  S  S32  1  0.68227441  0.36454882  0.64827535  1
  S  S33  1  0.31772559  0.63545118  0.35172465  1
