# generated using pymatgen
data_Fe2PHO3F2
_symmetry_space_group_name_H-M   'P 1'
_cell_length_a   5.61491678
_cell_length_b   7.45449560
_cell_length_c   10.16060008
_cell_angle_alpha   90.00000000
_cell_angle_beta   90.00000000
_cell_angle_gamma   90.00000000
_symmetry_Int_Tables_number   1
_chemical_formula_structural   Fe2PHO3F2
_chemical_formula_sum   'Fe8 P4 H4 O12 F8'
_cell_volume   425.28586107
_cell_formula_units_Z   4
loop_
 _symmetry_equiv_pos_site_id
 _symmetry_equiv_pos_as_xyz
  1  'x, y, z'
loop_
 _atom_site_type_symbol
 _atom_site_label
 _atom_site_symmetry_multiplicity
 _atom_site_fract_x
 _atom_site_fract_y
 _atom_site_fract_z
 _atom_site_occupancy
  Fe  Fe0  1  0.25249638  0.90244765  0.43947404  1
  Fe  Fe1  1  0.24750362  0.40244765  0.06052596  1
  Fe  Fe2  1  0.74750362  0.09755235  0.93947404  1
  Fe  Fe3  1  0.75249638  0.59755235  0.56052596  1
  Fe  Fe4  1  0.74750362  0.09755235  0.56052596  1
  Fe  Fe5  1  0.75249638  0.59755235  0.93947404  1
  Fe  Fe6  1  0.25249638  0.90244765  0.06052596  1
  Fe  Fe7  1  0.24750362  0.40244765  0.43947404  1
  P  P8  1  0.42167606  0.83830822  0.75000000  1
  P  P9  1  0.07832394  0.33830822  0.75000000  1
  P  P10  1  0.57832394  0.16169178  0.25000000  1
  P  P11  1  0.92167606  0.66169178  0.25000000  1
  H  H12  1  0.19420433  0.76163299  0.75000000  1
  H  H13  1  0.30579567  0.26163299  0.75000000  1
  H  H14  1  0.80579567  0.23836701  0.25000000  1
  H  H15  1  0.69420433  0.73836701  0.25000000  1
  O  O16  1  0.44128771  0.95346627  0.62443635  1
  O  O17  1  0.05871229  0.45346627  0.87556365  1
  O  O18  1  0.55871229  0.04653373  0.12443635  1
  O  O19  1  0.94128771  0.54653373  0.37556365  1
  O  O20  1  0.55871229  0.04653373  0.37556365  1
  O  O21  1  0.94128771  0.54653373  0.12443635  1
  O  O22  1  0.44128771  0.95346627  0.87556365  1
  O  O23  1  0.05871229  0.45346627  0.62443635  1
  O  O24  1  0.60859070  0.68282403  0.75000000  1
  O  O25  1  0.89140930  0.18282403  0.75000000  1
  O  O26  1  0.39140930  0.31717597  0.25000000  1
  O  O27  1  0.10859070  0.81717597  0.25000000  1
  F  F28  1  0.41936931  0.65258735  0.45509712  1
  F  F29  1  0.08063069  0.15258735  0.04490288  1
  F  F30  1  0.58063069  0.34741265  0.95509712  1
  F  F31  1  0.91936931  0.84741265  0.54490288  1
  F  F32  1  0.58063069  0.34741265  0.54490288  1
  F  F33  1  0.91936931  0.84741265  0.95509712  1
  F  F34  1  0.41936931  0.65258735  0.04490288  1
  F  F35  1  0.08063069  0.15258735  0.45509712  1
