# generated using pymatgen
data_CaCrBi12(Mo2O17)2
_symmetry_space_group_name_H-M   'P 1'
_cell_length_a   5.87356615
_cell_length_b   11.82327412
_cell_length_c   25.26730900
_cell_angle_alpha   102.03098547
_cell_angle_beta   90.00000000
_cell_angle_gamma   90.00000000
_symmetry_Int_Tables_number   1
_chemical_formula_structural   CaCrBi12(Mo2O17)2
_chemical_formula_sum   'Ca2 Cr2 Bi24 Mo8 O68'
_cell_volume   1716.14120897
_cell_formula_units_Z   2
loop_
 _symmetry_equiv_pos_site_id
 _symmetry_equiv_pos_as_xyz
  1  'x, y, z'
loop_
 _atom_site_type_symbol
 _atom_site_label
 _atom_site_symmetry_multiplicity
 _atom_site_fract_x
 _atom_site_fract_y
 _atom_site_fract_z
 _atom_site_occupancy
  Ca  Ca0  1  0.00000000  0.00000000  0.00000000  1
  Ca  Ca1  1  0.00000000  0.00000000  0.50000000  1
  Cr  Cr2  1  0.50446125  0.00000000  0.75000000  1
  Cr  Cr3  1  0.49553875  0.00000000  0.25000000  1
  Bi  Bi4  1  0.41561769  0.34116394  0.75467431  1
  Bi  Bi5  1  0.41561769  0.65883606  0.74532569  1
  Bi  Bi6  1  0.58438231  0.65883606  0.24532569  1
  Bi  Bi7  1  0.58438231  0.34116394  0.25467431  1
  Bi  Bi8  1  0.91801545  0.54017983  0.82550674  1
  Bi  Bi9  1  0.91801545  0.45982017  0.67449326  1
  Bi  Bi10  1  0.08198455  0.45982017  0.17449326  1
  Bi  Bi11  1  0.08198455  0.54017983  0.32550674  1
  Bi  Bi12  1  0.51373025  0.74268219  0.89952175  1
  Bi  Bi13  1  0.51373025  0.25731781  0.60047825  1
  Bi  Bi14  1  0.48626975  0.25731781  0.10047825  1
  Bi  Bi15  1  0.48626975  0.74268219  0.39952175  1
  Bi  Bi16  1  0.99013500  0.76891570  0.15899548  1
  Bi  Bi17  1  0.99013500  0.23108430  0.34100452  1
  Bi  Bi18  1  0.00986500  0.23108430  0.84100452  1
  Bi  Bi19  1  0.00986500  0.76891570  0.65899548  1
  Bi  Bi20  1  0.51416713  0.41743563  0.90736339  1
  Bi  Bi21  1  0.51416713  0.58256437  0.59263661  1
  Bi  Bi22  1  0.48583287  0.58256437  0.09263661  1
  Bi  Bi23  1  0.48583287  0.41743563  0.40736339  1
  Bi  Bi24  1  0.00289045  0.86257752  0.82133821  1
  Bi  Bi25  1  0.00289045  0.13742248  0.67866179  1
  Bi  Bi26  1  0.99710955  0.13742248  0.17866179  1
  Bi  Bi27  1  0.99710955  0.86257752  0.32133821  1
  Mo  Mo28  1  0.49580808  0.07660219  0.92278817  1
  Mo  Mo29  1  0.49580808  0.92339781  0.57721183  1
  Mo  Mo30  1  0.50419192  0.92339781  0.07721183  1
  Mo  Mo31  1  0.50419192  0.07660219  0.42278817  1
  Mo  Mo32  1  0.00935086  0.67044736  0.98853913  1
  Mo  Mo33  1  0.00935086  0.32955264  0.51146087  1
  Mo  Mo34  1  0.99064914  0.32955264  0.01146087  1
  Mo  Mo35  1  0.99064914  0.67044736  0.48853913  1
  O  O36  1  0.22167564  0.50000000  0.75000000  1
  O  O37  1  0.77832436  0.50000000  0.25000000  1
  O  O38  1  0.72980872  0.50000000  0.75000000  1
  O  O39  1  0.27019128  0.50000000  0.25000000  1
  O  O40  1  0.23980610  0.63714238  0.15919361  1
  O  O41  1  0.23980610  0.36285762  0.34080639  1
  O  O42  1  0.76019390  0.36285762  0.84080639  1
  O  O43  1  0.76019390  0.63714238  0.65919361  1
  O  O44  1  0.77274828  0.72822811  0.83393732  1
  O  O45  1  0.77274828  0.27177189  0.66606268  1
  O  O46  1  0.22725172  0.27177189  0.16606268  1
  O  O47  1  0.22725172  0.72822811  0.33393732  1
  O  O48  1  0.26776769  0.73899109  0.83552736  1
  O  O49  1  0.26776769  0.26100891  0.66447264  1
  O  O50  1  0.73223231  0.26100891  0.16447264  1
  O  O51  1  0.73223231  0.73899109  0.33552736  1
  O  O52  1  0.74750419  0.62841215  0.15507489  1
  O  O53  1  0.74750419  0.37158785  0.34492511  1
  O  O54  1  0.25249581  0.37158785  0.84492511  1
  O  O55  1  0.25249581  0.62841215  0.65507489  1
  O  O56  1  0.08717592  0.75710238  0.74258689  1
  O  O57  1  0.08717592  0.24289762  0.75741311  1
  O  O58  1  0.91282408  0.24289762  0.25741311  1
  O  O59  1  0.91282408  0.75710238  0.24258689  1
  O  O60  1  0.56936664  0.56110237  0.86602681  1
  O  O61  1  0.56936664  0.43889763  0.63397319  1
  O  O62  1  0.43063336  0.43889763  0.13397319  1
  O  O63  1  0.43063336  0.56110237  0.36602681  1
  O  O64  1  0.67186225  0.11775000  0.75650978  1
  O  O65  1  0.67186225  0.88225000  0.74349022  1
  O  O66  1  0.32813775  0.88225000  0.24349022  1
  O  O67  1  0.32813775  0.11775000  0.25650978  1
  O  O68  1  0.92232448  0.80206910  0.96881079  1
  O  O69  1  0.92232448  0.19793090  0.53118921  1
  O  O70  1  0.07767552  0.19793090  0.03118921  1
  O  O71  1  0.07767552  0.80206910  0.46881079  1
  O  O72  1  0.48095719  0.19672415  0.88904565  1
  O  O73  1  0.48095719  0.80327585  0.61095435  1
  O  O74  1  0.51904281  0.80327585  0.11095435  1
  O  O75  1  0.51904281  0.19672415  0.38904565  1
  O  O76  1  0.22097523  0.00659883  0.92418305  1
  O  O77  1  0.22097523  0.99340117  0.57581695  1
  O  O78  1  0.77902477  0.99340117  0.07581695  1
  O  O79  1  0.77902477  0.00659883  0.42418305  1
  O  O80  1  0.05751163  0.69263717  0.06042155  1
  O  O81  1  0.05751163  0.30736283  0.43957845  1
  O  O82  1  0.94248837  0.30736283  0.93957845  1
  O  O83  1  0.94248837  0.69263717  0.56042155  1
  O  O84  1  0.25413607  0.61341928  0.94792143  1
  O  O85  1  0.25413607  0.38658072  0.55207857  1
  O  O86  1  0.74586393  0.38658072  0.05207857  1
  O  O87  1  0.74586393  0.61341928  0.44792143  1
  O  O88  1  0.70530807  0.96700699  0.89657802  1
  O  O89  1  0.70530807  0.03299301  0.60342198  1
  O  O90  1  0.29469193  0.03299301  0.10342198  1
  O  O91  1  0.29469193  0.96700699  0.39657802  1
  O  O92  1  0.58969151  0.13263677  0.98999789  1
  O  O93  1  0.58969151  0.86736323  0.51000211  1
  O  O94  1  0.41030849  0.86736323  0.01000211  1
  O  O95  1  0.41030849  0.13263677  0.48999789  1
  O  O96  1  0.78042798  0.57094645  0.97156294  1
  O  O97  1  0.78042798  0.42905355  0.52843706  1
  O  O98  1  0.21957202  0.42905355  0.02843706  1
  O  O99  1  0.21957202  0.57094645  0.47156294  1
  O  O100  1  0.33886831  0.00796596  0.80398648  1
  O  O101  1  0.33886831  0.99203404  0.69601352  1
  O  O102  1  0.66113169  0.99203404  0.19601352  1
  O  O103  1  0.66113169  0.00796596  0.30398648  1
