# generated using pymatgen
data_Ca3Si3(HO5)2
_symmetry_space_group_name_H-M   'P 1'
_cell_length_a   6.89751147
_cell_length_b   7.05279621
_cell_length_c   9.56524388
_cell_angle_alpha   95.82735856
_cell_angle_beta   108.49330864
_cell_angle_gamma   95.54420455
_symmetry_Int_Tables_number   1
_chemical_formula_structural   Ca3Si3(HO5)2
_chemical_formula_sum   'Ca6 Si6 H4 O20'
_cell_volume   434.89740090
_cell_formula_units_Z   2
loop_
 _symmetry_equiv_pos_site_id
 _symmetry_equiv_pos_as_xyz
  1  'x, y, z'
loop_
 _atom_site_type_symbol
 _atom_site_label
 _atom_site_symmetry_multiplicity
 _atom_site_fract_x
 _atom_site_fract_y
 _atom_site_fract_z
 _atom_site_occupancy
  Ca  Ca0  1  0.82260138  0.71953035  0.65595663  1
  Ca  Ca1  1  0.17739862  0.28046965  0.34404337  1
  Ca  Ca2  1  0.75381897  0.90473376  0.31907303  1
  Ca  Ca3  1  0.24618103  0.09526624  0.68092697  1
  Ca  Ca4  1  0.73125718  0.15575298  0.99091797  1
  Ca  Ca5  1  0.26874282  0.84424702  0.00908203  1
  Si  Si6  1  0.72344433  0.69922922  0.94985426  1
  Si  Si7  1  0.27655567  0.30077078  0.05014574  1
  Si  Si8  1  0.67232501  0.37334697  0.33995005  1
  Si  Si9  1  0.32767499  0.62665303  0.66004995  1
  Si  Si10  1  0.73339160  0.19665188  0.62601053  1
  Si  Si11  1  0.26660840  0.80334812  0.37398947  1
  H  H12  1  0.09535283  0.46818675  0.88154493  1
  H  H13  1  0.90464717  0.53181325  0.11845507  1
  H  H14  1  0.02626572  0.39874949  0.65488581  1
  H  H15  1  0.97373428  0.60125051  0.34511419  1
  O  O16  1  0.91481179  0.80563924  0.91164142  1
  O  O17  1  0.08518821  0.19436076  0.08835858  1
  O  O18  1  0.77855409  0.50139662  0.02824915  1
  O  O19  1  0.22144591  0.49860338  0.97175085  1
  O  O20  1  0.63571846  0.84540929  0.05059629  1
  O  O21  1  0.36428154  0.15459071  0.94940371  1
  O  O22  1  0.55362943  0.61343938  0.78371843  1
  O  O23  1  0.44637057  0.38656062  0.21628157  1
  O  O24  1  0.80459715  0.23051153  0.27534496  1
  O  O25  1  0.19540285  0.76948847  0.72465504  1
  O  O26  1  0.79308209  0.59129062  0.40571713  1
  O  O27  1  0.20691791  0.40870938  0.59428287  1
  O  O28  1  0.59179838  0.27695429  0.47018740  1
  O  O29  1  0.40820162  0.72304571  0.52981260  1
  O  O30  1  0.91502836  0.39085877  0.70725182  1
  O  O31  1  0.08497164  0.60914123  0.29274818  1
  O  O32  1  0.60049204  0.14557677  0.73091836  1
  O  O33  1  0.39950796  0.85442323  0.26908164  1
  O  O34  1  0.85164503  0.02266636  0.58123602  1
  O  O35  1  0.14835497  0.97733364  0.41876398  1
