# generated using pymatgen
data_Li9Mg3P4O16F3
_symmetry_space_group_name_H-M   'P 1'
_cell_length_a   5.06920610
_cell_length_b   12.76103741
_cell_length_c   12.76103741
_cell_angle_alpha   120.00000231
_cell_angle_beta   90.00000000
_cell_angle_gamma   90.00000000
_symmetry_Int_Tables_number   1
_chemical_formula_structural   Li9Mg3P4O16F3
_chemical_formula_sum   'Li18 Mg6 P8 O32 F6'
_cell_volume   714.89545127
_cell_formula_units_Z   2
loop_
 _symmetry_equiv_pos_site_id
 _symmetry_equiv_pos_as_xyz
  1  'x, y, z'
loop_
 _atom_site_type_symbol
 _atom_site_label
 _atom_site_symmetry_multiplicity
 _atom_site_fract_x
 _atom_site_fract_y
 _atom_site_fract_z
 _atom_site_occupancy
  Li  Li0  1  0.15293085  0.83156893  0.91499490  1
  Li  Li1  1  0.15293085  0.08500510  0.91657403  1
  Li  Li2  1  0.15293085  0.08342597  0.16843107  1
  Li  Li3  1  0.65293085  0.16843107  0.08500510  1
  Li  Li4  1  0.65293085  0.91499490  0.08342597  1
  Li  Li5  1  0.65293085  0.91657403  0.83156893  1
  Li  Li6  1  0.19916609  0.60490636  0.17456315  1
  Li  Li7  1  0.19916609  0.82543685  0.43034321  1
  Li  Li8  1  0.19916609  0.56965679  0.39509364  1
  Li  Li9  1  0.69916609  0.39509364  0.82543685  1
  Li  Li10  1  0.69916609  0.17456315  0.56965679  1
  Li  Li11  1  0.69916609  0.43034321  0.60490636  1
  Li  Li12  1  0.72998026  0.66591755  0.08638910  1
  Li  Li13  1  0.72998026  0.91361090  0.57952845  1
  Li  Li14  1  0.72998026  0.42047155  0.33408245  1
  Li  Li15  1  0.22998026  0.33408245  0.91361090  1
  Li  Li16  1  0.22998026  0.08638910  0.42047155  1
  Li  Li17  1  0.22998026  0.57952845  0.66591755  1
  Mg  Mg18  1  0.23100279  0.57480027  0.93260869  1
  Mg  Mg19  1  0.23100279  0.06739131  0.64219158  1
  Mg  Mg20  1  0.23100279  0.35780842  0.42519973  1
  Mg  Mg21  1  0.73100279  0.42519973  0.06739131  1
  Mg  Mg22  1  0.73100279  0.93260869  0.35780842  1
  Mg  Mg23  1  0.73100279  0.64219158  0.57480027  1
  P  P24  1  0.24580021  0.84676753  0.16605637  1
  P  P25  1  0.24580021  0.83394363  0.68071116  1
  P  P26  1  0.24580021  0.31928884  0.15323247  1
  P  P27  1  0.74580021  0.15323247  0.83394363  1
  P  P28  1  0.74580021  0.16605637  0.31928884  1
  P  P29  1  0.74580021  0.68071116  0.84676753  1
  P  P30  1  0.70487496  0.66666600  0.33333300  1
  P  P31  1  0.20487496  0.33333400  0.66666700  1
  O  O32  1  0.81433953  0.79757547  0.39576350  1
  O  O33  1  0.81433953  0.60423650  0.40181197  1
  O  O34  1  0.81433953  0.59818803  0.20242453  1
  O  O35  1  0.31433953  0.20242453  0.60423650  1
  O  O36  1  0.31433953  0.39576350  0.59818803  1
  O  O37  1  0.31433953  0.40181197  0.79757547  1
  O  O38  1  0.24748181  0.90850903  0.08638019  1
  O  O39  1  0.24748181  0.91361981  0.82212885  1
  O  O40  1  0.24748181  0.17787115  0.09149097  1
  O  O41  1  0.74748181  0.09149097  0.91361981  1
  O  O42  1  0.74748181  0.08638019  0.17787115  1
  O  O43  1  0.74748181  0.82212885  0.90850903  1
  O  O44  1  0.11838783  0.71902371  0.09769858  1
  O  O45  1  0.11838783  0.90230142  0.62132513  1
  O  O46  1  0.11838783  0.37867487  0.28097629  1
  O  O47  1  0.61838783  0.28097629  0.90230142  1
  O  O48  1  0.61838783  0.09769858  0.37867487  1
  O  O49  1  0.61838783  0.62132513  0.71902371  1
  O  O50  1  0.09403227  0.92623379  0.28429852  1
  O  O51  1  0.09403227  0.71570148  0.64193526  1
  O  O52  1  0.09403227  0.35806474  0.07376621  1
  O  O53  1  0.59403227  0.07376621  0.71570148  1
  O  O54  1  0.59403227  0.28429852  0.35806474  1
  O  O55  1  0.59403227  0.64193526  0.92623379  1
  O  O56  1  0.54212259  0.83362809  0.19323543  1
  O  O57  1  0.54212259  0.80676457  0.64039266  1
  O  O58  1  0.54212259  0.35960734  0.16637191  1
  O  O59  1  0.04212259  0.16637191  0.80676457  1
  O  O60  1  0.04212259  0.19323543  0.35960734  1
  O  O61  1  0.04212259  0.64039266  0.83362809  1
  O  O62  1  0.39621477  0.66666600  0.33333300  1
  O  O63  1  0.89621477  0.33333400  0.66666700  1
  F  F64  1  0.42605654  0.51653057  0.03937848  1
  F  F65  1  0.42605654  0.96062152  0.47715210  1
  F  F66  1  0.42605654  0.52284790  0.48346943  1
  F  F67  1  0.92605654  0.48346943  0.96062152  1
  F  F68  1  0.92605654  0.03937848  0.52284790  1
  F  F69  1  0.92605654  0.47715210  0.51653057  1
