# generated using pymatgen
data_Ag2Mo(I2O7)2
_symmetry_space_group_name_H-M   'P 1'
_cell_length_a   5.82550606
_cell_length_b   7.02470026
_cell_length_c   17.76058136
_cell_angle_alpha   98.42238979
_cell_angle_beta   90.00000000
_cell_angle_gamma   114.49692828
_symmetry_Int_Tables_number   1
_chemical_formula_structural   Ag2Mo(I2O7)2
_chemical_formula_sum   'Ag4 Mo2 I8 O28'
_cell_volume   652.75802481
_cell_formula_units_Z   2
loop_
 _symmetry_equiv_pos_site_id
 _symmetry_equiv_pos_as_xyz
  1  'x, y, z'
loop_
 _atom_site_type_symbol
 _atom_site_label
 _atom_site_symmetry_multiplicity
 _atom_site_fract_x
 _atom_site_fract_y
 _atom_site_fract_z
 _atom_site_occupancy
  Ag  Ag0  1  0.67079722  0.35278327  0.46012552  1
  Ag  Ag1  1  0.31801395  0.64721673  0.03987448  1
  Ag  Ag2  1  0.32920278  0.64721673  0.53987448  1
  Ag  Ag3  1  0.68198605  0.35278327  0.96012552  1
  Mo  Mo4  1  0.56871819  0.00000000  0.25000000  1
  Mo  Mo5  1  0.43128181  0.00000000  0.75000000  1
  I  I6  1  0.85713528  0.91842725  0.41223174  1
  I  I7  1  0.93870803  0.08157275  0.08776826  1
  I  I8  1  0.14286472  0.08157275  0.58776826  1
  I  I9  1  0.06129197  0.91842725  0.91223174  1
  I  I10  1  0.20163334  0.42375544  0.32572270  1
  I  I11  1  0.77787790  0.57624456  0.17427730  1
  I  I12  1  0.79836666  0.57624456  0.67427730  1
  I  I13  1  0.22212210  0.42375544  0.82572270  1
  O  O14  1  0.58305129  0.67765618  0.43019842  1
  O  O15  1  0.90539511  0.32234382  0.06980158  1
  O  O16  1  0.41694871  0.32234382  0.56980158  1
  O  O17  1  0.09460489  0.67765618  0.93019842  1
  O  O18  1  0.65292348  0.02954353  0.36079529  1
  O  O19  1  0.62337996  0.97045647  0.13920471  1
  O  O20  1  0.34707652  0.97045647  0.63920471  1
  O  O21  1  0.37662004  0.02954353  0.86079529  1
  O  O22  1  0.84740611  0.09709919  0.49963591  1
  O  O23  1  0.75030692  0.90290081  0.00036409  1
  O  O24  1  0.15259389  0.90290081  0.50036409  1
  O  O25  1  0.24969308  0.09709919  0.99963591  1
  O  O26  1  0.21511494  0.24897974  0.39166679  1
  O  O27  1  0.96613520  0.75102026  0.10833321  1
  O  O28  1  0.78488506  0.75102026  0.60833321  1
  O  O29  1  0.03386480  0.24897974  0.89166679  1
  O  O30  1  0.97404885  0.22434493  0.24773454  1
  O  O31  1  0.74970392  0.77565507  0.25226546  1
  O  O32  1  0.02595115  0.77565507  0.75226546  1
  O  O33  1  0.25029608  0.22434493  0.74773454  1
  O  O34  1  0.99536941  0.52821535  0.37540069  1
  O  O35  1  0.46715405  0.47178465  0.12459931  1
  O  O36  1  0.00463059  0.47178465  0.62459931  1
  O  O37  1  0.53284595  0.52821535  0.87540069  1
  O  O38  1  0.27373298  0.78084314  0.24309117  1
  O  O39  1  0.49288984  0.21915686  0.25690883  1
  O  O40  1  0.72626702  0.21915686  0.75690883  1
  O  O41  1  0.50711016  0.78084314  0.74309117  1
