# generated using pymatgen
data_NiH15IO12
_symmetry_space_group_name_H-M   'P 1'
_cell_length_a   5.19156824
_cell_length_b   9.66472900
_cell_length_c   9.81301678
_cell_angle_alpha   90.00000000
_cell_angle_beta   90.00000000
_cell_angle_gamma   92.21230639
_symmetry_Int_Tables_number   1
_chemical_formula_structural   NiH15IO12
_chemical_formula_sum   'Ni2 H30 I2 O24'
_cell_volume   492.00211071
_cell_formula_units_Z   2
loop_
 _symmetry_equiv_pos_site_id
 _symmetry_equiv_pos_as_xyz
  1  'x, y, z'
loop_
 _atom_site_type_symbol
 _atom_site_label
 _atom_site_symmetry_multiplicity
 _atom_site_fract_x
 _atom_site_fract_y
 _atom_site_fract_z
 _atom_site_occupancy
  Ni  Ni0  1  0.71451851  0.74956258  0.71253640  1
  Ni  Ni1  1  0.21451851  0.24956258  0.28746360  1
  H  H2  1  0.44143172  0.46757975  0.86494266  1
  H  H3  1  0.94143172  0.96757975  0.13505734  1
  H  H4  1  0.82058289  0.33222987  0.68754425  1
  H  H5  1  0.32058289  0.83222987  0.31245575  1
  H  H6  1  0.65927353  0.17553653  0.87959895  1
  H  H7  1  0.15927353  0.67553653  0.12040105  1
  H  H8  1  0.88579394  0.60704584  0.92759847  1
  H  H9  1  0.38579394  0.10704584  0.07240153  1
  H  H10  1  0.94964974  0.52030837  0.79632668  1
  H  H11  1  0.44964974  0.02030837  0.20367332  1
  H  H12  1  0.45324195  0.74027933  0.94730870  1
  H  H13  1  0.95324195  0.24027933  0.05269130  1
  H  H14  1  0.26538070  0.81248107  0.84086528  1
  H  H15  1  0.76538070  0.31248107  0.15913472  1
  H  H16  1  0.55297738  0.89892902  0.50484837  1
  H  H17  1  0.05297738  0.39892902  0.49515163  1
  H  H18  1  0.44809409  0.97658611  0.63583822  1
  H  H19  1  0.94809409  0.47658611  0.36416178  1
  H  H20  1  0.00403483  0.76817669  0.48370180  1
  H  H21  1  0.50403483  0.26817669  0.51629820  1
  H  H22  1  0.17468890  0.68390854  0.58799221  1
  H  H23  1  0.67468890  0.18390854  0.41200779  1
  H  H24  1  0.56598846  0.60732569  0.48912170  1
  H  H25  1  0.06598846  0.10732569  0.51087830  1
  H  H26  1  0.49257165  0.51262374  0.61792316  1
  H  H27  1  0.99257165  0.01262374  0.38207684  1
  H  H28  1  0.87729186  0.90290538  0.92432294  1
  H  H29  1  0.37729186  0.40290538  0.07567706  1
  H  H30  1  0.98845904  0.97232128  0.78531654  1
  H  H31  1  0.48845904  0.47232128  0.21468346  1
  I  I32  1  0.23943363  0.24756478  0.77973164  1
  I  I33  1  0.73943363  0.74756478  0.22026836  1
  O  O34  1  0.28970280  0.41519501  0.90132728  1
  O  O35  1  0.78970280  0.91519501  0.09867272  1
  O  O36  1  0.97187019  0.19697334  0.89424327  1
  O  O37  1  0.47187019  0.69697334  0.10575673  1
  O  O38  1  0.19021347  0.09419178  0.66918671  1
  O  O39  1  0.69021347  0.59419178  0.33081329  1
  O  O40  1  0.50614942  0.32873561  0.67555696  1
  O  O41  1  0.00614942  0.82873561  0.32444304  1
  O  O42  1  0.00696977  0.36282763  0.67047326  1
  O  O43  1  0.50696977  0.86282763  0.32952674  1
  O  O44  1  0.47175527  0.15044430  0.89996005  1
  O  O45  1  0.97175527  0.65044430  0.10003995  1
  O  O46  1  0.82241516  0.58246452  0.83496658  1
  O  O47  1  0.32241516  0.08246452  0.16503342  1
  O  O48  1  0.41728660  0.75472183  0.84770491  1
  O  O49  1  0.91728660  0.25472183  0.15229509  1
  O  O50  1  0.58697325  0.91692194  0.60266673  1
  O  O51  1  0.08697325  0.41692194  0.39733327  1
  O  O52  1  0.02224031  0.74158224  0.58157693  1
  O  O53  1  0.52224031  0.24158224  0.41842307  1
  O  O54  1  0.49765310  0.60993549  0.58539694  1
  O  O55  1  0.99765310  0.10993549  0.41460306  1
  O  O56  1  0.94855785  0.88334173  0.83225030  1
  O  O57  1  0.44855785  0.38334173  0.16774970  1
