# generated using pymatgen
data_CoH15Pd(NCl)5
_symmetry_space_group_name_H-M   'P 1'
_cell_length_a   8.22857302
_cell_length_b   9.60444740
_cell_length_c   16.57658938
_cell_angle_alpha   90.00000000
_cell_angle_beta   90.00000000
_cell_angle_gamma   90.00000000
_symmetry_Int_Tables_number   1
_chemical_formula_structural   CoH15Pd(NCl)5
_chemical_formula_sum   'Co4 H60 Pd4 N20 Cl20'
_cell_volume   1310.06272372
_cell_formula_units_Z   4
loop_
 _symmetry_equiv_pos_site_id
 _symmetry_equiv_pos_as_xyz
  1  'x, y, z'
loop_
 _atom_site_type_symbol
 _atom_site_label
 _atom_site_symmetry_multiplicity
 _atom_site_fract_x
 _atom_site_fract_y
 _atom_site_fract_z
 _atom_site_occupancy
  Co  Co0  1  0.99223417  0.14741192  0.39993843  1
  Co  Co1  1  0.49223417  0.85258808  0.60006157  1
  Co  Co2  1  0.49223417  0.64741192  0.10006157  1
  Co  Co3  1  0.99223417  0.35258808  0.89993843  1
  H  H4  1  0.25644345  0.28372639  0.41826783  1
  H  H5  1  0.75644345  0.71627361  0.58173217  1
  H  H6  1  0.75644345  0.78372639  0.08173217  1
  H  H7  1  0.25644345  0.21627361  0.91826783  1
  H  H8  1  0.12115157  0.34318988  0.48201381  1
  H  H9  1  0.62115157  0.65681012  0.51798619  1
  H  H10  1  0.62115157  0.84318988  0.01798619  1
  H  H11  1  0.12115157  0.15681012  0.98201381  1
  H  H12  1  0.21677263  0.19455917  0.50038002  1
  H  H13  1  0.71677263  0.80544083  0.49961998  1
  H  H14  1  0.71677263  0.69455917  0.99961998  1
  H  H15  1  0.21677263  0.30544083  0.00038002  1
  H  H16  1  0.24468312  0.09826190  0.31313729  1
  H  H17  1  0.74468312  0.90173810  0.68686271  1
  H  H18  1  0.74468312  0.59826190  0.18686271  1
  H  H19  1  0.24468312  0.40173810  0.81313729  1
  H  H20  1  0.23184288  0.98704272  0.38951990  1
  H  H21  1  0.73184288  0.01295728  0.61048010  1
  H  H22  1  0.73184288  0.48704272  0.11048010  1
  H  H23  1  0.23184288  0.51295728  0.88951990  1
  H  H24  1  0.11977488  0.96454220  0.30798475  1
  H  H25  1  0.61977488  0.03545780  0.69201525  1
  H  H26  1  0.61977488  0.46454220  0.19201525  1
  H  H27  1  0.11977488  0.53545780  0.80798475  1
  H  H28  1  0.82707404  0.93411702  0.35771711  1
  H  H29  1  0.32707404  0.06588298  0.64228289  1
  H  H30  1  0.32707404  0.43411702  0.14228289  1
  H  H31  1  0.82707404  0.56588298  0.85771711  1
  H  H32  1  0.71102823  0.07424179  0.35013530  1
  H  H33  1  0.21102823  0.92575821  0.64986470  1
  H  H34  1  0.21102823  0.57424179  0.14986470  1
  H  H35  1  0.71102823  0.42575821  0.85013530  1
  H  H36  1  0.84156474  0.04000579  0.27887497  1
  H  H37  1  0.34156474  0.95999421  0.72112503  1
  H  H38  1  0.34156474  0.54000579  0.22112503  1
  H  H39  1  0.84156474  0.45999421  0.77887497  1
  H  H40  1  0.87904258  0.29544867  0.28701596  1
  H  H41  1  0.37904258  0.70455133  0.71298404  1
  H  H42  1  0.37904258  0.79544867  0.21298404  1
  H  H43  1  0.87904258  0.20455133  0.78701596  1
  H  H44  1  0.02461853  0.38508331  0.33289620  1
  H  H45  1  0.52461853  0.61491669  0.66710380  1
  H  H46  1  0.52461853  0.88508331  0.16710380  1
  H  H47  1  0.02461853  0.11491669  0.83289620  1
  H  H48  1  0.06982751  0.26020162  0.26627341  1
  H  H49  1  0.56982751  0.73979838  0.73372659  1
  H  H50  1  0.56982751  0.76020162  0.23372659  1
  H  H51  1  0.06982751  0.23979838  0.76627341  1
  H  H52  1  0.85009026  0.27744008  0.51547245  1
  H  H53  1  0.35009026  0.72255992  0.48452755  1
  H  H54  1  0.35009026  0.77744008  0.98452755  1
  H  H55  1  0.85009026  0.22255992  0.01547245  1
  H  H56  1  0.78698680  0.34327315  0.43016447  1
  H  H57  1  0.28698680  0.65672685  0.56983553  1
  H  H58  1  0.28698680  0.84327315  0.06983553  1
  H  H59  1  0.78698680  0.15672685  0.93016447  1
  H  H60  1  0.71644650  0.19213417  0.46270586  1
  H  H61  1  0.21644650  0.80786583  0.53729414  1
  H  H62  1  0.21644650  0.69213417  0.03729414  1
  H  H63  1  0.71644650  0.30786583  0.96270586  1
  Pd  Pd64  1  0.00120933  0.66557376  0.33739315  1
  Pd  Pd65  1  0.50120933  0.33442624  0.66260685  1
  Pd  Pd66  1  0.50120933  0.16557376  0.16260685  1
  Pd  Pd67  1  0.00120933  0.83442624  0.83739315  1
  N  N68  1  0.16356911  0.25296090  0.45580871  1
  N  N69  1  0.66356911  0.74703910  0.54419129  1
  N  N70  1  0.66356911  0.75296090  0.04419129  1
  N  N71  1  0.16356911  0.24703910  0.95580871  1
  N  N72  1  0.16542865  0.03864807  0.34650459  1
  N  N73  1  0.66542865  0.96135193  0.65349541  1
  N  N74  1  0.66542865  0.53864807  0.15349541  1
  N  N75  1  0.16542865  0.46135193  0.84650459  1
  N  N76  1  0.82637703  0.03716774  0.34045974  1
  N  N77  1  0.32637703  0.96283226  0.65954026  1
  N  N78  1  0.32637703  0.53716774  0.15954026  1
  N  N79  1  0.82637703  0.46283226  0.84045974  1
  N  N80  1  0.99240891  0.28738040  0.31283629  1
  N  N81  1  0.49240891  0.71261960  0.68716371  1
  N  N82  1  0.49240891  0.78738040  0.18716371  1
  N  N83  1  0.99240891  0.21261960  0.81283629  1
  N  N84  1  0.82000116  0.25120347  0.45685920  1
  N  N85  1  0.32000116  0.74879653  0.54314080  1
  N  N86  1  0.32000116  0.75120347  0.04314080  1
  N  N87  1  0.82000116  0.24879653  0.95685920  1
  Cl  Cl88  1  0.99354410  0.56674754  0.46494834  1
  Cl  Cl89  1  0.49354410  0.43325246  0.53505166  1
  Cl  Cl90  1  0.49354410  0.06674754  0.03505166  1
  Cl  Cl91  1  0.99354410  0.93325246  0.96494834  1
  Cl  Cl92  1  0.00647257  0.76498816  0.20801764  1
  Cl  Cl93  1  0.50647257  0.23501184  0.79198236  1
  Cl  Cl94  1  0.50647257  0.26498816  0.29198236  1
  Cl  Cl95  1  0.00647257  0.73501184  0.70801764  1
  Cl  Cl96  1  0.71901885  0.66987414  0.33826661  1
  Cl  Cl97  1  0.21901885  0.33012586  0.66173339  1
  Cl  Cl98  1  0.21901885  0.16987414  0.16173339  1
  Cl  Cl99  1  0.71901885  0.83012586  0.83826661  1
  Cl  Cl100  1  0.28300125  0.66922832  0.34320082  1
  Cl  Cl101  1  0.78300125  0.33077168  0.65679918  1
  Cl  Cl102  1  0.78300125  0.16922832  0.15679918  1
  Cl  Cl103  1  0.28300125  0.83077168  0.84320082  1
  Cl  Cl104  1  0.98568715  0.99046081  0.50206691  1
  Cl  Cl105  1  0.48568715  0.00953919  0.49793309  1
  Cl  Cl106  1  0.48568715  0.49046081  0.99793309  1
  Cl  Cl107  1  0.98568715  0.50953919  0.00206691  1
