# generated using pymatgen
data_K2ZnP4(HO2)8
_symmetry_space_group_name_H-M   'P 1'
_cell_length_a   9.88629900
_cell_length_b   11.18179829
_cell_length_c   13.54869419
_cell_angle_alpha   90.00000000
_cell_angle_beta   90.00000000
_cell_angle_gamma   90.00000000
_symmetry_Int_Tables_number   1
_chemical_formula_structural   K2ZnP4(HO2)8
_chemical_formula_sum   'K8 Zn4 P16 H32 O64'
_cell_volume   1497.76209412
_cell_formula_units_Z   4
loop_
 _symmetry_equiv_pos_site_id
 _symmetry_equiv_pos_as_xyz
  1  'x, y, z'
loop_
 _atom_site_type_symbol
 _atom_site_label
 _atom_site_symmetry_multiplicity
 _atom_site_fract_x
 _atom_site_fract_y
 _atom_site_fract_z
 _atom_site_occupancy
  K  K0  1  0.05991630  0.75000000  0.60066789  1
  K  K1  1  0.55991630  0.75000000  0.89933211  1
  K  K2  1  0.94008370  0.25000000  0.39933211  1
  K  K3  1  0.44008370  0.25000000  0.10066789  1
  K  K4  1  0.75029017  0.25000000  0.87173443  1
  K  K5  1  0.25029017  0.25000000  0.62826557  1
  K  K6  1  0.24970983  0.75000000  0.12826557  1
  K  K7  1  0.74970983  0.75000000  0.37173443  1
  Zn  Zn8  1  0.16317821  0.75000000  0.86156423  1
  Zn  Zn9  1  0.66317821  0.75000000  0.63843577  1
  Zn  Zn10  1  0.83682179  0.25000000  0.13843577  1
  Zn  Zn11  1  0.33682179  0.25000000  0.36156423  1
  P  P12  1  0.05536285  0.48479661  0.77689883  1
  P  P13  1  0.55536285  0.01520339  0.72310117  1
  P  P14  1  0.94463715  0.98479661  0.22310117  1
  P  P15  1  0.44463715  0.51520339  0.27689883  1
  P  P16  1  0.94463715  0.51520339  0.22310117  1
  P  P17  1  0.44463715  0.98479661  0.27689883  1
  P  P18  1  0.05536285  0.01520339  0.77689883  1
  P  P19  1  0.55536285  0.48479661  0.72310117  1
  P  P20  1  0.25024640  0.48561757  0.94099671  1
  P  P21  1  0.75024640  0.01438243  0.55900329  1
  P  P22  1  0.74975360  0.98561757  0.05900329  1
  P  P23  1  0.24975360  0.51438243  0.44099671  1
  P  P24  1  0.74975360  0.51438243  0.05900329  1
  P  P25  1  0.24975360  0.98561757  0.44099671  1
  P  P26  1  0.25024640  0.01438243  0.94099671  1
  P  P27  1  0.75024640  0.48561757  0.55900329  1
  H  H28  1  0.95974825  0.67917473  0.98156925  1
  H  H29  1  0.45974825  0.82082527  0.51843075  1
  H  H30  1  0.04025175  0.17917473  0.01843075  1
  H  H31  1  0.54025175  0.32082527  0.48156925  1
  H  H32  1  0.04025175  0.32082527  0.01843075  1
  H  H33  1  0.54025175  0.17917473  0.48156925  1
  H  H34  1  0.95974825  0.82082527  0.98156925  1
  H  H35  1  0.45974825  0.67917473  0.51843075  1
  H  H36  1  0.36378627  0.68198719  0.72515731  1
  H  H37  1  0.86378627  0.81801281  0.77484269  1
  H  H38  1  0.63621373  0.18198719  0.27484269  1
  H  H39  1  0.13621373  0.31801281  0.22515731  1
  H  H40  1  0.63621373  0.31801281  0.27484269  1
  H  H41  1  0.13621373  0.18198719  0.22515731  1
  H  H42  1  0.36378627  0.81801281  0.72515731  1
  H  H43  1  0.86378627  0.68198719  0.77484269  1
  H  H44  1  0.45695941  0.42219051  0.89568243  1
  H  H45  1  0.95695941  0.07780949  0.60431757  1
  H  H46  1  0.54304059  0.92219051  0.10431757  1
  H  H47  1  0.04304059  0.57780949  0.39568243  1
  H  H48  1  0.54304059  0.57780949  0.10431757  1
  H  H49  1  0.04304059  0.92219051  0.39568243  1
  H  H50  1  0.45695941  0.07780949  0.89568243  1
  H  H51  1  0.95695941  0.42219051  0.60431757  1
  H  H52  1  0.89943573  0.47950066  0.89459829  1
  H  H53  1  0.39943573  0.02049934  0.60540171  1
  H  H54  1  0.10056427  0.97950066  0.10540171  1
  H  H55  1  0.60056427  0.52049934  0.39459829  1
  H  H56  1  0.10056427  0.52049934  0.10540171  1
  H  H57  1  0.60056427  0.97950066  0.39459829  1
  H  H58  1  0.89943573  0.02049934  0.89459829  1
  H  H59  1  0.39943573  0.47950066  0.60540171  1
  O  O60  1  0.19004988  0.44095348  0.83466664  1
  O  O61  1  0.69004988  0.05904652  0.66533336  1
  O  O62  1  0.80995012  0.94095348  0.16533336  1
  O  O63  1  0.30995012  0.55904652  0.33466664  1
  O  O64  1  0.80995012  0.55904652  0.16533336  1
  O  O65  1  0.30995012  0.94095348  0.33466664  1
  O  O66  1  0.19004988  0.05904652  0.83466664  1
  O  O67  1  0.69004988  0.44095348  0.66533336  1
  O  O68  1  0.38239345  0.40951503  0.95038042  1
  O  O69  1  0.88239345  0.09048497  0.54961958  1
  O  O70  1  0.61760655  0.90951503  0.04961958  1
  O  O71  1  0.11760655  0.59048497  0.45038042  1
  O  O72  1  0.61760655  0.59048497  0.04961958  1
  O  O73  1  0.11760655  0.90951503  0.45038042  1
  O  O74  1  0.38239345  0.09048497  0.95038042  1
  O  O75  1  0.88239345  0.40951503  0.54961958  1
  O  O76  1  0.04858548  0.62110795  0.78121222  1
  O  O77  1  0.54858548  0.87889205  0.71878778  1
  O  O78  1  0.95141452  0.12110795  0.21878778  1
  O  O79  1  0.45141452  0.37889205  0.28121222  1
  O  O80  1  0.95141452  0.37889205  0.21878778  1
  O  O81  1  0.45141452  0.12110795  0.28121222  1
  O  O82  1  0.04858548  0.87889205  0.78121222  1
  O  O83  1  0.54858548  0.62110795  0.71878778  1
  O  O84  1  0.28062041  0.61874990  0.93305849  1
  O  O85  1  0.78062041  0.88125010  0.56694151  1
  O  O86  1  0.71937959  0.11874990  0.06694151  1
  O  O87  1  0.21937959  0.38125010  0.43305849  1
  O  O88  1  0.71937959  0.38125010  0.06694151  1
  O  O89  1  0.21937959  0.11874990  0.43305849  1
  O  O90  1  0.28062041  0.88125010  0.93305849  1
  O  O91  1  0.78062041  0.61874990  0.56694151  1
  O  O92  1  0.06533025  0.42878234  0.67574408  1
  O  O93  1  0.56533025  0.07121766  0.82425592  1
  O  O94  1  0.93466975  0.92878234  0.32425592  1
  O  O95  1  0.43466975  0.57121766  0.17574408  1
  O  O96  1  0.93466975  0.57121766  0.32425592  1
  O  O97  1  0.43466975  0.92878234  0.17574408  1
  O  O98  1  0.06533025  0.07121766  0.67574408  1
  O  O99  1  0.56533025  0.42878234  0.82425592  1
  O  O100  1  0.02072610  0.75000000  0.98047107  1
  O  O101  1  0.52072610  0.75000000  0.51952893  1
  O  O102  1  0.97927390  0.25000000  0.01952893  1
  O  O103  1  0.47927390  0.25000000  0.48047107  1
  O  O104  1  0.93125724  0.42981948  0.83392068  1
  O  O105  1  0.43125724  0.07018052  0.66607932  1
  O  O106  1  0.06874276  0.92981948  0.16607932  1
  O  O107  1  0.56874276  0.57018052  0.33392068  1
  O  O108  1  0.06874276  0.57018052  0.16607932  1
  O  O109  1  0.56874276  0.92981948  0.33392068  1
  O  O110  1  0.93125724  0.07018052  0.83392068  1
  O  O111  1  0.43125724  0.42981948  0.66607932  1
  O  O112  1  0.15228210  0.44637455  0.02131850  1
  O  O113  1  0.65228210  0.05362545  0.47868150  1
  O  O114  1  0.84771790  0.94637455  0.97868150  1
  O  O115  1  0.34771790  0.55362545  0.52131850  1
  O  O116  1  0.84771790  0.55362545  0.97868150  1
  O  O117  1  0.34771790  0.94637455  0.52131850  1
  O  O118  1  0.15228210  0.05362545  0.02131850  1
  O  O119  1  0.65228210  0.44637455  0.47868150  1
  O  O120  1  0.30067457  0.75000000  0.73038239  1
  O  O121  1  0.80067457  0.75000000  0.76961761  1
  O  O122  1  0.69932543  0.25000000  0.26961761  1
  O  O123  1  0.19932543  0.25000000  0.23038239  1
