# generated using pymatgen
data_Er11Ge10
_symmetry_space_group_name_H-M   'P 1'
_cell_length_a   10.86637765
_cell_length_b   10.86637765
_cell_length_c   11.20503359
_cell_angle_alpha   119.00514931
_cell_angle_beta   119.00514931
_cell_angle_gamma   90.00000000
_symmetry_Int_Tables_number   1
_chemical_formula_structural   Er11Ge10
_chemical_formula_sum   'Er22 Ge20'
_cell_volume   962.99743443
_cell_formula_units_Z   2
loop_
 _symmetry_equiv_pos_site_id
 _symmetry_equiv_pos_as_xyz
  1  'x, y, z'
loop_
 _atom_site_type_symbol
 _atom_site_label
 _atom_site_symmetry_multiplicity
 _atom_site_fract_x
 _atom_site_fract_y
 _atom_site_fract_z
 _atom_site_occupancy
  Er  Er0  1  0.93786061  0.19001014  0.38002028  1
  Er  Er1  1  0.44215968  0.19001014  0.38002028  1
  Er  Er2  1  0.19001014  0.44215968  0.38002028  1
  Er  Er3  1  0.19001014  0.93786061  0.38002028  1
  Er  Er4  1  0.06213939  0.80998986  0.61997972  1
  Er  Er5  1  0.55784032  0.80998986  0.61997972  1
  Er  Er6  1  0.80998986  0.55784032  0.61997972  1
  Er  Er7  1  0.80998986  0.06213939  0.61997972  1
  Er  Er8  1  0.82230323  0.17769677  -0.00000000  1
  Er  Er9  1  0.17769677  0.82230323  -0.00000000  1
  Er  Er10  1  0.17769677  0.17769677  -0.00000000  1
  Er  Er11  1  0.82230323  0.82230323  -0.00000000  1
  Er  Er12  1  0.33982281  0.33982281  0.67964563  1
  Er  Er13  1  0.66017719  0.66017719  0.32035437  1
  Er  Er14  1  0.07318097  0.39740031  0.79480061  1
  Er  Er15  1  0.72161964  0.39740031  0.79480061  1
  Er  Er16  1  0.39740031  0.72161964  0.79480061  1
  Er  Er17  1  0.39740031  0.07318097  0.79480061  1
  Er  Er18  1  0.92681903  0.60259969  0.20519939  1
  Er  Er19  1  0.27838036  0.60259969  0.20519939  1
  Er  Er20  1  0.60259969  0.27838036  0.20519939  1
  Er  Er21  1  0.60259969  0.92681903  0.20519939  1
  Ge  Ge22  1  -0.00000000  0.36039656  -0.00000000  1
  Ge  Ge23  1  -0.00000000  0.63960344  -0.00000000  1
  Ge  Ge24  1  0.36039656  -0.00000000  -0.00000000  1
  Ge  Ge25  1  0.63960344  -0.00000000  -0.00000000  1
  Ge  Ge26  1  0.11301230  0.11301230  0.22602461  1
  Ge  Ge27  1  0.88698770  0.88698770  0.77397539  1
  Ge  Ge28  1  0.62022224  0.37977776  -0.00000000  1
  Ge  Ge29  1  0.37977776  0.62022224  -0.00000000  1
  Ge  Ge30  1  0.37977776  0.37977776  -0.00000000  1
  Ge  Ge31  1  0.62022224  0.62022224  -0.00000000  1
  Ge  Ge32  1  0.75000000  0.25000000  0.50000000  1
  Ge  Ge33  1  0.25000000  0.75000000  0.50000000  1
  Ge  Ge34  1  0.10937961  0.52884701  0.63822662  1
  Ge  Ge35  1  0.52884701  0.10937961  0.63822662  1
  Ge  Ge36  1  0.52884701  0.52884701  0.63822662  1
  Ge  Ge37  1  0.10937961  0.10937961  0.63822662  1
  Ge  Ge38  1  0.89062039  0.47115299  0.36177338  1
  Ge  Ge39  1  0.47115299  0.89062039  0.36177338  1
  Ge  Ge40  1  0.47115299  0.47115299  0.36177338  1
  Ge  Ge41  1  0.89062039  0.89062039  0.36177338  1
