# generated using pymatgen
data_Zn2As(HO2)3
_symmetry_space_group_name_H-M   'P 1'
_cell_length_a   8.06627042
_cell_length_b   10.35651072
_cell_length_c   12.95574251
_cell_angle_alpha   104.42090005
_cell_angle_beta   90.00000000
_cell_angle_gamma   90.00000000
_symmetry_Int_Tables_number   1
_chemical_formula_structural   Zn2As(HO2)3
_chemical_formula_sum   'Zn16 As8 H24 O48'
_cell_volume   1048.20144248
_cell_formula_units_Z   8
loop_
 _symmetry_equiv_pos_site_id
 _symmetry_equiv_pos_as_xyz
  1  'x, y, z'
loop_
 _atom_site_type_symbol
 _atom_site_label
 _atom_site_symmetry_multiplicity
 _atom_site_fract_x
 _atom_site_fract_y
 _atom_site_fract_z
 _atom_site_occupancy
  Zn  Zn0  1  0.44813099  0.88974915  0.40361049  1
  Zn  Zn1  1  0.94813099  0.61025085  0.59638951  1
  Zn  Zn2  1  0.55186901  0.11025085  0.59638951  1
  Zn  Zn3  1  0.05186901  0.38974915  0.40361049  1
  Zn  Zn4  1  0.16718014  0.96249819  0.25186164  1
  Zn  Zn5  1  0.66718014  0.53750181  0.74813836  1
  Zn  Zn6  1  0.83281986  0.03750181  0.74813836  1
  Zn  Zn7  1  0.33281986  0.46249819  0.25186164  1
  Zn  Zn8  1  0.69476399  0.62617233  0.35919460  1
  Zn  Zn9  1  0.19476399  0.87382767  0.64080540  1
  Zn  Zn10  1  0.30523601  0.37382767  0.64080540  1
  Zn  Zn11  1  0.80523601  0.12617233  0.35919460  1
  Zn  Zn12  1  0.25910476  0.94038013  0.00995478  1
  Zn  Zn13  1  0.75910476  0.55961987  0.99004522  1
  Zn  Zn14  1  0.74089524  0.05961987  0.99004522  1
  Zn  Zn15  1  0.24089524  0.44038013  0.00995478  1
  As  As16  1  0.44601130  0.72122795  0.14906712  1
  As  As17  1  0.94601130  0.77877205  0.85093288  1
  As  As18  1  0.55398870  0.27877205  0.85093288  1
  As  As19  1  0.05398870  0.22122795  0.14906712  1
  As  As20  1  0.07805733  0.71463600  0.38543928  1
  As  As21  1  0.57805733  0.78536400  0.61456072  1
  As  As22  1  0.92194267  0.28536400  0.61456072  1
  As  As23  1  0.42194267  0.21463600  0.38543928  1
  H  H24  1  0.75894433  0.45632731  0.46852976  1
  H  H25  1  0.25894433  0.04367269  0.53147024  1
  H  H26  1  0.24105567  0.54367269  0.53147024  1
  H  H27  1  0.74105567  0.95632731  0.46852976  1
  H  H28  1  0.88586636  0.88601885  0.28923774  1
  H  H29  1  0.38586636  0.61398115  0.71076226  1
  H  H30  1  0.11413364  0.11398115  0.71076226  1
  H  H31  1  0.61413364  0.38601885  0.28923774  1
  H  H32  1  0.95373954  0.66378728  0.15591000  1
  H  H33  1  0.45373954  0.83621272  0.84409000  1
  H  H34  1  0.04626046  0.33621272  0.84409000  1
  H  H35  1  0.54626046  0.16378728  0.15591000  1
  H  H36  1  0.01795016  0.71241417  0.05277301  1
  H  H37  1  0.51795016  0.78758583  0.94722699  1
  H  H38  1  0.98204984  0.28758583  0.94722699  1
  H  H39  1  0.48204984  0.21241417  0.05277301  1
  H  H40  1  0.70694329  0.84791851  0.07339138  1
  H  H41  1  0.20694329  0.65208149  0.92660862  1
  H  H42  1  0.29305671  0.15208149  0.92660862  1
  H  H43  1  0.79305671  0.34791851  0.07339138  1
  H  H44  1  0.83297045  0.94899126  0.15380695  1
  H  H45  1  0.33297045  0.55100874  0.84619305  1
  H  H46  1  0.16702955  0.05100874  0.84619305  1
  H  H47  1  0.66702955  0.44899126  0.15380695  1
  O  O48  1  0.54911268  0.76286948  0.26879470  1
  O  O49  1  0.04911268  0.73713052  0.73120530  1
  O  O50  1  0.45088732  0.23713052  0.73120530  1
  O  O51  1  0.95088732  0.26286948  0.26879470  1
  O  O52  1  0.34071783  0.57334926  0.13920534  1
  O  O53  1  0.84071783  0.92665074  0.86079466  1
  O  O54  1  0.65928217  0.42665074  0.86079466  1
  O  O55  1  0.15928217  0.07334926  0.13920534  1
  O  O56  1  0.30921269  0.84363872  0.13285226  1
  O  O57  1  0.80921269  0.65636128  0.86714774  1
  O  O58  1  0.69078731  0.15636128  0.86714774  1
  O  O59  1  0.19078731  0.34363872  0.13285226  1
  O  O60  1  0.58951664  0.70699846  0.04728130  1
  O  O61  1  0.08951664  0.79300154  0.95271870  1
  O  O62  1  0.41048336  0.29300154  0.95271870  1
  O  O63  1  0.91048336  0.20699846  0.04728130  1
  O  O64  1  0.54693746  0.73889511  0.47741171  1
  O  O65  1  0.04693746  0.76110489  0.52258829  1
  O  O66  1  0.45306254  0.26110489  0.52258829  1
  O  O67  1  0.95306254  0.23889511  0.47741171  1
  O  O68  1  0.16024261  0.55644239  0.35458203  1
  O  O69  1  0.66024261  0.94355761  0.64541797  1
  O  O70  1  0.83975739  0.44355761  0.64541797  1
  O  O71  1  0.33975739  0.05644239  0.35458203  1
  O  O72  1  0.20897664  0.82220569  0.34545940  1
  O  O73  1  0.70897664  0.67779431  0.65454060  1
  O  O74  1  0.79102336  0.17779431  0.65454060  1
  O  O75  1  0.29102336  0.32220569  0.34545940  1
  O  O76  1  0.89388743  0.71854794  0.31744854  1
  O  O77  1  0.39388743  0.78145206  0.68255146  1
  O  O78  1  0.10611257  0.28145206  0.68255146  1
  O  O79  1  0.60611257  0.21854794  0.31744854  1
  O  O80  1  0.97086362  0.63675156  0.07824166  1
  O  O81  1  0.47086362  0.86324844  0.92175834  1
  O  O82  1  0.02913638  0.36324844  0.92175834  1
  O  O83  1  0.52913638  0.13675156  0.07824166  1
  O  O84  1  0.83771727  0.51421093  0.44392427  1
  O  O85  1  0.33771727  0.98578907  0.55607573  1
  O  O86  1  0.16228273  0.48578907  0.55607573  1
  O  O87  1  0.66228273  0.01421093  0.44392427  1
  O  O88  1  0.92031967  0.96741920  0.26778243  1
  O  O89  1  0.42031967  0.53258080  0.73221757  1
  O  O90  1  0.07968033  0.03258080  0.73221757  1
  O  O91  1  0.57968033  0.46741920  0.26778243  1
  O  O92  1  0.77300591  0.93151074  0.08311695  1
  O  O93  1  0.27300591  0.56848926  0.91688305  1
  O  O94  1  0.22699409  0.06848926  0.91688305  1
  O  O95  1  0.72699409  0.43151074  0.08311695  1
