# generated using pymatgen
data_Sc6Te2Pd
_symmetry_space_group_name_H-M   'P 1'
_cell_length_a   3.82775794
_cell_length_b   10.75862608
_cell_length_c   20.40349707
_cell_angle_alpha   90.00000000
_cell_angle_beta   90.00000000
_cell_angle_gamma   90.00000000
_symmetry_Int_Tables_number   1
_chemical_formula_structural   Sc6Te2Pd
_chemical_formula_sum   'Sc24 Te8 Pd4'
_cell_volume   840.24490888
_cell_formula_units_Z   4
loop_
 _symmetry_equiv_pos_site_id
 _symmetry_equiv_pos_as_xyz
  1  'x, y, z'
loop_
 _atom_site_type_symbol
 _atom_site_label
 _atom_site_symmetry_multiplicity
 _atom_site_fract_x
 _atom_site_fract_y
 _atom_site_fract_z
 _atom_site_occupancy
  Sc  Sc0  1  0.25000000  0.80972282  0.60884735  1
  Sc  Sc1  1  0.25000000  0.69027718  0.10884735  1
  Sc  Sc2  1  0.75000000  0.19027718  0.39115265  1
  Sc  Sc3  1  0.75000000  0.30972282  0.89115265  1
  Sc  Sc4  1  0.25000000  0.97058259  0.15835187  1
  Sc  Sc5  1  0.25000000  0.52941741  0.65835187  1
  Sc  Sc6  1  0.75000000  0.02941741  0.84164813  1
  Sc  Sc7  1  0.75000000  0.47058259  0.34164813  1
  Sc  Sc8  1  0.25000000  0.23661047  0.76836095  1
  Sc  Sc9  1  0.25000000  0.26338953  0.26836095  1
  Sc  Sc10  1  0.75000000  0.76338953  0.23163905  1
  Sc  Sc11  1  0.75000000  0.73661047  0.73163905  1
  Sc  Sc12  1  0.25000000  0.61940081  0.47396059  1
  Sc  Sc13  1  0.25000000  0.88059919  0.97396059  1
  Sc  Sc14  1  0.75000000  0.38059919  0.52603941  1
  Sc  Sc15  1  0.75000000  0.11940081  0.02603941  1
  Sc  Sc16  1  0.25000000  0.94199528  0.36270418  1
  Sc  Sc17  1  0.25000000  0.55800472  0.86270418  1
  Sc  Sc18  1  0.75000000  0.05800472  0.63729582  1
  Sc  Sc19  1  0.75000000  0.44199528  0.13729582  1
  Sc  Sc20  1  0.25000000  0.11170901  0.50510951  1
  Sc  Sc21  1  0.25000000  0.38829099  0.00510951  1
  Sc  Sc22  1  0.75000000  0.88829099  0.49489049  1
  Sc  Sc23  1  0.75000000  0.61170901  0.99489049  1
  Te  Te24  1  0.25000000  0.95408399  0.73539886  1
  Te  Te25  1  0.25000000  0.54591601  0.23539886  1
  Te  Te26  1  0.75000000  0.04591601  0.26460114  1
  Te  Te27  1  0.75000000  0.45408399  0.76460114  1
  Te  Te28  1  0.25000000  0.26499860  0.62528138  1
  Te  Te29  1  0.25000000  0.23500140  0.12528138  1
  Te  Te30  1  0.75000000  0.73500140  0.37471862  1
  Te  Te31  1  0.75000000  0.76499860  0.87471862  1
  Pd  Pd32  1  0.25000000  0.13451219  0.92364216  1
  Pd  Pd33  1  0.25000000  0.36548781  0.42364216  1
  Pd  Pd34  1  0.75000000  0.86548781  0.07635784  1
  Pd  Pd35  1  0.75000000  0.63451219  0.57635784  1
