# generated using pymatgen
data_ZnCu2H4(SO4)2
_symmetry_space_group_name_H-M   'P 1'
_cell_length_a   5.90949227
_cell_length_b   7.89707578
_cell_length_c   8.07889852
_cell_angle_alpha   90.00000000
_cell_angle_beta   93.45797830
_cell_angle_gamma   90.00000000
_symmetry_Int_Tables_number   1
_chemical_formula_structural   ZnCu2H4(SO4)2
_chemical_formula_sum   'Zn2 Cu4 H8 S4 O16'
_cell_volume   376.33723376
_cell_formula_units_Z   2
loop_
 _symmetry_equiv_pos_site_id
 _symmetry_equiv_pos_as_xyz
  1  'x, y, z'
loop_
 _atom_site_type_symbol
 _atom_site_label
 _atom_site_symmetry_multiplicity
 _atom_site_fract_x
 _atom_site_fract_y
 _atom_site_fract_z
 _atom_site_occupancy
  Zn  Zn0  1  0.50000000  0.50000000  0.50000000  1
  Zn  Zn1  1  -0.00000000  0.00000000  0.00000000  1
  Cu  Cu2  1  0.24053502  0.63043484  0.05070422  1
  Cu  Cu3  1  0.74053502  0.86956516  0.55070422  1
  Cu  Cu4  1  0.75946498  0.36956516  0.94929578  1
  Cu  Cu5  1  0.25946498  0.13043484  0.44929578  1
  H  H6  1  0.24232298  0.51181731  0.75799352  1
  H  H7  1  0.74232298  0.98818269  0.25799352  1
  H  H8  1  0.75767702  0.48818269  0.24200648  1
  H  H9  1  0.25767702  0.01181731  0.74200648  1
  H  H10  1  0.13333758  0.61454143  0.60172495  1
  H  H11  1  0.63333758  0.88545857  0.10172495  1
  H  H12  1  0.86666242  0.38545857  0.39827505  1
  H  H13  1  0.36666242  0.11454143  0.89827505  1
  S  S14  1  0.23998223  0.87325544  0.37056935  1
  S  S15  1  0.73998223  0.62674456  0.87056935  1
  S  S16  1  0.76001777  0.12674456  0.62943065  1
  S  S17  1  0.26001777  0.37325544  0.12943065  1
  O  O18  1  0.21590921  0.85986415  0.17963370  1
  O  O19  1  0.71590921  0.64013585  0.67963370  1
  O  O20  1  0.78409079  0.14013585  0.82036630  1
  O  O21  1  0.28409079  0.35986415  0.32036630  1
  O  O22  1  0.45358184  0.76501810  0.41626066  1
  O  O23  1  0.95358184  0.73498190  0.91626066  1
  O  O24  1  0.54641816  0.23498190  0.58373934  1
  O  O25  1  0.04641816  0.26501810  0.08373934  1
  O  O26  1  0.04302105  0.77887546  0.44008545  1
  O  O27  1  0.54302105  0.72112454  0.94008545  1
  O  O28  1  0.95697895  0.22112454  0.55991455  1
  O  O29  1  0.45697895  0.27887546  0.05991455  1
  O  O30  1  0.22626975  0.51570510  0.63686930  1
  O  O31  1  0.72626975  0.98429490  0.13686930  1
  O  O32  1  0.77373025  0.48429490  0.36313070  1
  O  O33  1  0.27373025  0.01570510  0.86313070  1
