# generated using pymatgen
data_KVH24(SO10)2
_symmetry_space_group_name_H-M   'P 1'
_cell_length_a   12.48347259
_cell_length_b   12.48347259
_cell_length_c   12.48347259
_cell_angle_alpha   90.00000000
_cell_angle_beta   90.00000000
_cell_angle_gamma   90.00000000
_symmetry_Int_Tables_number   1
_chemical_formula_structural   KVH24(SO10)2
_chemical_formula_sum   'K4 V4 H96 S8 O80'
_cell_volume   1945.38801537
_cell_formula_units_Z   4
loop_
 _symmetry_equiv_pos_site_id
 _symmetry_equiv_pos_as_xyz
  1  'x, y, z'
loop_
 _atom_site_type_symbol
 _atom_site_label
 _atom_site_symmetry_multiplicity
 _atom_site_fract_x
 _atom_site_fract_y
 _atom_site_fract_z
 _atom_site_occupancy
  K  K0  1  0.00000000  0.00000000  0.50000000  1
  K  K1  1  0.00000000  0.50000000  0.00000000  1
  K  K2  1  0.50000000  0.00000000  0.00000000  1
  K  K3  1  0.50000000  0.50000000  0.50000000  1
  V  V4  1  0.50000000  0.50000000  0.00000000  1
  V  V5  1  0.50000000  0.00000000  0.50000000  1
  V  V6  1  0.00000000  0.50000000  0.50000000  1
  V  V7  1  0.00000000  0.00000000  0.00000000  1
  H  H8  1  0.21346343  0.50670793  0.22639025  1
  H  H9  1  0.78653657  0.00670793  0.27360975  1
  H  H10  1  0.28653657  0.49329207  0.72639025  1
  H  H11  1  0.71346343  0.99329207  0.77360975  1
  H  H12  1  0.22639025  0.21346343  0.50670793  1
  H  H13  1  0.27360975  0.78653657  0.00670793  1
  H  H14  1  0.72639025  0.28653657  0.49329207  1
  H  H15  1  0.77360975  0.71346343  0.99329207  1
  H  H16  1  0.50670793  0.22639025  0.21346343  1
  H  H17  1  0.00670793  0.27360975  0.78653657  1
  H  H18  1  0.49329207  0.72639025  0.28653657  1
  H  H19  1  0.99329207  0.77360975  0.71346343  1
  H  H20  1  0.78653657  0.49329207  0.77360975  1
  H  H21  1  0.21346343  0.99329207  0.72639025  1
  H  H22  1  0.71346343  0.50670793  0.27360975  1
  H  H23  1  0.28653657  0.00670793  0.22639025  1
  H  H24  1  0.77360975  0.78653657  0.49329207  1
  H  H25  1  0.72639025  0.21346343  0.99329207  1
  H  H26  1  0.27360975  0.71346343  0.50670793  1
  H  H27  1  0.22639025  0.28653657  0.00670793  1
  H  H28  1  0.49329207  0.77360975  0.78653657  1
  H  H29  1  0.99329207  0.72639025  0.21346343  1
  H  H30  1  0.50670793  0.27360975  0.71346343  1
  H  H31  1  0.00670793  0.22639025  0.28653657  1
  H  H32  1  0.17543470  0.62504984  0.21953341  1
  H  H33  1  0.82456530  0.12504984  0.28046659  1
  H  H34  1  0.32456530  0.37495016  0.71953341  1
  H  H35  1  0.67543470  0.87495016  0.78046659  1
  H  H36  1  0.21953341  0.17543470  0.62504984  1
  H  H37  1  0.28046659  0.82456530  0.12504984  1
  H  H38  1  0.71953341  0.32456530  0.37495016  1
  H  H39  1  0.78046659  0.67543470  0.87495016  1
  H  H40  1  0.62504984  0.21953341  0.17543470  1
  H  H41  1  0.12504984  0.28046659  0.82456530  1
  H  H42  1  0.37495016  0.71953341  0.32456530  1
  H  H43  1  0.87495016  0.78046659  0.67543470  1
  H  H44  1  0.82456530  0.37495016  0.78046659  1
  H  H45  1  0.17543470  0.87495016  0.71953341  1
  H  H46  1  0.67543470  0.62504984  0.28046659  1
  H  H47  1  0.32456530  0.12504984  0.21953341  1
  H  H48  1  0.78046659  0.82456530  0.37495016  1
  H  H49  1  0.71953341  0.17543470  0.87495016  1
  H  H50  1  0.28046659  0.67543470  0.62504984  1
  H  H51  1  0.21953341  0.32456530  0.12504984  1
  H  H52  1  0.37495016  0.78046659  0.82456530  1
  H  H53  1  0.87495016  0.71953341  0.17543470  1
  H  H54  1  0.62504984  0.28046659  0.67543470  1
  H  H55  1  0.12504984  0.21953341  0.32456530  1
  H  H56  1  0.47937477  0.71201729  0.94173346  1
  H  H57  1  0.52062523  0.21201729  0.55826654  1
  H  H58  1  0.02062523  0.28798271  0.44173346  1
  H  H59  1  0.97937477  0.78798271  0.05826654  1
  H  H60  1  0.94173346  0.47937477  0.71201729  1
  H  H61  1  0.55826654  0.52062523  0.21201729  1
  H  H62  1  0.44173346  0.02062523  0.28798271  1
  H  H63  1  0.05826654  0.97937477  0.78798271  1
  H  H64  1  0.71201729  0.94173346  0.47937477  1
  H  H65  1  0.21201729  0.55826654  0.52062523  1
  H  H66  1  0.28798271  0.44173346  0.02062523  1
  H  H67  1  0.78798271  0.05826654  0.97937477  1
  H  H68  1  0.52062523  0.28798271  0.05826654  1
  H  H69  1  0.47937477  0.78798271  0.44173346  1
  H  H70  1  0.97937477  0.71201729  0.55826654  1
  H  H71  1  0.02062523  0.21201729  0.94173346  1
  H  H72  1  0.05826654  0.52062523  0.28798271  1
  H  H73  1  0.44173346  0.47937477  0.78798271  1
  H  H74  1  0.55826654  0.97937477  0.71201729  1
  H  H75  1  0.94173346  0.02062523  0.21201729  1
  H  H76  1  0.28798271  0.05826654  0.52062523  1
  H  H77  1  0.78798271  0.44173346  0.47937477  1
  H  H78  1  0.71201729  0.55826654  0.97937477  1
  H  H79  1  0.21201729  0.94173346  0.02062523  1
  H  H80  1  0.53015723  0.70614736  0.06382772  1
  H  H81  1  0.46984277  0.20614736  0.43617228  1
  H  H82  1  0.96984277  0.29385264  0.56382772  1
  H  H83  1  0.03015723  0.79385264  0.93617228  1
  H  H84  1  0.06382772  0.53015723  0.70614736  1
  H  H85  1  0.43617228  0.46984277  0.20614736  1
  H  H86  1  0.56382772  0.96984277  0.29385264  1
  H  H87  1  0.93617228  0.03015723  0.79385264  1
  H  H88  1  0.70614736  0.06382772  0.53015723  1
  H  H89  1  0.20614736  0.43617228  0.46984277  1
  H  H90  1  0.29385264  0.56382772  0.96984277  1
  H  H91  1  0.79385264  0.93617228  0.03015723  1
  H  H92  1  0.46984277  0.29385264  0.93617228  1
  H  H93  1  0.53015723  0.79385264  0.56382772  1
  H  H94  1  0.03015723  0.70614736  0.43617228  1
  H  H95  1  0.96984277  0.20614736  0.06382772  1
  H  H96  1  0.93617228  0.46984277  0.29385264  1
  H  H97  1  0.56382772  0.53015723  0.79385264  1
  H  H98  1  0.43617228  0.03015723  0.70614736  1
  H  H99  1  0.06382772  0.96984277  0.20614736  1
  H  H100  1  0.29385264  0.93617228  0.46984277  1
  H  H101  1  0.79385264  0.56382772  0.53015723  1
  H  H102  1  0.70614736  0.43617228  0.03015723  1
  H  H103  1  0.20614736  0.06382772  0.96984277  1
  S  S104  1  0.17553343  0.82446657  0.32446657  1
  S  S105  1  0.82446657  0.32446657  0.17553343  1
  S  S106  1  0.32446657  0.17553343  0.82446657  1
  S  S107  1  0.67553343  0.67553343  0.67553343  1
  S  S108  1  0.82446657  0.17553343  0.67553343  1
  S  S109  1  0.17553343  0.67553343  0.82446657  1
  S  S110  1  0.67553343  0.82446657  0.17553343  1
  S  S111  1  0.32446657  0.32446657  0.32446657  1
  O  O112  1  0.24492342  0.75507658  0.25507658  1
  O  O113  1  0.75507658  0.25507658  0.24492342  1
  O  O114  1  0.25507658  0.24492342  0.75507658  1
  O  O115  1  0.74492342  0.74492342  0.74492342  1
  O  O116  1  0.75507658  0.24492342  0.74492342  1
  O  O117  1  0.24492342  0.74492342  0.75507658  1
  O  O118  1  0.74492342  0.75507658  0.24492342  1
  O  O119  1  0.25507658  0.25507658  0.25507658  1
  O  O120  1  0.06585203  0.77721560  0.33185106  1
  O  O121  1  0.93414797  0.27721560  0.16814894  1
  O  O122  1  0.43414797  0.22278440  0.83185106  1
  O  O123  1  0.56585203  0.72278440  0.66814894  1
  O  O124  1  0.33185106  0.06585203  0.77721560  1
  O  O125  1  0.16814894  0.93414797  0.27721560  1
  O  O126  1  0.83185106  0.43414797  0.22278440  1
  O  O127  1  0.66814894  0.56585203  0.72278440  1
  O  O128  1  0.77721560  0.33185106  0.06585203  1
  O  O129  1  0.27721560  0.16814894  0.93414797  1
  O  O130  1  0.22278440  0.83185106  0.43414797  1
  O  O131  1  0.72278440  0.66814894  0.56585203  1
  O  O132  1  0.93414797  0.22278440  0.66814894  1
  O  O133  1  0.06585203  0.72278440  0.83185106  1
  O  O134  1  0.56585203  0.77721560  0.16814894  1
  O  O135  1  0.43414797  0.27721560  0.33185106  1
  O  O136  1  0.66814894  0.93414797  0.22278440  1
  O  O137  1  0.83185106  0.06585203  0.72278440  1
  O  O138  1  0.16814894  0.56585203  0.77721560  1
  O  O139  1  0.33185106  0.43414797  0.27721560  1
  O  O140  1  0.22278440  0.66814894  0.93414797  1
  O  O141  1  0.72278440  0.83185106  0.06585203  1
  O  O142  1  0.77721560  0.16814894  0.56585203  1
  O  O143  1  0.27721560  0.33185106  0.43414797  1
  O  O144  1  0.15093186  0.55079422  0.20611930  1
  O  O145  1  0.84906814  0.05079422  0.29388070  1
  O  O146  1  0.34906814  0.44920578  0.70611930  1
  O  O147  1  0.65093186  0.94920578  0.79388070  1
  O  O148  1  0.20611930  0.15093186  0.55079422  1
  O  O149  1  0.29388070  0.84906814  0.05079422  1
  O  O150  1  0.70611930  0.34906814  0.44920578  1
  O  O151  1  0.79388070  0.65093186  0.94920578  1
  O  O152  1  0.55079422  0.20611930  0.15093186  1
  O  O153  1  0.05079422  0.29388070  0.84906814  1
  O  O154  1  0.44920578  0.70611930  0.34906814  1
  O  O155  1  0.94920578  0.79388070  0.65093186  1
  O  O156  1  0.84906814  0.44920578  0.79388070  1
  O  O157  1  0.15093186  0.94920578  0.70611930  1
  O  O158  1  0.65093186  0.55079422  0.29388070  1
  O  O159  1  0.34906814  0.05079422  0.20611930  1
  O  O160  1  0.79388070  0.84906814  0.44920578  1
  O  O161  1  0.70611930  0.15093186  0.94920578  1
  O  O162  1  0.29388070  0.65093186  0.55079422  1
  O  O163  1  0.20611930  0.34906814  0.05079422  1
  O  O164  1  0.44920578  0.79388070  0.84906814  1
  O  O165  1  0.94920578  0.70611930  0.15093186  1
  O  O166  1  0.55079422  0.29388070  0.65093186  1
  O  O167  1  0.05079422  0.20611930  0.34906814  1
  O  O168  1  0.50352442  0.66280692  0.00178202  1
  O  O169  1  0.49647558  0.16280692  0.49821798  1
  O  O170  1  0.99647558  0.33719308  0.50178202  1
  O  O171  1  0.00352442  0.83719308  0.99821798  1
  O  O172  1  0.00178202  0.50352442  0.66280692  1
  O  O173  1  0.49821798  0.49647558  0.16280692  1
  O  O174  1  0.50178202  0.99647558  0.33719308  1
  O  O175  1  0.99821798  0.00352442  0.83719308  1
  O  O176  1  0.66280692  0.00178202  0.50352442  1
  O  O177  1  0.16280692  0.49821798  0.49647558  1
  O  O178  1  0.33719308  0.50178202  0.99647558  1
  O  O179  1  0.83719308  0.99821798  0.00352442  1
  O  O180  1  0.49647558  0.33719308  0.99821798  1
  O  O181  1  0.50352442  0.83719308  0.50178202  1
  O  O182  1  0.00352442  0.66280692  0.49821798  1
  O  O183  1  0.99647558  0.16280692  0.00178202  1
  O  O184  1  0.99821798  0.49647558  0.33719308  1
  O  O185  1  0.50178202  0.50352442  0.83719308  1
  O  O186  1  0.49821798  0.00352442  0.66280692  1
  O  O187  1  0.00178202  0.99647558  0.16280692  1
  O  O188  1  0.33719308  0.99821798  0.49647558  1
  O  O189  1  0.83719308  0.50178202  0.50352442  1
  O  O190  1  0.66280692  0.49821798  0.00352442  1
  O  O191  1  0.16280692  0.00178202  0.99647558  1
