# generated using pymatgen
data_BaP3H10C3NO9
_symmetry_space_group_name_H-M   'P 1'
_cell_length_a   7.75704697
_cell_length_b   8.72310529
_cell_length_c   9.15236588
_cell_angle_alpha   102.13286732
_cell_angle_beta   95.45954192
_cell_angle_gamma   106.15405006
_symmetry_Int_Tables_number   1
_chemical_formula_structural   BaP3H10C3NO9
_chemical_formula_sum   'Ba2 P6 H20 C6 N2 O18'
_cell_volume   573.72645473
_cell_formula_units_Z   2
loop_
 _symmetry_equiv_pos_site_id
 _symmetry_equiv_pos_as_xyz
  1  'x, y, z'
loop_
 _atom_site_type_symbol
 _atom_site_label
 _atom_site_symmetry_multiplicity
 _atom_site_fract_x
 _atom_site_fract_y
 _atom_site_fract_z
 _atom_site_occupancy
  Ba  Ba0  1  0.61054886  0.77540430  0.44411112  1
  Ba  Ba1  1  0.38945114  0.22459570  0.55588888  1
  P  P2  1  0.78888937  0.16277099  0.81908920  1
  P  P3  1  0.21111063  0.83722901  0.18091080  1
  P  P4  1  0.86882855  0.18529960  0.40685021  1
  P  P5  1  0.13117145  0.81470040  0.59314979  1
  P  P6  1  0.49008423  0.39349323  0.18725961  1
  P  P7  1  0.50991577  0.60650677  0.81274039  1
  H  H8  1  0.98718976  0.30044130  0.70036409  1
  H  H9  1  0.01281024  0.69955870  0.29963591  1
  H  H10  1  0.00113578  0.00411654  0.28681369  1
  H  H11  1  0.99886422  0.99588346  0.71318631  1
  H  H12  1  0.33260430  0.38048878  0.97003593  1
  H  H13  1  0.66739570  0.61951122  0.02996407  1
  H  H14  1  0.80995376  0.39610055  0.09914068  1
  H  H15  1  0.19004624  0.60389945  0.90085932  1
  H  H16  1  0.99855222  0.19952271  0.04598782  1
  H  H17  1  0.00144778  0.80047729  0.95401218  1
  H  H18  1  0.79038742  0.04430918  0.03953029  1
  H  H19  1  0.20961258  0.95569082  0.96046971  1
  H  H20  1  0.04424357  0.36855062  0.27233439  1
  H  H21  1  0.95575643  0.63144938  0.72766561  1
  H  H22  1  0.87407791  0.44325393  0.35370306  1
  H  H23  1  0.12592209  0.55674607  0.64629694  1
  H  H24  1  0.52501888  0.16086072  0.01283152  1
  H  H25  1  0.47498112  0.83913928  0.98716848  1
  H  H26  1  0.56142241  0.13839396  0.20466581  1
  H  H27  1  0.43857759  0.86160604  0.79533419  1
  C  C28  1  0.84970353  0.16642123  0.02006292  1
  C  C29  1  0.15029647  0.83357877  0.97993708  1
  C  C30  1  0.90125313  0.33384176  0.28820740  1
  C  C31  1  0.09874687  0.66615824  0.71179260  1
  C  C32  1  0.58638368  0.22358669  0.13080754  1
  C  C33  1  0.41361632  0.77641331  0.86919246  1
  N  N34  1  0.78849166  0.28609773  0.13205031  1
  N  N35  1  0.21150834  0.71390227  0.86794969  1
  O  O36  1  0.81316060  0.00298569  0.72933321  1
  O  O37  1  0.18683940  0.99701431  0.27066679  1
  O  O38  1  0.60277051  0.18397994  0.79326792  1
  O  O39  1  0.39722949  0.81602006  0.20673208  1
  O  O40  1  0.94758981  0.31816493  0.80423832  1
  O  O41  1  0.05241019  0.68183507  0.19576168  1
  O  O42  1  0.68337231  0.15474517  0.45416554  1
  O  O43  1  0.31662769  0.84525483  0.54583446  1
  O  O44  1  0.03505553  0.26257381  0.53158683  1
  O  O45  1  0.96494447  0.73742619  0.46841317  1
  O  O46  1  0.87259216  0.01441901  0.30521816  1
  O  O47  1  0.12740784  0.98558099  0.69478184  1
  O  O48  1  0.63188070  0.54769755  0.16931058  1
  O  O49  1  0.36811930  0.45230245  0.83068942  1
  O  O50  1  0.44395542  0.40563611  0.34460449  1
  O  O51  1  0.55604458  0.59436389  0.65539551  1
  O  O52  1  0.30943898  0.34179245  0.06713496  1
  O  O53  1  0.69056102  0.65820755  0.93286504  1
