# generated using pymatgen
data_Dy11Cd45
_symmetry_space_group_name_H-M   'P 1'
_cell_length_a   15.39809959
_cell_length_b   15.39809959
_cell_length_c   15.39809959
_cell_angle_alpha   60.00000000
_cell_angle_beta   60.00000000
_cell_angle_gamma   60.00000000
_symmetry_Int_Tables_number   1
_chemical_formula_structural   Dy11Cd45
_chemical_formula_sum   'Dy22 Cd90'
_cell_volume   2581.58467916
_cell_formula_units_Z   2
loop_
 _symmetry_equiv_pos_site_id
 _symmetry_equiv_pos_as_xyz
  1  'x, y, z'
loop_
 _atom_site_type_symbol
 _atom_site_label
 _atom_site_symmetry_multiplicity
 _atom_site_fract_x
 _atom_site_fract_y
 _atom_site_fract_z
 _atom_site_occupancy
  Dy  Dy0  1  -0.00000000  0.00000000  -0.00000000  1
  Dy  Dy1  1  0.36093329  0.66641455  0.98632608  1
  Dy  Dy2  1  0.36093329  0.98632608  0.98632608  1
  Dy  Dy3  1  0.36093329  0.98632608  0.66641455  1
  Dy  Dy4  1  0.66641455  0.36093329  0.98632608  1
  Dy  Dy5  1  0.98632608  0.36093329  0.66641455  1
  Dy  Dy6  1  0.98632608  0.36093329  0.98632608  1
  Dy  Dy7  1  0.98632608  0.98632608  0.36093329  1
  Dy  Dy8  1  0.98632608  0.66641455  0.36093329  1
  Dy  Dy9  1  0.66641455  0.98632608  0.36093329  1
  Dy  Dy10  1  0.98632608  0.98632608  0.66641455  1
  Dy  Dy11  1  0.66641455  0.98632608  0.98632608  1
  Dy  Dy12  1  0.98632608  0.66641455  0.98632608  1
  Dy  Dy13  1  0.75000000  0.75000000  0.75000000  1
  Dy  Dy14  1  0.21910888  0.59363037  0.59363037  1
  Dy  Dy15  1  0.59363037  0.21910888  0.59363037  1
  Dy  Dy16  1  0.59363037  0.59363037  0.21910888  1
  Dy  Dy17  1  0.59363037  0.59363037  0.59363037  1
  Dy  Dy18  1  0.98620946  0.33793018  0.33793018  1
  Dy  Dy19  1  0.33793018  0.98620946  0.33793018  1
  Dy  Dy20  1  0.33793018  0.33793018  0.98620946  1
  Dy  Dy21  1  0.33793018  0.33793018  0.33793018  1
  Cd  Cd22  1  0.25003229  0.91665590  0.91665590  1
  Cd  Cd23  1  0.91665590  0.25003229  0.91665590  1
  Cd  Cd24  1  0.91665590  0.91665590  0.25003229  1
  Cd  Cd25  1  0.91665590  0.91665590  0.91665590  1
  Cd  Cd26  1  0.73999245  0.08666918  0.08666918  1
  Cd  Cd27  1  0.08666918  0.73999245  0.08666918  1
  Cd  Cd28  1  0.08666918  0.08666918  0.73999245  1
  Cd  Cd29  1  0.08666918  0.08666918  0.08666918  1
  Cd  Cd30  1  0.15628604  0.84371396  0.84371396  1
  Cd  Cd31  1  0.15628604  0.84371396  0.15628604  1
  Cd  Cd32  1  0.15628604  0.15628604  0.84371396  1
  Cd  Cd33  1  0.84371396  0.15628604  0.15628604  1
  Cd  Cd34  1  0.84371396  0.15628604  0.84371396  1
  Cd  Cd35  1  0.84371396  0.84371396  0.15628604  1
  Cd  Cd36  1  0.98228732  0.79915260  0.60928004  1
  Cd  Cd37  1  0.98228732  0.60928004  0.60928004  1
  Cd  Cd38  1  0.98228732  0.60928004  0.79915260  1
  Cd  Cd39  1  0.79915260  0.98228732  0.60928004  1
  Cd  Cd40  1  0.60928004  0.98228732  0.79915260  1
  Cd  Cd41  1  0.60928004  0.98228732  0.60928004  1
  Cd  Cd42  1  0.60928004  0.60928004  0.98228732  1
  Cd  Cd43  1  0.60928004  0.79915260  0.98228732  1
  Cd  Cd44  1  0.79915260  0.60928004  0.98228732  1
  Cd  Cd45  1  0.60928004  0.60928004  0.79915260  1
  Cd  Cd46  1  0.79915260  0.60928004  0.60928004  1
  Cd  Cd47  1  0.60928004  0.79915260  0.60928004  1
  Cd  Cd48  1  0.49006532  0.83664489  0.83664489  1
  Cd  Cd49  1  0.83664489  0.49006532  0.83664489  1
  Cd  Cd50  1  0.83664489  0.83664489  0.49006532  1
  Cd  Cd51  1  0.83664489  0.83664489  0.83664489  1
  Cd  Cd52  1  0.13790180  0.38851861  0.73678979  1
  Cd  Cd53  1  0.13790180  0.73678979  0.73678979  1
  Cd  Cd54  1  0.13790180  0.73678979  0.38851861  1
  Cd  Cd55  1  0.38851861  0.13790180  0.73678979  1
  Cd  Cd56  1  0.73678979  0.13790180  0.38851861  1
  Cd  Cd57  1  0.73678979  0.13790180  0.73678979  1
  Cd  Cd58  1  0.73678979  0.73678979  0.13790180  1
  Cd  Cd59  1  0.73678979  0.38851861  0.13790180  1
  Cd  Cd60  1  0.38851861  0.73678979  0.13790180  1
  Cd  Cd61  1  0.73678979  0.73678979  0.38851861  1
  Cd  Cd62  1  0.38851861  0.73678979  0.73678979  1
  Cd  Cd63  1  0.73678979  0.38851861  0.73678979  1
  Cd  Cd64  1  0.50000000  0.50000000  0.50000000  1
  Cd  Cd65  1  0.73122283  0.54986407  0.35945655  1
  Cd  Cd66  1  0.73122283  0.35945655  0.35945655  1
  Cd  Cd67  1  0.73122283  0.35945655  0.54986407  1
  Cd  Cd68  1  0.54986407  0.73122283  0.35945655  1
  Cd  Cd69  1  0.35945655  0.73122283  0.54986407  1
  Cd  Cd70  1  0.35945655  0.73122283  0.35945655  1
  Cd  Cd71  1  0.35945655  0.35945655  0.73122283  1
  Cd  Cd72  1  0.35945655  0.54986407  0.73122283  1
  Cd  Cd73  1  0.54986407  0.35945655  0.73122283  1
  Cd  Cd74  1  0.35945655  0.35945655  0.54986407  1
  Cd  Cd75  1  0.54986407  0.35945655  0.35945655  1
  Cd  Cd76  1  0.35945655  0.54986407  0.35945655  1
  Cd  Cd77  1  0.85860269  0.16640213  0.48749759  1
  Cd  Cd78  1  0.85860269  0.48749759  0.48749759  1
  Cd  Cd79  1  0.85860269  0.48749759  0.16640213  1
  Cd  Cd80  1  0.16640213  0.85860269  0.48749759  1
  Cd  Cd81  1  0.48749759  0.85860269  0.16640213  1
  Cd  Cd82  1  0.48749759  0.85860269  0.48749759  1
  Cd  Cd83  1  0.48749759  0.48749759  0.85860269  1
  Cd  Cd84  1  0.48749759  0.16640213  0.85860269  1
  Cd  Cd85  1  0.16640213  0.48749759  0.85860269  1
  Cd  Cd86  1  0.48749759  0.48749759  0.16640213  1
  Cd  Cd87  1  0.16640213  0.48749759  0.48749759  1
  Cd  Cd88  1  0.48749759  0.16640213  0.48749759  1
  Cd  Cd89  1  0.25000000  0.25000000  0.25000000  1
  Cd  Cd90  1  0.49018328  0.16993891  0.16993891  1
  Cd  Cd91  1  0.16993891  0.49018328  0.16993891  1
  Cd  Cd92  1  0.16993891  0.16993891  0.49018328  1
  Cd  Cd93  1  0.16993891  0.16993891  0.16993891  1
  Cd  Cd94  1  0.41144468  0.08855532  0.08855532  1
  Cd  Cd95  1  0.41144468  0.08855532  0.41144468  1
  Cd  Cd96  1  0.41144468  0.41144468  0.08855532  1
  Cd  Cd97  1  0.08855532  0.41144468  0.41144468  1
  Cd  Cd98  1  0.08855532  0.41144468  0.08855532  1
  Cd  Cd99  1  0.08855532  0.08855532  0.41144468  1
  Cd  Cd100  1  0.59545908  0.93252858  0.23600617  1
  Cd  Cd101  1  0.59545908  0.23600617  0.23600617  1
  Cd  Cd102  1  0.59545908  0.23600617  0.93252858  1
  Cd  Cd103  1  0.93252858  0.59545908  0.23600617  1
  Cd  Cd104  1  0.23600617  0.59545908  0.93252858  1
  Cd  Cd105  1  0.23600617  0.59545908  0.23600617  1
  Cd  Cd106  1  0.23600617  0.23600617  0.59545908  1
  Cd  Cd107  1  0.23600617  0.93252858  0.59545908  1
  Cd  Cd108  1  0.93252858  0.23600617  0.59545908  1
  Cd  Cd109  1  0.23600617  0.23600617  0.93252858  1
  Cd  Cd110  1  0.93252858  0.23600617  0.23600617  1
  Cd  Cd111  1  0.23600617  0.93252858  0.23600617  1
