# generated using pymatgen
data_Pr3(GaNi2)2
_symmetry_space_group_name_H-M   'P 1'
_cell_length_a   4.10103741
_cell_length_b   5.38281837
_cell_length_c   8.08400757
_cell_angle_alpha   98.26411363
_cell_angle_beta   90.00000000
_cell_angle_gamma   112.39178609
_symmetry_Int_Tables_number   1
_chemical_formula_structural   Pr3(GaNi2)2
_chemical_formula_sum   'Pr3 Ga2 Ni4'
_cell_volume   162.99417562
_cell_formula_units_Z   1
loop_
 _symmetry_equiv_pos_site_id
 _symmetry_equiv_pos_as_xyz
  1  'x, y, z'
loop_
 _atom_site_type_symbol
 _atom_site_label
 _atom_site_symmetry_multiplicity
 _atom_site_fract_x
 _atom_site_fract_y
 _atom_site_fract_z
 _atom_site_occupancy
  Pr  Pr0  1  0.62308478  0.24616956  0.87955849  1
  Pr  Pr1  1  0.37691522  0.75383044  0.12044151  1
  Pr  Pr2  1  0.00000000  -0.00000000  0.50000000  1
  Ga  Ga3  1  0.32245924  0.64491847  0.71501049  1
  Ga  Ga4  1  0.67754076  0.35508153  0.28498951  1
  Ni  Ni5  1  0.91534720  0.83069441  0.86240468  1
  Ni  Ni6  1  0.08465280  0.16930559  0.13759532  1
  Ni  Ni7  1  0.73879217  0.47758433  0.58609030  1
  Ni  Ni8  1  0.26120783  0.52241567  0.41390970  1
