# generated using pymatgen
data_BaZnSb2
_symmetry_space_group_name_H-M   'P 1'
_cell_length_a   4.52803635
_cell_length_b   4.52803635
_cell_length_c   12.57746392
_cell_angle_alpha   100.37010821
_cell_angle_beta   100.37010821
_cell_angle_gamma   90.00000000
_symmetry_Int_Tables_number   1
_chemical_formula_structural   BaZnSb2
_chemical_formula_sum   'Ba2 Zn2 Sb4'
_cell_volume   249.38144573
_cell_formula_units_Z   2
loop_
 _symmetry_equiv_pos_site_id
 _symmetry_equiv_pos_as_xyz
  1  'x, y, z'
loop_
 _atom_site_type_symbol
 _atom_site_label
 _atom_site_symmetry_multiplicity
 _atom_site_fract_x
 _atom_site_fract_y
 _atom_site_fract_z
 _atom_site_occupancy
  Ba  Ba0  1  0.11660980  0.11660980  0.23321960  1
  Ba  Ba1  1  0.88339020  0.88339020  0.76678040  1
  Zn  Zn2  1  0.25000000  0.75000000  0.50000000  1
  Zn  Zn3  1  0.75000000  0.25000000  0.50000000  1
  Sb  Sb4  1  0.31769046  0.31769046  0.63538092  1
  Sb  Sb5  1  0.68230954  0.68230954  0.36461908  1
  Sb  Sb6  1  -0.00000000  0.50000000  -0.00000000  1
  Sb  Sb7  1  0.50000000  -0.00000000  -0.00000000  1
