# generated using pymatgen
data_InMoHSeO7
_symmetry_space_group_name_H-M   'P 1'
_cell_length_a   5.71135287
_cell_length_b   10.79341809
_cell_length_c   10.87531754
_cell_angle_alpha   81.36412049
_cell_angle_beta   74.77660044
_cell_angle_gamma   74.65825609
_symmetry_Int_Tables_number   1
_chemical_formula_structural   InMoHSeO7
_chemical_formula_sum   'In4 Mo4 H4 Se4 O28'
_cell_volume   621.48294381
_cell_formula_units_Z   4
loop_
 _symmetry_equiv_pos_site_id
 _symmetry_equiv_pos_as_xyz
  1  'x, y, z'
loop_
 _atom_site_type_symbol
 _atom_site_label
 _atom_site_symmetry_multiplicity
 _atom_site_fract_x
 _atom_site_fract_y
 _atom_site_fract_z
 _atom_site_occupancy
  In  In0  1  0.88276075  0.63157653  0.90571782  1
  In  In1  1  0.42005511  0.86842347  0.59428218  1
  In  In2  1  0.11723925  0.36842347  0.09428218  1
  In  In3  1  0.57994489  0.13157653  0.40571782  1
  Mo  Mo4  1  0.46286251  0.59117324  0.20088670  1
  Mo  Mo5  1  0.25492245  0.90882676  0.29911330  1
  Mo  Mo6  1  0.53713749  0.40882676  0.79911330  1
  Mo  Mo7  1  0.74507755  0.09117324  0.70088670  1
  H  H8  1  0.74958878  0.72414189  0.32396886  1
  H  H9  1  0.79769953  0.77585811  0.17603114  1
  H  H10  1  0.25041122  0.27585811  0.67603114  1
  H  H11  1  0.20230047  0.22414189  0.82396886  1
  Se  Se12  1  0.27172673  0.82860004  0.93032805  1
  Se  Se13  1  0.03065481  0.67139996  0.56967195  1
  Se  Se14  1  0.72827327  0.17139996  0.06967195  1
  Se  Se15  1  0.96934519  0.32860004  0.43032805  1
  O  O16  1  0.50292242  0.72309460  0.00281651  1
  O  O17  1  0.22883353  0.77690540  0.49718349  1
  O  O18  1  0.49707758  0.27690540  0.99718349  1
  O  O19  1  0.77116647  0.22309460  0.50281651  1
  O  O20  1  0.78814982  0.52700594  0.09899917  1
  O  O21  1  0.41415492  0.97299406  0.40100083  1
  O  O22  1  0.21185018  0.47299406  0.90100083  1
  O  O23  1  0.58584508  0.02700594  0.59899917  1
  O  O24  1  0.01744741  0.76171416  0.99179151  1
  O  O25  1  0.77095309  0.73828584  0.50820849  1
  O  O26  1  0.98255259  0.23828584  0.00820849  1
  O  O27  1  0.22904691  0.26171416  0.49179151  1
  O  O28  1  0.21977315  0.75000000  0.25000000  1
  O  O29  1  0.78022685  0.25000000  0.75000000  1
  O  O30  1  0.67154728  0.75000000  0.25000000  1
  O  O31  1  0.32845272  0.25000000  0.75000000  1
  O  O32  1  0.50144310  0.51527105  0.34861991  1
  O  O33  1  0.36533406  0.98472895  0.15138009  1
  O  O34  1  0.49855690  0.48472895  0.65138009  1
  O  O35  1  0.63466594  0.01527105  0.84861991  1
  O  O36  1  0.38714927  0.77349895  0.78105949  1
  O  O37  1  0.94170771  0.72650105  0.71894051  1
  O  O38  1  0.61285073  0.22650105  0.21894051  1
  O  O39  1  0.05829229  0.27349895  0.28105949  1
  O  O40  1  0.26775655  0.50810857  0.16126182  1
  O  O41  1  0.93712694  0.99189143  0.33873818  1
  O  O42  1  0.73224345  0.49189143  0.83873818  1
  O  O43  1  0.06287306  0.00810857  0.66126182  1
