# generated using pymatgen
data_MoBr3
_symmetry_space_group_name_H-M   'P 1'
_cell_length_a   6.04706665
_cell_length_b   7.52586305
_cell_length_c   7.52593755
_cell_angle_alpha   119.99967248
_cell_angle_beta   90.00000000
_cell_angle_gamma   90.00000000
_symmetry_Int_Tables_number   1
_chemical_formula_structural   MoBr3
_chemical_formula_sum   'Mo2 Br6'
_cell_volume   296.61543178
_cell_formula_units_Z   2
loop_
 _symmetry_equiv_pos_site_id
 _symmetry_equiv_pos_as_xyz
  1  'x, y, z'
loop_
 _atom_site_type_symbol
 _atom_site_label
 _atom_site_symmetry_multiplicity
 _atom_site_fract_x
 _atom_site_fract_y
 _atom_site_fract_z
 _atom_site_occupancy
  Mo  Mo0  1  0.50000000  -0.00000000  0.50000000  1
  Mo  Mo1  1  -0.00000000  -0.00000000  0.50000000  1
  Br  Br2  1  0.75000000  0.28128046  0.78140055  1
  Br  Br3  1  0.75000000  0.99987991  0.21859945  1
  Br  Br4  1  0.25000000  0.71871954  0.21859945  1
  Br  Br5  1  0.25000000  0.00012009  0.78140055  1
  Br  Br6  1  0.25000000  0.28126915  0.50000000  1
  Br  Br7  1  0.75000000  0.71873085  0.50000000  1
