# generated using pymatgen
data_CeNiGe3
_symmetry_space_group_name_H-M   'P 1'
_cell_length_a   4.15286185
_cell_length_b   4.17015624
_cell_length_c   11.10566105
_cell_angle_alpha   90.00000000
_cell_angle_beta   100.77603821
_cell_angle_gamma   90.00000000
_symmetry_Int_Tables_number   1
_chemical_formula_structural   CeNiGe3
_chemical_formula_sum   'Ce2 Ni2 Ge6'
_cell_volume   188.93714139
_cell_formula_units_Z   2
loop_
 _symmetry_equiv_pos_site_id
 _symmetry_equiv_pos_as_xyz
  1  'x, y, z'
loop_
 _atom_site_type_symbol
 _atom_site_label
 _atom_site_symmetry_multiplicity
 _atom_site_fract_x
 _atom_site_fract_y
 _atom_site_fract_z
 _atom_site_occupancy
  Ce  Ce0  1  0.66842315  0.50000000  0.33684631  1
  Ce  Ce1  1  0.33157685  0.50000000  0.66315369  1
  Ni  Ni2  1  0.89042655  0.00000000  0.78085309  1
  Ni  Ni3  1  0.10957345  -0.00000000  0.21914691  1
  Ge  Ge4  1  0.94272583  0.50000000  0.88545167  1
  Ge  Ge5  1  0.05727417  0.50000000  0.11454833  1
  Ge  Ge6  1  0.78353414  0.00000000  0.56706828  1
  Ge  Ge7  1  0.21646586  -0.00000000  0.43293172  1
  Ge  Ge8  1  0.55715852  0.00000000  0.11431704  1
  Ge  Ge9  1  0.44284148  0.00000000  0.88568296  1
