# generated using pymatgen
data_Sm2Cu(GeO4)2
_symmetry_space_group_name_H-M   'P 1'
_cell_length_a   5.18889336
_cell_length_b   8.38660213
_cell_length_c   9.09606308
_cell_angle_alpha   117.20882579
_cell_angle_beta   106.20884246
_cell_angle_gamma   90.75669347
_symmetry_Int_Tables_number   1
_chemical_formula_structural   Sm2Cu(GeO4)2
_chemical_formula_sum   'Sm4 Cu2 Ge4 O16'
_cell_volume   333.41248537
_cell_formula_units_Z   2
loop_
 _symmetry_equiv_pos_site_id
 _symmetry_equiv_pos_as_xyz
  1  'x, y, z'
loop_
 _atom_site_type_symbol
 _atom_site_label
 _atom_site_symmetry_multiplicity
 _atom_site_fract_x
 _atom_site_fract_y
 _atom_site_fract_z
 _atom_site_occupancy
  Sm  Sm0  1  0.11613150  0.29882925  0.75917766  1
  Sm  Sm1  1  0.35695383  0.53965159  0.24082234  1
  Sm  Sm2  1  0.36642092  0.04346247  0.24207196  1
  Sm  Sm3  1  0.12434896  0.80139051  0.75792804  1
  Cu  Cu4  1  0.54742484  0.92623697  0.58603428  1
  Cu  Cu5  1  0.96139056  0.34020268  0.41396572  1
  Ge  Ge6  1  0.78708293  0.16278350  0.00000000  1
  Ge  Ge7  1  0.96981297  0.88854177  0.42094550  1
  Ge  Ge8  1  0.54886747  0.46759627  0.57905450  1
  Ge  Ge9  1  0.69172682  0.66648488  0.00000000  1
  O  O10  1  0.16593072  0.09160446  0.46752101  1
  O  O11  1  0.69840971  0.62408345  0.53247899  1
  O  O12  1  0.48453097  0.06470471  0.81303961  1
  O  O13  1  0.67149136  0.25166510  0.18696039  1
  O  O14  1  0.48687998  0.49535701  1.00000000  1
  O  O15  1  0.19709617  0.75165897  0.48213970  1
  O  O16  1  0.71495648  0.26951927  0.51786030  1
  O  O17  1  0.00026474  0.75800263  0.18439833  1
  O  O18  1  0.81586641  0.57360430  0.81560167  1
  O  O19  1  0.99668341  0.33367373  0.00000000  1
  O  O20  1  0.48542100  0.83306028  1.00000000  1
  O  O21  1  0.59922993  0.83983402  0.34363992  1
  O  O22  1  0.25559000  0.49619410  0.65636008  1
  O  O23  1  0.00410708  0.99872783  0.00000000  1
  O  O24  1  0.92853413  0.00100865  0.65448703  1
  O  O25  1  0.27404709  0.34652162  0.34551297  1
