# generated using pymatgen
data_Sm4PdO7
_symmetry_space_group_name_H-M   'P 1'
_cell_length_a   6.87125863
_cell_length_b   7.21295097
_cell_length_c   7.92142434
_cell_angle_alpha   69.95152299
_cell_angle_beta   71.88623206
_cell_angle_gamma   83.94092447
_symmetry_Int_Tables_number   1
_chemical_formula_structural   Sm4PdO7
_chemical_formula_sum   'Sm8 Pd2 O14'
_cell_volume   350.53335623
_cell_formula_units_Z   2
loop_
 _symmetry_equiv_pos_site_id
 _symmetry_equiv_pos_as_xyz
  1  'x, y, z'
loop_
 _atom_site_type_symbol
 _atom_site_label
 _atom_site_symmetry_multiplicity
 _atom_site_fract_x
 _atom_site_fract_y
 _atom_site_fract_z
 _atom_site_occupancy
  Sm  Sm0  1  0.77948267  0.38898633  0.21091414  1
  Sm  Sm1  1  0.22051733  0.61101367  0.78908586  1
  Sm  Sm2  1  0.35720137  0.14650703  0.14283251  1
  Sm  Sm3  1  0.64279863  0.85349297  0.85716749  1
  Sm  Sm4  1  0.20946800  0.60053473  0.27469595  1
  Sm  Sm5  1  0.79053200  0.39946527  0.72530405  1
  Sm  Sm6  1  0.33412543  0.16783616  0.62176680  1
  Sm  Sm7  1  0.66587457  0.83216384  0.37823320  1
  Pd  Pd8  1  0.00000000  -0.00000000  0.00000000  1
  Pd  Pd9  1  0.00000000  -0.00000000  0.50000000  1
  O  O10  1  0.70204700  0.08302204  0.50719563  1
  O  O11  1  0.29795300  0.91697796  0.49280437  1
  O  O12  1  0.14743223  0.41707994  0.10107183  1
  O  O13  1  0.85256777  0.58292006  0.89892817  1
  O  O14  1  0.52780084  0.75893338  0.17663595  1
  O  O15  1  0.47219916  0.24106662  0.82336405  1
  O  O16  1  0.43097284  0.33201400  0.30260361  1
  O  O17  1  0.56902716  0.66798600  0.69739639  1
  O  O18  1  0.05628810  0.92971881  0.25708999  1
  O  O19  1  0.94371190  0.07028119  0.74291001  1
  O  O20  1  0.73049257  0.13990083  0.08673122  1
  O  O21  1  0.26950743  0.86009917  0.91326878  1
  O  O22  1  0.15736566  0.45895443  0.59806264  1
  O  O23  1  0.84263434  0.54104557  0.40193736  1
