# generated using pymatgen
data_Y2Mn17C3
_symmetry_space_group_name_H-M   'P 1'
_cell_length_a   8.32688414
_cell_length_b   8.57231312
_cell_length_c   8.57231312
_cell_angle_alpha   120.00000527
_cell_angle_beta   90.00000000
_cell_angle_gamma   90.00000000
_symmetry_Int_Tables_number   1
_chemical_formula_structural   Y2Mn17C3
_chemical_formula_sum   'Y4 Mn34 C6'
_cell_volume   529.91862391
_cell_formula_units_Z   2
loop_
 _symmetry_equiv_pos_site_id
 _symmetry_equiv_pos_as_xyz
  1  'x, y, z'
loop_
 _atom_site_type_symbol
 _atom_site_label
 _atom_site_symmetry_multiplicity
 _atom_site_fract_x
 _atom_site_fract_y
 _atom_site_fract_z
 _atom_site_occupancy
  Y  Y0  1  0.75000000  0.66666700  0.33333300  1
  Y  Y1  1  0.25000000  0.33333300  0.66666700  1
  Y  Y2  1  0.75000000  -0.00000000  -0.00000000  1
  Y  Y3  1  0.25000000  -0.00000000  -0.00000000  1
  Mn  Mn4  1  0.75000000  0.61613721  0.67193421  1
  Mn  Mn5  1  0.25000000  0.38386279  0.32806579  1
  Mn  Mn6  1  0.75000000  0.05579700  0.38386279  1
  Mn  Mn7  1  0.25000000  0.94420300  0.32806579  1
  Mn  Mn8  1  0.25000000  0.94420300  0.61613721  1
  Mn  Mn9  1  0.75000000  0.05579700  0.67193421  1
  Mn  Mn10  1  0.75000000  0.32806579  0.94420300  1
  Mn  Mn11  1  0.25000000  0.67193421  0.61613721  1
  Mn  Mn12  1  0.25000000  0.67193421  0.05579700  1
  Mn  Mn13  1  0.75000000  0.32806579  0.38386279  1
  Mn  Mn14  1  0.25000000  0.38386279  0.05579700  1
  Mn  Mn15  1  0.75000000  0.61613721  0.94420300  1
  Mn  Mn16  1  0.38980397  0.66666700  0.33333300  1
  Mn  Mn17  1  0.61019603  0.33333300  0.66666700  1
  Mn  Mn18  1  0.88980397  0.33333300  0.66666700  1
  Mn  Mn19  1  0.11019603  0.66666700  0.33333300  1
  Mn  Mn20  1  0.97917065  0.82873516  0.17126484  1
  Mn  Mn21  1  0.02082935  0.17126484  0.82873516  1
  Mn  Mn22  1  0.97917065  0.34252969  0.17126484  1
  Mn  Mn23  1  0.47917065  0.17126484  0.82873516  1
  Mn  Mn24  1  0.02082935  0.65747031  0.82873516  1
  Mn  Mn25  1  0.52082935  0.82873516  0.17126484  1
  Mn  Mn26  1  0.97917065  0.82873516  0.65747031  1
  Mn  Mn27  1  0.47917065  0.65747031  0.82873516  1
  Mn  Mn28  1  0.02082935  0.17126484  0.34252969  1
  Mn  Mn29  1  0.52082935  0.34252969  0.17126484  1
  Mn  Mn30  1  0.47917065  0.17126484  0.34252969  1
  Mn  Mn31  1  0.52082935  0.82873516  0.65747031  1
  Mn  Mn32  1  -0.00000000  0.50000000  0.50000000  1
  Mn  Mn33  1  -0.00000000  -0.00000000  0.50000000  1
  Mn  Mn34  1  0.50000000  0.50000000  0.50000000  1
  Mn  Mn35  1  -0.00000000  0.50000000  -0.00000000  1
  Mn  Mn36  1  0.50000000  -0.00000000  0.50000000  1
  Mn  Mn37  1  0.50000000  0.50000000  -0.00000000  1
  C  C38  1  0.75000000  0.83549064  0.16450936  1
  C  C39  1  0.25000000  0.16450936  0.83549064  1
  C  C40  1  0.75000000  0.32901873  0.16450936  1
  C  C41  1  0.25000000  0.67098127  0.83549064  1
  C  C42  1  0.75000000  0.83549064  0.67098127  1
  C  C43  1  0.25000000  0.16450936  0.32901873  1
