# generated using pymatgen
data_K4Th(S2O9)2
_symmetry_space_group_name_H-M   'P 1'
_cell_length_a   9.93706120
_cell_length_b   9.93495090
_cell_length_c   10.26420865
_cell_angle_alpha   89.56704743
_cell_angle_beta   62.35818826
_cell_angle_gamma   84.94172178
_symmetry_Int_Tables_number   1
_chemical_formula_structural   K4Th(S2O9)2
_chemical_formula_sum   'K8 Th2 S8 O36'
_cell_volume   893.53549290
_cell_formula_units_Z   2
loop_
 _symmetry_equiv_pos_site_id
 _symmetry_equiv_pos_as_xyz
  1  'x, y, z'
loop_
 _atom_site_type_symbol
 _atom_site_label
 _atom_site_symmetry_multiplicity
 _atom_site_fract_x
 _atom_site_fract_y
 _atom_site_fract_z
 _atom_site_occupancy
  K  K0  1  0.49593168  0.36515532  0.23527825  1
  K  K1  1  0.50406832  0.63484468  0.76472175  1
  K  K2  1  0.02203506  0.79292585  0.81821674  1
  K  K3  1  0.97796494  0.20707415  0.18178326  1
  K  K4  1  -0.00000000  0.50000000  0.50000000  1
  K  K5  1  0.50000000  -0.00000000  0.50000000  1
  K  K6  1  0.21927241  0.35148440  0.75261986  1
  K  K7  1  0.78072759  0.64851560  0.24738014  1
  Th  Th8  1  0.27686991  0.84044094  0.25837106  1
  Th  Th9  1  0.72313009  0.15955906  0.74162894  1
  S  S10  1  0.86225179  0.82404731  0.53036288  1
  S  S11  1  0.13774821  0.17595269  0.46963712  1
  S  S12  1  0.33574196  0.00847946  0.88506540  1
  S  S13  1  0.66425804  0.99152054  0.11493460  1
  S  S14  1  0.35831636  0.68809638  0.48748557  1
  S  S15  1  0.64168364  0.31190362  0.51251443  1
  S  S16  1  0.83133597  0.43928112  0.92485117  1
  S  S17  1  0.16866403  0.56071888  0.07514883  1
  O  O18  1  0.02982634  0.77537082  0.44367946  1
  O  O19  1  0.97017366  0.22462918  0.55632054  1
  O  O20  1  0.85071998  0.94609778  0.62512827  1
  O  O21  1  0.14928002  0.05390222  0.37487173  1
  O  O22  1  0.78466071  0.71583406  0.62661470  1
  O  O23  1  0.21533929  0.28416594  0.37338530  1
  O  O24  1  0.79922033  0.86572113  0.43062677  1
  O  O25  1  0.20077967  0.13427887  0.56937323  1
  O  O26  1  0.32583685  0.97060612  0.03531107  1
  O  O27  1  0.67416315  0.02939388  0.96468893  1
  O  O28  1  0.49559529  0.04939739  0.79549479  1
  O  O29  1  0.50440471  0.95060261  0.20450521  1
  O  O30  1  0.31871100  0.88973267  0.81297217  1
  O  O31  1  0.68128900  0.11026733  0.18702783  1
  O  O32  1  0.22322689  0.12332550  0.91000346  1
  O  O33  1  0.77677311  0.87667450  0.08999654  1
  O  O34  1  0.50303319  0.69509790  0.49298978  1
  O  O35  1  0.49696681  0.30490210  0.50701022  1
  O  O36  1  0.25338874  0.60478998  0.60139817  1
  O  O37  1  0.74661126  0.39521002  0.39860183  1
  O  O38  1  0.28289637  0.83087085  0.49863248  1
  O  O39  1  0.71710363  0.16912915  0.50136752  1
  O  O40  1  0.38823058  0.63749956  0.33530973  1
  O  O41  1  0.61176942  0.36250044  0.66469027  1
  O  O42  1  0.25243505  0.64799387  0.13499741  1
  O  O43  1  0.74756495  0.35200613  0.86500259  1
  O  O44  1  0.06501223  0.48888707  0.20447349  1
  O  O45  1  0.93498777  0.51111293  0.79552651  1
  O  O46  1  0.28594284  0.47011410  0.95699651  1
  O  O47  1  0.71405716  0.52988590  0.04300349  1
  O  O48  1  0.08393108  0.65388936  0.02057940  1
  O  O49  1  0.91606892  0.34611064  0.97942060  1
  O  O50  1  0.47693335  0.73533941  0.02841309  1
  O  O51  1  0.52306665  0.26466059  0.97158691  1
  O  O52  1  0.08375538  0.92880019  0.18542541  1
  O  O53  1  0.91624462  0.07119981  0.81457459  1
