# generated using pymatgen
data_Sc6CuTe2
_symmetry_space_group_name_H-M   'P 1'
_cell_length_a   3.81564504
_cell_length_b   20.10027389
_cell_length_c   10.73000537
_cell_angle_alpha   90.00000000
_cell_angle_beta   90.00000000
_cell_angle_gamma   90.00000000
_symmetry_Int_Tables_number   1
_chemical_formula_structural   Sc6CuTe2
_chemical_formula_sum   'Sc24 Cu4 Te8'
_cell_volume   822.94323814
_cell_formula_units_Z   4
loop_
 _symmetry_equiv_pos_site_id
 _symmetry_equiv_pos_as_xyz
  1  'x, y, z'
loop_
 _atom_site_type_symbol
 _atom_site_label
 _atom_site_symmetry_multiplicity
 _atom_site_fract_x
 _atom_site_fract_y
 _atom_site_fract_z
 _atom_site_occupancy
  Sc  Sc0  1  0.75000000  0.72958899  0.25047166  1
  Sc  Sc1  1  0.25000000  0.27041101  0.74952834  1
  Sc  Sc2  1  0.25000000  0.77041101  0.75047166  1
  Sc  Sc3  1  0.75000000  0.22958899  0.24952834  1
  Sc  Sc4  1  0.75000000  0.99281033  0.38960236  1
  Sc  Sc5  1  0.25000000  0.00718967  0.61039764  1
  Sc  Sc6  1  0.25000000  0.50718967  0.88960236  1
  Sc  Sc7  1  0.75000000  0.49281033  0.11039764  1
  Sc  Sc8  1  0.75000000  0.52435639  0.61979832  1
  Sc  Sc9  1  0.25000000  0.47564361  0.38020168  1
  Sc  Sc10  1  0.25000000  0.97564361  0.11979832  1
  Sc  Sc11  1  0.75000000  0.02435639  0.88020168  1
  Sc  Sc12  1  0.75000000  0.84489617  0.95952577  1
  Sc  Sc13  1  0.25000000  0.15510383  0.04047423  1
  Sc  Sc14  1  0.25000000  0.65510383  0.45952577  1
  Sc  Sc15  1  0.75000000  0.34489617  0.54047423  1
  Sc  Sc16  1  0.75000000  0.63832203  0.93319374  1
  Sc  Sc17  1  0.25000000  0.36167797  0.06680626  1
  Sc  Sc18  1  0.25000000  0.86167797  0.43319374  1
  Sc  Sc19  1  0.75000000  0.13832203  0.56680626  1
  Sc  Sc20  1  0.75000000  0.89280017  0.67706864  1
  Sc  Sc21  1  0.25000000  0.10719983  0.32293136  1
  Sc  Sc22  1  0.25000000  0.60719983  0.17706864  1
  Sc  Sc23  1  0.75000000  0.39280017  0.82293136  1
  Cu  Cu24  1  0.75000000  0.57546443  0.35682453  1
  Cu  Cu25  1  0.25000000  0.42453557  0.64317547  1
  Cu  Cu26  1  0.25000000  0.92453557  0.85682453  1
  Cu  Cu27  1  0.75000000  0.07546443  0.14317547  1
  Te  Te28  1  0.75000000  0.87436141  0.22601156  1
  Te  Te29  1  0.25000000  0.12563859  0.77398844  1
  Te  Te30  1  0.25000000  0.62563859  0.72601156  1
  Te  Te31  1  0.75000000  0.37436141  0.27398844  1
  Te  Te32  1  0.75000000  0.76285153  0.53404217  1
  Te  Te33  1  0.25000000  0.23714847  0.46595783  1
  Te  Te34  1  0.25000000  0.73714847  0.03404217  1
  Te  Te35  1  0.75000000  0.26285153  0.96595783  1
