# generated using pymatgen
data_Zn2GaAgSe4
_symmetry_space_group_name_H-M   'P 1'
_cell_length_a   5.88460297
_cell_length_b   5.88460297
_cell_length_c   7.06468340
_cell_angle_alpha   114.61257711
_cell_angle_beta   114.61257711
_cell_angle_gamma   90.00000000
_symmetry_Int_Tables_number   1
_chemical_formula_structural   Zn2GaAgSe4
_chemical_formula_sum   'Zn2 Ga1 Ag1 Se4'
_cell_volume   197.70286205
_cell_formula_units_Z   1
loop_
 _symmetry_equiv_pos_site_id
 _symmetry_equiv_pos_as_xyz
  1  'x, y, z'
loop_
 _atom_site_type_symbol
 _atom_site_label
 _atom_site_symmetry_multiplicity
 _atom_site_fract_x
 _atom_site_fract_y
 _atom_site_fract_z
 _atom_site_occupancy
  Zn  Zn0  1  0.25000000  0.75000000  0.50000000  1
  Zn  Zn1  1  0.75000000  0.25000000  0.50000000  1
  Ga  Ga2  1  -0.00000000  -0.00000000  -0.00000000  1
  Ag  Ag3  1  0.50000000  0.50000000  -0.00000000  1
  Se  Se4  1  0.36485376  0.36485376  0.25785650  1
  Se  Se5  1  0.89300274  0.89300274  0.25785650  1
  Se  Se6  1  0.10699726  0.63514624  0.74214350  1
  Se  Se7  1  0.63514624  0.10699726  0.74214350  1
