# generated using pymatgen
data_Tm3(GeRh)2
_symmetry_space_group_name_H-M   'P 1'
_cell_length_a   5.54360689
_cell_length_b   7.76675308
_cell_length_c   13.08765317
_cell_angle_alpha   90.00000000
_cell_angle_beta   90.00000000
_cell_angle_gamma   90.00000000
_symmetry_Int_Tables_number   1
_chemical_formula_structural   Tm3(GeRh)2
_chemical_formula_sum   'Tm12 Ge8 Rh8'
_cell_volume   563.49971616
_cell_formula_units_Z   4
loop_
 _symmetry_equiv_pos_site_id
 _symmetry_equiv_pos_as_xyz
  1  'x, y, z'
loop_
 _atom_site_type_symbol
 _atom_site_label
 _atom_site_symmetry_multiplicity
 _atom_site_fract_x
 _atom_site_fract_y
 _atom_site_fract_z
 _atom_site_occupancy
  Tm  Tm0  1  0.62702557  0.25372412  0.25000000  1
  Tm  Tm1  1  0.37297443  0.74627588  0.75000000  1
  Tm  Tm2  1  0.37297443  0.75372412  0.25000000  1
  Tm  Tm3  1  0.62702557  0.24627588  0.75000000  1
  Tm  Tm4  1  0.14756410  0.39434227  0.10016215  1
  Tm  Tm5  1  0.85243590  0.60565773  0.89983785  1
  Tm  Tm6  1  0.85243590  0.60565773  0.60016215  1
  Tm  Tm7  1  0.85243590  0.89434227  0.39983785  1
  Tm  Tm8  1  0.14756410  0.39434227  0.39983785  1
  Tm  Tm9  1  0.14756410  0.10565773  0.60016215  1
  Tm  Tm10  1  0.14756410  0.10565773  0.89983785  1
  Tm  Tm11  1  0.85243590  0.89434227  0.10016215  1
  Ge  Ge12  1  0.12063143  0.10974430  0.25000000  1
  Ge  Ge13  1  0.87936857  0.89025570  0.75000000  1
  Ge  Ge14  1  0.87936857  0.60974430  0.25000000  1
  Ge  Ge15  1  0.12063143  0.39025570  0.75000000  1
  Ge  Ge16  1  0.66106586  0.25000000  -0.00000000  1
  Ge  Ge17  1  0.33893414  0.75000000  -0.00000000  1
  Ge  Ge18  1  0.33893414  0.75000000  0.50000000  1
  Ge  Ge19  1  0.66106586  0.25000000  0.50000000  1
  Rh  Rh20  1  0.37213313  0.04014946  0.09382167  1
  Rh  Rh21  1  0.62786687  0.95985054  0.90617833  1
  Rh  Rh22  1  0.62786687  0.95985054  0.59382167  1
  Rh  Rh23  1  0.62786687  0.54014946  0.40617833  1
  Rh  Rh24  1  0.37213313  0.04014946  0.40617833  1
  Rh  Rh25  1  0.37213313  0.45985054  0.59382167  1
  Rh  Rh26  1  0.37213313  0.45985054  0.90617833  1
  Rh  Rh27  1  0.62786687  0.54014946  0.09382167  1
