# generated using pymatgen
data_Tm2Cu(GeO3)4
_symmetry_space_group_name_H-M   'P 1'
_cell_length_a   4.98386199
_cell_length_b   7.19407878
_cell_length_c   7.96327955
_cell_angle_alpha   66.00236071
_cell_angle_beta   87.05120822
_cell_angle_gamma   77.62066935
_symmetry_Int_Tables_number   1
_chemical_formula_structural   Tm2Cu(GeO3)4
_chemical_formula_sum   'Tm2 Cu1 Ge4 O12'
_cell_volume   254.56917537
_cell_formula_units_Z   1
loop_
 _symmetry_equiv_pos_site_id
 _symmetry_equiv_pos_as_xyz
  1  'x, y, z'
loop_
 _atom_site_type_symbol
 _atom_site_label
 _atom_site_symmetry_multiplicity
 _atom_site_fract_x
 _atom_site_fract_y
 _atom_site_fract_z
 _atom_site_occupancy
  Tm  Tm0  1  0.03952503  0.77047655  0.45176967  1
  Tm  Tm1  1  0.96047497  0.22952345  0.54823033  1
  Cu  Cu2  1  -0.00000000  0.00000000  -0.00000000  1
  Ge  Ge3  1  0.57944842  0.62022437  0.20785381  1
  Ge  Ge4  1  0.42055158  0.37977563  0.79214619  1
  Ge  Ge5  1  0.45664340  0.16437164  0.22354278  1
  Ge  Ge6  1  0.54335660  0.83562836  0.77645722  1
  O  O7  1  0.25386399  0.77729443  0.19881747  1
  O  O8  1  0.74613601  0.22270557  0.80118253  1
  O  O9  1  0.26390819  0.29371720  0.00893128  1
  O  O10  1  0.73609181  0.70628280  0.99106872  1
  O  O11  1  0.21085382  0.42823121  0.60401480  1
  O  O12  1  0.78914618  0.57176879  0.39598520  1
  O  O13  1  0.24800482  0.00984063  0.79336852  1
  O  O14  1  0.75199518  0.99015937  0.20663148  1
  O  O15  1  0.58113326  0.34548870  0.28524913  1
  O  O16  1  0.41886674  0.65451130  0.71475087  1
  O  O17  1  0.22175393  0.06421709  0.39165557  1
  O  O18  1  0.77824607  0.93578291  0.60834443  1
