# generated using pymatgen
data_TbAgAs2
_symmetry_space_group_name_H-M   'P 1'
_cell_length_a   3.99073300
_cell_length_b   3.99704813
_cell_length_c   10.48224370
_cell_angle_alpha   90.00000000
_cell_angle_beta   90.00000000
_cell_angle_gamma   90.00000000
_symmetry_Int_Tables_number   1
_chemical_formula_structural   TbAgAs2
_chemical_formula_sum   'Tb2 Ag2 As4'
_cell_volume   167.20386125
_cell_formula_units_Z   2
loop_
 _symmetry_equiv_pos_site_id
 _symmetry_equiv_pos_as_xyz
  1  'x, y, z'
loop_
 _atom_site_type_symbol
 _atom_site_label
 _atom_site_symmetry_multiplicity
 _atom_site_fract_x
 _atom_site_fract_y
 _atom_site_fract_z
 _atom_site_occupancy
  Tb  Tb0  1  0.25000000  0.75000000  0.22799655  1
  Tb  Tb1  1  0.75000000  0.25000000  0.77200345  1
  Ag  Ag2  1  0.25000000  0.25000000  0.50012769  1
  Ag  Ag3  1  0.75000000  0.75000000  0.49987231  1
  As  As4  1  0.25000000  0.25000000  0.00017486  1
  As  As5  1  0.75000000  0.75000000  0.99982514  1
  As  As6  1  0.25000000  0.75000000  0.68714242  1
  As  As7  1  0.75000000  0.25000000  0.31285758  1
