# generated using pymatgen
data_Tl3GeF7
_symmetry_space_group_name_H-M   'P 1'
_cell_length_a   5.99707004
_cell_length_b   8.22966901
_cell_length_c   8.22966901
_cell_angle_alpha   90.00000000
_cell_angle_beta   90.00000000
_cell_angle_gamma   90.00000000
_symmetry_Int_Tables_number   1
_chemical_formula_structural   Tl3GeF7
_chemical_formula_sum   'Tl6 Ge2 F14'
_cell_volume   406.16627336
_cell_formula_units_Z   2
loop_
 _symmetry_equiv_pos_site_id
 _symmetry_equiv_pos_as_xyz
  1  'x, y, z'
loop_
 _atom_site_type_symbol
 _atom_site_label
 _atom_site_symmetry_multiplicity
 _atom_site_fract_x
 _atom_site_fract_y
 _atom_site_fract_z
 _atom_site_occupancy
  Tl  Tl0  1  0.50000000  0.20055104  0.70055104  1
  Tl  Tl1  1  0.50000000  0.79944896  0.29944896  1
  Tl  Tl2  1  0.50000000  0.29944896  0.20055104  1
  Tl  Tl3  1  0.50000000  0.70055104  0.79944896  1
  Tl  Tl4  1  -0.00000000  -0.00000000  -0.00000000  1
  Tl  Tl5  1  -0.00000000  0.50000000  0.50000000  1
  Ge  Ge6  1  -0.00000000  -0.00000000  0.50000000  1
  Ge  Ge7  1  0.00000000  0.50000000  -0.00000000  1
  F  F8  1  0.21845662  0.61048427  0.11048427  1
  F  F9  1  0.78154338  0.38951573  0.88951573  1
  F  F10  1  0.21845662  0.38951573  0.88951573  1
  F  F11  1  0.21845662  0.88951573  0.61048427  1
  F  F12  1  0.78154338  0.88951573  0.61048427  1
  F  F13  1  0.78154338  0.61048427  0.11048427  1
  F  F14  1  0.78154338  0.11048427  0.38951573  1
  F  F15  1  0.21845662  0.11048427  0.38951573  1
  F  F16  1  -0.00000000  0.15788034  0.65788034  1
  F  F17  1  0.00000000  0.84211966  0.34211966  1
  F  F18  1  0.00000000  0.34211966  0.15788034  1
  F  F19  1  -0.00000000  0.65788034  0.84211966  1
  F  F20  1  0.50000000  -0.00000000  -0.00000000  1
  F  F21  1  0.50000000  0.50000000  0.50000000  1
