# generated using pymatgen
data_Lu2Cu(GeO3)4
_symmetry_space_group_name_H-M   'P 1'
_cell_length_a   4.97817837
_cell_length_b   7.14697857
_cell_length_c   7.92513857
_cell_angle_alpha   66.11895687
_cell_angle_beta   86.96001631
_cell_angle_gamma   77.54920919
_symmetry_Int_Tables_number   1
_chemical_formula_structural   Lu2Cu(GeO3)4
_chemical_formula_sum   'Lu2 Cu1 Ge4 O12'
_cell_volume   251.57910383
_cell_formula_units_Z   1
loop_
 _symmetry_equiv_pos_site_id
 _symmetry_equiv_pos_as_xyz
  1  'x, y, z'
loop_
 _atom_site_type_symbol
 _atom_site_label
 _atom_site_symmetry_multiplicity
 _atom_site_fract_x
 _atom_site_fract_y
 _atom_site_fract_z
 _atom_site_occupancy
  Lu  Lu0  1  0.03816199  0.77073608  0.45100435  1
  Lu  Lu1  1  0.96183801  0.22926392  0.54899565  1
  Cu  Cu2  1  -0.00000000  0.00000000  0.00000000  1
  Ge  Ge3  1  0.58052470  0.62063527  0.20861774  1
  Ge  Ge4  1  0.41947530  0.37936473  0.79138226  1
  Ge  Ge5  1  0.45533506  0.16365114  0.22473131  1
  Ge  Ge6  1  0.54466494  0.83634886  0.77526869  1
  O  O7  1  0.25414336  0.77748159  0.20049165  1
  O  O8  1  0.74585664  0.22251841  0.79950835  1
  O  O9  1  0.26411513  0.29264028  0.00891690  1
  O  O10  1  0.73588487  0.70735972  0.99108310  1
  O  O11  1  0.20869770  0.42962537  0.60225367  1
  O  O12  1  0.79130230  0.57037463  0.39774633  1
  O  O13  1  0.24821806  0.01171373  0.79215114  1
  O  O14  1  0.75178194  0.98828627  0.20784886  1
  O  O15  1  0.58196749  0.34488847  0.28606224  1
  O  O16  1  0.41803251  0.65511153  0.71393776  1
  O  O17  1  0.21972468  0.06411826  0.39301652  1
  O  O18  1  0.78027532  0.93588174  0.60698348  1
