# generated using pymatgen
data_NdSi3N5
_symmetry_space_group_name_H-M   'P 1'
_cell_length_a   4.80314569
_cell_length_b   7.86220929
_cell_length_c   11.30299733
_cell_angle_alpha   90.00000000
_cell_angle_beta   90.00000000
_cell_angle_gamma   90.00000000
_symmetry_Int_Tables_number   1
_chemical_formula_structural   NdSi3N5
_chemical_formula_sum   'Nd4 Si12 N20'
_cell_volume   426.83889350
_cell_formula_units_Z   4
loop_
 _symmetry_equiv_pos_site_id
 _symmetry_equiv_pos_as_xyz
  1  'x, y, z'
loop_
 _atom_site_type_symbol
 _atom_site_label
 _atom_site_symmetry_multiplicity
 _atom_site_fract_x
 _atom_site_fract_y
 _atom_site_fract_z
 _atom_site_occupancy
  Nd  Nd0  1  0.50296295  0.06024641  0.17072399  1
  Nd  Nd1  1  0.99703705  0.93975359  0.67072399  1
  Nd  Nd2  1  0.49703705  0.56024641  0.32927601  1
  Nd  Nd3  1  0.00296295  0.43975359  0.82927601  1
  Si  Si4  1  0.01669108  0.20713134  0.41668546  1
  Si  Si5  1  0.48330892  0.79286866  0.91668546  1
  Si  Si6  1  0.98330892  0.70713134  0.08331454  1
  Si  Si7  1  0.51669108  0.29286866  0.58331454  1
  Si  Si8  1  0.52404719  0.46693304  0.04111502  1
  Si  Si9  1  0.97595281  0.53306696  0.54111502  1
  Si  Si10  1  0.47595281  0.96693304  0.45888498  1
  Si  Si11  1  0.02404719  0.03306696  0.95888498  1
  Si  Si12  1  0.01454487  0.33792020  0.16107677  1
  Si  Si13  1  0.48545513  0.66207980  0.66107677  1
  Si  Si14  1  0.98545513  0.83792020  0.33892323  1
  Si  Si15  1  0.51454487  0.16207980  0.83892323  1
  N  N16  1  0.16872486  0.29382380  0.29485710  1
  N  N17  1  0.33127514  0.70617620  0.79485710  1
  N  N18  1  0.83127514  0.79382380  0.20514290  1
  N  N19  1  0.66872486  0.20617620  0.70514290  1
  N  N20  1  0.18454424  0.51847059  0.09318428  1
  N  N21  1  0.31545576  0.48152941  0.59318428  1
  N  N22  1  0.81545576  0.01847059  0.40681572  1
  N  N23  1  0.68454424  0.98152941  0.90681572  1
  N  N24  1  0.66938737  0.38835730  0.16855813  1
  N  N25  1  0.83061263  0.61164270  0.66855813  1
  N  N26  1  0.33061263  0.88835730  0.33144187  1
  N  N27  1  0.16938737  0.11164270  0.83144187  1
  N  N28  1  0.04700272  0.15707406  0.08042319  1
  N  N29  1  0.45299728  0.84292594  0.58042319  1
  N  N30  1  0.95299728  0.65707406  0.41957681  1
  N  N31  1  0.54700272  0.34292594  0.91957681  1
  N  N32  1  0.29474330  0.14941333  0.51098736  1
  N  N33  1  0.20525670  0.85058667  0.01098736  1
  N  N34  1  0.70525670  0.64941333  0.98901264  1
  N  N35  1  0.79474330  0.35058667  0.48901264  1
