# generated using pymatgen
data_NaSrTiF6
_symmetry_space_group_name_H-M   'P 1'
_cell_length_a   5.52222278
_cell_length_b   9.61513685
_cell_length_c   10.46386623
_cell_angle_alpha   90.00000000
_cell_angle_beta   90.00000000
_cell_angle_gamma   90.00000000
_symmetry_Int_Tables_number   1
_chemical_formula_structural   NaSrTiF6
_chemical_formula_sum   'Na4 Sr4 Ti4 F24'
_cell_volume   555.59914916
_cell_formula_units_Z   4
loop_
 _symmetry_equiv_pos_site_id
 _symmetry_equiv_pos_as_xyz
  1  'x, y, z'
loop_
 _atom_site_type_symbol
 _atom_site_label
 _atom_site_symmetry_multiplicity
 _atom_site_fract_x
 _atom_site_fract_y
 _atom_site_fract_z
 _atom_site_occupancy
  Na  Na0  1  0.04389405  0.64790409  0.08460627  1
  Na  Na1  1  0.45610595  0.35209591  0.58460627  1
  Na  Na2  1  0.95610595  0.14790409  0.41539373  1
  Na  Na3  1  0.54389405  0.85209591  0.91539373  1
  Sr  Sr4  1  0.50649064  0.31283467  0.17571734  1
  Sr  Sr5  1  0.99350936  0.68716533  0.67571734  1
  Sr  Sr6  1  0.49350936  0.81283467  0.32428266  1
  Sr  Sr7  1  0.00649064  0.18716533  0.82428266  1
  Ti  Ti8  1  0.03735680  -0.00066097  0.12586920  1
  Ti  Ti9  1  0.46264320  0.00066097  0.62586920  1
  Ti  Ti10  1  0.96264320  0.49933903  0.37413080  1
  Ti  Ti11  1  0.53735680  0.50066097  0.87413080  1
  F  F12  1  0.20642293  0.14443975  0.58805104  1
  F  F13  1  0.29357707  0.85556025  0.08805104  1
  F  F14  1  0.79357707  0.64443975  0.91194896  1
  F  F15  1  0.70642293  0.35556025  0.41194896  1
  F  F16  1  0.21388199  0.62401458  0.29575184  1
  F  F17  1  0.28611801  0.37598542  0.79575184  1
  F  F18  1  0.78611801  0.12401458  0.20424816  1
  F  F19  1  0.71388199  0.87598542  0.70424816  1
  F  F20  1  0.22079607  0.16338806  0.04619421  1
  F  F21  1  0.27920393  0.83661194  0.54619421  1
  F  F22  1  0.77920393  0.66338806  0.45380579  1
  F  F23  1  0.72079607  0.33661194  0.95380579  1
  F  F24  1  0.16163421  0.33590912  0.31690379  1
  F  F25  1  0.33836579  0.66409088  0.81690379  1
  F  F26  1  0.83836579  0.83590912  0.18309621  1
  F  F27  1  0.66163421  0.16409088  0.68309621  1
  F  F28  1  0.35714442  0.50280115  0.03425292  1
  F  F29  1  0.14285558  0.49719885  0.53425292  1
  F  F30  1  0.64285558  0.00280115  0.46574708  1
  F  F31  1  0.85714442  0.99719885  0.96574708  1
  F  F32  1  0.22070657  0.01931190  0.28554894  1
  F  F33  1  0.27929343  0.98068810  0.78554894  1
  F  F34  1  0.77929343  0.51931190  0.21445106  1
  F  F35  1  0.72070657  0.48068810  0.71445106  1
