# generated using pymatgen
data_RbSbClF3
_symmetry_space_group_name_H-M   'P 1'
_cell_length_a   8.23839125
_cell_length_b   8.53066561
_cell_length_c   15.41551681
_cell_angle_alpha   90.00000000
_cell_angle_beta   90.00000000
_cell_angle_gamma   90.00000000
_symmetry_Int_Tables_number   1
_chemical_formula_structural   RbSbClF3
_chemical_formula_sum   'Rb8 Sb8 Cl8 F24'
_cell_volume   1083.38650342
_cell_formula_units_Z   8
loop_
 _symmetry_equiv_pos_site_id
 _symmetry_equiv_pos_as_xyz
  1  'x, y, z'
loop_
 _atom_site_type_symbol
 _atom_site_label
 _atom_site_symmetry_multiplicity
 _atom_site_fract_x
 _atom_site_fract_y
 _atom_site_fract_z
 _atom_site_occupancy
  Rb  Rb0  1  0.18154120  0.19247164  0.44224086  1
  Rb  Rb1  1  0.81845880  0.80752836  0.55775914  1
  Rb  Rb2  1  0.31845880  0.80752836  0.94224086  1
  Rb  Rb3  1  0.81845880  0.69247164  0.05775914  1
  Rb  Rb4  1  0.68154120  0.19247164  0.05775914  1
  Rb  Rb5  1  0.18154120  0.30752836  0.94224086  1
  Rb  Rb6  1  0.68154120  0.30752836  0.55775914  1
  Rb  Rb7  1  0.31845880  0.69247164  0.44224086  1
  Sb  Sb8  1  0.12902437  0.00356668  0.17572569  1
  Sb  Sb9  1  0.87097563  0.99643332  0.82427431  1
  Sb  Sb10  1  0.37097563  0.99643332  0.67572569  1
  Sb  Sb11  1  0.87097563  0.50356668  0.32427431  1
  Sb  Sb12  1  0.62902437  0.00356668  0.32427431  1
  Sb  Sb13  1  0.12902437  0.49643332  0.67572569  1
  Sb  Sb14  1  0.62902437  0.49643332  0.82427431  1
  Sb  Sb15  1  0.37097563  0.50356668  0.17572569  1
  Cl  Cl16  1  0.01834372  0.37811441  0.14973636  1
  Cl  Cl17  1  0.98165628  0.62188559  0.85026364  1
  Cl  Cl18  1  0.48165628  0.62188559  0.64973636  1
  Cl  Cl19  1  0.98165628  0.87811441  0.35026364  1
  Cl  Cl20  1  0.51834372  0.37811441  0.35026364  1
  Cl  Cl21  1  0.01834372  0.12188559  0.64973636  1
  Cl  Cl22  1  0.51834372  0.12188559  0.85026364  1
  Cl  Cl23  1  0.48165628  0.87811441  0.14973636  1
  F  F24  1  0.15788292  0.04251023  0.04997006  1
  F  F25  1  0.84211708  0.95748977  0.95002994  1
  F  F26  1  0.34211708  0.95748977  0.54997006  1
  F  F27  1  0.84211708  0.54251023  0.45002994  1
  F  F28  1  0.65788292  0.04251023  0.45002994  1
  F  F29  1  0.15788292  0.45748977  0.54997006  1
  F  F30  1  0.65788292  0.45748977  0.95002994  1
  F  F31  1  0.34211708  0.54251023  0.04997006  1
  F  F32  1  0.39120306  0.00303318  0.34562282  1
  F  F33  1  0.60879694  0.99696682  0.65437718  1
  F  F34  1  0.10879694  0.99696682  0.84562282  1
  F  F35  1  0.60879694  0.50303318  0.15437718  1
  F  F36  1  0.89120306  0.00303318  0.15437718  1
  F  F37  1  0.39120306  0.49696682  0.84562282  1
  F  F38  1  0.89120306  0.49696682  0.65437718  1
  F  F39  1  0.10879694  0.50303318  0.34562282  1
  F  F40  1  0.38702781  0.27894512  0.14641184  1
  F  F41  1  0.61297219  0.72105488  0.85358816  1
  F  F42  1  0.11297219  0.72105488  0.64641184  1
  F  F43  1  0.61297219  0.77894512  0.35358816  1
  F  F44  1  0.88702781  0.27894512  0.35358816  1
  F  F45  1  0.38702781  0.22105488  0.64641184  1
  F  F46  1  0.88702781  0.22105488  0.85358816  1
  F  F47  1  0.11297219  0.77894512  0.14641184  1
