# generated using pymatgen
data_Rb2YCl5
_symmetry_space_group_name_H-M   'P 1'
_cell_length_a   7.47468601
_cell_length_b   9.61066865
_cell_length_c   14.88340749
_cell_angle_alpha   90.00000000
_cell_angle_beta   90.00000000
_cell_angle_gamma   90.00000000
_symmetry_Int_Tables_number   1
_chemical_formula_structural   Rb2YCl5
_chemical_formula_sum   'Rb8 Y4 Cl20'
_cell_volume   1069.17533285
_cell_formula_units_Z   4
loop_
 _symmetry_equiv_pos_site_id
 _symmetry_equiv_pos_as_xyz
  1  'x, y, z'
loop_
 _atom_site_type_symbol
 _atom_site_label
 _atom_site_symmetry_multiplicity
 _atom_site_fract_x
 _atom_site_fract_y
 _atom_site_fract_z
 _atom_site_occupancy
  Rb  Rb0  1  0.75000000  0.83748635  0.58252975  1
  Rb  Rb1  1  0.25000000  0.16251365  0.41747025  1
  Rb  Rb2  1  0.25000000  0.66251365  0.08252975  1
  Rb  Rb3  1  0.75000000  0.33748635  0.91747025  1
  Rb  Rb4  1  0.75000000  0.52220195  0.28756312  1
  Rb  Rb5  1  0.25000000  0.47779805  0.71243688  1
  Rb  Rb6  1  0.25000000  0.97779805  0.78756312  1
  Rb  Rb7  1  0.75000000  0.02220195  0.21243688  1
  Y  Y8  1  0.75000000  0.81810502  0.93420635  1
  Y  Y9  1  0.25000000  0.18189498  0.06579365  1
  Y  Y10  1  0.25000000  0.68189498  0.43420635  1
  Y  Y11  1  0.75000000  0.31810502  0.56579365  1
  Cl  Cl12  1  0.75000000  0.97923945  0.79280163  1
  Cl  Cl13  1  0.25000000  0.02076055  0.20719837  1
  Cl  Cl14  1  0.25000000  0.52076055  0.29280163  1
  Cl  Cl15  1  0.75000000  0.47923945  0.70719837  1
  Cl  Cl16  1  0.48964043  0.66168040  0.88198047  1
  Cl  Cl17  1  0.51035957  0.33831960  0.11801953  1
  Cl  Cl18  1  0.51035957  0.83831960  0.38198047  1
  Cl  Cl19  1  0.98964043  0.33831960  0.11801953  1
  Cl  Cl20  1  0.48964043  0.16168040  0.61801953  1
  Cl  Cl21  1  0.01035957  0.66168040  0.88198047  1
  Cl  Cl22  1  0.01035957  0.16168040  0.61801953  1
  Cl  Cl23  1  0.98964043  0.83831960  0.38198047  1
  Cl  Cl24  1  0.75000000  0.71362566  0.10035246  1
  Cl  Cl25  1  0.25000000  0.28637434  0.89964754  1
  Cl  Cl26  1  0.25000000  0.78637434  0.60035246  1
  Cl  Cl27  1  0.75000000  0.21362566  0.39964754  1
  Cl  Cl28  1  -0.00000000  -0.00000000  -0.00000000  1
  Cl  Cl29  1  -0.00000000  0.50000000  0.50000000  1
  Cl  Cl30  1  0.50000000  -0.00000000  -0.00000000  1
  Cl  Cl31  1  0.50000000  0.50000000  0.50000000  1
