# generated using pymatgen
data_Tb2Sn3(PbS4)3
_symmetry_space_group_name_H-M   'P 1'
_cell_length_a   3.95635870
_cell_length_b   11.69057432
_cell_length_c   20.54841402
_cell_angle_alpha   90.00000000
_cell_angle_beta   90.00000000
_cell_angle_gamma   90.00000000
_symmetry_Int_Tables_number   1
_chemical_formula_structural   Tb2Sn3(PbS4)3
_chemical_formula_sum   'Tb4 Sn6 Pb6 S24'
_cell_volume   950.40741144
_cell_formula_units_Z   2
loop_
 _symmetry_equiv_pos_site_id
 _symmetry_equiv_pos_as_xyz
  1  'x, y, z'
loop_
 _atom_site_type_symbol
 _atom_site_label
 _atom_site_symmetry_multiplicity
 _atom_site_fract_x
 _atom_site_fract_y
 _atom_site_fract_z
 _atom_site_occupancy
  Tb  Tb0  1  0.50000000  0.64783651  0.41235361  1
  Tb  Tb1  1  0.50000000  0.14783651  0.58764639  1
  Tb  Tb2  1  0.50000000  0.82545742  0.89484238  1
  Tb  Tb3  1  0.50000000  0.32545742  0.10515762  1
  Sn  Sn4  1  0.00000000  0.00177347  0.75026933  1
  Sn  Sn5  1  0.00000000  0.50177347  0.24973067  1
  Sn  Sn6  1  -0.00000000  0.51929392  0.91201038  1
  Sn  Sn7  1  -0.00000000  0.01929392  0.08798962  1
  Sn  Sn8  1  -0.00000000  0.99302630  0.42623521  1
  Sn  Sn9  1  -0.00000000  0.49302630  0.57376479  1
  Pb  Pb10  1  0.50000000  0.40431920  0.74157923  1
  Pb  Pb11  1  0.50000000  0.90431920  0.25842077  1
  Pb  Pb12  1  0.50000000  0.19927306  0.91396020  1
  Pb  Pb13  1  0.50000000  0.69927306  0.08603980  1
  Pb  Pb14  1  0.50000000  0.77156360  0.62215129  1
  Pb  Pb15  1  0.50000000  0.27156360  0.37784871  1
  S  S16  1  -0.00000000  0.99186005  0.87570898  1
  S  S17  1  0.00000000  0.49186005  0.12429102  1
  S  S18  1  -0.00000000  0.98366813  0.62611356  1
  S  S19  1  -0.00000000  0.48366813  0.37388644  1
  S  S20  1  -0.00000000  0.68275626  0.50925434  1
  S  S21  1  -0.00000000  0.18275626  0.49074566  1
  S  S22  1  0.50000000  0.64658342  0.25846378  1
  S  S23  1  0.50000000  0.14658342  0.74153622  1
  S  S24  1  0.50000000  0.85022049  0.75703431  1
  S  S25  1  0.50000000  0.35022049  0.24296569  1
  S  S26  1  0.50000000  0.60149073  0.84146498  1
  S  S27  1  0.50000000  0.10149073  0.15853502  1
  S  S28  1  0.50000000  0.43664503  0.98234461  1
  S  S29  1  0.50000000  0.93664503  0.01765539  1
  S  S30  1  0.50000000  0.93654226  0.49242095  1
  S  S31  1  0.50000000  0.43654226  0.50757905  1
  S  S32  1  -0.00000000  0.33798802  0.84268878  1
  S  S33  1  -0.00000000  0.83798802  0.15731122  1
  S  S34  1  -0.00000000  0.71385699  0.97001132  1
  S  S35  1  -0.00000000  0.21385699  0.02998868  1
  S  S36  1  -0.00000000  0.80450592  0.36076427  1
  S  S37  1  -0.00000000  0.30450592  0.63923573  1
  S  S38  1  0.00000000  0.60063923  0.67638973  1
  S  S39  1  -0.00000000  0.10063923  0.32361027  1
