# generated using pymatgen
data_RbFeAgF6
_symmetry_space_group_name_H-M   'P 1'
_cell_length_a   7.46822083
_cell_length_b   7.72248724
_cell_length_c   10.64789421
_cell_angle_alpha   90.00000000
_cell_angle_beta   90.00000000
_cell_angle_gamma   90.00000000
_symmetry_Int_Tables_number   1
_chemical_formula_structural   RbFeAgF6
_chemical_formula_sum   'Rb4 Fe4 Ag4 F24'
_cell_volume   614.09855896
_cell_formula_units_Z   4
loop_
 _symmetry_equiv_pos_site_id
 _symmetry_equiv_pos_as_xyz
  1  'x, y, z'
loop_
 _atom_site_type_symbol
 _atom_site_label
 _atom_site_symmetry_multiplicity
 _atom_site_fract_x
 _atom_site_fract_y
 _atom_site_fract_z
 _atom_site_occupancy
  Rb  Rb0  1  0.01665992  0.25000000  0.63422489  1
  Rb  Rb1  1  0.98334008  0.75000000  0.36577511  1
  Rb  Rb2  1  0.48334008  0.75000000  0.13422489  1
  Rb  Rb3  1  0.51665992  0.25000000  0.86577511  1
  Fe  Fe4  1  -0.00000000  -0.00000000  0.00000000  1
  Fe  Fe5  1  0.50000000  -0.00000000  0.50000000  1
  Fe  Fe6  1  0.00000000  0.50000000  0.00000000  1
  Fe  Fe7  1  0.50000000  0.50000000  0.50000000  1
  Ag  Ag8  1  0.21085262  0.25000000  0.25235905  1
  Ag  Ag9  1  0.78914738  0.75000000  0.74764095  1
  Ag  Ag10  1  0.28914738  0.75000000  0.75235905  1
  Ag  Ag11  1  0.71085262  0.25000000  0.24764095  1
  F  F12  1  0.28332853  0.03753339  0.40388962  1
  F  F13  1  0.71667147  0.96246661  0.59611038  1
  F  F14  1  0.21667147  0.96246661  0.90388962  1
  F  F15  1  0.71667147  0.53753339  0.59611038  1
  F  F16  1  0.78332853  0.03753339  0.09611038  1
  F  F17  1  0.28332853  0.46246661  0.40388962  1
  F  F18  1  0.78332853  0.46246661  0.09611038  1
  F  F19  1  0.21667147  0.53753339  0.90388962  1
  F  F20  1  0.55242767  0.25000000  0.50811299  1
  F  F21  1  0.44757233  0.75000000  0.49188701  1
  F  F22  1  0.94757233  0.75000000  0.00811299  1
  F  F23  1  0.05242767  0.25000000  0.99188701  1
  F  F24  1  0.14194684  0.51621301  0.15566129  1
  F  F25  1  0.85805316  0.48378699  0.84433871  1
  F  F26  1  0.35805316  0.48378699  0.65566129  1
  F  F27  1  0.85805316  0.01621301  0.84433871  1
  F  F28  1  0.64194684  0.51621301  0.34433871  1
  F  F29  1  0.14194684  0.98378699  0.15566129  1
  F  F30  1  0.64194684  0.98378699  0.34433871  1
  F  F31  1  0.35805316  0.01621301  0.65566129  1
  F  F32  1  0.45970344  0.25000000  0.16805959  1
  F  F33  1  0.54029656  0.75000000  0.83194041  1
  F  F34  1  0.04029656  0.75000000  0.66805959  1
  F  F35  1  0.95970344  0.25000000  0.33194041  1
