# generated using pymatgen
data_Ce2Se4O17
_symmetry_space_group_name_H-M   'P 1'
_cell_length_a   9.41200537
_cell_length_b   9.66699255
_cell_length_c   10.18678978
_cell_angle_alpha   113.42701065
_cell_angle_beta   112.51848516
_cell_angle_gamma   99.58287013
_symmetry_Int_Tables_number   1
_chemical_formula_structural   Ce2Se4O17
_chemical_formula_sum   'Ce4 Se8 O34'
_cell_volume   727.94542352
_cell_formula_units_Z   2
loop_
 _symmetry_equiv_pos_site_id
 _symmetry_equiv_pos_as_xyz
  1  'x, y, z'
loop_
 _atom_site_type_symbol
 _atom_site_label
 _atom_site_symmetry_multiplicity
 _atom_site_fract_x
 _atom_site_fract_y
 _atom_site_fract_z
 _atom_site_occupancy
  Ce  Ce0  1  0.82095941  0.78837631  0.27460269  1
  Ce  Ce1  1  0.04635672  0.51377362  0.72539731  1
  Ce  Ce2  1  0.22584574  0.19495174  0.08269441  1
  Ce  Ce3  1  0.64315134  0.11225733  0.91730559  1
  Se  Se4  1  0.03216869  0.20393440  0.32647818  1
  Se  Se5  1  0.20569051  0.87745621  0.67352182  1
  Se  Se6  1  0.41359368  0.40118820  0.90484980  1
  Se  Se7  1  0.00874389  0.49633840  0.09515020  1
  Se  Se8  1  0.85614023  0.80796429  0.90287753  1
  Se  Se9  1  0.45326270  0.90508676  0.09712247  1
  Se  Se10  1  0.83534785  0.09937960  0.67421605  1
  Se  Se11  1  0.66113180  0.42516355  0.32578395  1
  O  O12  1  0.06107662  0.37869341  0.47506230  1
  O  O13  1  0.08601432  0.90363111  0.52493770  1
  O  O14  1  0.88436303  0.16308154  0.14269533  1
  O  O15  1  0.24166770  0.02038621  0.85730467  1
  O  O16  1  0.20891990  0.22122668  0.32053617  1
  O  O17  1  0.38838373  0.90069051  0.67946383  1
  O  O18  1  0.97258545  0.04996020  0.35511865  1
  O  O19  1  0.11746680  0.69484155  0.64488135  1
  O  O20  1  0.46051280  0.24433614  0.81398408  1
  O  O21  1  0.14652872  0.43035206  0.18601592  1
  O  O22  1  0.31776980  0.36730249  0.00414573  1
  O  O23  1  0.81362407  0.36315676  0.99585427  1
  O  O24  1  0.58541545  0.56949701  0.04098624  1
  O  O25  1  0.04442921  0.52851077  0.95901376  1
  O  O26  1  0.28036366  0.42814010  0.76159373  1
  O  O27  1  0.01876993  0.66654637  0.23840627  1
  O  O28  1  0.71622643  0.87299532  0.81219517  1
  O  O29  1  0.40403126  0.06080015  0.18780483  1
  O  O30  1  0.85405958  0.64391329  0.75831937  1
  O  O31  1  0.59574021  0.88559392  0.24168063  1
  O  O32  1  0.04891813  0.94792573  0.00999617  1
  O  O33  1  0.53892195  0.93792955  0.99000383  1
  O  O34  1  0.81313391  0.76459750  0.02978666  1
  O  O35  1  0.28334725  0.73481084  0.97021334  1
  O  O36  1  0.80707918  0.92167693  0.52997181  1
  O  O37  1  0.77710737  0.39170511  0.47002819  1
  O  O38  1  0.65950013  0.09129473  0.67970050  1
  O  O39  1  0.47979963  0.41159423  0.32029950  1
  O  O40  1  0.90363975  0.24765406  0.64112681  1
  O  O41  1  0.76251294  0.60652725  0.35887319  1
  O  O42  1  0.97585868  0.14420833  0.86338932  1
  O  O43  1  0.61246936  0.28081901  0.13661068  1
  O  O44  1  0.42088594  0.58596608  0.58926143  1
  O  O45  1  0.33162451  0.99670465  0.41073857  1
