# generated using pymatgen
data_Pr2InCuSe5
_symmetry_space_group_name_H-M   'P 1'
_cell_length_a   4.10519116
_cell_length_b   12.16225717
_cell_length_c   17.56260849
_cell_angle_alpha   90.00000000
_cell_angle_beta   90.00000000
_cell_angle_gamma   90.00000000
_symmetry_Int_Tables_number   1
_chemical_formula_structural   Pr2InCuSe5
_chemical_formula_sum   'Pr8 In4 Cu4 Se20'
_cell_volume   876.87277699
_cell_formula_units_Z   4
loop_
 _symmetry_equiv_pos_site_id
 _symmetry_equiv_pos_as_xyz
  1  'x, y, z'
loop_
 _atom_site_type_symbol
 _atom_site_label
 _atom_site_symmetry_multiplicity
 _atom_site_fract_x
 _atom_site_fract_y
 _atom_site_fract_z
 _atom_site_occupancy
  Pr  Pr0  1  0.75000000  0.97945273  0.67908754  1
  Pr  Pr1  1  0.25000000  0.02054727  0.32091246  1
  Pr  Pr2  1  0.25000000  0.52054727  0.17908754  1
  Pr  Pr3  1  0.75000000  0.47945273  0.82091246  1
  Pr  Pr4  1  0.75000000  0.63660146  0.59398726  1
  Pr  Pr5  1  0.25000000  0.36339854  0.40601274  1
  Pr  Pr6  1  0.25000000  0.86339854  0.09398726  1
  Pr  Pr7  1  0.75000000  0.13660146  0.90601274  1
  In  In8  1  0.75000000  0.69232776  0.36097848  1
  In  In9  1  0.25000000  0.30767224  0.63902152  1
  In  In10  1  0.25000000  0.80767224  0.86097848  1
  In  In11  1  0.75000000  0.19232776  0.13902152  1
  Cu  Cu12  1  0.75000000  0.57983484  0.99674003  1
  Cu  Cu13  1  0.25000000  0.42016516  0.00325997  1
  Cu  Cu14  1  0.25000000  0.92016516  0.49674003  1
  Cu  Cu15  1  0.75000000  0.07983484  0.50325997  1
  Se  Se16  1  0.75000000  0.89990823  0.42226485  1
  Se  Se17  1  0.25000000  0.10009177  0.57773515  1
  Se  Se18  1  0.25000000  0.60009177  0.92226485  1
  Se  Se19  1  0.75000000  0.39990823  0.07773515  1
  Se  Se20  1  0.75000000  0.68161868  0.11418236  1
  Se  Se21  1  0.25000000  0.31838132  0.88581764  1
  Se  Se22  1  0.25000000  0.81838132  0.61418236  1
  Se  Se23  1  0.75000000  0.18161868  0.38581764  1
  Se  Se24  1  0.75000000  0.73905983  0.76932815  1
  Se  Se25  1  0.25000000  0.26094017  0.23067185  1
  Se  Se26  1  0.25000000  0.76094017  0.26932815  1
  Se  Se27  1  0.75000000  0.23905983  0.73067185  1
  Se  Se28  1  0.75000000  0.89190651  0.96376576  1
  Se  Se29  1  0.25000000  0.10809349  0.03623424  1
  Se  Se30  1  0.25000000  0.60809349  0.46376576  1
  Se  Se31  1  0.75000000  0.39190651  0.53623424  1
  Se  Se32  1  0.75000000  0.98462782  0.19383779  1
  Se  Se33  1  0.25000000  0.01537218  0.80616221  1
  Se  Se34  1  0.25000000  0.51537218  0.69383779  1
  Se  Se35  1  0.75000000  0.48462782  0.30616221  1
