# generated using pymatgen
data_Sc11Ga10
_symmetry_space_group_name_H-M   'P 1'
_cell_length_a   10.45773901
_cell_length_b   10.45773901
_cell_length_c   10.65856054
_cell_angle_alpha   119.37866391
_cell_angle_beta   119.37866391
_cell_angle_gamma   90.00000000
_symmetry_Int_Tables_number   1
_chemical_formula_structural   Sc11Ga10
_chemical_formula_sum   'Sc22 Ga20'
_cell_volume   839.49317829
_cell_formula_units_Z   2
loop_
 _symmetry_equiv_pos_site_id
 _symmetry_equiv_pos_as_xyz
  1  'x, y, z'
loop_
 _atom_site_type_symbol
 _atom_site_label
 _atom_site_symmetry_multiplicity
 _atom_site_fract_x
 _atom_site_fract_y
 _atom_site_fract_z
 _atom_site_occupancy
  Sc  Sc0  1  0.16781706  0.16781706  0.33563411  1
  Sc  Sc1  1  0.83218294  0.83218294  0.66436589  1
  Sc  Sc2  1  0.32461476  0.32461476  0.00000000  1
  Sc  Sc3  1  0.67538524  0.67538524  1.00000000  1
  Sc  Sc4  1  0.67538524  0.32461476  0.00000000  1
  Sc  Sc5  1  0.32461476  0.67538524  -0.00000000  1
  Sc  Sc6  1  0.10539816  0.43417261  0.21079632  1
  Sc  Sc7  1  0.89460184  0.56582739  0.78920368  1
  Sc  Sc8  1  0.10539816  0.77662370  0.21079632  1
  Sc  Sc9  1  0.77662370  0.10539816  0.21079632  1
  Sc  Sc10  1  0.89460184  0.22337630  0.78920368  1
  Sc  Sc11  1  0.22337630  0.89460184  0.78920368  1
  Sc  Sc12  1  0.43417261  0.10539816  0.21079632  1
  Sc  Sc13  1  0.56582739  0.89460184  0.78920368  1
  Sc  Sc14  1  0.31437747  0.56150834  0.62875493  1
  Sc  Sc15  1  0.68562253  0.43849166  0.37124507  1
  Sc  Sc16  1  0.31437747  0.06724659  0.62875493  1
  Sc  Sc17  1  0.06724659  0.31437747  0.62875493  1
  Sc  Sc18  1  0.68562253  0.93275341  0.37124507  1
  Sc  Sc19  1  0.93275341  0.68562253  0.37124507  1
  Sc  Sc20  1  0.56150834  0.31437747  0.62875493  1
  Sc  Sc21  1  0.43849166  0.68562253  0.37124507  1
  Ga  Ga22  1  0.38272193  0.38272193  0.35252483  1
  Ga  Ga23  1  0.61727807  0.61727807  0.64747517  1
  Ga  Ga24  1  0.96980289  0.96980289  0.35252483  1
  Ga  Ga25  1  0.96980289  0.38272193  0.35252483  1
  Ga  Ga26  1  0.61727807  0.03019711  0.64747517  1
  Ga  Ga27  1  0.03019711  0.03019711  0.64747517  1
  Ga  Ga28  1  0.03019711  0.61727807  0.64747517  1
  Ga  Ga29  1  0.38272193  0.96980289  0.35252483  1
  Ga  Ga30  1  0.39158082  0.39158082  0.78316165  1
  Ga  Ga31  1  0.60841918  0.60841918  0.21683835  1
  Ga  Ga32  1  0.12577760  0.12577760  1.00000000  1
  Ga  Ga33  1  0.87422240  0.87422240  0.00000000  1
  Ga  Ga34  1  0.87422240  0.12577760  0.00000000  1
  Ga  Ga35  1  0.12577760  0.87422240  -0.00000000  1
  Ga  Ga36  1  0.25000000  0.75000000  0.50000000  1
  Ga  Ga37  1  0.75000000  0.25000000  0.50000000  1
  Ga  Ga38  1  0.13288295  0.50000000  0.00000000  1
  Ga  Ga39  1  0.86711705  0.50000000  1.00000000  1
  Ga  Ga40  1  0.50000000  0.13288295  0.00000000  1
  Ga  Ga41  1  0.50000000  0.86711705  1.00000000  1
