# generated using pymatgen
data_CsRbMo3O10
_symmetry_space_group_name_H-M   'P 1'
_cell_length_a   8.54657783
_cell_length_b   8.65324022
_cell_length_c   8.75867325
_cell_angle_alpha   63.23731782
_cell_angle_beta   85.64921400
_cell_angle_gamma   74.63293099
_symmetry_Int_Tables_number   1
_chemical_formula_structural   CsRbMo3O10
_chemical_formula_sum   'Cs2 Rb2 Mo6 O20'
_cell_volume   556.97613550
_cell_formula_units_Z   2
loop_
 _symmetry_equiv_pos_site_id
 _symmetry_equiv_pos_as_xyz
  1  'x, y, z'
loop_
 _atom_site_type_symbol
 _atom_site_label
 _atom_site_symmetry_multiplicity
 _atom_site_fract_x
 _atom_site_fract_y
 _atom_site_fract_z
 _atom_site_occupancy
  Cs  Cs0  1  0.30867493  0.73354318  0.09028261  1
  Cs  Cs1  1  0.69132507  0.26645682  0.90971739  1
  Rb  Rb2  1  0.15373670  0.47606206  0.72630898  1
  Rb  Rb3  1  0.84626330  0.52393794  0.27369102  1
  Mo  Mo4  1  0.54726544  0.19584253  0.46543961  1
  Mo  Mo5  1  0.45273456  0.80415747  0.53456039  1
  Mo  Mo6  1  0.03317189  0.06050908  0.64433398  1
  Mo  Mo7  1  0.96682811  0.93949092  0.35566602  1
  Mo  Mo8  1  0.23481506  0.15895785  0.19757626  1
  Mo  Mo9  1  0.76518494  0.84104215  0.80242374  1
  O  O10  1  0.05534790  0.09283144  0.14021870  1
  O  O11  1  0.94465210  0.90716856  0.85978130  1
  O  O12  1  0.03179972  0.14743278  0.40234051  1
  O  O13  1  0.96820028  0.85256722  0.59765949  1
  O  O14  1  0.40395567  0.09719298  0.37556770  1
  O  O15  1  0.59604433  0.90280702  0.62443230  1
  O  O16  1  0.73319172  0.13245850  0.60516831  1
  O  O17  1  0.26680828  0.86754150  0.39483169  1
  O  O18  1  0.35978885  0.13573865  0.03862805  1
  O  O19  1  0.64021115  0.86426135  0.96137195  1
  O  O20  1  0.75802462  0.03487168  0.30416448  1
  O  O21  1  0.24197538  0.96512832  0.69583552  1
  O  O22  1  0.57387902  0.37346393  0.27083922  1
  O  O23  1  0.42612098  0.62653607  0.72916078  1
  O  O24  1  0.17120034  0.39207957  0.12115355  1
  O  O25  1  0.82879966  0.60792043  0.87884645  1
  O  O26  1  0.01125708  0.73810948  0.33778855  1
  O  O27  1  0.98874292  0.26189052  0.66221145  1
  O  O28  1  0.40006772  0.29916181  0.56112015  1
  O  O29  1  0.59993228  0.70083819  0.43887985  1
