# generated using pymatgen
data_Dy(GaCo)6
_symmetry_space_group_name_H-M   'P 1'
_cell_length_a   5.04565095
_cell_length_b   6.45483862
_cell_length_c   6.45483862
_cell_angle_alpha   83.77910098
_cell_angle_beta   66.99306565
_cell_angle_gamma   66.99306565
_symmetry_Int_Tables_number   1
_chemical_formula_structural   Dy(GaCo)6
_chemical_formula_sum   'Dy1 Ga6 Co6'
_cell_volume   177.86825787
_cell_formula_units_Z   1
loop_
 _symmetry_equiv_pos_site_id
 _symmetry_equiv_pos_as_xyz
  1  'x, y, z'
loop_
 _atom_site_type_symbol
 _atom_site_label
 _atom_site_symmetry_multiplicity
 _atom_site_fract_x
 _atom_site_fract_y
 _atom_site_fract_z
 _atom_site_occupancy
  Dy  Dy0  1  -0.00000000  0.00000000  0.00000000  1
  Ga  Ga1  1  0.00000000  0.34491570  0.65508430  1
  Ga  Ga2  1  -0.00000000  0.65508430  0.34491570  1
  Ga  Ga3  1  0.34072475  0.65927525  0.65927525  1
  Ga  Ga4  1  0.65927525  0.34072475  0.34072475  1
  Ga  Ga5  1  0.50000000  0.18721893  0.81278107  1
  Ga  Ga6  1  0.50000000  0.81278107  0.18721893  1
  Co  Co7  1  0.26134368  0.23865632  0.23865632  1
  Co  Co8  1  0.73865632  0.76134368  0.76134368  1
  Co  Co9  1  0.50000000  0.00000000  0.50000000  1
  Co  Co10  1  0.50000000  0.50000000  0.00000000  1
  Co  Co11  1  -0.00000000  0.50000000  0.00000000  1
  Co  Co12  1  -0.00000000  0.00000000  0.50000000  1
