# generated using pymatgen
data_K3Au3I8
_symmetry_space_group_name_H-M   'P 1'
_cell_length_a   7.91401779
_cell_length_b   7.91401779
_cell_length_c   20.68141975
_cell_angle_alpha   84.38241627
_cell_angle_beta   84.38241627
_cell_angle_gamma   64.52629484
_symmetry_Int_Tables_number   1
_chemical_formula_structural   K3Au3I8
_chemical_formula_sum   'K6 Au6 I16'
_cell_volume   1161.52366370
_cell_formula_units_Z   2
loop_
 _symmetry_equiv_pos_site_id
 _symmetry_equiv_pos_as_xyz
  1  'x, y, z'
loop_
 _atom_site_type_symbol
 _atom_site_label
 _atom_site_symmetry_multiplicity
 _atom_site_fract_x
 _atom_site_fract_y
 _atom_site_fract_z
 _atom_site_occupancy
  K  K0  1  0.32077101  0.31416555  0.58484707  1
  K  K1  1  0.67922899  0.68583445  0.41515293  1
  K  K2  1  0.68583445  0.67922899  0.91515293  1
  K  K3  1  0.31416555  0.32077101  0.08484707  1
  K  K4  1  0.01761491  0.98238509  0.75000000  1
  K  K5  1  0.98238509  0.01761491  0.25000000  1
  Au  Au6  1  -0.00000000  -0.00000000  0.00000000  1
  Au  Au7  1  -0.00000000  -0.00000000  0.50000000  1
  Au  Au8  1  0.38297777  0.38340851  0.81087624  1
  Au  Au9  1  0.61702223  0.61659149  0.18912376  1
  Au  Au10  1  0.61659149  0.61702223  0.68912376  1
  Au  Au11  1  0.38340851  0.38297777  0.31087624  1
  I  I12  1  0.68561806  0.24271603  0.87490203  1
  I  I13  1  0.31438194  0.75728397  0.12509797  1
  I  I14  1  0.75728397  0.31438194  0.62509797  1
  I  I15  1  0.24271603  0.68561806  0.37490203  1
  I  I16  1  0.49420978  0.91016826  0.75706618  1
  I  I17  1  0.50579022  0.08983174  0.24293382  1
  I  I18  1  0.08983174  0.50579022  0.74293382  1
  I  I19  1  0.91016826  0.49420978  0.25706618  1
  I  I20  1  0.22001549  0.15137767  0.93687382  1
  I  I21  1  0.77998451  0.84862233  0.06312618  1
  I  I22  1  0.84862233  0.77998451  0.56312618  1
  I  I23  1  0.15137767  0.22001549  0.43687382  1
  I  I24  1  0.29974998  0.83431375  0.57438483  1
  I  I25  1  0.70025002  0.16568625  0.42561517  1
  I  I26  1  0.16568625  0.70025002  0.92561517  1
  I  I27  1  0.83431375  0.29974998  0.07438483  1
