# generated using pymatgen
data_Mn3H6(SO6)2
_symmetry_space_group_name_H-M   'P 1'
_cell_length_a   7.47259284
_cell_length_b   10.22025513
_cell_length_c   13.41707353
_cell_angle_alpha   90.00000000
_cell_angle_beta   90.00000000
_cell_angle_gamma   90.00000000
_symmetry_Int_Tables_number   1
_chemical_formula_structural   Mn3H6(SO6)2
_chemical_formula_sum   'Mn12 H24 S8 O48'
_cell_volume   1024.68612743
_cell_formula_units_Z   4
loop_
 _symmetry_equiv_pos_site_id
 _symmetry_equiv_pos_as_xyz
  1  'x, y, z'
loop_
 _atom_site_type_symbol
 _atom_site_label
 _atom_site_symmetry_multiplicity
 _atom_site_fract_x
 _atom_site_fract_y
 _atom_site_fract_z
 _atom_site_occupancy
  Mn  Mn0  1  0.05647750  0.53016849  0.62748234  1
  Mn  Mn1  1  0.94352250  0.46983151  0.37251766  1
  Mn  Mn2  1  0.94352250  0.46983151  0.12748234  1
  Mn  Mn3  1  0.94352250  0.03016849  0.87251766  1
  Mn  Mn4  1  0.05647750  0.53016849  0.87251766  1
  Mn  Mn5  1  0.05647750  0.96983151  0.12748234  1
  Mn  Mn6  1  0.05647750  0.96983151  0.37251766  1
  Mn  Mn7  1  0.94352250  0.03016849  0.62748234  1
  Mn  Mn8  1  0.29563450  0.25833729  0.25000000  1
  Mn  Mn9  1  0.70436550  0.74166271  0.75000000  1
  Mn  Mn10  1  0.70436550  0.75833729  0.25000000  1
  Mn  Mn11  1  0.29563450  0.24166271  0.75000000  1
  H  H12  1  0.05247275  0.76081808  0.25000000  1
  H  H13  1  0.94752725  0.23918192  0.75000000  1
  H  H14  1  0.94752725  0.26081808  0.25000000  1
  H  H15  1  0.05247275  0.73918192  0.75000000  1
  H  H16  1  0.60793807  0.33164730  0.07999727  1
  H  H17  1  0.39206193  0.66835270  0.92000273  1
  H  H18  1  0.39206193  0.66835270  0.57999727  1
  H  H19  1  0.39206193  0.83164730  0.42000273  1
  H  H20  1  0.60793807  0.33164730  0.42000273  1
  H  H21  1  0.60793807  0.16835270  0.57999727  1
  H  H22  1  0.60793807  0.16835270  0.92000273  1
  H  H23  1  0.39206193  0.83164730  0.07999727  1
  H  H24  1  0.70137473  0.38730771  0.98168478  1
  H  H25  1  0.29862527  0.61269229  0.01831522  1
  H  H26  1  0.29862527  0.61269229  0.48168478  1
  H  H27  1  0.29862527  0.88730771  0.51831522  1
  H  H28  1  0.70137473  0.38730771  0.51831522  1
  H  H29  1  0.70137473  0.11269229  0.48168478  1
  H  H30  1  0.70137473  0.11269229  0.01831522  1
  H  H31  1  0.29862527  0.88730771  0.98168478  1
  H  H32  1  0.32294433  0.00951616  0.25000000  1
  H  H33  1  0.67705567  0.99048384  0.75000000  1
  H  H34  1  0.67705567  0.50951616  0.25000000  1
  H  H35  1  0.32294433  0.49048384  0.75000000  1
  S  S36  1  0.30486574  0.58196613  0.25000000  1
  S  S37  1  0.69513426  0.41803387  0.75000000  1
  S  S38  1  0.69513426  0.08196613  0.25000000  1
  S  S39  1  0.30486574  0.91803387  0.75000000  1
  S  S40  1  0.20569536  0.25000000  -0.00000000  1
  S  S41  1  0.79430464  0.75000000  -0.00000000  1
  S  S42  1  0.79430464  0.75000000  0.50000000  1
  S  S43  1  0.20569536  0.25000000  0.50000000  1
  O  O44  1  0.58071406  0.20015284  0.25000000  1
  O  O45  1  0.41928594  0.79984716  0.75000000  1
  O  O46  1  0.41928594  0.70015284  0.25000000  1
  O  O47  1  0.58071406  0.29984716  0.75000000  1
  O  O48  1  0.32134906  0.25291242  0.08918434  1
  O  O49  1  0.67865094  0.74708758  0.91081566  1
  O  O50  1  0.67865094  0.74708758  0.58918434  1
  O  O51  1  0.67865094  0.75291242  0.41081566  1
  O  O52  1  0.32134906  0.25291242  0.41081566  1
  O  O53  1  0.32134906  0.24708758  0.58918434  1
  O  O54  1  0.32134906  0.24708758  0.91081566  1
  O  O55  1  0.67865094  0.75291242  0.08918434  1
  O  O56  1  0.08817064  0.12999234  0.00256608  1
  O  O57  1  0.91182936  0.87000766  0.99743392  1
  O  O58  1  0.91182936  0.87000766  0.50256608  1
  O  O59  1  0.91182936  0.62999234  0.49743392  1
  O  O60  1  0.08817064  0.12999234  0.49743392  1
  O  O61  1  0.08817064  0.37000766  0.50256608  1
  O  O62  1  0.08817064  0.37000766  0.99743392  1
  O  O63  1  0.91182936  0.62999234  0.00256608  1
  O  O64  1  0.70158667  0.38975388  0.05482770  1
  O  O65  1  0.29841333  0.61024612  0.94517230  1
  O  O66  1  0.29841333  0.61024612  0.55482770  1
  O  O67  1  0.29841333  0.88975388  0.44517230  1
  O  O68  1  0.70158667  0.38975388  0.44517230  1
  O  O69  1  0.70158667  0.11024612  0.55482770  1
  O  O70  1  0.70158667  0.11024612  0.94517230  1
  O  O71  1  0.29841333  0.88975388  0.05482770  1
  O  O72  1  0.20655472  0.05455826  0.25000000  1
  O  O73  1  0.79344528  0.94544174  0.75000000  1
  O  O74  1  0.79344528  0.55455826  0.25000000  1
  O  O75  1  0.20655472  0.44544174  0.75000000  1
  O  O76  1  0.18783730  0.58606628  0.15887171  1
  O  O77  1  0.81216270  0.41393372  0.84112829  1
  O  O78  1  0.81216270  0.41393372  0.65887171  1
  O  O79  1  0.81216270  0.08606628  0.34112829  1
  O  O80  1  0.18783730  0.58606628  0.34112829  1
  O  O81  1  0.18783730  0.91393372  0.65887171  1
  O  O82  1  0.18783730  0.91393372  0.84112829  1
  O  O83  1  0.81216270  0.08606628  0.15887171  1
  O  O84  1  0.02557133  0.33751834  0.25000000  1
  O  O85  1  0.97442867  0.66248166  0.75000000  1
  O  O86  1  0.97442867  0.83751834  0.25000000  1
  O  O87  1  0.02557133  0.16248166  0.75000000  1
  O  O88  1  0.41517540  0.46072387  0.25000000  1
  O  O89  1  0.58482460  0.53927613  0.75000000  1
  O  O90  1  0.58482460  0.96072387  0.25000000  1
  O  O91  1  0.41517540  0.03927613  0.75000000  1
