# generated using pymatgen
data_HoCrGeO5
_symmetry_space_group_name_H-M   'P 1'
_cell_length_a   5.79860339
_cell_length_b   7.42983905
_cell_length_c   8.43933729
_cell_angle_alpha   90.00000000
_cell_angle_beta   90.00000000
_cell_angle_gamma   90.00000000
_symmetry_Int_Tables_number   1
_chemical_formula_structural   HoCrGeO5
_chemical_formula_sum   'Ho4 Cr4 Ge4 O20'
_cell_volume   363.58935145
_cell_formula_units_Z   4
loop_
 _symmetry_equiv_pos_site_id
 _symmetry_equiv_pos_as_xyz
  1  'x, y, z'
loop_
 _atom_site_type_symbol
 _atom_site_label
 _atom_site_symmetry_multiplicity
 _atom_site_fract_x
 _atom_site_fract_y
 _atom_site_fract_z
 _atom_site_occupancy
  Ho  Ho0  1  0.50000000  0.35375352  0.32797870  1
  Ho  Ho1  1  0.50000000  0.64624648  0.67202130  1
  Ho  Ho2  1  0.50000000  0.14624648  0.82797870  1
  Ho  Ho3  1  0.50000000  0.85375352  0.17202130  1
  Cr  Cr4  1  0.24962806  0.00000000  0.50000000  1
  Cr  Cr5  1  0.75037194  -0.00000000  0.50000000  1
  Cr  Cr6  1  0.75037194  0.50000000  -0.00000000  1
  Cr  Cr7  1  0.24962806  0.50000000  -0.00000000  1
  Ge  Ge8  1  0.00000000  0.11733581  0.14534473  1
  Ge  Ge9  1  0.00000000  0.88266419  0.85465527  1
  Ge  Ge10  1  -0.00000000  0.38266419  0.64534473  1
  Ge  Ge11  1  -0.00000000  0.61733581  0.35465527  1
  O  O12  1  0.24979327  0.11359786  0.28365876  1
  O  O13  1  0.75020673  0.88640214  0.71634124  1
  O  O14  1  0.24979327  0.88640214  0.71634124  1
  O  O15  1  0.75020673  0.38640214  0.78365876  1
  O  O16  1  0.75020673  0.11359786  0.28365876  1
  O  O17  1  0.24979327  0.61359786  0.21634124  1
  O  O18  1  0.75020673  0.61359786  0.21634124  1
  O  O19  1  0.24979327  0.38640214  0.78365876  1
  O  O20  1  -0.00000000  0.34338801  0.08315895  1
  O  O21  1  0.00000000  0.65661199  0.91684105  1
  O  O22  1  -0.00000000  0.15661199  0.58315895  1
  O  O23  1  0.00000000  0.84338801  0.41684105  1
  O  O24  1  0.50000000  0.33158419  0.05919262  1
  O  O25  1  0.50000000  0.66841581  0.94080738  1
  O  O26  1  0.50000000  0.16841581  0.55919262  1
  O  O27  1  0.50000000  0.83158419  0.44080738  1
  O  O28  1  0.21233336  0.00000000  -0.00000000  1
  O  O29  1  0.78766664  -0.00000000  -0.00000000  1
  O  O30  1  0.78766664  0.50000000  0.50000000  1
  O  O31  1  0.21233336  0.50000000  0.50000000  1
