# generated using pymatgen
data_Nd2Cu4Sn5
_symmetry_space_group_name_H-M   'P 1'
_cell_length_a   4.51944938
_cell_length_b   4.51944938
_cell_length_c   12.63154541
_cell_angle_alpha   100.30542347
_cell_angle_beta   100.30542347
_cell_angle_gamma   90.00000000
_symmetry_Int_Tables_number   1
_chemical_formula_structural   Nd2Cu4Sn5
_chemical_formula_sum   'Nd2 Cu4 Sn5'
_cell_volume   249.61105748
_cell_formula_units_Z   1
loop_
 _symmetry_equiv_pos_site_id
 _symmetry_equiv_pos_as_xyz
  1  'x, y, z'
loop_
 _atom_site_type_symbol
 _atom_site_label
 _atom_site_symmetry_multiplicity
 _atom_site_fract_x
 _atom_site_fract_y
 _atom_site_fract_z
 _atom_site_occupancy
  Nd  Nd0  1  0.99915687  0.99915687  0.99831375  1
  Nd  Nd1  1  0.68118466  0.68118466  0.36236932  1
  Cu  Cu2  1  0.09100951  0.59100951  0.18201903  1
  Cu  Cu3  1  0.59100951  0.09100951  0.18201903  1
  Cu  Cu4  1  0.12990510  0.12990510  0.25981020  1
  Cu  Cu5  1  0.22656163  0.22656163  0.45312325  1
  Sn  Sn6  1  0.28478786  0.78478786  0.56957571  1
  Sn  Sn7  1  0.78478786  0.28478786  0.56957571  1
  Sn  Sn8  1  0.40303313  0.90303313  0.80606627  1
  Sn  Sn9  1  0.90303313  0.40303313  0.80606627  1
  Sn  Sn10  1  0.53153073  0.53153073  0.06306146  1
