# generated using pymatgen
data_InSn2Cl5
_symmetry_space_group_name_H-M   'P 1'
_cell_length_a   8.07794276
_cell_length_b   8.85635416
_cell_length_c   12.58569040
_cell_angle_alpha   89.42088340
_cell_angle_beta   90.00000000
_cell_angle_gamma   90.00000000
_symmetry_Int_Tables_number   1
_chemical_formula_structural   InSn2Cl5
_chemical_formula_sum   'In4 Sn8 Cl20'
_cell_volume   900.34841934
_cell_formula_units_Z   4
loop_
 _symmetry_equiv_pos_site_id
 _symmetry_equiv_pos_as_xyz
  1  'x, y, z'
loop_
 _atom_site_type_symbol
 _atom_site_label
 _atom_site_symmetry_multiplicity
 _atom_site_fract_x
 _atom_site_fract_y
 _atom_site_fract_z
 _atom_site_occupancy
  In  In0  1  0.97727885  0.50219462  0.67142740  1
  In  In1  1  0.02272115  0.49780538  0.32857260  1
  In  In2  1  0.47727885  0.49780538  0.82857260  1
  In  In3  1  0.52272115  0.50219462  0.17142740  1
  Sn  Sn4  1  0.00927417  0.00155194  0.67268412  1
  Sn  Sn5  1  0.99072583  0.99844806  0.32731588  1
  Sn  Sn6  1  0.50927417  0.99844806  0.82731588  1
  Sn  Sn7  1  0.49072583  0.00155194  0.17268412  1
  Sn  Sn8  1  0.94124785  0.74841291  0.99334319  1
  Sn  Sn9  1  0.05875215  0.25158709  0.00665681  1
  Sn  Sn10  1  0.44124785  0.25158709  0.50665681  1
  Sn  Sn11  1  0.55875215  0.74841291  0.49334319  1
  Cl  Cl12  1  0.83683513  0.45938301  0.91515876  1
  Cl  Cl13  1  0.16316487  0.54061699  0.08484124  1
  Cl  Cl14  1  0.33683513  0.54061699  0.58484124  1
  Cl  Cl15  1  0.66316487  0.45938301  0.41515876  1
  Cl  Cl16  1  0.14656432  0.77516193  0.81557995  1
  Cl  Cl17  1  0.85343568  0.22483807  0.18442005  1
  Cl  Cl18  1  0.64656432  0.22483807  0.68442005  1
  Cl  Cl19  1  0.35343568  0.77516193  0.31557995  1
  Cl  Cl20  1  0.68408649  0.77351650  0.72255852  1
  Cl  Cl21  1  0.31591351  0.22648350  0.27744148  1
  Cl  Cl22  1  0.18408649  0.22648350  0.77744148  1
  Cl  Cl23  1  0.81591351  0.77351650  0.22255852  1
  Cl  Cl24  1  0.54064902  0.78371298  0.99723989  1
  Cl  Cl25  1  0.45935098  0.21628702  0.00276011  1
  Cl  Cl26  1  0.04064902  0.21628702  0.50276011  1
  Cl  Cl27  1  0.95935098  0.78371298  0.49723989  1
  Cl  Cl28  1  0.33204530  0.95346017  0.59743703  1
  Cl  Cl29  1  0.66795470  0.04653983  0.40256297  1
  Cl  Cl30  1  0.83204530  0.04653983  0.90256297  1
  Cl  Cl31  1  0.16795470  0.95346017  0.09743703  1
