# generated using pymatgen
data_K2Yb2(PO4)3
_symmetry_space_group_name_H-M   'P 1'
_cell_length_a   10.83116463
_cell_length_b   10.83116463
_cell_length_c   10.83116463
_cell_angle_alpha   90.00000000
_cell_angle_beta   90.00000000
_cell_angle_gamma   90.00000000
_symmetry_Int_Tables_number   1
_chemical_formula_structural   K2Yb2(PO4)3
_chemical_formula_sum   'K8 Yb8 P12 O48'
_cell_volume   1270.64862558
_cell_formula_units_Z   4
loop_
 _symmetry_equiv_pos_site_id
 _symmetry_equiv_pos_as_xyz
  1  'x, y, z'
loop_
 _atom_site_type_symbol
 _atom_site_label
 _atom_site_symmetry_multiplicity
 _atom_site_fract_x
 _atom_site_fract_y
 _atom_site_fract_z
 _atom_site_occupancy
  K  K0  1  0.05027641  0.05027641  0.05027641  1
  K  K1  1  0.44972359  0.94972359  0.55027641  1
  K  K2  1  0.94972359  0.55027641  0.44972359  1
  K  K3  1  0.55027641  0.44972359  0.94972359  1
  K  K4  1  0.81855257  0.81855257  0.81855257  1
  K  K5  1  0.68144743  0.18144743  0.31855257  1
  K  K6  1  0.18144743  0.31855257  0.68144743  1
  K  K7  1  0.31855257  0.68144743  0.18144743  1
  Yb  Yb8  1  0.33191094  0.33191094  0.33191094  1
  Yb  Yb9  1  0.16808906  0.66808906  0.83191094  1
  Yb  Yb10  1  0.66808906  0.83191094  0.16808906  1
  Yb  Yb11  1  0.83191094  0.16808906  0.66808906  1
  Yb  Yb12  1  0.60174733  0.60174733  0.60174733  1
  Yb  Yb13  1  0.89825267  0.39825267  0.10174733  1
  Yb  Yb14  1  0.39825267  0.10174733  0.89825267  1
  Yb  Yb15  1  0.10174733  0.89825267  0.39825267  1
  P  P16  1  0.01420102  0.21225489  0.37382529  1
  P  P17  1  0.48579898  0.78774511  0.87382529  1
  P  P18  1  0.98579898  0.71225489  0.12617471  1
  P  P19  1  0.37382529  0.01420102  0.21225489  1
  P  P20  1  0.51420102  0.28774511  0.62617471  1
  P  P21  1  0.87382529  0.48579898  0.78774511  1
  P  P22  1  0.12617471  0.98579898  0.71225489  1
  P  P23  1  0.62617471  0.51420102  0.28774511  1
  P  P24  1  0.21225489  0.37382529  0.01420102  1
  P  P25  1  0.71225489  0.12617471  0.98579898  1
  P  P26  1  0.28774511  0.62617471  0.51420102  1
  P  P27  1  0.78774511  0.87382529  0.48579898  1
  O  O28  1  0.01800554  0.07775357  0.32758589  1
  O  O29  1  0.48199446  0.92224643  0.82758589  1
  O  O30  1  0.98199446  0.57775357  0.17241411  1
  O  O31  1  0.32758589  0.01800554  0.07775357  1
  O  O32  1  0.51800554  0.42224643  0.67241411  1
  O  O33  1  0.82758589  0.48199446  0.92224643  1
  O  O34  1  0.17241411  0.98199446  0.57775357  1
  O  O35  1  0.67241411  0.51800554  0.42224643  1
  O  O36  1  0.07775357  0.32758589  0.01800554  1
  O  O37  1  0.57775357  0.17241411  0.98199446  1
  O  O38  1  0.42224643  0.67241411  0.51800554  1
  O  O39  1  0.92224643  0.82758589  0.48199446  1
  O  O40  1  0.04658265  0.79435428  0.22596987  1
  O  O41  1  0.45341735  0.20564572  0.72596987  1
  O  O42  1  0.95341735  0.29435428  0.27403013  1
  O  O43  1  0.22596987  0.04658265  0.79435428  1
  O  O44  1  0.54658265  0.70564572  0.77403013  1
  O  O45  1  0.72596987  0.45341735  0.20564572  1
  O  O46  1  0.27403013  0.95341735  0.29435428  1
  O  O47  1  0.77403013  0.54658265  0.70564572  1
  O  O48  1  0.79435428  0.22596987  0.04658265  1
  O  O49  1  0.29435428  0.27403013  0.95341735  1
  O  O50  1  0.70564572  0.77403013  0.54658265  1
  O  O51  1  0.20564572  0.72596987  0.45341735  1
  O  O52  1  0.27458420  0.51024582  0.43173256  1
  O  O53  1  0.22541580  0.48975418  0.93173256  1
  O  O54  1  0.72541580  0.01024582  0.06826744  1
  O  O55  1  0.43173256  0.27458420  0.51024582  1
  O  O56  1  0.77458420  0.98975418  0.56826744  1
  O  O57  1  0.93173256  0.22541580  0.48975418  1
  O  O58  1  0.06826744  0.72541580  0.01024582  1
  O  O59  1  0.56826744  0.77458420  0.98975418  1
  O  O60  1  0.51024582  0.43173256  0.27458420  1
  O  O61  1  0.01024582  0.06826744  0.72541580  1
  O  O62  1  0.98975418  0.56826744  0.77458420  1
  O  O63  1  0.48975418  0.93173256  0.22541580  1
  O  O64  1  0.14576389  0.25792556  0.40279258  1
  O  O65  1  0.35423611  0.74207444  0.90279258  1
  O  O66  1  0.85423611  0.75792556  0.09720742  1
  O  O67  1  0.40279258  0.14576389  0.25792556  1
  O  O68  1  0.64576389  0.24207444  0.59720742  1
  O  O69  1  0.90279258  0.35423611  0.74207444  1
  O  O70  1  0.09720742  0.85423611  0.75792556  1
  O  O71  1  0.59720742  0.64576389  0.24207444  1
  O  O72  1  0.25792556  0.40279258  0.14576389  1
  O  O73  1  0.75792556  0.09720742  0.85423611  1
  O  O74  1  0.24207444  0.59720742  0.64576389  1
  O  O75  1  0.74207444  0.90279258  0.35423611  1
