# generated using pymatgen
data_Fe2As2H2PbO10
_symmetry_space_group_name_H-M   'P 1'
_cell_length_a   5.59739640
_cell_length_b   5.59739640
_cell_length_c   7.73307331
_cell_angle_alpha   70.18668961
_cell_angle_beta   70.18668961
_cell_angle_gamma   68.75537012
_symmetry_Int_Tables_number   1
_chemical_formula_structural   Fe2As2H2PbO10
_chemical_formula_sum   'Fe2 As2 H2 Pb1 O10'
_cell_volume   205.89570479
_cell_formula_units_Z   1
loop_
 _symmetry_equiv_pos_site_id
 _symmetry_equiv_pos_as_xyz
  1  'x, y, z'
loop_
 _atom_site_type_symbol
 _atom_site_label
 _atom_site_symmetry_multiplicity
 _atom_site_fract_x
 _atom_site_fract_y
 _atom_site_fract_z
 _atom_site_occupancy
  Fe  Fe0  1  0.50000000  -0.00000000  0.50000000  1
  Fe  Fe1  1  -0.00000000  0.50000000  0.50000000  1
  As  As2  1  0.41857146  0.41857146  0.78562390  1
  As  As3  1  0.58142854  0.58142854  0.21437610  1
  H  H4  1  0.20531215  0.20531215  0.26831310  1
  H  H5  1  0.79468785  0.79468785  0.73168690  1
  Pb  Pb6  1  -0.00000000  -0.00000000  0.00000000  1
  O  O7  1  0.31104984  0.31104984  0.64038887  1
  O  O8  1  0.68895016  0.68895016  0.35961113  1
  O  O9  1  0.17520241  0.17520241  0.40656628  1
  O  O10  1  0.82479759  0.82479759  0.59343372  1
  O  O11  1  0.31157492  0.76048567  0.73271629  1
  O  O12  1  0.68842508  0.23951433  0.26728371  1
  O  O13  1  0.23951433  0.68842508  0.26728371  1
  O  O14  1  0.76048567  0.31157492  0.73271629  1
  O  O15  1  0.72107289  0.72107289  0.98946292  1
  O  O16  1  0.27892711  0.27892711  0.01053708  1
