# generated using pymatgen
data_Er2Mn17C3
_symmetry_space_group_name_H-M   'P 1'
_cell_length_a   8.28541117
_cell_length_b   8.51692690
_cell_length_c   8.51692690
_cell_angle_alpha   119.99999856
_cell_angle_beta   90.00000000
_cell_angle_gamma   90.00000000
_symmetry_Int_Tables_number   1
_chemical_formula_structural   Er2Mn17C3
_chemical_formula_sum   'Er4 Mn34 C6'
_cell_volume   520.48778584
_cell_formula_units_Z   2
loop_
 _symmetry_equiv_pos_site_id
 _symmetry_equiv_pos_as_xyz
  1  'x, y, z'
loop_
 _atom_site_type_symbol
 _atom_site_label
 _atom_site_symmetry_multiplicity
 _atom_site_fract_x
 _atom_site_fract_y
 _atom_site_fract_z
 _atom_site_occupancy
  Er  Er0  1  0.75000000  0.66666700  0.33333300  1
  Er  Er1  1  0.25000000  0.33333300  0.66666700  1
  Er  Er2  1  0.75000000  -0.00000000  -0.00000000  1
  Er  Er3  1  0.25000000  -0.00000000  -0.00000000  1
  Mn  Mn4  1  0.75000000  0.61364981  0.67204609  1
  Mn  Mn5  1  0.25000000  0.38635019  0.32795391  1
  Mn  Mn6  1  0.75000000  0.05839627  0.38635019  1
  Mn  Mn7  1  0.25000000  0.94160373  0.32795391  1
  Mn  Mn8  1  0.25000000  0.94160373  0.61364981  1
  Mn  Mn9  1  0.75000000  0.05839627  0.67204609  1
  Mn  Mn10  1  0.75000000  0.32795391  0.94160373  1
  Mn  Mn11  1  0.25000000  0.67204609  0.61364981  1
  Mn  Mn12  1  0.25000000  0.67204609  0.05839627  1
  Mn  Mn13  1  0.75000000  0.32795391  0.38635019  1
  Mn  Mn14  1  0.25000000  0.38635019  0.05839627  1
  Mn  Mn15  1  0.75000000  0.61364981  0.94160373  1
  Mn  Mn16  1  0.38879220  0.66666700  0.33333300  1
  Mn  Mn17  1  0.61120780  0.33333300  0.66666700  1
  Mn  Mn18  1  0.88879220  0.33333300  0.66666700  1
  Mn  Mn19  1  0.11120780  0.66666700  0.33333300  1
  Mn  Mn20  1  0.97654003  0.82908531  0.17091469  1
  Mn  Mn21  1  0.02345997  0.17091469  0.82908531  1
  Mn  Mn22  1  0.97654003  0.34182938  0.17091469  1
  Mn  Mn23  1  0.47654003  0.17091469  0.82908531  1
  Mn  Mn24  1  0.02345997  0.65817062  0.82908531  1
  Mn  Mn25  1  0.52345997  0.82908531  0.17091469  1
  Mn  Mn26  1  0.97654003  0.82908531  0.65817062  1
  Mn  Mn27  1  0.47654003  0.65817062  0.82908531  1
  Mn  Mn28  1  0.02345997  0.17091469  0.34182938  1
  Mn  Mn29  1  0.52345997  0.34182938  0.17091469  1
  Mn  Mn30  1  0.47654003  0.17091469  0.34182938  1
  Mn  Mn31  1  0.52345997  0.82908531  0.65817062  1
  Mn  Mn32  1  0.00000000  0.50000000  0.50000000  1
  Mn  Mn33  1  0.00000000  -0.00000000  0.50000000  1
  Mn  Mn34  1  0.50000000  0.50000000  0.50000000  1
  Mn  Mn35  1  0.00000000  0.50000000  -0.00000000  1
  Mn  Mn36  1  0.50000000  -0.00000000  0.50000000  1
  Mn  Mn37  1  0.50000000  0.50000000  -0.00000000  1
  C  C38  1  0.75000000  0.83556343  0.16443657  1
  C  C39  1  0.25000000  0.16443657  0.83556343  1
  C  C40  1  0.75000000  0.32887314  0.16443657  1
  C  C41  1  0.25000000  0.67112686  0.83556343  1
  C  C42  1  0.75000000  0.83556343  0.67112686  1
  C  C43  1  0.25000000  0.16443657  0.32887314  1
