# generated using pymatgen
data_ZrO2F5
_symmetry_space_group_name_H-M   'P 1'
_cell_length_a   5.90487615
_cell_length_b   5.82237434
_cell_length_c   7.15653808
_cell_angle_alpha   90.00000000
_cell_angle_beta   90.00000000
_cell_angle_gamma   108.01285459
_symmetry_Int_Tables_number   1
_chemical_formula_structural   ZrO2F5
_chemical_formula_sum   'Zr2 O4 F10'
_cell_volume   233.98529197
_cell_formula_units_Z   2
loop_
 _symmetry_equiv_pos_site_id
 _symmetry_equiv_pos_as_xyz
  1  'x, y, z'
loop_
 _atom_site_type_symbol
 _atom_site_label
 _atom_site_symmetry_multiplicity
 _atom_site_fract_x
 _atom_site_fract_y
 _atom_site_fract_z
 _atom_site_occupancy
  Zr  Zr0  1  0.19440339  0.80725535  -0.00000000  1
  Zr  Zr1  1  0.80559661  0.19274465  -0.00000000  1
  O  O2  1  0.50000000  0.50000000  0.58254879  1
  O  O3  1  0.50000000  0.50000000  0.41745121  1
  O  O4  1  0.01973096  0.90678225  0.50000000  1
  O  O5  1  0.98026904  0.09321775  0.50000000  1
  F  F6  1  0.25236863  0.74165128  0.72037014  1
  F  F7  1  0.74763137  0.25834872  0.72037014  1
  F  F8  1  0.74763137  0.25834872  0.27962986  1
  F  F9  1  0.25236863  0.74165128  0.27962986  1
  F  F10  1  -0.00000000  -0.00000000  0.83615206  1
  F  F11  1  0.00000000  0.00000000  0.16384794  1
  F  F12  1  0.83451174  0.57041510  -0.00000000  1
  F  F13  1  0.16548826  0.42958490  0.00000000  1
  F  F14  1  0.56538317  0.82912219  -0.00000000  1
  F  F15  1  0.43461683  0.17087781  0.00000000  1
