# generated using pymatgen
data_BaBi12Mo5O34
_symmetry_space_group_name_H-M   'P 1'
_cell_length_a   5.93124230
_cell_length_b   11.99930146
_cell_length_c   25.49974043
_cell_angle_alpha   102.71509168
_cell_angle_beta   90.00000000
_cell_angle_gamma   90.00000000
_symmetry_Int_Tables_number   1
_chemical_formula_structural   BaBi12Mo5O34
_chemical_formula_sum   'Ba2 Bi24 Mo10 O68'
_cell_volume   1770.33007254
_cell_formula_units_Z   2
loop_
 _symmetry_equiv_pos_site_id
 _symmetry_equiv_pos_as_xyz
  1  'x, y, z'
loop_
 _atom_site_type_symbol
 _atom_site_label
 _atom_site_symmetry_multiplicity
 _atom_site_fract_x
 _atom_site_fract_y
 _atom_site_fract_z
 _atom_site_occupancy
  Ba  Ba0  1  0.00000000  0.00000000  -0.00000000  1
  Ba  Ba1  1  0.00000000  0.00000000  0.50000000  1
  Bi  Bi2  1  0.98187787  0.76428195  0.65879607  1
  Bi  Bi3  1  0.01812213  0.23571805  0.34120393  1
  Bi  Bi4  1  0.98187787  0.23571805  0.84120393  1
  Bi  Bi5  1  0.01812213  0.76428195  0.15879607  1
  Bi  Bi6  1  0.47337046  0.74227954  0.89798977  1
  Bi  Bi7  1  0.52662954  0.25772046  0.10201023  1
  Bi  Bi8  1  0.47337046  0.25772046  0.60201023  1
  Bi  Bi9  1  0.52662954  0.74227954  0.39798977  1
  Bi  Bi10  1  0.98283952  0.85965078  0.82160337  1
  Bi  Bi11  1  0.01716048  0.14034922  0.17839663  1
  Bi  Bi12  1  0.98283952  0.14034922  0.67839663  1
  Bi  Bi13  1  0.01716048  0.85965078  0.32160337  1
  Bi  Bi14  1  0.91908360  0.54034978  0.32505750  1
  Bi  Bi15  1  0.08091640  0.45965022  0.67494250  1
  Bi  Bi16  1  0.91908360  0.45965022  0.17494250  1
  Bi  Bi17  1  0.08091640  0.54034978  0.82505750  1
  Bi  Bi18  1  0.58244223  0.65533239  0.74499092  1
  Bi  Bi19  1  0.41755777  0.34466761  0.25500908  1
  Bi  Bi20  1  0.58244223  0.34466761  0.75500908  1
  Bi  Bi21  1  0.41755777  0.65533239  0.24499092  1
  Bi  Bi22  1  0.47905979  0.57976283  0.59259859  1
  Bi  Bi23  1  0.52094021  0.42023717  0.40740141  1
  Bi  Bi24  1  0.47905979  0.42023717  0.90740141  1
  Bi  Bi25  1  0.52094021  0.57976283  0.09259859  1
  Mo  Mo26  1  0.48350838  0.00000000  0.75000000  1
  Mo  Mo27  1  0.51649162  0.00000000  0.25000000  1
  Mo  Mo28  1  0.49737530  0.92334556  0.57962275  1
  Mo  Mo29  1  0.50262470  0.07665444  0.42037725  1
  Mo  Mo30  1  0.49737530  0.07665444  0.92037725  1
  Mo  Mo31  1  0.50262470  0.92334556  0.07962275  1
  Mo  Mo32  1  0.97526084  0.65714646  0.98633567  1
  Mo  Mo33  1  0.02473916  0.34285354  0.01366433  1
  Mo  Mo34  1  0.97526084  0.34285354  0.51366433  1
  Mo  Mo35  1  0.02473916  0.65714646  0.48633567  1
  O  O36  1  0.77763288  0.50000000  0.75000000  1
  O  O37  1  0.22236712  0.50000000  0.25000000  1
  O  O38  1  0.72915301  0.97715411  0.39598176  1
  O  O39  1  0.27084699  0.02284589  0.60401824  1
  O  O40  1  0.72915301  0.02284589  0.10401824  1
  O  O41  1  0.27084699  0.97715411  0.89598176  1
  O  O42  1  0.42114232  0.56230409  0.86670959  1
  O  O43  1  0.57885768  0.43769591  0.13329041  1
  O  O44  1  0.42114232  0.43769591  0.63329041  1
  O  O45  1  0.57885768  0.56230409  0.36670959  1
  O  O46  1  0.23082466  0.63463225  0.65828416  1
  O  O47  1  0.76917534  0.36536775  0.34171584  1
  O  O48  1  0.23082466  0.36536775  0.84171584  1
  O  O49  1  0.76917534  0.63463225  0.15828416  1
  O  O50  1  0.66320263  0.99506099  0.69313927  1
  O  O51  1  0.33679737  0.00493901  0.30686073  1
  O  O52  1  0.66320263  0.00493901  0.80686073  1
  O  O53  1  0.33679737  0.99506099  0.19313927  1
  O  O54  1  0.77963650  0.72724931  0.33290074  1
  O  O55  1  0.22036350  0.27275069  0.66709926  1
  O  O56  1  0.77963650  0.27275069  0.16709926  1
  O  O57  1  0.22036350  0.72724931  0.83290074  1
  O  O58  1  0.81734080  0.54715630  0.46930699  1
  O  O59  1  0.18265920  0.45284370  0.53069301  1
  O  O60  1  0.81734080  0.45284370  0.03069301  1
  O  O61  1  0.18265920  0.54715630  0.96930699  1
  O  O62  1  0.72124936  0.73674867  0.83436024  1
  O  O63  1  0.27875064  0.26325133  0.16563976  1
  O  O64  1  0.72124936  0.26325133  0.66563976  1
  O  O65  1  0.27875064  0.73674867  0.33436024  1
  O  O66  1  0.89364025  0.75879507  0.74202558  1
  O  O67  1  0.10635975  0.24120493  0.25797442  1
  O  O68  1  0.89364025  0.24120493  0.75797442  1
  O  O69  1  0.10635975  0.75879507  0.24202558  1
  O  O70  1  0.95334612  0.29454667  0.44180229  1
  O  O71  1  0.04665388  0.70545333  0.55819771  1
  O  O72  1  0.95334612  0.70545333  0.05819771  1
  O  O73  1  0.04665388  0.29454667  0.94180229  1
  O  O74  1  0.70955329  0.61135708  0.95346096  1
  O  O75  1  0.29044671  0.38864292  0.04653904  1
  O  O76  1  0.70955329  0.38864292  0.54653904  1
  O  O77  1  0.29044671  0.61135708  0.45346096  1
  O  O78  1  0.43752707  0.87721423  0.50981104  1
  O  O79  1  0.56247293  0.12278577  0.49018896  1
  O  O80  1  0.43752707  0.12278577  0.99018896  1
  O  O81  1  0.56247293  0.87721423  0.00981104  1
  O  O82  1  0.51386287  0.79872131  0.60829644  1
  O  O83  1  0.48613713  0.20127869  0.39170356  1
  O  O84  1  0.51386287  0.20127869  0.89170356  1
  O  O85  1  0.48613713  0.79872131  0.10829644  1
  O  O86  1  0.74165378  0.62465757  0.65436460  1
  O  O87  1  0.25834622  0.37534243  0.34563540  1
  O  O88  1  0.74165378  0.37534243  0.84563540  1
  O  O89  1  0.25834622  0.62465757  0.15436460  1
  O  O90  1  0.30514449  0.87467749  0.74060619  1
  O  O91  1  0.69485551  0.12532251  0.25939381  1
  O  O92  1  0.30514449  0.12532251  0.75939381  1
  O  O93  1  0.69485551  0.87467749  0.24060619  1
  O  O94  1  0.92552477  0.77303031  0.45763368  1
  O  O95  1  0.07447523  0.22696969  0.54236632  1
  O  O96  1  0.92552477  0.22696969  0.04236632  1
  O  O97  1  0.07447523  0.77303031  0.95763368  1
  O  O98  1  0.75975577  0.99808607  0.91384428  1
  O  O99  1  0.24024423  0.00191393  0.08615572  1
  O  O100  1  0.75975577  0.00191393  0.58615572  1
  O  O101  1  0.24024423  0.99808607  0.41384428  1
  O  O102  1  0.26665130  0.50000000  0.75000000  1
  O  O103  1  0.73334870  0.50000000  0.25000000  1
