# generated using pymatgen
data_Zn3Cu6(AsS3)4
_symmetry_space_group_name_H-M   'P 1'
_cell_length_a   8.41321975
_cell_length_b   8.43333406
_cell_length_c   8.35549961
_cell_angle_alpha   107.46001469
_cell_angle_beta   107.10651316
_cell_angle_gamma   107.55085926
_symmetry_Int_Tables_number   1
_chemical_formula_structural   Zn3Cu6(AsS3)4
_chemical_formula_sum   'Zn3 Cu6 As4 S12'
_cell_volume   488.60934851
_cell_formula_units_Z   1
loop_
 _symmetry_equiv_pos_site_id
 _symmetry_equiv_pos_as_xyz
  1  'x, y, z'
loop_
 _atom_site_type_symbol
 _atom_site_label
 _atom_site_symmetry_multiplicity
 _atom_site_fract_x
 _atom_site_fract_y
 _atom_site_fract_z
 _atom_site_occupancy
  Zn  Zn0  1  0.16941058  0.45976124  0.40295260  1
  Zn  Zn1  1  0.21731252  0.70320835  0.07204282  1
  Zn  Zn2  1  0.70266407  0.07487309  0.22908125  1
  Cu  Cu3  1  0.45563802  0.39338049  0.16601720  1
  Cu  Cu4  1  0.39854975  0.16890532  0.45840665  1
  Cu  Cu5  1  0.07465527  0.21883041  0.70562901  1
  Cu  Cu6  1  0.90923878  0.76180247  0.29731095  1
  Cu  Cu7  1  0.76057111  0.30361463  0.90911107  1
  Cu  Cu8  1  0.30065524  0.91469582  0.76269974  1
  As  As9  1  0.98554515  0.97835422  0.97469246  1
  As  As10  1  0.62286075  0.85086809  0.56402967  1
  As  As11  1  0.84195794  0.55648925  0.62085437  1
  As  As12  1  0.56216635  0.61430965  0.84206226  1
  S  S13  1  0.13272404  0.92545767  0.22378905  1
  S  S14  1  0.91700850  0.21677362  0.12678703  1
  S  S15  1  0.22102674  0.13468023  0.92026548  1
  S  S16  1  0.36639556  0.61038675  0.29195002  1
  S  S17  1  0.60963664  0.29669949  0.36327349  1
  S  S18  1  0.29463470  0.35808869  0.61728609  1
  S  S19  1  0.82504440  0.97819236  0.44986359  1
  S  S20  1  0.97642537  0.44010895  0.81446533  1
  S  S21  1  0.44488398  0.82130400  0.97474504  1
  S  S22  1  0.05235341  0.66833574  0.50952189  1
  S  S23  1  0.66109738  0.50784403  0.05218385  1
  S  S24  1  0.50914375  0.05463546  0.66257908  1
