# generated using pymatgen
data_Zr4Sc5N10
_symmetry_space_group_name_H-M   'P 1'
_cell_length_a   4.50653822
_cell_length_b   10.20429236
_cell_length_c   5.58379372
_cell_angle_alpha   89.94268558
_cell_angle_beta   113.79950004
_cell_angle_gamma   90.00000000
_symmetry_Int_Tables_number   1
_chemical_formula_structural   Zr4Sc5N10
_chemical_formula_sum   'Zr4 Sc5 N10'
_cell_volume   234.94092802
_cell_formula_units_Z   1
loop_
 _symmetry_equiv_pos_site_id
 _symmetry_equiv_pos_as_xyz
  1  'x, y, z'
loop_
 _atom_site_type_symbol
 _atom_site_label
 _atom_site_symmetry_multiplicity
 _atom_site_fract_x
 _atom_site_fract_y
 _atom_site_fract_z
 _atom_site_occupancy
  Zr  Zr0  1  0.69892497  0.09698577  0.39784994  1
  Zr  Zr1  1  0.40563090  0.19576360  0.81126181  1
  Zr  Zr2  1  0.59436910  0.80423640  0.18873819  1
  Zr  Zr3  1  0.30107503  0.90301423  0.60215006  1
  Sc  Sc4  1  0.09910914  0.29856895  0.19821827  1
  Sc  Sc5  1  0.80125176  0.40359903  0.60250353  1
  Sc  Sc6  1  0.50000000  0.50000000  0.00000000  1
  Sc  Sc7  1  0.19874824  0.59640097  0.39749647  1
  Sc  Sc8  1  0.90089086  0.70143105  0.80178173  1
  N  N9  1  0.40100955  0.70206340  0.80201911  1
  N  N10  1  0.30038851  0.40011531  0.60077702  1
  N  N11  1  0.10639039  0.78805809  0.21278078  1
  N  N12  1  0.00000000  0.50000000  0.00000000  1
  N  N13  1  0.69961149  0.59988469  0.39922298  1
  N  N14  1  0.89360961  0.21194191  0.78721922  1
  N  N15  1  0.59899045  0.29793660  0.19798089  1
  N  N16  1  0.78622291  0.89579089  0.57244582  1
  N  N17  1  0.50000000  0.00000000  0.00000000  1
  N  N18  1  0.21377709  0.10420911  0.42755418  1
