# generated using pymatgen
data_ZrTa(SiRu)2
_symmetry_space_group_name_H-M   'P 1'
_cell_length_a   3.77113180
_cell_length_b   6.56465604
_cell_length_c   11.26933826
_cell_angle_alpha   89.71382355
_cell_angle_beta   90.00000000
_cell_angle_gamma   90.00000000
_symmetry_Int_Tables_number   1
_chemical_formula_structural   ZrTa(SiRu)2
_chemical_formula_sum   'Zr3 Ta3 Si6 Ru6'
_cell_volume   278.98232169
_cell_formula_units_Z   3
loop_
 _symmetry_equiv_pos_site_id
 _symmetry_equiv_pos_as_xyz
  1  'x, y, z'
loop_
 _atom_site_type_symbol
 _atom_site_label
 _atom_site_symmetry_multiplicity
 _atom_site_fract_x
 _atom_site_fract_y
 _atom_site_fract_z
 _atom_site_occupancy
  Zr  Zr0  1  0.50000000  0.71191537  0.70998819  1
  Zr  Zr1  1  0.50000000  0.71118606  0.28974541  1
  Zr  Zr2  1  0.50000000  0.21093351  0.79085713  1
  Ta  Ta3  1  0.50000000  0.57687380  0.00113985  1
  Ta  Ta4  1  0.50000000  0.07938253  0.49773555  1
  Ta  Ta5  1  0.50000000  0.21106771  0.20881054  1
  Si  Si6  1  0.50000000  0.99436250  0.00410299  1
  Si  Si7  1  0.50000000  0.49266713  0.49990519  1
  Si  Si8  1  -0.00000000  0.00729360  0.33256056  1
  Si  Si9  1  -0.00000000  0.50183471  0.83780038  1
  Si  Si10  1  -0.00000000  0.49715143  0.16485784  1
  Si  Si11  1  -0.00000000  0.00322393  0.66233812  1
  Ru  Ru12  1  -0.00000000  0.74845509  0.49757201  1
  Ru  Ru13  1  -0.00000000  0.24635990  0.00315740  1
  Ru  Ru14  1  0.00000000  0.37509684  0.37569101  1
  Ru  Ru15  1  -0.00000000  0.87704083  0.87901989  1
  Ru  Ru16  1  0.00000000  0.87762732  0.12358234  1
  Ru  Ru17  1  0.00000000  0.37732775  0.62113562  1
