# generated using pymatgen
data_Zr2CoS4
_symmetry_space_group_name_H-M   'P 1'
_cell_length_a   3.65183388
_cell_length_b   6.94943091
_cell_length_c   6.30467601
_cell_angle_alpha   62.74894509
_cell_angle_beta   90.00165216
_cell_angle_gamma   74.76395808
_symmetry_Int_Tables_number   1
_chemical_formula_structural   Zr2CoS4
_chemical_formula_sum   'Zr2 Co1 S4'
_cell_volume   135.88492434
_cell_formula_units_Z   1
loop_
 _symmetry_equiv_pos_site_id
 _symmetry_equiv_pos_as_xyz
  1  'x, y, z'
loop_
 _atom_site_type_symbol
 _atom_site_label
 _atom_site_symmetry_multiplicity
 _atom_site_fract_x
 _atom_site_fract_y
 _atom_site_fract_z
 _atom_site_occupancy
  Zr  Zr0  1  0.50021582  0.99938305  0.49624039  1
  Zr  Zr1  1  0.00265081  0.99458592  0.01089119  1
  Co  Co2  1  0.67660646  0.64664159  0.34477952  1
  S  S3  1  0.37335779  0.25310101  0.04065721  1
  S  S4  1  0.87284971  0.25477323  0.53535924  1
  S  S5  1  0.62832337  0.74359368  0.95557673  1
  S  S6  1  0.13604603  0.72792150  0.47314572  1
