# generated using pymatgen
data_Ba6Na2Nb2V2O17
_symmetry_space_group_name_H-M   'P 1'
_cell_length_a   6.00661064
_cell_length_b   6.00662987
_cell_length_c   30.48695436
_cell_angle_alpha   90.00019173
_cell_angle_beta   89.99988623
_cell_angle_gamma   119.99980148
_symmetry_Int_Tables_number   1
_chemical_formula_structural   Ba6Na2Nb2V2O17
_chemical_formula_sum   'Ba12 Na4 Nb4 V4 O34'
_cell_volume   952.58972729
_cell_formula_units_Z   2
loop_
 _symmetry_equiv_pos_site_id
 _symmetry_equiv_pos_as_xyz
  1  'x, y, z'
loop_
 _atom_site_type_symbol
 _atom_site_label
 _atom_site_symmetry_multiplicity
 _atom_site_fract_x
 _atom_site_fract_y
 _atom_site_fract_z
 _atom_site_occupancy
  Ba  Ba0  1  0.66666454  0.33333272  0.81896235  1
  Ba  Ba1  1  0.33333403  0.66666786  0.18103806  1
  Ba  Ba2  1  0.33333247  0.66666660  0.31896141  1
  Ba  Ba3  1  0.66666647  0.33336802  0.68103938  1
  Ba  Ba4  1  0.00000002  0.99999965  0.99999961  1
  Ba  Ba5  1  0.99999949  0.99999819  0.49999896  1
  Ba  Ba6  1  0.66666807  0.33333551  0.40960959  1
  Ba  Ba7  1  0.33333253  0.66664977  0.59038962  1
  Ba  Ba8  1  0.33333463  0.66666713  0.90961139  1
  Ba  Ba9  1  0.66666666  0.33333234  0.09039009  1
  Ba  Ba10  1  0.99999965  0.99998893  0.75000047  1
  Ba  Ba11  1  0.00000040  0.00000130  0.25000011  1
  Na  Na12  1  0.00000038  0.00000022  0.87577206  1
  Na  Na13  1  0.00000024  0.99999897  0.12422195  1
  Na  Na14  1  0.00000013  -0.00000003  0.37578333  1
  Na  Na15  1  0.99999970  0.99997984  0.62422571  1
  Nb  Nb16  1  0.66666772  0.33333272  0.29865189  1
  Nb  Nb17  1  0.33333396  0.66662656  0.70134878  1
  Nb  Nb18  1  0.33333305  0.66666079  0.79865140  1
  Nb  Nb19  1  0.66666914  0.33333317  0.20134895  1
  V  V20  1  0.66666344  0.33333053  0.94787678  1
  V  V21  1  0.33333355  0.66666538  0.05212313  1
  V  V22  1  0.33333258  0.66666665  0.44787328  1
  V  V23  1  0.66666821  0.33333073  0.55212271  1
  O  O24  1  0.66666738  0.33332723  0.49562669  1
  O  O25  1  0.33333316  0.66666940  0.50437721  1
  O  O26  1  0.33333189  0.66666579  0.99562197  1
  O  O27  1  0.66666601  0.33333246  0.00437511  1
  O  O28  1  0.82530507  0.17512980  0.33046152  1
  O  O29  1  0.17481697  0.82491880  0.66953252  1
  O  O30  1  0.34982490  0.17469856  0.33046123  1
  O  O31  1  0.17469810  0.82487598  0.83045894  1
  O  O32  1  0.65017319  0.82504495  0.66953935  1
  O  O33  1  0.82530598  0.17513154  0.16953908  1
  O  O34  1  0.82487016  0.65017440  0.33046131  1
  O  O35  1  0.65017198  0.82530602  0.83046053  1
  O  O36  1  0.17500816  0.34975423  0.66954597  1
  O  O37  1  0.34982766  0.17469755  0.16953947  1
  O  O38  1  0.17512980  0.34983257  0.83046300  1
  O  O39  1  0.82486866  0.65017191  0.16953949  1
  O  O40  1  0.48561444  0.51442570  0.75000661  1
  O  O41  1  0.51437152  0.48554009  0.25000053  1
  O  O42  1  0.02882947  0.51436415  0.75000019  1
  O  O43  1  0.97117049  0.48562733  0.25000019  1
  O  O44  1  0.48555693  0.97115203  0.74999370  1
  O  O45  1  0.51446369  0.02883369  0.24999986  1
  O  O46  1  0.82421968  0.17579301  0.92769699  1
  O  O47  1  0.17578267  0.82420196  0.07230173  1
  O  O48  1  0.35157071  0.17577961  0.92769671  1
  O  O49  1  0.17577982  0.82420520  0.42769752  1
  O  O50  1  0.64841852  0.82421445  0.07230181  1
  O  O51  1  0.82421488  0.17579279  0.57230417  1
  O  O52  1  0.82420380  0.64842421  0.92769688  1
  O  O53  1  0.64842336  0.82421724  0.42769695  1
  O  O54  1  0.17579796  0.35157972  0.07230158  1
  O  O55  1  0.35157912  0.17578797  0.57230262  1
  O  O56  1  0.17579479  0.35157480  0.42769730  1
  O  O57  1  0.82420802  0.64842130  0.57230028  1
