# generated using pymatgen
data_Zr2Al3Co
_symmetry_space_group_name_H-M   'P 1'
_cell_length_a   5.26534488
_cell_length_b   5.26534488
_cell_length_c   5.14932765
_cell_angle_alpha   90.00000000
_cell_angle_beta   59.25185385
_cell_angle_gamma   120.00000000
_symmetry_Int_Tables_number   1
_chemical_formula_structural   Zr2Al3Co
_chemical_formula_sum   'Zr2 Al3 Co1'
_cell_volume   99.78939205
_cell_formula_units_Z   1
loop_
 _symmetry_equiv_pos_site_id
 _symmetry_equiv_pos_as_xyz
  1  'x, y, z'
loop_
 _atom_site_type_symbol
 _atom_site_label
 _atom_site_symmetry_multiplicity
 _atom_site_fract_x
 _atom_site_fract_y
 _atom_site_fract_z
 _atom_site_occupancy
  Zr  Zr0  1  0.49355159  0.74677579  0.75967262  1
  Zr  Zr1  1  0.00644841  0.00322421  0.99032738  1
  Al  Al2  1  0.25000000  0.37500000  0.37500000  1
  Al  Al3  1  0.25000000  0.87500000  0.37500000  1
  Al  Al4  1  0.75000000  0.37500000  0.37500000  1
  Co  Co5  1  0.75000000  0.37500000  0.87500000  1
