# generated using pymatgen
data_ZrCuF6
_symmetry_space_group_name_H-M   'P 1'
_cell_length_a   5.75020320
_cell_length_b   5.75020320
_cell_length_c   5.76158530
_cell_angle_alpha   90.00000000
_cell_angle_beta   60.06532804
_cell_angle_gamma   120.00000000
_symmetry_Int_Tables_number   1
_chemical_formula_structural   ZrCuF6
_chemical_formula_sum   'Zr1 Cu1 F6'
_cell_volume   134.84085997
_cell_formula_units_Z   1
loop_
 _symmetry_equiv_pos_site_id
 _symmetry_equiv_pos_as_xyz
  1  'x, y, z'
loop_
 _atom_site_type_symbol
 _atom_site_label
 _atom_site_symmetry_multiplicity
 _atom_site_fract_x
 _atom_site_fract_y
 _atom_site_fract_z
 _atom_site_occupancy
  Zr  Zr0  1  0.01012903  0.50506451  0.48480646  1
  Cu  Cu1  1  0.01067383  0.00533692  0.98398925  1
  F  F2  1  0.01417550  0.26027991  0.73638743  1
  F  F3  1  0.00333266  0.75389559  0.73638743  1
  F  F4  1  0.50971698  0.24943707  0.73638743  1
  F  F5  1  0.00234440  0.25313619  0.23681400  1
  F  F6  1  0.01397779  0.76084160  0.23681400  1
  F  F7  1  0.51004981  0.74920821  0.23681400  1
