# generated using pymatgen
data_ZnCu2SnSeS3
_symmetry_space_group_name_H-M   'P 1'
_cell_length_a   5.53433207
_cell_length_b   5.53788733
_cell_length_c   6.77071734
_cell_angle_alpha   65.87380603
_cell_angle_beta   65.70915754
_cell_angle_gamma   89.96685374
_symmetry_Int_Tables_number   1
_chemical_formula_structural   ZnCu2SnSeS3
_chemical_formula_sum   'Zn1 Cu2 Sn1 Se1 S3'
_cell_volume   169.08061241
_cell_formula_units_Z   1
loop_
 _symmetry_equiv_pos_site_id
 _symmetry_equiv_pos_as_xyz
  1  'x, y, z'
loop_
 _atom_site_type_symbol
 _atom_site_label
 _atom_site_symmetry_multiplicity
 _atom_site_fract_x
 _atom_site_fract_y
 _atom_site_fract_z
 _atom_site_occupancy
  Zn  Zn0  1  0.26228116  0.76336896  0.49251108  1
  Cu  Cu1  1  0.00468886  0.98672862  0.00876738  1
  Cu  Cu2  1  0.74505931  0.24574484  0.49123263  1
  Sn  Sn3  1  0.48875778  0.50531709  0.00645191  1
  Se  Se4  1  0.89000704  0.36118166  0.73928860  1
  S  S5  1  0.36989395  0.89712393  0.74159645  1
  S  S6  1  0.63549799  0.62846994  0.26027984  1
  S  S7  1  0.10381389  0.11206495  0.25987211  1
