# generated using pymatgen
data_YBi3(Ru2O7)2
_symmetry_space_group_name_H-M   'P 1'
_cell_length_a   7.30661515
_cell_length_b   7.30661515
_cell_length_c   7.35061220
_cell_angle_alpha   90.00000000
_cell_angle_beta   60.19780185
_cell_angle_gamma   120.00000000
_symmetry_Int_Tables_number   1
_chemical_formula_structural   YBi3(Ru2O7)2
_chemical_formula_sum   'Y1 Bi3 Ru4 O14'
_cell_volume   278.31266643
_cell_formula_units_Z   1
loop_
 _symmetry_equiv_pos_site_id
 _symmetry_equiv_pos_as_xyz
  1  'x, y, z'
loop_
 _atom_site_type_symbol
 _atom_site_label
 _atom_site_symmetry_multiplicity
 _atom_site_fract_x
 _atom_site_fract_y
 _atom_site_fract_z
 _atom_site_occupancy
  Y  Y0  1  0.75000000  0.37500000  0.87500000  1
  Bi  Bi1  1  0.25000000  0.37500000  0.37500000  1
  Bi  Bi2  1  0.25000000  0.87500000  0.37500000  1
  Bi  Bi3  1  0.75000000  0.37500000  0.37500000  1
  Ru  Ru4  1  0.75000000  0.87500000  0.37500000  1
  Ru  Ru5  1  0.25000000  0.87500000  0.87500000  1
  Ru  Ru6  1  0.25000000  0.37500000  0.87500000  1
  Ru  Ru7  1  0.75000000  0.87500000  0.87500000  1
  O  O8  1  0.50964568  0.25482284  0.23553149  1
  O  O9  1  0.99035432  0.49517716  0.51446851  1
  O  O10  1  0.90916004  0.95458002  0.54501862  1
  O  O11  1  0.50040136  0.54582134  0.54501862  1
  O  O12  1  0.50040136  0.95458002  0.54501862  1
  O  O13  1  0.09046360  0.54523180  0.95618360  1
  O  O14  1  0.49858460  0.95335281  0.95618360  1
  O  O15  1  0.49858460  0.54523180  0.95618360  1
  O  O16  1  0.59083996  0.79541998  0.20498138  1
  O  O17  1  0.99959864  0.20417866  0.20498138  1
  O  O18  1  0.99959864  0.79541998  0.20498138  1
  O  O19  1  0.40953640  0.20476820  0.79381640  1
  O  O20  1  0.00141540  0.79664719  0.79381640  1
  O  O21  1  0.00141540  0.20476820  0.79381640  1
