# generated using pymatgen
data_TiVH4
_symmetry_space_group_name_H-M   'P 1'
_cell_length_a   3.05625505
_cell_length_b   3.05625505
_cell_length_c   5.29267085
_cell_angle_alpha   73.21834817
_cell_angle_beta   90.00000000
_cell_angle_gamma   120.00000000
_symmetry_Int_Tables_number   1
_chemical_formula_structural   TiVH4
_chemical_formula_sum   'Ti1 V1 H4'
_cell_volume   40.36444876
_cell_formula_units_Z   1
loop_
 _symmetry_equiv_pos_site_id
 _symmetry_equiv_pos_as_xyz
  1  'x, y, z'
loop_
 _atom_site_type_symbol
 _atom_site_label
 _atom_site_symmetry_multiplicity
 _atom_site_fract_x
 _atom_site_fract_y
 _atom_site_fract_z
 _atom_site_occupancy
  Ti  Ti0  1  0.00000000  0.00000000  0.00000000  1
  V  V1  1  0.50000000  0.00000000  0.50000000  1
  H  H2  1  0.62150230  0.24300460  0.13549309  1
  H  H3  1  0.12836817  0.25673635  0.61489548  1
  H  H4  1  0.87163183  0.74326365  0.38510452  1
  H  H5  1  0.37849770  0.75699540  0.86450691  1
