# generated using pymatgen
data_VCr(CuO2)2
_symmetry_space_group_name_H-M   'P 1'
_cell_length_a   3.04951924
_cell_length_b   5.31835371
_cell_length_c   6.03372545
_cell_angle_alpha   80.93718720
_cell_angle_beta   75.36229842
_cell_angle_gamma   90.00000000
_symmetry_Int_Tables_number   1
_chemical_formula_structural   VCr(CuO2)2
_chemical_formula_sum   'V1 Cr1 Cu2 O4'
_cell_volume   93.41819973
_cell_formula_units_Z   1
loop_
 _symmetry_equiv_pos_site_id
 _symmetry_equiv_pos_as_xyz
  1  'x, y, z'
loop_
 _atom_site_type_symbol
 _atom_site_label
 _atom_site_symmetry_multiplicity
 _atom_site_fract_x
 _atom_site_fract_y
 _atom_site_fract_z
 _atom_site_occupancy
  V  V0  1  0.25000000  0.75000000  0.50000000  1
  Cr  Cr1  1  0.75000000  0.25000000  0.50000000  1
  Cu  Cu2  1  0.49987439  0.49951102  0.00025122  1
  Cu  Cu3  1  0.00012561  0.00048898  -0.00025122  1
  O  O4  1  0.16023654  0.05905786  0.67952691  1
  O  O5  1  0.66118942  0.55116376  0.67762116  1
  O  O6  1  0.33976346  0.44094214  0.32047309  1
  O  O7  1  0.83881058  0.94883624  0.32237884  1
