# generated using pymatgen
data_YTiFe11
_symmetry_space_group_name_H-M   'P 1'
_cell_length_a   4.72265930
_cell_length_b   6.46522953
_cell_length_c   6.46522953
_cell_angle_alpha   97.37243763
_cell_angle_beta   111.42205612
_cell_angle_gamma   68.57794388
_symmetry_Int_Tables_number   1
_chemical_formula_structural   YTiFe11
_chemical_formula_sum   'Y1 Ti1 Fe11'
_cell_volume   171.06744887
_cell_formula_units_Z   1
loop_
 _symmetry_equiv_pos_site_id
 _symmetry_equiv_pos_as_xyz
  1  'x, y, z'
loop_
 _atom_site_type_symbol
 _atom_site_label
 _atom_site_symmetry_multiplicity
 _atom_site_fract_x
 _atom_site_fract_y
 _atom_site_fract_z
 _atom_site_occupancy
  Y  Y0  1  0.00627928  0.99372072  0.00627928  1
  Ti  Ti1  1  0.63250558  0.36749442  0.63250558  1
  Fe  Fe2  1  0.50033392  0.99761794  0.49968561  1
  Fe  Fe3  1  0.00173376  0.99761794  0.49968561  1
  Fe  Fe4  1  0.50033392  0.50031439  0.00238206  1
  Fe  Fe5  1  0.00173376  0.50031439  0.00238206  1
  Fe  Fe6  1  0.72831869  0.77168131  0.22831869  1
  Fe  Fe7  1  0.27554192  0.22445808  0.77554192  1
  Fe  Fe8  1  0.49919485  0.77832554  0.77671524  1
  Fe  Fe9  1  0.49919485  0.22328476  0.22167446  1
  Fe  Fe10  1  0.35499213  0.64500787  0.35499213  1
  Fe  Fe11  1  0.99991867  0.35741176  0.35724910  1
  Fe  Fe12  1  0.99991867  0.64275090  0.64258824  1
