# generated using pymatgen
data_CePOs2C
_symmetry_space_group_name_H-M   'P 1'
_cell_length_a   3.88984922
_cell_length_b   5.88785208
_cell_length_c   7.09184887
_cell_angle_alpha   90.00000000
_cell_angle_beta   90.00000000
_cell_angle_gamma   109.28870774
_symmetry_Int_Tables_number   1
_chemical_formula_structural   CePOs2C
_chemical_formula_sum   'Ce2 P2 Os4 C2'
_cell_volume   153.30612477
_cell_formula_units_Z   2
loop_
 _symmetry_equiv_pos_site_id
 _symmetry_equiv_pos_as_xyz
  1  'x, y, z'
loop_
 _atom_site_type_symbol
 _atom_site_label
 _atom_site_symmetry_multiplicity
 _atom_site_fract_x
 _atom_site_fract_y
 _atom_site_fract_z
 _atom_site_occupancy
  Ce  Ce0  1  0.45290697  0.90581395  0.25000000  1
  Ce  Ce1  1  0.54709303  0.09418605  0.75000000  1
  P  P2  1  0.72945383  0.45890766  0.25000000  1
  P  P3  1  0.27054617  0.54109234  0.75000000  1
  Os  Os4  1  0.16719638  0.33439275  0.05419552  1
  Os  Os5  1  0.83280362  0.66560725  0.94580448  1
  Os  Os6  1  0.83280362  0.66560725  0.55419552  1
  Os  Os7  1  0.16719638  0.33439275  0.44580448  1
  C  C8  1  0.00000000  0.00000000  0.00000000  1
  C  C9  1  0.00000000  0.00000000  0.50000000  1
