# generated using pymatgen
data_Tl2Pd9Pb
_symmetry_space_group_name_H-M   'P 1'
_cell_length_a   4.14276789
_cell_length_b   4.14276789
_cell_length_c   12.30038355
_cell_angle_alpha   80.30519634
_cell_angle_beta   80.30519634
_cell_angle_gamma   90.00000000
_symmetry_Int_Tables_number   1
_chemical_formula_structural   Tl2Pd9Pb
_chemical_formula_sum   'Tl2 Pd9 Pb1'
_cell_volume   205.03161647
_cell_formula_units_Z   1
loop_
 _symmetry_equiv_pos_site_id
 _symmetry_equiv_pos_as_xyz
  1  'x, y, z'
loop_
 _atom_site_type_symbol
 _atom_site_label
 _atom_site_symmetry_multiplicity
 _atom_site_fract_x
 _atom_site_fract_y
 _atom_site_fract_z
 _atom_site_occupancy
  Tl  Tl0  1  0.83435790  0.83435790  0.33128419  1
  Tl  Tl1  1  0.99931175  0.99931175  0.00137650  1
  Pd  Pd2  1  0.58375557  0.08375557  0.83248886  1
  Pd  Pd3  1  0.08375557  0.58375557  0.83248886  1
  Pd  Pd4  1  0.41589482  0.91589482  0.16821037  1
  Pd  Pd5  1  0.91589482  0.41589482  0.16821037  1
  Pd  Pd6  1  0.49985401  0.49985401  0.00029198  1
  Pd  Pd7  1  0.75038318  0.25038318  0.49923364  1
  Pd  Pd8  1  0.25038318  0.75038318  0.49923364  1
  Pd  Pd9  1  0.66887361  0.66887361  0.66225278  1
  Pd  Pd10  1  0.33200991  0.33200991  0.33598018  1
  Pb  Pb11  1  0.16552568  0.16552568  0.66894865  1
