# generated using pymatgen
data_YNi3Sn2
_symmetry_space_group_name_H-M   'P 1'
_cell_length_a   4.21762792
_cell_length_b   9.30017268
_cell_length_c   9.29621341
_cell_angle_alpha   120.01408753
_cell_angle_beta   90.00000000
_cell_angle_gamma   90.00000000
_symmetry_Int_Tables_number   1
_chemical_formula_structural   YNi3Sn2
_chemical_formula_sum   'Y3 Ni9 Sn6'
_cell_volume   315.74343138
_cell_formula_units_Z   3
loop_
 _symmetry_equiv_pos_site_id
 _symmetry_equiv_pos_as_xyz
  1  'x, y, z'
loop_
 _atom_site_type_symbol
 _atom_site_label
 _atom_site_symmetry_multiplicity
 _atom_site_fract_x
 _atom_site_fract_y
 _atom_site_fract_z
 _atom_site_occupancy
  Y  Y0  1  0.50000000  0.33330211  0.66657953  1
  Y  Y1  1  0.50000000  0.66672258  0.33342047  1
  Y  Y2  1  0.00000000  0.00007004  1.00000000  1
  Ni  Ni3  1  -0.00000000  0.20680624  0.37431340  1
  Ni  Ni4  1  0.00000000  0.16722457  0.79308242  1
  Ni  Ni5  1  0.00000000  0.62597875  0.83283759  1
  Ni  Ni6  1  -0.00000000  0.83249284  0.62568660  1
  Ni  Ni7  1  0.00000000  0.37414215  0.20691758  1
  Ni  Ni8  1  0.00000000  0.79314117  0.16716241  1
  Ni  Ni9  1  0.50000000  0.29632748  1.00000000  1
  Ni  Ni10  1  0.50000000  0.70366479  0.70369877  1
  Ni  Ni11  1  0.50000000  0.99996601  0.29630123  1
  Sn  Sn12  1  0.50000000  0.74718145  1.00000000  1
  Sn  Sn13  1  0.50000000  0.25294108  0.25288710  1
  Sn  Sn14  1  0.50000000  0.00005398  0.74711290  1
  Sn  Sn15  1  0.00000000  0.47083961  0.00000000  1
  Sn  Sn16  1  0.00000000  0.52896759  0.52889003  1
  Sn  Sn17  1  0.00000000  0.00007756  0.47110997  1
