# generated using pymatgen
data_VRe11B4
_symmetry_space_group_name_H-M   'P 1'
_cell_length_a   2.93318709
_cell_length_b   4.89740330
_cell_length_c   14.63330591
_cell_angle_alpha   90.00000000
_cell_angle_beta   90.00000000
_cell_angle_gamma   72.57461098
_symmetry_Int_Tables_number   1
_chemical_formula_structural   VRe11B4
_chemical_formula_sum   'V1 Re11 B4'
_cell_volume   200.56054318
_cell_formula_units_Z   1
loop_
 _symmetry_equiv_pos_site_id
 _symmetry_equiv_pos_as_xyz
  1  'x, y, z'
loop_
 _atom_site_type_symbol
 _atom_site_label
 _atom_site_symmetry_multiplicity
 _atom_site_fract_x
 _atom_site_fract_y
 _atom_site_fract_z
 _atom_site_occupancy
  V  V0  1  0.57117384  0.85765232  0.12500000  1
  Re  Re1  1  0.86489718  0.27020564  0.21715044  1
  Re  Re2  1  0.86662597  0.26674806  0.71774440  1
  Re  Re3  1  0.13715130  0.72569740  0.27672585  1
  Re  Re4  1  0.13417767  0.73164466  0.78371280  1
  Re  Re5  1  0.86489718  0.27020564  0.03284956  1
  Re  Re6  1  0.86662597  0.26674806  0.53225560  1
  Re  Re7  1  0.13417767  0.73164466  0.46628720  1
  Re  Re8  1  0.13715130  0.72569740  0.97327415  1
  Re  Re9  1  0.57681662  0.84636675  0.62500000  1
  Re  Re10  1  0.42611928  0.14776143  0.37343627  1
  Re  Re11  1  0.42611928  0.14776143  0.87656373  1
  B  B12  1  0.25000570  0.49998861  0.12500000  1
  B  B13  1  0.25478814  0.49042372  0.62500000  1
  B  B14  1  0.74463644  0.51072712  0.37411990  1
  B  B15  1  0.74463644  0.51072712  0.87588010  1
