# generated using pymatgen
data_Zr4NiMo
_symmetry_space_group_name_H-M   'P 1'
_cell_length_a   8.81493672
_cell_length_b   8.81493672
_cell_length_c   8.81493672
_cell_angle_alpha   60.00000000
_cell_angle_beta   120.00000000
_cell_angle_gamma   120.00000000
_symmetry_Int_Tables_number   1
_chemical_formula_structural   Zr4NiMo
_chemical_formula_sum   'Zr16 Ni4 Mo4'
_cell_volume   484.33136988
_cell_formula_units_Z   4
loop_
 _symmetry_equiv_pos_site_id
 _symmetry_equiv_pos_as_xyz
  1  'x, y, z'
loop_
 _atom_site_type_symbol
 _atom_site_label
 _atom_site_symmetry_multiplicity
 _atom_site_fract_x
 _atom_site_fract_y
 _atom_site_fract_z
 _atom_site_occupancy
  Zr  Zr0  1  0.52207220  0.56621661  0.97792780  1
  Zr  Zr1  1  0.52207220  0.97792780  0.97792780  1
  Zr  Zr2  1  0.52207220  0.97792780  0.56621661  1
  Zr  Zr3  1  0.93378339  0.97792780  0.97792780  1
  Zr  Zr4  1  0.07649006  0.82649006  0.42350994  1
  Zr  Zr5  1  0.67350994  0.42350994  0.82649006  1
  Zr  Zr6  1  0.07649006  0.82649006  0.82649006  1
  Zr  Zr7  1  0.67350994  0.42350994  0.42350994  1
  Zr  Zr8  1  0.07649006  0.42350994  0.82649006  1
  Zr  Zr9  1  0.67350994  0.82649006  0.42350994  1
  Zr  Zr10  1  0.94032583  0.19032583  0.55967417  1
  Zr  Zr11  1  0.30967417  0.55967417  0.19032583  1
  Zr  Zr12  1  0.94032583  0.19032583  0.19032583  1
  Zr  Zr13  1  0.30967417  0.55967417  0.55967417  1
  Zr  Zr14  1  0.94032583  0.55967417  0.19032583  1
  Zr  Zr15  1  0.30967417  0.19032583  0.55967417  1
  Ni  Ni16  1  0.73308724  0.19926171  0.76691276  1
  Ni  Ni17  1  0.73308724  0.76691276  0.76691276  1
  Ni  Ni18  1  0.73308724  0.76691276  0.19926171  1
  Ni  Ni19  1  0.30073829  0.76691276  0.76691276  1
  Mo  Mo20  1  0.29247094  0.87741282  0.20752906  1
  Mo  Mo21  1  0.29247094  0.20752906  0.20752906  1
  Mo  Mo22  1  0.29247094  0.20752906  0.87741282  1
  Mo  Mo23  1  0.62258718  0.20752906  0.20752906  1
