# generated using pymatgen
data_TmAlCo
_symmetry_space_group_name_H-M   'P 1'
_cell_length_a   5.29568026
_cell_length_b   5.36786094
_cell_length_c   8.37798897
_cell_angle_alpha   90.00000000
_cell_angle_beta   90.00000000
_cell_angle_gamma   120.45424941
_symmetry_Int_Tables_number   1
_chemical_formula_structural   TmAlCo
_chemical_formula_sum   'Tm4 Al4 Co4'
_cell_volume   205.29920579
_cell_formula_units_Z   4
loop_
 _symmetry_equiv_pos_site_id
 _symmetry_equiv_pos_as_xyz
  1  'x, y, z'
loop_
 _atom_site_type_symbol
 _atom_site_label
 _atom_site_symmetry_multiplicity
 _atom_site_fract_x
 _atom_site_fract_y
 _atom_site_fract_z
 _atom_site_occupancy
  Tm  Tm0  1  0.66748592  0.33377486  0.54651760  1
  Tm  Tm1  1  0.34048913  0.67025484  0.42536781  1
  Tm  Tm2  1  0.34048913  0.67025484  0.07463219  1
  Tm  Tm3  1  0.66748592  0.33377486  0.95348240  1
  Al  Al4  1  0.99223290  0.99606367  0.47924575  1
  Al  Al5  1  0.99223290  0.99606367  0.02075425  1
  Al  Al6  1  0.17422549  0.33985628  0.75000000  1
  Al  Al7  1  0.17420210  0.83436553  0.75000000  1
  Co  Co8  1  0.66703016  0.83348484  0.75000000  1
  Co  Co9  1  0.81798755  0.64340606  0.25000000  1
  Co  Co10  1  0.81790398  0.17460759  0.25000000  1
  Co  Co11  1  0.34823484  0.17409297  0.25000000  1
