# generated using pymatgen
data_Ti3(TeSe)2
_symmetry_space_group_name_H-M   'P 1'
_cell_length_a   3.68729051
_cell_length_b   6.83152303
_cell_length_c   7.38145215
_cell_angle_alpha   119.59847318
_cell_angle_beta   75.53625828
_cell_angle_gamma   90.00000000
_symmetry_Int_Tables_number   1
_chemical_formula_structural   Ti3(TeSe)2
_chemical_formula_sum   'Ti3 Te2 Se2'
_cell_volume   154.86034518
_cell_formula_units_Z   1
loop_
 _symmetry_equiv_pos_site_id
 _symmetry_equiv_pos_as_xyz
  1  'x, y, z'
loop_
 _atom_site_type_symbol
 _atom_site_label
 _atom_site_symmetry_multiplicity
 _atom_site_fract_x
 _atom_site_fract_y
 _atom_site_fract_z
 _atom_site_occupancy
  Ti  Ti0  1  0.25281042  0.68154102  0.49437917  1
  Ti  Ti1  1  0.74718958  0.31845898  0.50562083  1
  Ti  Ti2  1  -0.00000000  0.00000000  0.00000000  1
  Te  Te3  1  0.36541106  0.95182803  0.26917787  1
  Te  Te4  1  0.63458894  0.04817197  0.73082213  1
  Se  Se5  1  0.11229944  0.56031555  0.77540112  1
  Se  Se6  1  0.88770056  0.43968445  0.22459888  1
