# generated using pymatgen
data_Tb2Ge6Au
_symmetry_space_group_name_H-M   'P 1'
_cell_length_a   4.14714539
_cell_length_b   4.13054929
_cell_length_c   11.29223902
_cell_angle_alpha   90.00000000
_cell_angle_beta   100.58115793
_cell_angle_gamma   90.00000000
_symmetry_Int_Tables_number   1
_chemical_formula_structural   Tb2Ge6Au
_chemical_formula_sum   'Tb2 Ge6 Au1'
_cell_volume   190.14669876
_cell_formula_units_Z   1
loop_
 _symmetry_equiv_pos_site_id
 _symmetry_equiv_pos_as_xyz
  1  'x, y, z'
loop_
 _atom_site_type_symbol
 _atom_site_label
 _atom_site_symmetry_multiplicity
 _atom_site_fract_x
 _atom_site_fract_y
 _atom_site_fract_z
 _atom_site_occupancy
  Tb  Tb0  1  0.77800447  0.50000000  0.55600894  1
  Tb  Tb1  1  0.12014304  0.50000000  0.24028609  1
  Ge  Ge2  1  0.49005600  0.50000000  0.98011201  1
  Ge  Ge3  1  0.37687039  0.50000000  0.75374079  1
  Ge  Ge4  1  0.99069050  0.00000000  0.98138099  1
  Ge  Ge5  1  0.87699840  -0.00000000  0.75399680  1
  Ge  Ge6  1  0.67286228  -0.00000000  0.34572456  1
  Ge  Ge7  1  0.24020839  0.00000000  0.48041678  1
  Au  Au8  1  0.56116652  -0.00000000  0.12233305  1
