# generated using pymatgen
data_TbHo3Co8
_symmetry_space_group_name_H-M   'P 1'
_cell_length_a   5.01643192
_cell_length_b   5.01643192
_cell_length_c   8.81332165
_cell_angle_alpha   73.46543540
_cell_angle_beta   90.00000000
_cell_angle_gamma   120.00000000
_symmetry_Int_Tables_number   1
_chemical_formula_structural   TbHo3Co8
_chemical_formula_sum   'Tb1 Ho3 Co8'
_cell_volume   181.40305957
_cell_formula_units_Z   1
loop_
 _symmetry_equiv_pos_site_id
 _symmetry_equiv_pos_as_xyz
  1  'x, y, z'
loop_
 _atom_site_type_symbol
 _atom_site_label
 _atom_site_symmetry_multiplicity
 _atom_site_fract_x
 _atom_site_fract_y
 _atom_site_fract_z
 _atom_site_occupancy
  Tb  Tb0  1  0.31251364  0.12502727  0.06245909  1
  Ho  Ho1  1  0.81268916  0.12537832  0.56193252  1
  Ho  Ho2  1  0.18740061  0.87480123  0.43779816  1
  Ho  Ho3  1  0.68740179  0.87480357  0.93779464  1
  Co  Co4  1  0.00004842  0.50009683  0.99985475  1
  Co  Co5  1  0.49995970  0.49991939  0.50012091  1
  Co  Co6  1  0.74984875  0.99969750  0.25055066  1
  Co  Co7  1  0.25000421  0.00000843  0.74946265  1
  Co  Co8  1  0.74984875  0.49960060  0.25055066  1
  Co  Co9  1  0.25000421  0.50053313  0.74946265  1
  Co  Co10  1  0.24975185  0.49960060  0.25055066  1
  Co  Co11  1  0.75052892  0.50053313  0.74946265  1
