# generated using pymatgen
data_Tl(V3S4)4
_symmetry_space_group_name_H-M   'P 1'
_cell_length_a   3.26756364
_cell_length_b   9.11316667
_cell_length_c   15.81287274
_cell_angle_alpha   90.09945253
_cell_angle_beta   89.98942124
_cell_angle_gamma   89.99538703
_symmetry_Int_Tables_number   1
_chemical_formula_structural   Tl(V3S4)4
_chemical_formula_sum   'Tl1 V12 S16'
_cell_volume   470.87266569
_cell_formula_units_Z   1
loop_
 _symmetry_equiv_pos_site_id
 _symmetry_equiv_pos_as_xyz
  1  'x, y, z'
loop_
 _atom_site_type_symbol
 _atom_site_label
 _atom_site_symmetry_multiplicity
 _atom_site_fract_x
 _atom_site_fract_y
 _atom_site_fract_z
 _atom_site_occupancy
  Tl  Tl0  1  0.50000000  0.00000000  0.00000000  1
  V  V1  1  0.74998815  0.92923519  0.44011827  1
  V  V2  1  0.74956403  0.43129088  0.93984524  1
  V  V3  1  0.74945911  0.87466908  0.24616824  1
  V  V4  1  0.75005574  0.37619359  0.74420143  1
  V  V5  1  0.75004539  0.19529257  0.31593968  1
  V  V6  1  0.74969147  0.69358812  0.81433146  1
  V  V7  1  0.25043597  0.56870912  0.06015476  1
  V  V8  1  0.25001185  0.07076481  0.55988173  1
  V  V9  1  0.24994426  0.62380641  0.25579857  1
  V  V10  1  0.25054089  0.12533092  0.75383176  1
  V  V11  1  0.25030853  0.30641188  0.18566854  1
  V  V12  1  0.24995461  0.80470743  0.68406032  1
  S  S13  1  0.74997767  0.50024107  0.16695164  1
  S  S14  1  0.74995185  0.00039906  0.66646230  1
  S  S15  1  0.25004815  0.99960094  0.33353770  1
  S  S16  1  0.25002233  0.49975893  0.83304836  1
  S  S17  1  0.75011025  0.69895994  0.35189045  1
  S  S18  1  0.75308383  0.19925364  0.85110830  1
  S  S19  1  0.75301957  0.12448183  0.17412091  1
  S  S20  1  0.75022626  0.62308778  0.67375858  1
  S  S21  1  0.75029193  0.17721103  0.47455077  1
  S  S22  1  0.75309153  0.67764916  0.97531232  1
  S  S23  1  0.24691617  0.80074636  0.14889170  1
  S  S24  1  0.24988975  0.30104006  0.64810955  1
  S  S25  1  0.24977374  0.37691222  0.32624142  1
  S  S26  1  0.24698043  0.87551817  0.82587909  1
  S  S27  1  0.24690847  0.32235084  0.02468768  1
  S  S28  1  0.24970807  0.82278897  0.52544923  1
