# generated using pymatgen
data_Tb4Si3Ge
_symmetry_space_group_name_H-M   'P 1'
_cell_length_a   3.88691575
_cell_length_b   4.31452875
_cell_length_c   10.62632031
_cell_angle_alpha   90.00000000
_cell_angle_beta   90.00000000
_cell_angle_gamma   90.00000000
_symmetry_Int_Tables_number   1
_chemical_formula_structural   Tb4Si3Ge
_chemical_formula_sum   'Tb4 Si3 Ge1'
_cell_volume   178.20562049
_cell_formula_units_Z   1
loop_
 _symmetry_equiv_pos_site_id
 _symmetry_equiv_pos_as_xyz
  1  'x, y, z'
loop_
 _atom_site_type_symbol
 _atom_site_label
 _atom_site_symmetry_multiplicity
 _atom_site_fract_x
 _atom_site_fract_y
 _atom_site_fract_z
 _atom_site_occupancy
  Tb  Tb0  1  0.25000000  0.00000000  0.13760972  1
  Tb  Tb1  1  0.25000000  0.50000000  0.64106975  1
  Tb  Tb2  1  0.75000000  0.50000000  0.35924783  1
  Tb  Tb3  1  0.75000000  0.00000000  0.86077045  1
  Si  Si4  1  0.25000000  0.50000000  0.92464016  1
  Si  Si5  1  0.75000000  0.50000000  0.07578954  1
  Si  Si6  1  0.75000000  0.00000000  0.58039904  1
  Ge  Ge7  1  0.25000000  0.00000000  0.42047351  1
