# generated using pymatgen
data_Tb3HoCo8
_symmetry_space_group_name_H-M   'P 1'
_cell_length_a   5.04748896
_cell_length_b   5.04748896
_cell_length_c   8.78793854
_cell_angle_alpha   73.31063285
_cell_angle_beta   90.00000000
_cell_angle_gamma   120.00000000
_symmetry_Int_Tables_number   1
_chemical_formula_structural   Tb3HoCo8
_chemical_formula_sum   'Tb3 Ho1 Co8'
_cell_volume   182.92450082
_cell_formula_units_Z   1
loop_
 _symmetry_equiv_pos_site_id
 _symmetry_equiv_pos_as_xyz
  1  'x, y, z'
loop_
 _atom_site_type_symbol
 _atom_site_label
 _atom_site_symmetry_multiplicity
 _atom_site_fract_x
 _atom_site_fract_y
 _atom_site_fract_z
 _atom_site_occupancy
  Tb  Tb0  1  0.81252639  0.12505278  0.56242084  1
  Tb  Tb1  1  0.18748671  0.87497341  0.43753988  1
  Tb  Tb2  1  0.68740025  0.87480050  0.93779925  1
  Ho  Ho3  1  0.31257812  0.12515624  0.06226564  1
  Co  Co4  1  0.99997139  0.49994278  0.00008583  1
  Co  Co5  1  0.50001746  0.50003493  0.49994761  1
  Co  Co6  1  0.75009637  0.00019275  0.24968364  1
  Co  Co7  1  0.24999507  -0.00000985  0.75029668  1
  Co  Co8  1  0.75009637  0.50021999  0.24968364  1
  Co  Co9  1  0.24999507  0.49970825  0.75029668  1
  Co  Co10  1  0.25012362  0.50021999  0.24968364  1
  Co  Co11  1  0.74971317  0.49970825  0.75029668  1
