# generated using pymatgen
data_Ti3Fe(BiO3)5
_symmetry_space_group_name_H-M   'P 1'
_cell_length_a   5.48607106
_cell_length_b   5.53442836
_cell_length_c   20.96113504
_cell_angle_alpha   90.00000000
_cell_angle_beta   82.48065607
_cell_angle_gamma   90.00000000
_symmetry_Int_Tables_number   1
_chemical_formula_structural   Ti3Fe(BiO3)5
_chemical_formula_sum   'Ti6 Fe2 Bi10 O30'
_cell_volume   630.95477622
_cell_formula_units_Z   2
loop_
 _symmetry_equiv_pos_site_id
 _symmetry_equiv_pos_as_xyz
  1  'x, y, z'
loop_
 _atom_site_type_symbol
 _atom_site_label
 _atom_site_symmetry_multiplicity
 _atom_site_fract_x
 _atom_site_fract_y
 _atom_site_fract_z
 _atom_site_occupancy
  Ti  Ti0  1  0.90103145  0.78475087  0.69669973  1
  Ti  Ti1  1  0.59776561  0.78808070  0.30423414  1
  Ti  Ti2  1  0.09896855  0.28475087  0.30330027  1
  Ti  Ti3  1  0.40223439  0.28808070  0.69576586  1
  Ti  Ti4  1  0.69454665  0.79458732  0.09682931  1
  Ti  Ti5  1  0.30545335  0.29458732  0.90317069  1
  Fe  Fe6  1  0.79414037  0.79625126  0.90360520  1
  Fe  Fe7  1  0.20585963  0.29625126  0.09639480  1
  Bi  Bi8  1  0.49497064  0.72904843  0.56161813  1
  Bi  Bi9  1  0.05606188  0.72716042  0.43819279  1
  Bi  Bi10  1  0.50502936  0.22904843  0.43838187  1
  Bi  Bi11  1  0.94393812  0.22716042  0.56180721  1
  Bi  Bi12  1  0.34700816  0.74127583  0.79499451  1
  Bi  Bi13  1  0.14285066  0.73629237  0.20625512  1
  Bi  Bi14  1  0.65299184  0.24127583  0.20500549  1
  Bi  Bi15  1  0.85714934  0.23629237  0.79374488  1
  Bi  Bi16  1  0.23981935  0.75448996  0.99695992  1
  Bi  Bi17  1  0.76018065  0.25448996  0.00304008  1
  O  O18  1  0.18193423  0.58628012  0.70399147  1
  O  O19  1  0.88515291  0.58864489  0.29629613  1
  O  O20  1  0.81806577  0.08628012  0.29600853  1
  O  O21  1  0.11484709  0.08864489  0.70370387  1
  O  O22  1  0.61914793  0.03918430  0.72517277  1
  O  O23  1  0.34488454  0.03790561  0.27576755  1
  O  O24  1  0.38085207  0.53918430  0.27482723  1
  O  O25  1  0.65511546  0.53790561  0.72423245  1
  O  O26  1  0.60108461  0.11702231  0.89164164  1
  O  O27  1  0.50894153  0.11784119  0.10680950  1
  O  O28  1  0.39891539  0.61702231  0.10835836  1
  O  O29  1  0.49105847  0.61784119  0.89319050  1
  O  O30  1  0.88426893  0.79906843  0.61262996  1
  O  O31  1  0.49734640  0.79652726  0.38797307  1
  O  O32  1  0.11573107  0.29906843  0.38737004  1
  O  O33  1  0.50265360  0.29652726  0.61202693  1
  O  O34  1  0.00716686  0.53153455  0.92550039  1
  O  O35  1  0.92189552  0.53681486  0.07728118  1
  O  O36  1  0.99283314  0.03153455  0.07449961  1
  O  O37  1  0.07810448  0.03681486  0.92271882  1
  O  O38  1  0.66359789  0.83881578  0.00106863  1
  O  O39  1  0.33640211  0.33881578  -0.00106863  1
  O  O40  1  0.91758861  0.83302889  0.80867279  1
  O  O41  1  0.72452005  0.83250987  0.18892437  1
  O  O42  1  0.08241139  0.33302889  0.19132721  1
  O  O43  1  0.27547995  0.33250987  0.81107563  1
  O  O44  1  0.25649020  0.49956186  0.50133635  1
  O  O45  1  0.75767961  0.49952291  0.49868305  1
  O  O46  1  0.74350980  -0.00043814  0.49866365  1
  O  O47  1  0.24232039  -0.00047709  0.50131695  1
