# generated using pymatgen
data_Sr3LaZnRuO8
_symmetry_space_group_name_H-M   'P 1'
_cell_length_a   5.62602394
_cell_length_b   5.63253159
_cell_length_c   6.91550833
_cell_angle_alpha   90.00000000
_cell_angle_beta   65.99798631
_cell_angle_gamma   90.00000000
_symmetry_Int_Tables_number   1
_chemical_formula_structural   Sr3LaZnRuO8
_chemical_formula_sum   'Sr3 La1 Zn1 Ru1 O8'
_cell_volume   200.19475130
_cell_formula_units_Z   1
loop_
 _symmetry_equiv_pos_site_id
 _symmetry_equiv_pos_as_xyz
  1  'x, y, z'
loop_
 _atom_site_type_symbol
 _atom_site_label
 _atom_site_symmetry_multiplicity
 _atom_site_fract_x
 _atom_site_fract_y
 _atom_site_fract_z
 _atom_site_occupancy
  Sr  Sr0  1  0.85640527  0.50000000  0.28718946  1
  Sr  Sr1  1  0.35864467  -0.00000000  0.28271065  1
  Sr  Sr2  1  0.64275274  -0.00000000  0.71449452  1
  La  La3  1  0.14288442  0.50000000  0.71423116  1
  Zn  Zn4  1  0.49994990  0.50000000  0.00010021  1
  Ru  Ru5  1  0.99836981  -0.00000000  0.00326038  1
  O  O6  1  0.24427646  0.75359405  0.99540141  1
  O  O7  1  0.76032213  0.24640595  0.99540141  1
  O  O8  1  0.24427646  0.24640595  0.99540141  1
  O  O9  1  0.76032213  0.75359405  0.99540141  1
  O  O10  1  0.16238726  -0.00000000  0.67522549  1
  O  O11  1  0.66807887  0.50000000  0.66384225  1
  O  O12  1  0.32117696  0.50000000  0.35764609  1
  O  O13  1  0.84015292  -0.00000000  0.31969416  1
