# generated using pymatgen
data_Ta4Cr7Si8
_symmetry_space_group_name_H-M   'P 1'
_cell_length_a   4.83923004
_cell_length_b   13.19110357
_cell_length_c   15.84298388
_cell_angle_alpha   90.00000000
_cell_angle_beta   90.00000000
_cell_angle_gamma   90.00000000
_symmetry_Int_Tables_number   1
_chemical_formula_structural   Ta4Cr7Si8
_chemical_formula_sum   'Ta16 Cr28 Si32'
_cell_volume   1011.33346430
_cell_formula_units_Z   4
loop_
 _symmetry_equiv_pos_site_id
 _symmetry_equiv_pos_as_xyz
  1  'x, y, z'
loop_
 _atom_site_type_symbol
 _atom_site_label
 _atom_site_symmetry_multiplicity
 _atom_site_fract_x
 _atom_site_fract_y
 _atom_site_fract_z
 _atom_site_occupancy
  Ta  Ta0  1  0.75000000  0.43295285  0.69851817  1
  Ta  Ta1  1  0.75000000  0.93295285  0.80148183  1
  Ta  Ta2  1  0.25000000  0.56704715  0.30148183  1
  Ta  Ta3  1  0.25000000  0.06704715  0.19851817  1
  Ta  Ta4  1  0.75000000  0.13331860  0.54205114  1
  Ta  Ta5  1  0.75000000  0.63331860  0.95794886  1
  Ta  Ta6  1  0.25000000  0.86668140  0.45794886  1
  Ta  Ta7  1  0.25000000  0.36668140  0.04205114  1
  Ta  Ta8  1  0.75000000  0.24881999  0.97321185  1
  Ta  Ta9  1  0.75000000  0.74881999  0.52678815  1
  Ta  Ta10  1  0.25000000  0.75118001  0.02678815  1
  Ta  Ta11  1  0.25000000  0.25118001  0.47321185  1
  Ta  Ta12  1  0.75000000  0.04187876  0.09293540  1
  Ta  Ta13  1  0.75000000  0.54187876  0.40706460  1
  Ta  Ta14  1  0.25000000  0.95812124  0.90706460  1
  Ta  Ta15  1  0.25000000  0.45812124  0.59293540  1
  Cr  Cr16  1  0.75000000  0.18756706  0.24958736  1
  Cr  Cr17  1  0.75000000  0.68756706  0.25041264  1
  Cr  Cr18  1  0.25000000  0.81243294  0.75041264  1
  Cr  Cr19  1  0.25000000  0.31243294  0.74958736  1
  Cr  Cr20  1  0.00907308  0.13591921  0.82405110  1
  Cr  Cr21  1  0.49092692  0.63591921  0.67594890  1
  Cr  Cr22  1  0.50907308  0.86408079  0.17594890  1
  Cr  Cr23  1  0.99092692  0.36408079  0.32405110  1
  Cr  Cr24  1  0.99092692  0.86408079  0.17594890  1
  Cr  Cr25  1  0.50907308  0.36408079  0.32405110  1
  Cr  Cr26  1  0.49092692  0.13591921  0.82405110  1
  Cr  Cr27  1  0.00907308  0.63591921  0.67594890  1
  Cr  Cr28  1  0.75000000  0.36415039  0.15449287  1
  Cr  Cr29  1  0.75000000  0.86415039  0.34550713  1
  Cr  Cr30  1  0.25000000  0.63584961  0.84550713  1
  Cr  Cr31  1  0.25000000  0.13584961  0.65449287  1
  Cr  Cr32  1  0.99041931  0.43858984  0.87919829  1
  Cr  Cr33  1  0.50958069  0.93858984  0.62080171  1
  Cr  Cr34  1  0.49041931  0.56141016  0.12080171  1
  Cr  Cr35  1  0.00958069  0.06141016  0.37919829  1
  Cr  Cr36  1  0.00958069  0.56141016  0.12080171  1
  Cr  Cr37  1  0.49041931  0.06141016  0.37919829  1
  Cr  Cr38  1  0.50958069  0.43858984  0.87919829  1
  Cr  Cr39  1  0.99041931  0.93858984  0.62080171  1
  Cr  Cr40  1  0.75000000  0.37360014  0.49724690  1
  Cr  Cr41  1  0.75000000  0.87360014  0.00275310  1
  Cr  Cr42  1  0.25000000  0.62639986  0.50275310  1
  Cr  Cr43  1  0.25000000  0.12639986  0.99724690  1
  Si  Si44  1  0.75000000  0.44974134  0.01838097  1
  Si  Si45  1  0.75000000  0.94974134  0.48161903  1
  Si  Si46  1  0.25000000  0.55025866  0.98161903  1
  Si  Si47  1  0.25000000  0.05025866  0.51838097  1
  Si  Si48  1  0.99748394  0.28409027  0.61980553  1
  Si  Si49  1  0.50251606  0.78409027  0.88019447  1
  Si  Si50  1  0.49748394  0.71590973  0.38019447  1
  Si  Si51  1  0.00251606  0.21590973  0.11980553  1
  Si  Si52  1  0.00251606  0.71590973  0.38019447  1
  Si  Si53  1  0.49748394  0.21590973  0.11980553  1
  Si  Si54  1  0.50251606  0.28409027  0.61980553  1
  Si  Si55  1  0.99748394  0.78409027  0.88019447  1
  Si  Si56  1  0.75000000  0.08809428  0.69812783  1
  Si  Si57  1  0.75000000  0.58809428  0.80187217  1
  Si  Si58  1  0.25000000  0.91190572  0.30187217  1
  Si  Si59  1  0.25000000  0.41190572  0.19812783  1
  Si  Si60  1  0.75000000  0.22656809  0.39684222  1
  Si  Si61  1  0.75000000  0.72656809  0.10315778  1
  Si  Si62  1  0.25000000  0.77343191  0.60315778  1
  Si  Si63  1  0.25000000  0.27343191  0.89684222  1
  Si  Si64  1  0.75000000  0.05032906  0.93411064  1
  Si  Si65  1  0.75000000  0.55032906  0.56588936  1
  Si  Si66  1  0.25000000  0.94967094  0.06588936  1
  Si  Si67  1  0.25000000  0.44967094  0.43411064  1
  Si  Si68  1  0.75000000  0.00265923  0.25311930  1
  Si  Si69  1  0.75000000  0.50265923  0.24688070  1
  Si  Si70  1  0.25000000  0.99734077  0.74688070  1
  Si  Si71  1  0.25000000  0.49734077  0.75311930  1
  Si  Si72  1  0.75000000  0.29037086  0.80674801  1
  Si  Si73  1  0.75000000  0.79037086  0.69325199  1
  Si  Si74  1  0.25000000  0.70962914  0.19325199  1
  Si  Si75  1  0.25000000  0.20962914  0.30674801  1
