# generated using pymatgen
data_TaVNi
_symmetry_space_group_name_H-M   'P 1'
_cell_length_a   4.93147700
_cell_length_b   4.91294993
_cell_length_c   8.06098889
_cell_angle_alpha   90.00000000
_cell_angle_beta   90.00000000
_cell_angle_gamma   119.96020338
_symmetry_Int_Tables_number   1
_chemical_formula_structural   TaVNi
_chemical_formula_sum   'Ta4 V4 Ni4'
_cell_volume   169.20466198
_cell_formula_units_Z   4
loop_
 _symmetry_equiv_pos_site_id
 _symmetry_equiv_pos_as_xyz
  1  'x, y, z'
loop_
 _atom_site_type_symbol
 _atom_site_label
 _atom_site_symmetry_multiplicity
 _atom_site_fract_x
 _atom_site_fract_y
 _atom_site_fract_z
 _atom_site_occupancy
  Ta  Ta0  1  0.64942736  0.32483670  0.56588915  1
  Ta  Ta1  1  0.32054344  0.66028491  0.44373445  1
  Ta  Ta2  1  0.32054344  0.66028491  0.05626555  1
  Ta  Ta3  1  0.64942736  0.32483670  0.93411085  1
  V  V4  1  0.68208600  0.84104603  0.75000000  1
  V  V5  1  0.82988574  0.66032191  0.25000000  1
  V  V6  1  0.82997425  0.16955758  0.25000000  1
  V  V7  1  0.34670591  0.17349704  0.25000000  1
  Ni  Ni8  1  0.00068870  0.00018497  0.50451568  1
  Ni  Ni9  1  0.00068870  0.00018497  0.99548432  1
  Ni  Ni10  1  0.18512737  0.34864437  0.75000000  1
  Ni  Ni11  1  0.18490173  0.83631991  0.75000000  1
