# generated using pymatgen
data_Ta3WS8
_symmetry_space_group_name_H-M   'P 1'
_cell_length_a   3.30828901
_cell_length_b   13.43996135
_cell_length_c   5.74004784
_cell_angle_alpha   77.66476539
_cell_angle_beta   90.04058010
_cell_angle_gamma   97.07842505
_symmetry_Int_Tables_number   1
_chemical_formula_structural   Ta3WS8
_chemical_formula_sum   'Ta3 W1 S8'
_cell_volume   247.34271103
_cell_formula_units_Z   1
loop_
 _symmetry_equiv_pos_site_id
 _symmetry_equiv_pos_as_xyz
  1  'x, y, z'
loop_
 _atom_site_type_symbol
 _atom_site_label
 _atom_site_symmetry_multiplicity
 _atom_site_fract_x
 _atom_site_fract_y
 _atom_site_fract_z
 _atom_site_occupancy
  Ta  Ta0  1  0.87532759  0.75000000  0.12098884  1
  Ta  Ta1  1  0.12569225  0.24995912  0.87594063  1
  Ta  Ta2  1  0.62573313  0.25004088  0.37589975  1
  W  W3  1  0.37520267  0.75000000  0.62769553  1
  S  S4  1  0.31513394  0.63031131  0.01383815  1
  S  S5  1  0.81627845  0.63254462  0.52168908  1
  S  S6  1  0.68501098  0.37099682  0.98079871  1
  S  S7  1  0.18504197  0.37103356  0.48096852  1
  S  S8  1  0.56400840  0.12896644  0.10200209  1
  S  S9  1  0.06401416  0.12900318  0.60179553  1
  S  S10  1  0.43482263  0.86968869  0.89414946  1
  S  S11  1  0.93373383  0.86745538  0.40423371  1
