# generated using pymatgen
data_SrLaCuO4
_symmetry_space_group_name_H-M   'P 1'
_cell_length_a   3.86982643
_cell_length_b   3.86982643
_cell_length_c   6.85344894
_cell_angle_alpha   73.60086745
_cell_angle_beta   73.60086745
_cell_angle_gamma   90.00000000
_symmetry_Int_Tables_number   1
_chemical_formula_structural   SrLaCuO4
_chemical_formula_sum   'Sr1 La1 Cu1 O4'
_cell_volume   94.09844729
_cell_formula_units_Z   1
loop_
 _symmetry_equiv_pos_site_id
 _symmetry_equiv_pos_as_xyz
  1  'x, y, z'
loop_
 _atom_site_type_symbol
 _atom_site_label
 _atom_site_symmetry_multiplicity
 _atom_site_fract_x
 _atom_site_fract_y
 _atom_site_fract_z
 _atom_site_occupancy
  Sr  Sr0  1  0.36038231  0.36038231  0.27923539  1
  La  La1  1  0.63976739  0.63976739  0.72046522  1
  Cu  Cu2  1  0.99808484  0.99808484  0.00383032  1
  O  O3  1  0.50555679  0.00555679  0.98888642  1
  O  O4  1  0.00555679  0.50555679  0.98888642  1
  O  O5  1  0.16450279  0.16450279  0.67099441  1
  O  O6  1  0.82614909  0.82614909  0.34770182  1
