# generated using pymatgen
data_Ta8V(CS2)4
_symmetry_space_group_name_H-M   'P 1'
_cell_length_a   6.63270027
_cell_length_b   6.63270020
_cell_length_c   9.39611083
_cell_angle_alpha   69.33219022
_cell_angle_beta   69.33218803
_cell_angle_gamma   60.00000035
_symmetry_Int_Tables_number   1
_chemical_formula_structural   Ta8V(CS2)4
_chemical_formula_sum   'Ta8 V1 C4 S8'
_cell_volume   326.90165910
_cell_formula_units_Z   1
loop_
 _symmetry_equiv_pos_site_id
 _symmetry_equiv_pos_as_xyz
  1  'x, y, z'
loop_
 _atom_site_type_symbol
 _atom_site_label
 _atom_site_symmetry_multiplicity
 _atom_site_fract_x
 _atom_site_fract_y
 _atom_site_fract_z
 _atom_site_occupancy
  Ta  Ta0  1  0.12244434  0.12244434  0.63266698  1
  Ta  Ta1  1  0.62225685  0.12036273  0.63512358  1
  Ta  Ta2  1  0.12036273  0.62225685  0.63512358  1
  Ta  Ta3  1  0.62225685  0.62225685  0.63512358  1
  Ta  Ta4  1  0.87755566  0.87755566  0.36733302  1
  Ta  Ta5  1  0.37774315  0.87963727  0.36487642  1
  Ta  Ta6  1  0.87963727  0.37774315  0.36487642  1
  Ta  Ta7  1  0.37774315  0.37774315  0.36487642  1
  V  V8  1  -0.00000000  -0.00000000  0.00000000  1
  C  C9  1  0.50000000  -0.00000000  0.50000000  1
  C  C10  1  -0.00000000  -0.00000000  0.50000000  1
  C  C11  1  0.50000000  0.50000000  0.50000000  1
  C  C12  1  -0.00000000  0.50000000  0.50000000  1
  S  S13  1  0.27456899  0.27456899  0.17629303  1
  S  S14  1  0.77489068  0.27813209  0.17208655  1
  S  S15  1  0.27813209  0.77489068  0.17208655  1
  S  S16  1  0.77489068  0.77489068  0.17208655  1
  S  S17  1  0.72543101  0.72543101  0.82370697  1
  S  S18  1  0.22510932  0.72186791  0.82791345  1
  S  S19  1  0.72186791  0.22510932  0.82791345  1
  S  S20  1  0.22510932  0.22510932  0.82791345  1
