# generated using pymatgen
data_SrPrVO4
_symmetry_space_group_name_H-M   'P 1'
_cell_length_a   3.91245369
_cell_length_b   3.91245369
_cell_length_c   6.91940643
_cell_angle_alpha   73.57762932
_cell_angle_beta   73.57762932
_cell_angle_gamma   90.00000000
_symmetry_Int_Tables_number   1
_chemical_formula_structural   SrPrVO4
_chemical_formula_sum   'Sr1 Pr1 V1 O4'
_cell_volume   97.08317121
_cell_formula_units_Z   1
loop_
 _symmetry_equiv_pos_site_id
 _symmetry_equiv_pos_as_xyz
  1  'x, y, z'
loop_
 _atom_site_type_symbol
 _atom_site_label
 _atom_site_symmetry_multiplicity
 _atom_site_fract_x
 _atom_site_fract_y
 _atom_site_fract_z
 _atom_site_occupancy
  Sr  Sr0  1  0.35439048  0.35439048  0.29121905  1
  Pr  Pr1  1  0.64207124  0.64207124  0.71585753  1
  V  V2  1  0.99700001  0.99700001  0.00599999  1
  O  O3  1  0.50772201  0.00772201  0.98455599  1
  O  O4  1  0.00772201  0.50772201  0.98455599  1
  O  O5  1  0.16570231  0.16570231  0.66859537  1
  O  O6  1  0.82539196  0.82539196  0.34921609  1
