# generated using pymatgen
data_Sr4CaLaTl2(Cu2O7)2
_symmetry_space_group_name_H-M   'P 1'
_cell_length_a   5.42553411
_cell_length_b   5.42553411
_cell_length_c   12.90053467
_cell_angle_alpha   77.86104491
_cell_angle_beta   77.86104491
_cell_angle_gamma   90.00000000
_symmetry_Int_Tables_number   1
_chemical_formula_structural   Sr4CaLaTl2(Cu2O7)2
_chemical_formula_sum   'Sr4 Ca1 La1 Tl2 Cu4 O14'
_cell_volume   362.56491911
_cell_formula_units_Z   1
loop_
 _symmetry_equiv_pos_site_id
 _symmetry_equiv_pos_as_xyz
  1  'x, y, z'
loop_
 _atom_site_type_symbol
 _atom_site_label
 _atom_site_symmetry_multiplicity
 _atom_site_fract_x
 _atom_site_fract_y
 _atom_site_fract_z
 _atom_site_occupancy
  Sr  Sr0  1  0.10165788  0.60165788  0.79668425  1
  Sr  Sr1  1  0.60368026  0.10368026  0.79263948  1
  Sr  Sr2  1  0.39834212  0.89834212  0.20331575  1
  Sr  Sr3  1  0.89631974  0.39631974  0.20736052  1
  Ca  Ca4  1  0.75000000  0.25000000  0.50000000  1
  La  La5  1  0.25000000  0.75000000  0.50000000  1
  Tl  Tl6  1  0.50000000  0.50000000  -0.00000000  1
  Tl  Tl7  1  0.00000000  0.00000000  -0.00000000  1
  Cu  Cu8  1  0.17845967  0.17845967  0.64308066  1
  Cu  Cu9  1  0.67845967  0.67845967  0.64308066  1
  Cu  Cu10  1  0.32154033  0.32154033  0.35691934  1
  Cu  Cu11  1  0.82154033  0.82154033  0.35691934  1
  O  O12  1  0.08605289  0.08605289  0.82789423  1
  O  O13  1  0.58605289  0.58605289  0.82789423  1
  O  O14  1  0.41394711  0.41394711  0.17210577  1
  O  O15  1  0.91394711  0.91394711  0.17210577  1
  O  O16  1  0.43700797  0.93700797  0.62890478  1
  O  O17  1  0.93408726  0.43408726  0.62890478  1
  O  O18  1  0.93408726  0.93700797  0.62890478  1
  O  O19  1  0.43700797  0.43408726  0.62890478  1
  O  O20  1  0.56591274  0.06591274  0.37109522  1
  O  O21  1  0.06299203  0.56299203  0.37109522  1
  O  O22  1  0.06299203  0.06591274  0.37109522  1
  O  O23  1  0.56591274  0.56299203  0.37109522  1
  O  O24  1  0.50021679  0.00021679  0.99956641  1
  O  O25  1  0.99978321  0.49978321  0.00043359  1
