# generated using pymatgen
data_Sr4Sn9Au7
_symmetry_space_group_name_H-M   'P 1'
_cell_length_a   4.82180866
_cell_length_b   4.82180866
_cell_length_c   22.95276697
_cell_angle_alpha   90.00000000
_cell_angle_beta   90.00000000
_cell_angle_gamma   90.00000000
_symmetry_Int_Tables_number   1
_chemical_formula_structural   Sr4Sn9Au7
_chemical_formula_sum   'Sr4 Sn9 Au7'
_cell_volume   533.64813100
_cell_formula_units_Z   1
loop_
 _symmetry_equiv_pos_site_id
 _symmetry_equiv_pos_as_xyz
  1  'x, y, z'
loop_
 _atom_site_type_symbol
 _atom_site_label
 _atom_site_symmetry_multiplicity
 _atom_site_fract_x
 _atom_site_fract_y
 _atom_site_fract_z
 _atom_site_occupancy
  Sr  Sr0  1  0.75000000  0.75000000  0.12026056  1
  Sr  Sr1  1  0.75000000  0.75000000  0.63274709  1
  Sr  Sr2  1  0.25000000  0.25000000  0.37973944  1
  Sr  Sr3  1  0.25000000  0.25000000  0.86725291  1
  Sn  Sn4  1  0.75000000  0.75000000  0.32134951  1
  Sn  Sn5  1  0.75000000  0.75000000  0.81279585  1
  Sn  Sn6  1  0.25000000  0.25000000  0.17865049  1
  Sn  Sn7  1  0.25000000  0.25000000  0.68720415  1
  Sn  Sn8  1  0.75000000  0.25000000  0.99576008  1
  Sn  Sn9  1  0.75000000  0.25000000  0.50423992  1
  Sn  Sn10  1  0.25000000  0.75000000  0.99537672  1
  Sn  Sn11  1  0.25000000  0.75000000  0.50462328  1
  Sn  Sn12  1  0.75000000  0.25000000  0.25000000  1
  Au  Au13  1  0.75000000  0.75000000  0.43800200  1
  Au  Au14  1  0.75000000  0.75000000  0.93098050  1
  Au  Au15  1  0.25000000  0.25000000  0.06199700  1
  Au  Au16  1  0.25000000  0.25000000  0.56901950  1
  Au  Au17  1  0.75000000  0.25000000  0.75000000  1
  Au  Au18  1  0.25000000  0.75000000  0.25000000  1
  Au  Au19  1  0.25000000  0.75000000  0.75000000  1
