# generated using pymatgen
data_SrCaYRuO6
_symmetry_space_group_name_H-M   'P 1'
_cell_length_a   5.70462020
_cell_length_b   5.87040950
_cell_length_c   8.16378089
_cell_angle_alpha   90.00000000
_cell_angle_beta   90.28473852
_cell_angle_gamma   90.00000000
_symmetry_Int_Tables_number   1
_chemical_formula_structural   SrCaYRuO6
_chemical_formula_sum   'Sr2 Ca2 Y2 Ru2 O12'
_cell_volume   273.38904644
_cell_formula_units_Z   2
loop_
 _symmetry_equiv_pos_site_id
 _symmetry_equiv_pos_as_xyz
  1  'x, y, z'
loop_
 _atom_site_type_symbol
 _atom_site_label
 _atom_site_symmetry_multiplicity
 _atom_site_fract_x
 _atom_site_fract_y
 _atom_site_fract_z
 _atom_site_occupancy
  Sr  Sr0  1  0.49048443  0.54215204  0.24993097  1
  Sr  Sr1  1  0.99048443  0.95784796  0.74993097  1
  Ca  Ca2  1  0.51293215  0.44662377  0.75382983  1
  Ca  Ca3  1  0.01293215  0.05337623  0.25382983  1
  Y  Y4  1  0.99994682  0.50245228  0.50141884  1
  Y  Y5  1  0.49994682  0.99754772  0.00141884  1
  Ru  Ru6  1  0.99977139  0.49976286  0.99956608  1
  Ru  Ru7  1  0.49977139  0.00023714  0.49956608  1
  O  O8  1  0.30619866  0.27227837  0.44941648  1
  O  O9  1  0.80619866  0.22772163  0.94941648  1
  O  O10  1  0.67617944  0.71389576  0.55381815  1
  O  O11  1  0.17617944  0.78610424  0.05381815  1
  O  O12  1  0.21407336  0.81629208  0.45021092  1
  O  O13  1  0.71407336  0.68370792  0.95021092  1
  O  O14  1  0.77649252  0.19484467  0.54154399  1
  O  O15  1  0.27649252  0.30515533  0.04154399  1
  O  O16  1  0.60451328  0.97181466  0.26704064  1
  O  O17  1  0.10451328  0.52818534  0.76704064  1
  O  O18  1  0.41940797  0.03914491  0.73322411  1
  O  O19  1  0.91940797  0.46085509  0.23322411  1
