# generated using pymatgen
data_Sr2TiP2O9
_symmetry_space_group_name_H-M   'P 1'
_cell_length_a   6.85401927
_cell_length_b   7.13025313
_cell_length_c   8.82819415
_cell_angle_alpha   76.39628910
_cell_angle_beta   77.71562850
_cell_angle_gamma   115.74707664
_symmetry_Int_Tables_number   1
_chemical_formula_structural   Sr2TiP2O9
_chemical_formula_sum   'Sr4 Ti2 P4 O18'
_cell_volume   352.41948359
_cell_formula_units_Z   2
loop_
 _symmetry_equiv_pos_site_id
 _symmetry_equiv_pos_as_xyz
  1  'x, y, z'
loop_
 _atom_site_type_symbol
 _atom_site_label
 _atom_site_symmetry_multiplicity
 _atom_site_fract_x
 _atom_site_fract_y
 _atom_site_fract_z
 _atom_site_occupancy
  Sr  Sr0  1  0.20701486  0.95636942  0.08624411  1
  Sr  Sr1  1  0.79325897  0.04261353  0.91375589  1
  Sr  Sr2  1  0.62658906  0.37656683  0.24794729  1
  Sr  Sr3  1  0.37453635  0.62451412  0.75205271  1
  Ti  Ti4  1  0.00237816  0.98404919  0.49382367  1
  Ti  Ti5  1  0.99620183  0.47787286  0.50617633  1
  P  P6  1  0.82716242  0.57672902  0.84557806  1
  P  P7  1  0.17274048  0.42230708  0.15442194  1
  P  P8  1  0.58681689  0.83670755  0.32583827  1
  P  P9  1  0.41265516  0.16254582  0.67416173  1
  O  O10  1  0.04282823  0.79579440  0.41321035  1
  O  O11  1  0.95603858  0.20900475  0.58678965  1
  O  O12  1  0.02006969  0.48272731  0.27257784  1
  O  O13  1  0.20876906  0.24470920  0.27123960  1
  O  O14  1  0.98000865  0.51594880  0.72876040  1
  O  O15  1  0.79264753  0.75530515  0.72742216  1
  O  O16  1  0.40185419  0.64044872  0.04751197  1
  O  O17  1  0.05035700  0.31207621  0.04726800  1
  O  O18  1  0.59762500  0.35934421  0.95273200  1
  O  O19  1  0.94936617  0.68796069  0.95248803  1
  O  O20  1  0.34794690  0.62151544  0.44595976  1
  O  O21  1  0.70777885  0.93194732  0.44565992  1
  O  O22  1  0.65343877  0.37760724  0.55434008  1
  O  O23  1  0.29390666  0.06747519  0.55404024  1
  O  O24  1  0.74347494  0.78181413  0.21402656  1
  O  O25  1  0.54193432  0.00371984  0.21456546  1
  O  O26  1  0.25649978  0.21828530  0.78543454  1
  O  O27  1  0.45750150  0.99584069  0.78597344  1
