# generated using pymatgen
data_Sr4Nb5O15
_symmetry_space_group_name_H-M   'P 1'
_cell_length_a   5.74517422
_cell_length_b   7.03148864
_cell_length_c   9.07965651
_cell_angle_alpha   104.95949000
_cell_angle_beta   108.44391298
_cell_angle_gamma   90.00000000
_symmetry_Int_Tables_number   1
_chemical_formula_structural   Sr4Nb5O15
_chemical_formula_sum   'Sr4 Nb5 O15'
_cell_volume   334.82144622
_cell_formula_units_Z   1
loop_
 _symmetry_equiv_pos_site_id
 _symmetry_equiv_pos_as_xyz
  1  'x, y, z'
loop_
 _atom_site_type_symbol
 _atom_site_label
 _atom_site_symmetry_multiplicity
 _atom_site_fract_x
 _atom_site_fract_y
 _atom_site_fract_z
 _atom_site_occupancy
  Sr  Sr0  1  0.59814700  0.39455248  0.19629400  1
  Sr  Sr1  1  0.19805125  0.80115988  0.39610250  1
  Sr  Sr2  1  0.80194875  0.19884012  0.60389750  1
  Sr  Sr3  1  0.40185300  0.60544752  0.80370600  1
  Nb  Nb4  1  0.80198795  0.70424588  0.60397589  1
  Nb  Nb5  1  0.59766995  0.89977195  0.19533991  1
  Nb  Nb6  1  0.19801205  0.29575412  0.39602411  1
  Nb  Nb7  1  0.40233005  0.10022805  0.80466009  1
  Nb  Nb8  1  0.00000000  0.50000000  0.00000000  1
  O  O9  1  0.58913966  0.89732127  0.69191890  1
  O  O10  1  0.41086034  0.10267873  0.30808110  1
  O  O11  1  0.00000000  0.50000000  0.50000000  1
  O  O12  1  0.20541048  0.30816330  0.89757643  1
  O  O13  1  0.79458952  0.69183670  0.10242357  1
  O  O14  1  0.50000000  0.50000000  0.50000000  1
  O  O15  1  0.30783405  0.69183670  0.10242357  1
  O  O16  1  0.89722076  0.10267873  0.30808110  1
  O  O17  1  0.10277924  0.89732127  0.69191890  1
  O  O18  1  0.69216595  0.30816330  0.89757643  1
  O  O19  1  0.89722491  0.58988208  0.79444982  1
  O  O20  1  0.70013863  0.79961675  0.40027726  1
  O  O21  1  0.29986137  0.20038325  0.59972274  1
  O  O22  1  0.50000000  0.00000000  0.00000000  1
  O  O23  1  0.10277509  0.41011792  0.20555018  1
