# generated using pymatgen
data_SrCa3Ti4O12
_symmetry_space_group_name_H-M   'P 1'
_cell_length_a   5.46883759
_cell_length_b   5.50869045
_cell_length_c   7.76219815
_cell_angle_alpha   90.00000000
_cell_angle_beta   90.00000000
_cell_angle_gamma   90.12568123
_symmetry_Int_Tables_number   1
_chemical_formula_structural   SrCa3Ti4O12
_chemical_formula_sum   'Sr1 Ca3 Ti4 O12'
_cell_volume   233.84445451
_cell_formula_units_Z   1
loop_
 _symmetry_equiv_pos_site_id
 _symmetry_equiv_pos_as_xyz
  1  'x, y, z'
loop_
 _atom_site_type_symbol
 _atom_site_label
 _atom_site_symmetry_multiplicity
 _atom_site_fract_x
 _atom_site_fract_y
 _atom_site_fract_z
 _atom_site_occupancy
  Sr  Sr0  1  0.50461600  0.52278981  0.25000000  1
  Ca  Ca1  1  0.99499328  0.03405395  0.25000000  1
  Ca  Ca2  1  0.49430677  0.46383371  0.75000000  1
  Ca  Ca3  1  0.00153160  0.97014375  0.75000000  1
  Ti  Ti4  1  0.99767742  0.50235540  0.99779058  1
  Ti  Ti5  1  0.49789819  0.99880171  0.50251915  1
  Ti  Ti6  1  0.99767742  0.50235540  0.50220942  1
  Ti  Ti7  1  0.49789819  0.99880171  0.99748085  1
  O  O8  1  0.79153006  0.78995500  0.03571492  1
  O  O9  1  0.71997634  0.28125161  0.47634127  1
  O  O10  1  0.21725590  0.21534938  0.53895131  1
  O  O11  1  0.28918647  0.71190723  0.96241527  1
  O  O12  1  0.21725590  0.21534938  0.96104869  1
  O  O13  1  0.28918647  0.71190723  0.53758473  1
  O  O14  1  0.79153006  0.78995500  0.46428508  1
  O  O15  1  0.71997634  0.28125161  0.02365873  1
  O  O16  1  0.43060312  0.99698030  0.25000000  1
  O  O17  1  0.05071017  0.48046224  0.25000000  1
  O  O18  1  0.56893999  0.00921046  0.75000000  1
  O  O19  1  0.92725031  0.52328511  0.75000000  1
