# generated using pymatgen
data_Sr3Ca3(Ru2O7)2
_symmetry_space_group_name_H-M   'P 1'
_cell_length_a   5.59300030
_cell_length_b   5.57483594
_cell_length_c   10.45299227
_cell_angle_alpha   90.28028069
_cell_angle_beta   74.52704557
_cell_angle_gamma   89.96125426
_symmetry_Int_Tables_number   1
_chemical_formula_structural   Sr3Ca3(Ru2O7)2
_chemical_formula_sum   'Sr3 Ca3 Ru4 O14'
_cell_volume   314.10783208
_cell_formula_units_Z   1
loop_
 _symmetry_equiv_pos_site_id
 _symmetry_equiv_pos_as_xyz
  1  'x, y, z'
loop_
 _atom_site_type_symbol
 _atom_site_label
 _atom_site_symmetry_multiplicity
 _atom_site_fract_x
 _atom_site_fract_y
 _atom_site_fract_z
 _atom_site_occupancy
  Sr  Sr0  1  0.74389481  0.27065242  0.00127077  1
  Sr  Sr1  1  0.25431306  0.76635283  0.99711447  1
  Sr  Sr2  1  0.92934497  0.21958359  0.62278255  1
  Ca  Ca3  1  0.54410170  0.20187090  0.37535788  1
  Ca  Ca4  1  0.08448740  0.70231498  0.37440518  1
  Ca  Ca5  1  0.45847480  0.70193208  0.62267713  1
  Ru  Ru6  1  0.85151065  0.73946886  0.80011532  1
  Ru  Ru7  1  0.65125877  0.74026758  0.20148337  1
  Ru  Ru8  1  0.14959826  0.23834726  0.19907870  1
  Ru  Ru9  1  0.34811744  0.23720417  0.79967095  1
  O  O10  1  0.11700844  0.26270555  0.39160349  1
  O  O11  1  0.48567308  0.26097219  0.59962070  1
  O  O12  1  0.89418809  0.73581357  0.60047654  1
  O  O13  1  0.49147288  0.75912190  0.39952278  1
  O  O14  1  0.80349050  0.73989182  0.00167257  1
  O  O15  1  0.19571471  0.22662237  0.00008713  1
  O  O16  1  0.36508978  0.53778189  0.17446228  1
  O  O17  1  0.55124007  0.52685671  0.82229713  1
  O  O18  1  0.62616712  0.02635795  0.82345703  1
  O  O19  1  0.45684594  0.03472682  0.17766472  1
  O  O20  1  0.83678275  0.44284904  0.22898808  1
  O  O21  1  0.07341689  0.45456933  0.78559957  1
  O  O22  1  0.15860128  0.94555089  0.76802918  1
  O  O23  1  0.92920662  0.94458531  0.23256248  1
