# generated using pymatgen
data_Sr10P6BrO24F
_symmetry_space_group_name_H-M   'P 1'
_cell_length_a   7.32550274
_cell_length_b   9.99364413
_cell_length_c   9.99363210
_cell_angle_alpha   59.99950242
_cell_angle_beta   89.99992334
_cell_angle_gamma   89.99994351
_symmetry_Int_Tables_number   1
_chemical_formula_structural   Sr10P6BrO24F
_chemical_formula_sum   'Sr10 P6 Br1 O24 F1'
_cell_volume   633.59702167
_cell_formula_units_Z   1
loop_
 _symmetry_equiv_pos_site_id
 _symmetry_equiv_pos_as_xyz
  1  'x, y, z'
loop_
 _atom_site_type_symbol
 _atom_site_label
 _atom_site_symmetry_multiplicity
 _atom_site_fract_x
 _atom_site_fract_y
 _atom_site_fract_z
 _atom_site_occupancy
  Sr  Sr0  1  0.49872723  0.66666326  0.66666831  1
  Sr  Sr1  1  0.99907417  0.33333497  0.33333242  1
  Sr  Sr2  1  0.49370890  0.33333569  0.33333209  1
  Sr  Sr3  1  0.00438141  0.66666479  0.66666707  1
  Sr  Sr4  1  0.74364511  0.73438070  0.99077885  1
  Sr  Sr5  1  0.74364417  0.27483994  0.73437936  1
  Sr  Sr6  1  0.74364805  0.99078101  0.27484702  1
  Sr  Sr7  1  0.25053142  0.23850342  0.00545669  1
  Sr  Sr8  1  0.25053219  0.75603751  0.23850328  1
  Sr  Sr9  1  0.25053121  0.00545599  0.75603454  1
  P  P10  1  0.75127827  0.03314084  0.60002134  1
  P  P11  1  0.75127980  0.36683564  0.03314121  1
  P  P12  1  0.75127887  0.60002381  0.36683441  1
  P  P13  1  0.25021631  0.96904379  0.40422756  1
  P  P14  1  0.25021478  0.62672907  0.96904350  1
  P  P15  1  0.25021517  0.40422746  0.62673058  1
  Br  Br16  1  0.91092363  0.99999915  0.00000810  1
  O  O17  1  0.58388885  0.07897178  0.66409626  1
  O  O18  1  0.58388896  0.25692920  0.07898159  1
  O  O19  1  0.58388845  0.66409180  0.25692796  1
  O  O20  1  0.07761093  0.91682850  0.35152356  1
  O  O21  1  0.07760813  0.73164984  0.91682266  1
  O  O22  1  0.07760804  0.35152653  0.73165161  1
  O  O23  1  0.42037758  0.91726565  0.34822992  1
  O  O24  1  0.42037760  0.73450528  0.91725665  1
  O  O25  1  0.42037762  0.34823709  0.73450635  1
  O  O26  1  0.92910174  0.08847782  0.64122741  1
  O  O27  1  0.92910456  0.27029464  0.08848566  1
  O  O28  1  0.92910392  0.64122173  0.27029363  1
  O  O29  1  0.73859792  0.12431523  0.41925129  1
  O  O30  1  0.73859640  0.45644230  0.12430471  1
  O  O31  1  0.73859567  0.41925208  0.45643963  1
  O  O32  1  0.25354841  0.88121757  0.58466104  1
  O  O33  1  0.25354633  0.53411337  0.88122768  1
  O  O34  1  0.25354659  0.58466065  0.53411553  1
  O  O35  1  0.75186707  0.85498313  0.66190293  1
  O  O36  1  0.75186783  0.48310320  0.85498154  1
  O  O37  1  0.75186697  0.66191205  0.48310341  1
  O  O38  1  0.25091925  0.14747254  0.33538031  1
  O  O39  1  0.25091868  0.51715766  0.14747315  1
  O  O40  1  0.25091949  0.33537222  0.51715811  1
  F  F41  1  0.33844233  0.00000111  0.99999108  1
