# generated using pymatgen
data_Sr2CdAu3
_symmetry_space_group_name_H-M   'P 1'
_cell_length_a   4.88281916
_cell_length_b   6.14724224
_cell_length_c   6.27246563
_cell_angle_alpha   94.40123483
_cell_angle_beta   112.90637592
_cell_angle_gamma   66.59954005
_symmetry_Int_Tables_number   1
_chemical_formula_structural   Sr2CdAu3
_chemical_formula_sum   'Sr2 Cd1 Au3'
_cell_volume   158.48638791
_cell_formula_units_Z   1
loop_
 _symmetry_equiv_pos_site_id
 _symmetry_equiv_pos_as_xyz
  1  'x, y, z'
loop_
 _atom_site_type_symbol
 _atom_site_label
 _atom_site_symmetry_multiplicity
 _atom_site_fract_x
 _atom_site_fract_y
 _atom_site_fract_z
 _atom_site_occupancy
  Sr  Sr0  1  0.74353031  0.71431499  0.20137560  1
  Sr  Sr1  1  0.24859833  0.29502768  0.79222434  1
  Cd  Cd2  1  0.56465308  0.26880750  0.39811365  1
  Au  Au3  1  0.45301328  0.70515720  0.61118376  1
  Au  Au4  1  0.03803300  0.12933800  0.20540400  1
  Au  Au5  1  0.95217200  0.88735464  0.79169865  1
