# generated using pymatgen
data_Sr3CaTi4O12
_symmetry_space_group_name_H-M   'P 1'
_cell_length_a   5.56815202
_cell_length_b   5.54707810
_cell_length_c   9.61669029
_cell_angle_alpha   90.05389812
_cell_angle_beta   73.17170093
_cell_angle_gamma   59.87424694
_symmetry_Int_Tables_number   1
_chemical_formula_structural   Sr3CaTi4O12
_chemical_formula_sum   'Sr3 Ca1 Ti4 O12'
_cell_volume   242.04058709
_cell_formula_units_Z   1
loop_
 _symmetry_equiv_pos_site_id
 _symmetry_equiv_pos_as_xyz
  1  'x, y, z'
loop_
 _atom_site_type_symbol
 _atom_site_label
 _atom_site_symmetry_multiplicity
 _atom_site_fract_x
 _atom_site_fract_y
 _atom_site_fract_z
 _atom_site_occupancy
  Sr  Sr0  1  0.25032921  0.87500000  0.62500000  1
  Sr  Sr1  1  0.75084609  0.62498279  0.87559860  1
  Sr  Sr2  1  0.75142749  0.12501721  0.37440140  1
  Ca  Ca3  1  0.25494979  0.37500000  0.12500000  1
  Ti  Ti4  1  0.50414099  0.74933681  0.24830727  1
  Ti  Ti5  1  0.49994561  0.25125426  0.75186778  1
  Ti  Ti6  1  0.00178507  0.00066319  0.00169273  1
  Ti  Ti7  1  0.00306765  0.49874574  0.49813222  1
  O  O8  1  0.20961253  0.62550161  0.87666331  1
  O  O9  1  0.21177745  0.12449839  0.37333669  1
  O  O10  1  0.81525853  0.37500000  0.12500000  1
  O  O11  1  0.78538603  0.87500000  0.62500000  1
  O  O12  1  0.73342871  0.39858570  0.63420316  1
  O  O13  1  0.70947132  0.92463366  0.13481640  1
  O  O14  1  0.26892138  0.82536634  0.11518360  1
  O  O15  1  0.26621756  0.35141430  0.61579684  1
  O  O16  1  0.71977260  0.16021056  0.89002391  1
  O  O17  1  0.72665691  0.65499916  0.38534195  1
  O  O18  1  0.27000707  0.58978944  0.35997609  1
  O  O19  1  0.26699803  0.09500084  0.86465805  1
