# generated using pymatgen
data_SmTiNbBi2O9
_symmetry_space_group_name_H-M   'P 1'
_cell_length_a   5.48887179
_cell_length_b   5.44037012
_cell_length_c   12.96616407
_cell_angle_alpha   77.52660168
_cell_angle_beta   90.00000000
_cell_angle_gamma   90.00000000
_symmetry_Int_Tables_number   1
_chemical_formula_structural   SmTiNbBi2O9
_chemical_formula_sum   'Sm2 Ti2 Nb2 Bi4 O18'
_cell_volume   378.04997343
_cell_formula_units_Z   2
loop_
 _symmetry_equiv_pos_site_id
 _symmetry_equiv_pos_as_xyz
  1  'x, y, z'
loop_
 _atom_site_type_symbol
 _atom_site_label
 _atom_site_symmetry_multiplicity
 _atom_site_fract_x
 _atom_site_fract_y
 _atom_site_fract_z
 _atom_site_occupancy
  Sm  Sm0  1  0.48225082  0.75740283  0.00005124  1
  Sm  Sm1  1  0.98225082  0.24259717  0.99994876  1
  Ti  Ti2  1  0.51815190  0.16383569  0.17167352  1
  Ti  Ti3  1  0.01815190  0.83616431  0.82832648  1
  Nb  Nb4  1  0.52278277  0.34654157  0.82922524  1
  Nb  Nb5  1  0.02278277  0.65345843  0.17077476  1
  Bi  Bi6  1  0.48467002  0.58084787  0.39736616  1
  Bi  Bi7  1  0.48286177  0.97175164  0.60122156  1
  Bi  Bi8  1  0.98467002  0.41915213  0.60263384  1
  Bi  Bi9  1  0.98286177  0.02824836  0.39877844  1
  O  O10  1  0.52832800  0.01912727  0.31032577  1
  O  O11  1  0.52924288  0.33860428  0.68419958  1
  O  O12  1  0.02832800  0.98087273  0.68967423  1
  O  O13  1  0.02924288  0.66139572  0.31580042  1
  O  O14  1  0.84200701  0.35043898  0.17299468  1
  O  O15  1  0.84795074  0.53112185  0.82730639  1
  O  O16  1  0.34200701  0.64956102  0.82700532  1
  O  O17  1  0.34795074  0.46887815  0.17269361  1
  O  O18  1  0.56008348  0.33526091  0.99883212  1
  O  O19  1  0.06008348  0.66473909  0.00116788  1
  O  O20  1  0.74717495  0.24554253  0.49816887  1
  O  O21  1  0.74555361  0.74514009  0.50185173  1
  O  O22  1  0.24717495  0.75445747  0.50183113  1
  O  O23  1  0.24555361  0.25485991  0.49814827  1
  O  O24  1  0.75382816  0.89912241  0.12271251  1
  O  O25  1  0.75591388  0.02173916  0.87756478  1
  O  O26  1  0.25382816  0.10087759  0.87728749  1
  O  O27  1  0.25591388  0.97826084  0.12243522  1
