# generated using pymatgen
data_SmCd6
_symmetry_space_group_name_H-M   'P 1'
_cell_length_a   13.76611954
_cell_length_b   13.76611954
_cell_length_c   13.76611954
_cell_angle_alpha   71.83898604
_cell_angle_beta   70.35165108
_cell_angle_gamma   110.61368070
_symmetry_Int_Tables_number   1
_chemical_formula_structural   SmCd6
_chemical_formula_sum   'Sm12 Cd72'
_cell_volume   2007.29522152
_cell_formula_units_Z   12
loop_
 _symmetry_equiv_pos_site_id
 _symmetry_equiv_pos_as_xyz
  1  'x, y, z'
loop_
 _atom_site_type_symbol
 _atom_site_label
 _atom_site_symmetry_multiplicity
 _atom_site_fract_x
 _atom_site_fract_y
 _atom_site_fract_z
 _atom_site_occupancy
  Sm  Sm0  1  0.70199965  0.50528358  0.19671607  1
  Sm  Sm1  1  0.29800035  0.49471642  0.80328393  1
  Sm  Sm2  1  0.70199965  0.89871572  0.80328393  1
  Sm  Sm3  1  0.29800035  0.10128428  0.19671607  1
  Sm  Sm4  1  0.80828937  0.30301886  0.88869176  1
  Sm  Sm5  1  0.19171063  0.69698114  0.11130824  1
  Sm  Sm6  1  0.19171063  0.30301886  0.50527051  1
  Sm  Sm7  1  0.80828937  0.69698114  0.49472949  1
  Sm  Sm8  1  0.48438744  0.18737185  0.70298441  1
  Sm  Sm9  1  0.51561256  0.81262815  0.29701559  1
  Sm  Sm10  1  0.10964374  0.81262815  0.70298441  1
  Sm  Sm11  1  0.89035626  0.18737185  0.29701559  1
  Cd  Cd12  1  0.90345852  0.64632613  0.25713239  1
  Cd  Cd13  1  0.09654148  0.35367387  0.74286761  1
  Cd  Cd14  1  0.90345852  0.16059092  0.74286761  1
  Cd  Cd15  1  0.09654148  0.83940908  0.25713239  1
  Cd  Cd16  1  0.77180912  0.09023101  0.13795988  1
  Cd  Cd17  1  0.22819088  0.90976899  0.86204012  1
  Cd  Cd18  1  0.22819088  0.09023101  0.68157811  1
  Cd  Cd19  1  0.77180912  0.90976899  0.31842189  1
  Cd  Cd20  1  0.33471006  0.24040101  0.90569095  1
  Cd  Cd21  1  0.66528994  0.75959899  0.09430905  1
  Cd  Cd22  1  0.85390804  0.75959899  0.90569095  1
  Cd  Cd23  1  0.14609196  0.24040101  0.09430905  1
  Cd  Cd24  1  0.64455067  0.24117017  0.40338050  1
  Cd  Cd25  1  0.35544933  0.75882983  0.59661950  1
  Cd  Cd26  1  0.64455067  0.04793116  0.59661950  1
  Cd  Cd27  1  0.35544933  0.95206884  0.40338050  1
  Cd  Cd28  1  0.59612815  0.35438492  0.04948693  1
  Cd  Cd29  1  0.40387185  0.64561508  0.95051307  1
  Cd  Cd30  1  0.40387185  0.35438492  0.24174324  1
  Cd  Cd31  1  0.59612815  0.64561508  0.75825676  1
  Cd  Cd32  1  0.75065189  0.40136187  0.65070998  1
  Cd  Cd33  1  0.24934811  0.59863813  0.34929002  1
  Cd  Cd34  1  0.94792816  0.59863813  0.65070998  1
  Cd  Cd35  1  0.05207184  0.40136187  0.34929002  1
  Cd  Cd36  1  0.99954510  0.67364114  0.00482262  1
  Cd  Cd37  1  0.32153624  0.32635886  0.67409603  1
  Cd  Cd38  1  0.67846376  0.00436773  0.99517738  1
  Cd  Cd39  1  0.00045490  0.99563227  0.32590397  1
  Cd  Cd40  1  0.00045490  0.32635886  0.99517738  1
  Cd  Cd41  1  0.67846376  0.67364114  0.32590397  1
  Cd  Cd42  1  0.32153624  0.99563227  0.00482262  1
  Cd  Cd43  1  0.99954510  0.00436773  0.67409603  1
  Cd  Cd44  1  0.91284623  0.45015090  0.22698983  1
  Cd  Cd45  1  0.32285927  0.54984910  0.53730467  1
  Cd  Cd46  1  0.67714073  0.13983605  0.77301017  1
  Cd  Cd47  1  0.08715377  0.86016395  0.46269533  1
  Cd  Cd48  1  0.55138315  0.09200182  0.13985868  1
  Cd  Cd49  1  0.23186050  0.69124183  0.86014132  1
  Cd  Cd50  1  0.44861685  0.30875817  0.45938133  1
  Cd  Cd51  1  0.76813950  0.90799818  0.54061867  1
  Cd  Cd52  1  0.53911041  0.45492970  0.68413896  1
  Cd  Cd53  1  0.46088959  0.77675063  0.08418071  1
  Cd  Cd54  1  0.86093135  0.54507030  0.91581929  1
  Cd  Cd55  1  0.13906865  0.22324937  0.31586104  1
  Cd  Cd56  1  0.08715377  0.54984910  0.77301017  1
  Cd  Cd57  1  0.67714073  0.45015090  0.46269533  1
  Cd  Cd58  1  0.32285927  0.86016395  0.22698983  1
  Cd  Cd59  1  0.91284623  0.13983605  0.53730467  1
  Cd  Cd60  1  0.44861685  0.90799818  0.86014132  1
  Cd  Cd61  1  0.76813950  0.30875817  0.13985868  1
  Cd  Cd62  1  0.55138315  0.69124183  0.54061867  1
  Cd  Cd63  1  0.23186050  0.09200182  0.45938133  1
  Cd  Cd64  1  0.46088959  0.54507030  0.31586104  1
  Cd  Cd65  1  0.53911041  0.22324937  0.91581929  1
  Cd  Cd66  1  0.13906865  0.45492970  0.08418071  1
  Cd  Cd67  1  0.86093135  0.77675063  0.68413896  1
  Cd  Cd68  1  -0.00000000  0.59143929  0.40856071  1
  Cd  Cd69  1  0.00000000  0.40856071  0.59143929  1
  Cd  Cd70  1  0.59903511  -0.00000000  0.40096489  1
  Cd  Cd71  1  0.40096489  0.00000000  0.59903511  1
  Cd  Cd72  1  0.40336375  0.40336375  -0.00000000  1
  Cd  Cd73  1  0.59663625  0.59663625  0.00000000  1
  Cd  Cd74  1  0.80063230  0.30063230  0.50000000  1
  Cd  Cd75  1  0.19936770  0.69936770  0.50000000  1
  Cd  Cd76  1  0.50000000  0.20157484  0.29842516  1
  Cd  Cd77  1  0.50000000  0.79842516  0.70157484  1
  Cd  Cd78  1  0.69591747  0.50000000  0.80408253  1
  Cd  Cd79  1  0.30408253  0.50000000  0.19591747  1
  Cd  Cd80  1  0.90664861  0.82108860  0.08556001  1
  Cd  Cd81  1  0.09335139  0.17891140  0.91443999  1
  Cd  Cd82  1  0.90664861  0.99220862  0.91443999  1
  Cd  Cd83  1  0.09335139  0.00779138  0.08556001  1
