# generated using pymatgen
data_SmEr(TiFe11)2
_symmetry_space_group_name_H-M   'P 1'
_cell_length_a   4.70565163
_cell_length_b   6.45743920
_cell_length_c   12.02359764
_cell_angle_alpha   89.95452274
_cell_angle_beta   90.00000000
_cell_angle_gamma   111.36813723
_symmetry_Int_Tables_number   1
_chemical_formula_structural   SmEr(TiFe11)2
_chemical_formula_sum   'Sm1 Er1 Ti2 Fe22'
_cell_volume   340.23944678
_cell_formula_units_Z   1
loop_
 _symmetry_equiv_pos_site_id
 _symmetry_equiv_pos_as_xyz
  1  'x, y, z'
loop_
 _atom_site_type_symbol
 _atom_site_label
 _atom_site_symmetry_multiplicity
 _atom_site_fract_x
 _atom_site_fract_y
 _atom_site_fract_z
 _atom_site_occupancy
  Sm  Sm0  1  0.50267283  0.00534565  0.50207333  1
  Er  Er1  1  0.00287896  0.00575792  0.00326161  1
  Ti  Ti2  1  0.31611931  0.63223862  0.31461006  1
  Ti  Ti3  1  0.81575753  0.63151506  0.81729258  1
  Fe  Fe4  1  0.39009791  0.78019581  0.10922723  1
  Fe  Fe5  1  0.88756835  0.77513671  0.61146727  1
  Fe  Fe6  1  0.11131694  0.22263389  0.38622411  1
  Fe  Fe7  1  0.60944515  0.21889029  0.89108158  1
  Fe  Fe8  1  0.88631549  0.77263098  0.38498355  1
  Fe  Fe9  1  0.38788463  0.77576926  0.88904935  1
  Fe  Fe10  1  0.61509638  0.23019275  0.11488714  1
  Fe  Fe11  1  0.11638407  0.23276813  0.61687121  1
  Fe  Fe12  1  0.25023945  0.00224632  0.24841713  1
  Fe  Fe13  1  0.75104183  0.00207052  0.75149050  1
  Fe  Fe14  1  0.75200687  0.00224632  0.24841713  1
  Fe  Fe15  1  0.25102869  0.00207052  0.75149050  1
  Fe  Fe16  1  0.50016989  0.49923264  0.50018968  1
  Fe  Fe17  1  0.00058235  0.50019803  0.00196662  1
  Fe  Fe18  1  0.99906274  0.49923264  0.50018968  1
  Fe  Fe19  1  0.49961567  0.50019803  0.00196662  1
  Fe  Fe20  1  0.67875543  0.35751086  0.32034065  1
  Fe  Fe21  1  0.17839061  0.35678122  0.82365335  1
  Fe  Fe22  1  0.82238467  0.64476935  0.17797441  1
  Fe  Fe23  1  0.32140366  0.64280733  0.67908383  1
  Fe  Fe24  1  0.17659448  0.35318895  0.17634187  1
  Fe  Fe25  1  0.67718610  0.35437220  0.67744901  1
