# generated using pymatgen
data_PrZr3F15
_symmetry_space_group_name_H-M   'P 1'
_cell_length_a   8.37503602
_cell_length_b   8.37503602
_cell_length_c   8.33330213
_cell_angle_alpha   100.43007491
_cell_angle_beta   100.43007491
_cell_angle_gamma   99.81678322
_symmetry_Int_Tables_number   1
_chemical_formula_structural   PrZr3F15
_chemical_formula_sum   'Pr2 Zr6 F30'
_cell_volume   552.72553345
_cell_formula_units_Z   2
loop_
 _symmetry_equiv_pos_site_id
 _symmetry_equiv_pos_as_xyz
  1  'x, y, z'
loop_
 _atom_site_type_symbol
 _atom_site_label
 _atom_site_symmetry_multiplicity
 _atom_site_fract_x
 _atom_site_fract_y
 _atom_site_fract_z
 _atom_site_occupancy
  Pr  Pr0  1  0.67603481  0.82396519  0.25000000  1
  Pr  Pr1  1  0.32396519  0.17603481  0.75000000  1
  Zr  Zr2  1  0.25207550  0.24792450  0.25000000  1
  Zr  Zr3  1  0.74792450  0.75207550  0.75000000  1
  Zr  Zr4  1  0.82424973  0.25889064  0.67558426  1
  Zr  Zr5  1  0.24110936  0.67575027  0.82441574  1
  Zr  Zr6  1  0.17575027  0.74110936  0.32441574  1
  Zr  Zr7  1  0.75889064  0.32424973  0.17558426  1
  F  F8  1  0.15111194  0.68526160  0.05523862  1
  F  F9  1  0.69059216  0.07296089  0.15166388  1
  F  F10  1  0.03285296  0.16028884  0.68605366  1
  F  F11  1  0.66028884  0.53285296  0.18605366  1
  F  F12  1  0.57296089  0.19059216  0.65166388  1
  F  F13  1  0.18526160  0.65111194  0.55523862  1
  F  F14  1  0.84888806  0.31473840  0.94476138  1
  F  F15  1  0.30940784  0.92703911  0.84833612  1
  F  F16  1  0.96714704  0.83971116  0.31394634  1
  F  F17  1  0.33971116  0.46714704  0.81394634  1
  F  F18  1  0.42703911  0.80940784  0.34833612  1
  F  F19  1  0.81473840  0.34888806  0.44476138  1
  F  F20  1  0.96746653  0.53253347  0.25000000  1
  F  F21  1  0.55362429  0.25499303  0.97820087  1
  F  F22  1  0.24500697  0.94637571  0.52179913  1
  F  F23  1  0.44637571  0.74500697  0.02179913  1
  F  F24  1  0.75499303  0.05362429  0.47820087  1
  F  F25  1  0.03253347  0.46746653  0.75000000  1
  F  F26  1  0.21734282  0.22521913  0.99964168  1
  F  F27  1  0.22359907  0.99805134  0.22202401  1
  F  F28  1  0.99616621  0.23036188  0.22237461  1
  F  F29  1  0.73036188  0.49616621  0.72237461  1
  F  F30  1  0.49805134  0.72359907  0.72202401  1
  F  F31  1  0.72521913  0.71734282  0.49964168  1
  F  F32  1  0.78265718  0.77478087  0.00035832  1
  F  F33  1  0.77640093  0.00194866  0.77797599  1
  F  F34  1  0.00383379  0.76963812  0.77762539  1
  F  F35  1  0.26963812  0.50383379  0.27762539  1
  F  F36  1  0.50194866  0.27640093  0.27797599  1
  F  F37  1  0.27478087  0.28265718  0.50035832  1
