# generated using pymatgen
data_PrBi3(Ru2O7)2
_symmetry_space_group_name_H-M   'P 1'
_cell_length_a   7.34484945
_cell_length_b   7.34484945
_cell_length_c   7.39133446
_cell_angle_alpha   90.00000000
_cell_angle_beta   60.20782543
_cell_angle_gamma   120.00000000
_symmetry_Int_Tables_number   1
_chemical_formula_structural   PrBi3(Ru2O7)2
_chemical_formula_sum   'Pr1 Bi3 Ru4 O14'
_cell_volume   282.83345264
_cell_formula_units_Z   1
loop_
 _symmetry_equiv_pos_site_id
 _symmetry_equiv_pos_as_xyz
  1  'x, y, z'
loop_
 _atom_site_type_symbol
 _atom_site_label
 _atom_site_symmetry_multiplicity
 _atom_site_fract_x
 _atom_site_fract_y
 _atom_site_fract_z
 _atom_site_occupancy
  Pr  Pr0  1  0.75000000  0.37500000  0.87500000  1
  Bi  Bi1  1  0.25000000  0.37500000  0.37500000  1
  Bi  Bi2  1  0.25000000  0.87500000  0.37500000  1
  Bi  Bi3  1  0.75000000  0.37500000  0.37500000  1
  Ru  Ru4  1  0.75000000  0.87500000  0.37500000  1
  Ru  Ru5  1  0.25000000  0.87500000  0.87500000  1
  Ru  Ru6  1  0.25000000  0.37500000  0.87500000  1
  Ru  Ru7  1  0.75000000  0.87500000  0.87500000  1
  O  O8  1  0.49858808  0.24929404  0.25211789  1
  O  O9  1  0.00141192  0.50070596  0.49788211  1
  O  O10  1  0.90593778  0.95296889  0.54627757  1
  O  O11  1  0.50075354  0.54778465  0.54627757  1
  O  O12  1  0.50075354  0.95296889  0.54627757  1
  O  O13  1  0.09407954  0.54703977  0.95718232  1
  O  O14  1  0.49577791  0.94873814  0.95718232  1
  O  O15  1  0.49577791  0.54703977  0.95718232  1
  O  O16  1  0.59406222  0.79703111  0.20372243  1
  O  O17  1  0.99924646  0.20221535  0.20372243  1
  O  O18  1  0.99924646  0.79703111  0.20372243  1
  O  O19  1  0.40592046  0.20296023  0.79281768  1
  O  O20  1  0.00422209  0.80126186  0.79281768  1
  O  O21  1  0.00422209  0.20296023  0.79281768  1
