# generated using pymatgen
data_Sc2(NbGe)3
_symmetry_space_group_name_H-M   'P 1'
_cell_length_a   5.44310980
_cell_length_b   7.83109962
_cell_length_c   7.88018499
_cell_angle_alpha   119.79415924
_cell_angle_beta   90.00075020
_cell_angle_gamma   89.99849016
_symmetry_Int_Tables_number   1
_chemical_formula_structural   Sc2(NbGe)3
_chemical_formula_sum   'Sc4 Nb6 Ge6'
_cell_volume   291.49691615
_cell_formula_units_Z   2
loop_
 _symmetry_equiv_pos_site_id
 _symmetry_equiv_pos_as_xyz
  1  'x, y, z'
loop_
 _atom_site_type_symbol
 _atom_site_label
 _atom_site_symmetry_multiplicity
 _atom_site_fract_x
 _atom_site_fract_y
 _atom_site_fract_z
 _atom_site_occupancy
  Sc  Sc0  1  0.75001468  0.24823423  1.00000000  1
  Sc  Sc1  1  0.75000073  0.74723012  0.74709992  1
  Sc  Sc2  1  0.75000073  0.00013020  0.25290008  1
  Sc  Sc3  1  0.24996513  0.74794109  0.00000000  1
  Nb  Nb4  1  0.24997099  0.26427462  0.26381086  1
  Nb  Nb5  1  0.24997099  0.00046377  0.73618914  1
  Nb  Nb6  1  0.50125456  0.33177748  0.66599882  1
  Nb  Nb7  1  0.50125456  0.66577866  0.33400118  1
  Nb  Nb8  1  0.99875382  0.66576881  0.33399439  1
  Nb  Nb9  1  0.99875382  0.33177442  0.66600561  1
  Ge  Ge10  1  0.75000208  0.60780607  1.00000000  1
  Ge  Ge11  1  0.75002018  0.39067901  0.39093014  1
  Ge  Ge12  1  0.75002018  0.99974886  0.60906986  1
  Ge  Ge13  1  0.25000498  0.38741119  0.00000000  1
  Ge  Ge14  1  0.25000629  0.61143829  0.61189512  1
  Ge  Ge15  1  0.25000629  0.99954317  0.38810488  1
