# generated using pymatgen
data_Sr20P12Br3O48F
_symmetry_space_group_name_H-M   'P 1'
_cell_length_a   10.06839578
_cell_length_b   10.06849609
_cell_length_c   14.50282332
_cell_angle_alpha   89.99974717
_cell_angle_beta   90.00010899
_cell_angle_gamma   120.00021035
_symmetry_Int_Tables_number   1
_chemical_formula_structural   Sr20P12Br3O48F
_chemical_formula_sum   'Sr20 P12 Br3 O48 F1'
_cell_volume   1273.23084686
_cell_formula_units_Z   1
loop_
 _symmetry_equiv_pos_site_id
 _symmetry_equiv_pos_as_xyz
  1  'x, y, z'
loop_
 _atom_site_type_symbol
 _atom_site_label
 _atom_site_symmetry_multiplicity
 _atom_site_fract_x
 _atom_site_fract_y
 _atom_site_fract_z
 _atom_site_occupancy
  Sr  Sr0  1  0.66666378  0.33333165  0.25019526  1
  Sr  Sr1  1  0.66666299  0.33333137  0.75060872  1
  Sr  Sr2  1  0.33333881  0.66666970  0.99997603  1
  Sr  Sr3  1  0.33333703  0.66666841  0.50065527  1
  Sr  Sr4  1  0.33333622  0.66666835  0.24980474  1
  Sr  Sr5  1  0.33333701  0.66666863  0.74939128  1
  Sr  Sr6  1  0.66666119  0.33333030  0.50002397  1
  Sr  Sr7  1  0.66666297  0.33333159  0.99934473  1
  Sr  Sr8  1  0.74221887  0.73899283  0.37494261  1
  Sr  Sr9  1  0.74988258  0.74844142  0.87073542  1
  Sr  Sr10  1  0.26099902  0.00320978  0.37494211  1
  Sr  Sr11  1  0.25155097  0.00142575  0.87073523  1
  Sr  Sr12  1  0.99677904  0.25778884  0.37494198  1
  Sr  Sr13  1  0.99856520  0.25013208  0.87073911  1
  Sr  Sr14  1  0.25778113  0.26100717  0.12505739  1
  Sr  Sr15  1  0.25011742  0.25155858  0.62926458  1
  Sr  Sr16  1  0.73900098  0.99679022  0.12505789  1
  Sr  Sr17  1  0.74844903  0.99857425  0.62926477  1
  Sr  Sr18  1  0.00322096  0.74221116  0.12505802  1
  Sr  Sr19  1  0.00143480  0.74986792  0.62926089  1
  P  P20  1  0.03372676  0.62524007  0.37561444  1
  P  P21  1  0.03300502  0.62424877  0.87521299  1
  P  P22  1  0.37476010  0.40848621  0.37561481  1
  P  P23  1  0.37575205  0.40875692  0.87521264  1
  P  P24  1  0.59151372  0.96627298  0.37561448  1
  P  P25  1  0.59124280  0.96699363  0.87521320  1
  P  P26  1  0.96627324  0.37475993  0.12438556  1
  P  P27  1  0.96699498  0.37575123  0.62478701  1
  P  P28  1  0.62523990  0.59151379  0.12438519  1
  P  P29  1  0.62424795  0.59124308  0.62478736  1
  P  P30  1  0.40848628  0.03372702  0.12438552  1
  P  P31  1  0.40875720  0.03300637  0.62478680  1
  Br  Br32  1  -0.00000004  0.00000061  0.99674502  1
  Br  Br33  1  0.00000004  0.99999939  0.50325498  1
  Br  Br34  1  -0.00000000  -0.00000000  0.25000000  1
  O  O35  1  0.85771641  0.51000705  0.37510719  1
  O  O36  1  0.85711251  0.51056755  0.87449372  1
  O  O37  1  0.48998629  0.34770022  0.37510692  1
  O  O38  1  0.48942464  0.34653501  0.87449340  1
  O  O39  1  0.65229847  0.14228397  0.37510636  1
  O  O40  1  0.65346340  0.14288695  0.87449319  1
  O  O41  1  0.14228359  0.48999295  0.12489281  1
  O  O42  1  0.14288749  0.48943245  0.62550628  1
  O  O43  1  0.51001371  0.65229978  0.12489308  1
  O  O44  1  0.51057536  0.65346499  0.62550660  1
  O  O45  1  0.34770153  0.85771603  0.12489364  1
  O  O46  1  0.34653660  0.85711305  0.62550681  1
  O  O47  1  0.08495515  0.72961353  0.28868775  1
  O  O48  1  0.08332141  0.73193384  0.78935111  1
  O  O49  1  0.27038701  0.35534817  0.28868801  1
  O  O50  1  0.26806572  0.35139459  0.78935149  1
  O  O51  1  0.64465376  0.91504204  0.28868677  1
  O  O52  1  0.64860686  0.91667402  0.78935049  1
  O  O53  1  0.91589165  0.27045661  0.03756622  1
  O  O54  1  0.91506013  0.27141847  0.53805893  1
  O  O55  1  0.72954347  0.64542965  0.03756516  1
  O  O56  1  0.72858225  0.64363552  0.53805825  1
  O  O57  1  0.35456801  0.08411134  0.03756500  1
  O  O58  1  0.35636255  0.08494400  0.53805782  1
  O  O59  1  0.91504485  0.27038647  0.21131225  1
  O  O60  1  0.91667859  0.26806616  0.71064889  1
  O  O61  1  0.72961299  0.64465183  0.21131199  1
  O  O62  1  0.73193428  0.64860541  0.71064851  1
  O  O63  1  0.35534624  0.08495796  0.21131323  1
  O  O64  1  0.35139314  0.08332598  0.71064951  1
  O  O65  1  0.08410835  0.72954339  0.46243378  1
  O  O66  1  0.08493987  0.72858153  0.96194107  1
  O  O67  1  0.27045653  0.35457035  0.46243484  1
  O  O68  1  0.27141775  0.35636448  0.96194175  1
  O  O69  1  0.64543199  0.91588866  0.46243500  1
  O  O70  1  0.64363745  0.91505600  0.96194218  1
  O  O71  1  0.12413800  0.53591116  0.37532371  1
  O  O72  1  0.12253593  0.53429642  0.87365473  1
  O  O73  1  0.46410035  0.58822739  0.37532376  1
  O  O74  1  0.46571644  0.58824011  0.87365474  1
  O  O75  1  0.41177031  0.87586560  0.37532363  1
  O  O76  1  0.41175771  0.87746892  0.87365469  1
  O  O77  1  0.87586200  0.46408884  0.12467629  1
  O  O78  1  0.87746407  0.46570358  0.62634527  1
  O  O79  1  0.53589965  0.41177261  0.12467624  1
  O  O80  1  0.53428356  0.41175989  0.62634526  1
  O  O81  1  0.58822969  0.12413440  0.12467637  1
  O  O82  1  0.58824229  0.12253108  0.62634531  1
  F  F83  1  -0.00000000  -0.00000000  0.75000000  1
