# generated using pymatgen
data_Ni43(GeB4)3
_symmetry_space_group_name_H-M   'P 1'
_cell_length_a   7.39888584
_cell_length_b   7.39888584
_cell_length_c   12.81606707
_cell_angle_alpha   73.22245161
_cell_angle_beta   90.00000000
_cell_angle_gamma   120.00000000
_symmetry_Int_Tables_number   1
_chemical_formula_structural   Ni43(GeB4)3
_chemical_formula_sum   'Ni43 Ge3 B12'
_cell_volume   572.85574359
_cell_formula_units_Z   1
loop_
 _symmetry_equiv_pos_site_id
 _symmetry_equiv_pos_as_xyz
  1  'x, y, z'
loop_
 _atom_site_type_symbol
 _atom_site_label
 _atom_site_symmetry_multiplicity
 _atom_site_fract_x
 _atom_site_fract_y
 _atom_site_fract_z
 _atom_site_occupancy
  Ni  Ni0  1  0.66328759  0.00155861  0.00070038  1
  Ni  Ni1  1  0.16334745  0.99992208  0.49994844  1
  Ni  Ni2  1  0.83056693  0.00147884  0.16795423  1
  Ni  Ni3  1  0.33182441  0.99978490  0.66839070  1
  Ni  Ni4  1  0.99774101  0.33601203  0.00070038  1
  Ni  Ni5  1  0.50012948  0.33670411  0.49994844  1
  Ni  Ni6  1  0.83056693  0.66113385  0.16795423  1
  Ni  Ni7  1  0.33182441  0.66364882  0.66839070  1
  Ni  Ni8  1  0.66328759  0.66102860  0.00070038  1
  Ni  Ni9  1  0.16334745  0.66347693  0.49994844  1
  Ni  Ni10  1  0.50012948  0.66347693  0.49994844  1
  Ni  Ni11  1  0.99774101  0.66102860  0.00070038  1
  Ni  Ni12  1  0.66793411  0.33586822  0.33060447  1
  Ni  Ni13  1  0.16833273  0.33666546  0.83168860  1
  Ni  Ni14  1  0.66793411  0.00146142  0.33060447  1
  Ni  Ni15  1  0.16833273  0.99997867  0.83168860  1
  Ni  Ni16  1  0.33352731  0.00146142  0.33060447  1
  Ni  Ni17  1  0.83164594  0.99997867  0.83168860  1
  Ni  Ni18  1  0.83657463  0.99992208  0.49994844  1
  Ni  Ni19  1  0.33827102  0.00155861  0.00070038  1
  Ni  Ni20  1  0.33827102  0.33601203  0.00070038  1
  Ni  Ni21  1  0.83657463  0.33670411  0.49994844  1
  Ni  Ni22  1  0.17091191  0.00147884  0.16795423  1
  Ni  Ni23  1  0.66796049  0.99978490  0.66839070  1
  Ni  Ni24  1  0.99985737  0.99971474  0.00042788  1
  Ni  Ni25  1  0.50016254  0.00032507  0.49951239  1
  Ni  Ni26  1  0.42709705  0.38173465  0.19116830  1
  Ni  Ni27  1  0.92833904  0.38120624  0.69045471  1
  Ni  Ni28  1  0.42709705  0.85419410  0.19116830  1
  Ni  Ni29  1  0.92833904  0.85667809  0.69045471  1
  Ni  Ni30  1  0.19050377  0.38100753  0.42848870  1
  Ni  Ni31  1  0.69106723  0.38213446  0.92679831  1
  Ni  Ni32  1  0.95463760  0.38173465  0.19116830  1
  Ni  Ni33  1  0.45286720  0.38120624  0.69045471  1
  Ni  Ni34  1  0.07123185  0.61922665  0.30954150  1
  Ni  Ni35  1  0.57149737  0.61901693  0.80948570  1
  Ni  Ni36  1  0.07123185  0.14246369  0.30954150  1
  Ni  Ni37  1  0.57149737  0.14299475  0.80948570  1
  Ni  Ni38  1  0.30952264  0.61904527  0.07143209  1
  Ni  Ni39  1  0.80947262  0.61894524  0.57158214  1
  Ni  Ni40  1  0.54799481  0.61922665  0.30954150  1
  Ni  Ni41  1  0.04751955  0.61901693  0.80948570  1
  Ni  Ni42  1  0.62504089  0.25008178  0.12487733  1
  Ge  Ge43  1  0.12499541  0.24999082  0.62501378  1
  Ge  Ge44  1  0.87495588  0.74991175  0.37513237  1
  Ge  Ge45  1  0.37495959  0.74991917  0.87512124  1
  B  B46  1  0.13686825  0.27373650  0.13681781  1
  B  B47  1  0.63678796  0.27357591  0.63651590  1
  B  B48  1  0.36355662  0.27364928  0.36279411  1
  B  B49  1  0.86279432  0.27338143  0.86382425  1
  B  B50  1  0.58944569  0.72631394  0.13681781  1
  B  B51  1  0.08990819  0.72669614  0.63651590  1
  B  B52  1  0.36355662  0.72711324  0.36279411  1
  B  B53  1  0.86279432  0.72558864  0.86382425  1
  B  B54  1  0.13686825  0.72631394  0.13681781  1
  B  B55  1  0.63678796  0.72669614  0.63651590  1
  B  B56  1  0.91009266  0.27364928  0.36279411  1
  B  B57  1  0.41058711  0.27338143  0.86382425  1
