# generated using pymatgen
data_NdCu4Pd
_symmetry_space_group_name_H-M   'P 1'
_cell_length_a   5.03205924
_cell_length_b   5.03205924
_cell_length_c   5.20979096
_cell_angle_alpha   90.00000000
_cell_angle_beta   61.12223982
_cell_angle_gamma   120.00000000
_symmetry_Int_Tables_number   1
_chemical_formula_structural   NdCu4Pd
_chemical_formula_sum   'Nd1 Cu4 Pd1'
_cell_volume   94.83288658
_cell_formula_units_Z   1
loop_
 _symmetry_equiv_pos_site_id
 _symmetry_equiv_pos_as_xyz
  1  'x, y, z'
loop_
 _atom_site_type_symbol
 _atom_site_label
 _atom_site_symmetry_multiplicity
 _atom_site_fract_x
 _atom_site_fract_y
 _atom_site_fract_z
 _atom_site_occupancy
  Nd  Nd0  1  0.00122804  0.00061402  0.99815794  1
  Cu  Cu1  1  0.24226244  0.37196970  0.38576786  1
  Cu  Cu2  1  0.24226244  0.87029274  0.38576786  1
  Cu  Cu3  1  0.74393940  0.37196970  0.38576786  1
  Cu  Cu4  1  0.52098351  0.76049175  0.71852474  1
  Pd  Pd5  1  0.74932417  0.37466208  0.87601375  1
