# generated using pymatgen
data_Nd(Fe5Re)2
_symmetry_space_group_name_H-M   'P 1'
_cell_length_a   4.68697229
_cell_length_b   6.55968965
_cell_length_c   6.55968965
_cell_angle_alpha   95.68095418
_cell_angle_beta   110.93175439
_cell_angle_gamma   69.06824561
_symmetry_Int_Tables_number   1
_chemical_formula_structural   Nd(Fe5Re)2
_chemical_formula_sum   'Nd1 Fe10 Re2'
_cell_volume   175.84283005
_cell_formula_units_Z   1
loop_
 _symmetry_equiv_pos_site_id
 _symmetry_equiv_pos_as_xyz
  1  'x, y, z'
loop_
 _atom_site_type_symbol
 _atom_site_label
 _atom_site_symmetry_multiplicity
 _atom_site_fract_x
 _atom_site_fract_y
 _atom_site_fract_z
 _atom_site_occupancy
  Nd  Nd0  1  0.00000000  0.00000000  0.00000000  1
  Fe  Fe1  1  0.72467845  0.77532155  0.22467845  1
  Fe  Fe2  1  0.27532155  0.22467845  0.77532155  1
  Fe  Fe3  1  0.50000000  0.76526715  0.76526715  1
  Fe  Fe4  1  0.50000000  0.23473285  0.23473285  1
  Fe  Fe5  1  0.50000000  0.00000000  0.50000000  1
  Fe  Fe6  1  0.00000000  0.00000000  0.50000000  1
  Fe  Fe7  1  0.50000000  0.50000000  0.00000000  1
  Fe  Fe8  1  0.00000000  0.50000000  0.00000000  1
  Fe  Fe9  1  0.63983013  0.36016987  0.63983013  1
  Fe  Fe10  1  0.36016987  0.63983013  0.36016987  1
  Re  Re11  1  -0.00000000  0.35899294  0.35899294  1
  Re  Re12  1  0.00000000  0.64100706  0.64100706  1
