# generated using pymatgen
data_NaLaTi2O6
_symmetry_space_group_name_H-M   'P 1'
_cell_length_a   5.51869090
_cell_length_b   5.49445462
_cell_length_c   7.78232512
_cell_angle_alpha   90.00000000
_cell_angle_beta   90.00000000
_cell_angle_gamma   90.00000000
_symmetry_Int_Tables_number   1
_chemical_formula_structural   NaLaTi2O6
_chemical_formula_sum   'Na2 La2 Ti4 O12'
_cell_volume   235.97719316
_cell_formula_units_Z   2
loop_
 _symmetry_equiv_pos_site_id
 _symmetry_equiv_pos_as_xyz
  1  'x, y, z'
loop_
 _atom_site_type_symbol
 _atom_site_label
 _atom_site_symmetry_multiplicity
 _atom_site_fract_x
 _atom_site_fract_y
 _atom_site_fract_z
 _atom_site_occupancy
  Na  Na0  1  0.47295692  0.00449403  0.75000000  1
  Na  Na1  1  0.02704308  0.50449403  0.25000000  1
  La  La2  1  0.97314633  0.49434636  0.75000000  1
  La  La3  1  0.52685367  0.99434636  0.25000000  1
  Ti  Ti4  1  0.49693189  0.49655140  0.99898487  1
  Ti  Ti5  1  0.00306811  0.99655140  0.49898487  1
  Ti  Ti6  1  0.49693189  0.49655140  0.50101513  1
  Ti  Ti7  1  0.00306811  0.99655140  0.00101513  1
  O  O8  1  0.21708605  0.28310610  0.96650125  1
  O  O9  1  0.72139475  0.22378175  0.53085584  1
  O  O10  1  0.77860525  0.72378175  0.46914416  1
  O  O11  1  0.28291395  0.78310610  0.03349875  1
  O  O12  1  0.77860525  0.72378175  0.03085584  1
  O  O13  1  0.28291395  0.78310610  0.46650125  1
  O  O14  1  0.21708605  0.28310610  0.53349875  1
  O  O15  1  0.72139475  0.22378175  0.96914416  1
  O  O16  1  0.01055197  0.93546412  0.75000000  1
  O  O17  1  0.51037758  0.55881700  0.75000000  1
  O  O18  1  0.98962242  0.05881700  0.25000000  1
  O  O19  1  0.48944803  0.43546412  0.25000000  1
