# generated using pymatgen
data_Ni8B3SbO15
_symmetry_space_group_name_H-M   'P 1'
_cell_length_a   6.21312752
_cell_length_b   11.19197668
_cell_length_c   8.15231550
_cell_angle_alpha   104.50360788
_cell_angle_beta   102.16482628
_cell_angle_gamma   94.14661466
_symmetry_Int_Tables_number   1
_chemical_formula_structural   Ni8B3SbO15
_chemical_formula_sum   'Ni16 B6 Sb2 O30'
_cell_volume   531.79319145
_cell_formula_units_Z   2
loop_
 _symmetry_equiv_pos_site_id
 _symmetry_equiv_pos_as_xyz
  1  'x, y, z'
loop_
 _atom_site_type_symbol
 _atom_site_label
 _atom_site_symmetry_multiplicity
 _atom_site_fract_x
 _atom_site_fract_y
 _atom_site_fract_z
 _atom_site_occupancy
  Ni  Ni0  1  0.45057246  0.28852838  0.67107964  1
  Ni  Ni1  1  0.11798358  0.28645593  0.33193377  1
  Ni  Ni2  1  0.78431997  0.28622298  0.00109804  1
  Ni  Ni3  1  0.21568003  0.71377702  0.99890196  1
  Ni  Ni4  1  0.88201642  0.71354407  0.66806623  1
  Ni  Ni5  1  0.54942754  0.71147162  0.32892036  1
  Ni  Ni6  1  0.83298949  0.50209367  0.83507915  1
  Ni  Ni7  1  0.50000000  0.50000000  0.50000000  1
  Ni  Ni8  1  0.16701051  0.49790633  0.16492085  1
  Ni  Ni9  1  0.50000000  0.50000000  0.00000000  1
  Ni  Ni10  1  0.16640948  0.50009455  0.66687462  1
  Ni  Ni11  1  0.83359052  0.49990545  0.33312538  1
  Ni  Ni12  1  0.50000000  -0.00000000  0.00000000  1
  Ni  Ni13  1  0.16669887  0.00180511  0.67467456  1
  Ni  Ni14  1  0.83330113  0.99819489  0.32532544  1
  Ni  Ni15  1  0.00000000  -0.00000000  0.00000000  1
  B  B16  1  0.72631564  0.76341714  0.01912839  1
  B  B17  1  0.39336650  0.75868462  0.68189733  1
  B  B18  1  0.06029763  0.75889703  0.34953798  1
  B  B19  1  0.27368436  0.23658286  0.98087161  1
  B  B20  1  0.93970237  0.24110297  0.65046202  1
  B  B21  1  0.60663350  0.24131538  0.31810267  1
  Sb  Sb22  1  0.32530262  0.99966833  0.32520102  1
  Sb  Sb23  1  0.67469738  0.00033167  0.67479898  1
  O  O24  1  0.43635364  0.29751272  0.92885646  1
  O  O25  1  0.10399385  0.29509935  0.59691742  1
  O  O26  1  0.76963165  0.29510797  0.26309434  1
  O  O27  1  0.56364636  0.70248728  0.07114354  1
  O  O28  1  0.23036835  0.70489203  0.73690566  1
  O  O29  1  0.89600615  0.70490065  0.40308258  1
  O  O30  1  0.75676393  0.89670961  0.07020773  1
  O  O31  1  0.42531188  0.89576946  0.73241190  1
  O  O32  1  0.09436249  0.89643324  0.40316349  1
  O  O33  1  0.24323607  0.10329039  0.92979227  1
  O  O34  1  0.90563751  0.10356676  0.59683651  1
  O  O35  1  0.57468812  0.10423054  0.26758810  1
  O  O36  1  0.86110238  0.70337978  0.92071877  1
  O  O37  1  0.52974924  0.70321257  0.58552827  1
  O  O38  1  0.19786830  0.70337374  0.25460384  1
  O  O39  1  0.13889762  0.29662022  0.07928123  1
  O  O40  1  0.80213170  0.29662626  0.74539616  1
  O  O41  1  0.47025076  0.29678743  0.41447173  1
  O  O42  1  0.49247253  0.47056981  0.73789617  1
  O  O43  1  0.15914636  0.46932532  0.40498176  1
  O  O44  1  0.82692853  0.46910980  0.07240886  1
  O  O45  1  0.17307147  0.53089020  0.92759114  1
  O  O46  1  0.84085364  0.53067468  0.59501824  1
  O  O47  1  0.50752747  0.52943019  0.26210383  1
  O  O48  1  0.41340484  0.09001677  0.58839270  1
  O  O49  1  0.08069670  0.09404990  0.26600390  1
  O  O50  1  0.73504879  0.09366001  0.92042507  1
  O  O51  1  0.26495121  0.90633999  0.07957493  1
  O  O52  1  0.91930330  0.90595010  0.73399610  1
  O  O53  1  0.58659516  0.90998323  0.41160730  1
