# generated using pymatgen
data_NaYTi2(SiO5)2
_symmetry_space_group_name_H-M   'P 1'
_cell_length_a   5.48671769
_cell_length_b   5.48671769
_cell_length_c   7.10512284
_cell_angle_alpha   104.24465565
_cell_angle_beta   104.24465565
_cell_angle_gamma   105.44753890
_symmetry_Int_Tables_number   1
_chemical_formula_structural   NaYTi2(SiO5)2
_chemical_formula_sum   'Na1 Y1 Ti2 Si2 O10'
_cell_volume   188.38466565
_cell_formula_units_Z   1
loop_
 _symmetry_equiv_pos_site_id
 _symmetry_equiv_pos_as_xyz
  1  'x, y, z'
loop_
 _atom_site_type_symbol
 _atom_site_label
 _atom_site_symmetry_multiplicity
 _atom_site_fract_x
 _atom_site_fract_y
 _atom_site_fract_z
 _atom_site_occupancy
  Na  Na0  1  0.16991137  0.83008863  0.75000000  1
  Y  Y1  1  0.82960621  0.17039379  0.25000000  1
  Ti  Ti2  1  0.50908903  0.51281283  0.50555385  1
  Ti  Ti3  1  0.48718717  0.49091097  0.99444615  1
  Si  Si4  1  0.17970447  0.82029553  0.25000000  1
  Si  Si5  1  0.81958161  0.18041839  0.75000000  1
  O  O6  1  0.57612367  0.42387633  0.25000000  1
  O  O7  1  0.43440737  0.56559263  0.75000000  1
  O  O8  1  0.17597234  0.59297664  0.36645177  1
  O  O9  1  0.40702336  0.82402766  0.13354823  1
  O  O10  1  0.80573104  0.37164964  0.60271276  1
  O  O11  1  0.62835036  0.19426896  0.89728724  1
  O  O12  1  0.87728312  0.76206014  0.09362932  1
  O  O13  1  0.23793986  0.12271688  0.40637068  1
  O  O14  1  0.12065049  0.25856147  0.91411058  1
  O  O15  1  0.74143853  0.87934951  0.58588942  1
