# generated using pymatgen
data_Nb5Ni(B2Ru5)2
_symmetry_space_group_name_H-M   'P 1'
_cell_length_a   3.01325506
_cell_length_b   9.36591357
_cell_length_c   9.36591357
_cell_angle_alpha   90.00000000
_cell_angle_beta   90.00000000
_cell_angle_gamma   90.00000000
_symmetry_Int_Tables_number   1
_chemical_formula_structural   Nb5Ni(B2Ru5)2
_chemical_formula_sum   'Nb5 Ni1 B4 Ru10'
_cell_volume   264.32374933
_cell_formula_units_Z   1
loop_
 _symmetry_equiv_pos_site_id
 _symmetry_equiv_pos_as_xyz
  1  'x, y, z'
loop_
 _atom_site_type_symbol
 _atom_site_label
 _atom_site_symmetry_multiplicity
 _atom_site_fract_x
 _atom_site_fract_y
 _atom_site_fract_z
 _atom_site_occupancy
  Nb  Nb0  1  -0.00000000  0.67395825  0.82019944  1
  Nb  Nb1  1  0.00000000  0.32604175  0.17980056  1
  Nb  Nb2  1  0.00000000  0.82019944  0.32604175  1
  Nb  Nb3  1  -0.00000000  0.17980056  0.67395825  1
  Nb  Nb4  1  -0.00000000  0.00000000  0.00000000  1
  Ni  Ni5  1  0.00000000  0.50000000  0.50000000  1
  B  B6  1  -0.00000000  0.87015294  0.61710710  1
  B  B7  1  0.00000000  0.12984706  0.38289290  1
  B  B8  1  -0.00000000  0.61710710  0.12984706  1
  B  B9  1  0.00000000  0.38289290  0.87015294  1
  Ru  Ru10  1  0.50000000  0.00000000  0.50000000  1
  Ru  Ru11  1  0.50000000  0.50000000  0.00000000  1
  Ru  Ru12  1  0.50000000  0.71301829  0.56915920  1
  Ru  Ru13  1  0.50000000  0.28698171  0.43084080  1
  Ru  Ru14  1  0.50000000  0.77985657  0.07246698  1
  Ru  Ru15  1  0.50000000  0.22014343  0.92753302  1
  Ru  Ru16  1  0.50000000  0.56915920  0.28698171  1
  Ru  Ru17  1  0.50000000  0.43084080  0.71301829  1
  Ru  Ru18  1  0.50000000  0.07246698  0.22014343  1
  Ru  Ru19  1  0.50000000  0.92753302  0.77985657  1
