# generated using pymatgen
data_NdErFe14B
_symmetry_space_group_name_H-M   'P 1'
_cell_length_a   8.75920185
_cell_length_b   8.75920185
_cell_length_c   12.00184478
_cell_angle_alpha   90.00000000
_cell_angle_beta   90.00000000
_cell_angle_gamma   90.00000000
_symmetry_Int_Tables_number   1
_chemical_formula_structural   NdErFe14B
_chemical_formula_sum   'Nd4 Er4 Fe56 B4'
_cell_volume   920.82494278
_cell_formula_units_Z   4
loop_
 _symmetry_equiv_pos_site_id
 _symmetry_equiv_pos_as_xyz
  1  'x, y, z'
loop_
 _atom_site_type_symbol
 _atom_site_label
 _atom_site_symmetry_multiplicity
 _atom_site_fract_x
 _atom_site_fract_y
 _atom_site_fract_z
 _atom_site_occupancy
  Nd  Nd0  1  0.23362974  0.76637026  0.50000000  1
  Nd  Nd1  1  0.76637026  0.23362974  0.50000000  1
  Nd  Nd2  1  0.26637026  0.26637026  0.00000000  1
  Nd  Nd3  1  0.73362974  0.73362974  0.00000000  1
  Er  Er4  1  0.64493045  0.64493045  0.50000000  1
  Er  Er5  1  0.35506955  0.35506955  0.50000000  1
  Er  Er6  1  0.85506955  0.14493045  0.00000000  1
  Er  Er7  1  0.14493045  0.85506955  0.00000000  1
  Fe  Fe8  1  0.93201205  0.72499294  0.37231896  1
  Fe  Fe9  1  0.06798795  0.27500706  0.37231896  1
  Fe  Fe10  1  0.56798795  0.22499294  0.87231896  1
  Fe  Fe11  1  0.43201205  0.77500706  0.87231896  1
  Fe  Fe12  1  0.06798795  0.27500706  0.62768104  1
  Fe  Fe13  1  0.93201205  0.72499294  0.62768104  1
  Fe  Fe14  1  0.43201205  0.77500706  0.12768104  1
  Fe  Fe15  1  0.56798795  0.22499294  0.12768104  1
  Fe  Fe16  1  0.72499294  0.93201205  0.37231896  1
  Fe  Fe17  1  0.27500706  0.06798795  0.37231896  1
  Fe  Fe18  1  0.22499294  0.56798795  0.87231896  1
  Fe  Fe19  1  0.77500706  0.43201205  0.87231896  1
  Fe  Fe20  1  0.27500706  0.06798795  0.62768104  1
  Fe  Fe21  1  0.72499294  0.93201205  0.62768104  1
  Fe  Fe22  1  0.77500706  0.43201205  0.12768104  1
  Fe  Fe23  1  0.22499294  0.56798795  0.12768104  1
  Fe  Fe24  1  0.14074214  0.53554345  0.32478769  1
  Fe  Fe25  1  0.85925786  0.46445655  0.32478769  1
  Fe  Fe26  1  0.35925786  0.03554345  0.82478769  1
  Fe  Fe27  1  0.64074214  0.96445655  0.82478769  1
  Fe  Fe28  1  0.85925786  0.46445655  0.67521231  1
  Fe  Fe29  1  0.14074214  0.53554345  0.67521231  1
  Fe  Fe30  1  0.64074214  0.96445655  0.17521231  1
  Fe  Fe31  1  0.35925786  0.03554345  0.17521231  1
  Fe  Fe32  1  0.53554345  0.14074214  0.32478769  1
  Fe  Fe33  1  0.46445655  0.85925786  0.32478769  1
  Fe  Fe34  1  0.03554345  0.35925786  0.82478769  1
  Fe  Fe35  1  0.96445655  0.64074214  0.82478769  1
  Fe  Fe36  1  0.46445655  0.85925786  0.67521231  1
  Fe  Fe37  1  0.53554345  0.14074214  0.67521231  1
  Fe  Fe38  1  0.96445655  0.64074214  0.17521231  1
  Fe  Fe39  1  0.03554345  0.35925786  0.17521231  1
  Fe  Fe40  1  0.18230249  0.81769751  0.25283487  1
  Fe  Fe41  1  0.81769751  0.18230249  0.25283487  1
  Fe  Fe42  1  0.31769751  0.31769751  0.75283487  1
  Fe  Fe43  1  0.68230249  0.68230249  0.75283487  1
  Fe  Fe44  1  0.81769751  0.18230249  0.74716513  1
  Fe  Fe45  1  0.18230249  0.81769751  0.74716513  1
  Fe  Fe46  1  0.68230249  0.68230249  0.24716513  1
  Fe  Fe47  1  0.31769751  0.31769751  0.24716513  1
  Fe  Fe48  1  0.40319286  0.59680714  0.30070309  1
  Fe  Fe49  1  0.59680714  0.40319286  0.30070309  1
  Fe  Fe50  1  0.09680714  0.09680714  0.80070309  1
  Fe  Fe51  1  0.90319286  0.90319286  0.80070309  1
  Fe  Fe52  1  0.59680714  0.40319286  0.69929691  1
  Fe  Fe53  1  0.40319286  0.59680714  0.69929691  1
  Fe  Fe54  1  0.90319286  0.90319286  0.19929691  1
  Fe  Fe55  1  0.09680714  0.09680714  0.19929691  1
  Fe  Fe56  1  -0.00000000  0.50000000  0.50000000  1
  Fe  Fe57  1  0.50000000  -0.00000000  0.00000000  1
  Fe  Fe58  1  0.50000000  -0.00000000  0.50000000  1
  Fe  Fe59  1  0.00000000  0.50000000  0.00000000  1
  Fe  Fe60  1  0.50000000  0.50000000  0.11728641  1
  Fe  Fe61  1  -0.00000000  -0.00000000  0.61728641  1
  Fe  Fe62  1  0.50000000  0.50000000  0.88271359  1
  Fe  Fe63  1  -0.00000000  -0.00000000  0.38271359  1
  B  B64  1  0.87623902  0.87623902  0.50000000  1
  B  B65  1  0.12376098  0.12376098  0.50000000  1
  B  B66  1  0.62376098  0.37623902  0.00000000  1
  B  B67  1  0.37623902  0.62376098  0.00000000  1
