# generated using pymatgen
data_NdHoFe14B
_symmetry_space_group_name_H-M   'P 1'
_cell_length_a   8.73553866
_cell_length_b   8.73553866
_cell_length_c   11.93550810
_cell_angle_alpha   90.00000000
_cell_angle_beta   90.00000000
_cell_angle_gamma   90.00000000
_symmetry_Int_Tables_number   1
_chemical_formula_structural   NdHoFe14B
_chemical_formula_sum   'Nd4 Ho4 Fe56 B4'
_cell_volume   910.79427477
_cell_formula_units_Z   4
loop_
 _symmetry_equiv_pos_site_id
 _symmetry_equiv_pos_as_xyz
  1  'x, y, z'
loop_
 _atom_site_type_symbol
 _atom_site_label
 _atom_site_symmetry_multiplicity
 _atom_site_fract_x
 _atom_site_fract_y
 _atom_site_fract_z
 _atom_site_occupancy
  Nd  Nd0  1  0.23381101  0.76618899  0.50000000  1
  Nd  Nd1  1  0.76618899  0.23381101  0.50000000  1
  Nd  Nd2  1  0.26618899  0.26618899  -0.00000000  1
  Nd  Nd3  1  0.73381101  0.73381101  -0.00000000  1
  Ho  Ho4  1  0.64540493  0.64540493  0.50000000  1
  Ho  Ho5  1  0.35459507  0.35459507  0.50000000  1
  Ho  Ho6  1  0.85459507  0.14540493  -0.00000000  1
  Ho  Ho7  1  0.14540493  0.85459507  -0.00000000  1
  Fe  Fe8  1  0.93228991  0.72483515  0.37245446  1
  Fe  Fe9  1  0.06771009  0.27516485  0.37245446  1
  Fe  Fe10  1  0.56771009  0.22483515  0.87245446  1
  Fe  Fe11  1  0.43228991  0.77516485  0.87245446  1
  Fe  Fe12  1  0.06771009  0.27516485  0.62754554  1
  Fe  Fe13  1  0.93228991  0.72483515  0.62754554  1
  Fe  Fe14  1  0.43228991  0.77516485  0.12754554  1
  Fe  Fe15  1  0.56771009  0.22483515  0.12754554  1
  Fe  Fe16  1  0.72483515  0.93228991  0.37245446  1
  Fe  Fe17  1  0.27516485  0.06771009  0.37245446  1
  Fe  Fe18  1  0.22483515  0.56771009  0.87245446  1
  Fe  Fe19  1  0.77516485  0.43228991  0.87245446  1
  Fe  Fe20  1  0.27516485  0.06771009  0.62754554  1
  Fe  Fe21  1  0.72483515  0.93228991  0.62754554  1
  Fe  Fe22  1  0.77516485  0.43228991  0.12754554  1
  Fe  Fe23  1  0.22483515  0.56771009  0.12754554  1
  Fe  Fe24  1  0.14048594  0.53560029  0.32457852  1
  Fe  Fe25  1  0.85951406  0.46439971  0.32457852  1
  Fe  Fe26  1  0.35951406  0.03560029  0.82457852  1
  Fe  Fe27  1  0.64048594  0.96439971  0.82457852  1
  Fe  Fe28  1  0.85951406  0.46439971  0.67542148  1
  Fe  Fe29  1  0.14048594  0.53560029  0.67542148  1
  Fe  Fe30  1  0.64048594  0.96439971  0.17542148  1
  Fe  Fe31  1  0.35951406  0.03560029  0.17542148  1
  Fe  Fe32  1  0.53560029  0.14048594  0.32457852  1
  Fe  Fe33  1  0.46439971  0.85951406  0.32457852  1
  Fe  Fe34  1  0.03560029  0.35951406  0.82457852  1
  Fe  Fe35  1  0.96439971  0.64048594  0.82457852  1
  Fe  Fe36  1  0.46439971  0.85951406  0.67542148  1
  Fe  Fe37  1  0.53560029  0.14048594  0.67542148  1
  Fe  Fe38  1  0.96439971  0.64048594  0.17542148  1
  Fe  Fe39  1  0.03560029  0.35951406  0.17542148  1
  Fe  Fe40  1  0.18246132  0.81753868  0.25266855  1
  Fe  Fe41  1  0.81753868  0.18246132  0.25266855  1
  Fe  Fe42  1  0.31753868  0.31753868  0.75266855  1
  Fe  Fe43  1  0.68246132  0.68246132  0.75266855  1
  Fe  Fe44  1  0.81753868  0.18246132  0.74733145  1
  Fe  Fe45  1  0.18246132  0.81753868  0.74733145  1
  Fe  Fe46  1  0.68246132  0.68246132  0.24733145  1
  Fe  Fe47  1  0.31753868  0.31753868  0.24733145  1
  Fe  Fe48  1  0.40299170  0.59700830  0.30073305  1
  Fe  Fe49  1  0.59700830  0.40299170  0.30073305  1
  Fe  Fe50  1  0.09700830  0.09700830  0.80073305  1
  Fe  Fe51  1  0.90299170  0.90299170  0.80073305  1
  Fe  Fe52  1  0.59700830  0.40299170  0.69926695  1
  Fe  Fe53  1  0.40299170  0.59700830  0.69926695  1
  Fe  Fe54  1  0.90299170  0.90299170  0.19926695  1
  Fe  Fe55  1  0.09700830  0.09700830  0.19926695  1
  Fe  Fe56  1  0.50000000  0.50000000  0.11724160  1
  Fe  Fe57  1  0.00000000  0.00000000  0.61724160  1
  Fe  Fe58  1  0.50000000  0.50000000  0.88275840  1
  Fe  Fe59  1  -0.00000000  0.00000000  0.38275840  1
  Fe  Fe60  1  0.00000000  0.50000000  0.50000000  1
  Fe  Fe61  1  0.50000000  0.00000000  -0.00000000  1
  Fe  Fe62  1  0.50000000  0.00000000  0.50000000  1
  Fe  Fe63  1  -0.00000000  0.50000000  -0.00000000  1
  B  B64  1  0.87684632  0.87684632  0.50000000  1
  B  B65  1  0.12315368  0.12315368  0.50000000  1
  B  B66  1  0.62315368  0.37684632  0.00000000  1
  B  B67  1  0.37684632  0.62315368  0.00000000  1
