# generated using pymatgen
data_Na2LaCeTi4O12
_symmetry_space_group_name_H-M   'P 1'
_cell_length_a   5.49961535
_cell_length_b   5.48135281
_cell_length_c   9.52092924
_cell_angle_alpha   106.84123854
_cell_angle_beta   90.00000000
_cell_angle_gamma   120.11026797
_symmetry_Int_Tables_number   1
_chemical_formula_structural   Na2LaCeTi4O12
_chemical_formula_sum   'Na2 La1 Ce1 Ti4 O12'
_cell_volume   233.94407185
_cell_formula_units_Z   1
loop_
 _symmetry_equiv_pos_site_id
 _symmetry_equiv_pos_as_xyz
  1  'x, y, z'
loop_
 _atom_site_type_symbol
 _atom_site_label
 _atom_site_symmetry_multiplicity
 _atom_site_fract_x
 _atom_site_fract_y
 _atom_site_fract_z
 _atom_site_occupancy
  Na  Na0  1  0.37486336  0.74966116  0.12377234  1
  Na  Na1  1  0.87520219  0.75033884  0.62622766  1
  La  La2  1  0.62472613  0.25000000  0.87500000  1
  Ce  Ce3  1  0.12591566  0.25000000  0.37500000  1
  Ti  Ti4  1  0.25218054  0.50179913  0.74943936  1
  Ti  Ti5  1  0.75117049  0.50500195  0.25164740  1
  Ti  Ti6  1  0.00038141  0.99820087  0.00056064  1
  Ti  Ti7  1  0.49616854  0.99499805  0.49835260  1
  O  O8  1  0.43242269  0.74870576  0.62345645  1
  O  O9  1  0.93371693  0.75129424  0.12654355  1
  O  O10  1  0.59898788  0.75161789  0.90284201  1
  O  O11  1  0.09283266  0.74856826  0.40512002  1
  O  O12  1  0.09736999  0.74838211  0.84715799  1
  O  O13  1  0.59426440  0.75143174  0.34487998  1
  O  O14  1  0.90966244  0.25056280  0.58919943  1
  O  O15  1  0.40696114  0.24960245  0.09387930  1
  O  O16  1  0.40735869  0.25039755  0.65612070  1
  O  O17  1  0.90909964  0.24943720  0.16080057  1
  O  O18  1  0.06486823  0.25000000  0.87500000  1
  O  O19  1  0.55184700  0.25000000  0.37500000  1
