# generated using pymatgen
data_Na4Eu2SnP4
_symmetry_space_group_name_H-M   'P 1'
_cell_length_a   7.23790618
_cell_length_b   9.54530103
_cell_length_c   9.53300544
_cell_angle_alpha   60.10420305
_cell_angle_beta   91.84037338
_cell_angle_gamma   90.94905031
_symmetry_Int_Tables_number   1
_chemical_formula_structural   Na4Eu2SnP4
_chemical_formula_sum   'Na8 Eu4 Sn2 P8'
_cell_volume   570.68169955
_cell_formula_units_Z   2
loop_
 _symmetry_equiv_pos_site_id
 _symmetry_equiv_pos_as_xyz
  1  'x, y, z'
loop_
 _atom_site_type_symbol
 _atom_site_label
 _atom_site_symmetry_multiplicity
 _atom_site_fract_x
 _atom_site_fract_y
 _atom_site_fract_z
 _atom_site_occupancy
  Na  Na0  1  0.38001322  0.53677307  0.53234670  1
  Na  Na1  1  0.88000253  0.46341704  0.06913070  1
  Na  Na2  1  0.18647745  0.14219296  0.13382912  1
  Na  Na3  1  0.22334754  0.15204647  0.71211607  1
  Na  Na4  1  0.20876834  0.71486005  0.14847297  1
  Na  Na5  1  0.72324181  0.84779291  0.86424446  1
  Na  Na6  1  0.68650637  0.85781109  0.27603290  1
  Na  Na7  1  0.70897682  0.28522649  0.86327883  1
  Eu  Eu8  1  0.38375830  0.52372111  0.94532920  1
  Eu  Eu9  1  0.37466695  0.94973085  0.51611759  1
  Eu  Eu10  1  0.88385547  0.47637442  0.46884505  1
  Eu  Eu11  1  0.87458903  0.05005660  0.46594645  1
  Sn  Sn12  1  0.49838675  0.33682229  0.33868790  1
  Sn  Sn13  1  0.99834156  0.66313918  0.67533315  1
  P  P14  1  0.12963294  0.81940619  0.80734501  1
  P  P15  1  0.08950724  0.81408602  0.37376845  1
  P  P16  1  0.10686924  0.37564507  0.80628341  1
  P  P17  1  0.58969459  0.18562343  0.18799629  1
  P  P18  1  0.62953103  0.18096240  0.62646361  1
  P  P19  1  0.60720633  0.62434444  0.18231759  1
  P  P20  1  0.14237553  0.32356339  0.34127308  1
  P  P21  1  0.64225095  0.67640454  0.66484146  1
