# generated using pymatgen
data_NaPr3Mn4O12
_symmetry_space_group_name_H-M   'P 1'
_cell_length_a   5.51722855
_cell_length_b   5.50763604
_cell_length_c   7.73306296
_cell_angle_alpha   90.00000000
_cell_angle_beta   90.00000000
_cell_angle_gamma   89.61955917
_symmetry_Int_Tables_number   1
_chemical_formula_structural   NaPr3Mn4O12
_chemical_formula_sum   'Na1 Pr3 Mn4 O12'
_cell_volume   234.97852913
_cell_formula_units_Z   1
loop_
 _symmetry_equiv_pos_site_id
 _symmetry_equiv_pos_as_xyz
  1  'x, y, z'
loop_
 _atom_site_type_symbol
 _atom_site_label
 _atom_site_symmetry_multiplicity
 _atom_site_fract_x
 _atom_site_fract_y
 _atom_site_fract_z
 _atom_site_occupancy
  Na  Na0  1  0.47878278  0.49519575  0.75000000  1
  Pr  Pr1  1  0.96357592  0.00924293  0.75000000  1
  Pr  Pr2  1  0.53536491  0.50797876  0.25000000  1
  Pr  Pr3  1  0.03105779  0.99758306  0.25000000  1
  Mn  Mn4  1  0.49790822  0.00155540  0.99482411  1
  Mn  Mn5  1  0.00388060  0.50006705  0.50569216  1
  Mn  Mn6  1  0.49790822  0.00155540  0.50517589  1
  Mn  Mn7  1  0.00388060  0.50006705  0.99430784  1
  O  O8  1  0.20741243  0.20640960  0.97322207  1
  O  O9  1  0.72381505  0.27468712  0.53309528  1
  O  O10  1  0.77943570  0.77914753  0.46018503  1
  O  O11  1  0.27491207  0.72770348  0.04805366  1
  O  O12  1  0.77943570  0.77914753  0.03981497  1
  O  O13  1  0.27491207  0.72770348  0.45194634  1
  O  O14  1  0.20741243  0.20640960  0.52677793  1
  O  O15  1  0.72381505  0.27468712  0.96690472  1
  O  O16  1  0.01920102  0.57439595  0.75000000  1
  O  O17  1  0.51565465  0.92845747  0.75000000  1
  O  O18  1  0.98784045  0.43547261  0.25000000  1
  O  O19  1  0.49379433  0.07253309  0.25000000  1
