# generated using pymatgen
data_Na4TaAl3(PO4)6
_symmetry_space_group_name_H-M   'P 1'
_cell_length_a   8.58077722
_cell_length_b   8.57921377
_cell_length_c   8.74505199
_cell_angle_alpha   90.05578894
_cell_angle_beta   60.51062981
_cell_angle_gamma   119.93799197
_symmetry_Int_Tables_number   1
_chemical_formula_structural   Na4TaAl3(PO4)6
_chemical_formula_sum   'Na4 Ta1 Al3 P6 O24'
_cell_volume   459.34048445
_cell_formula_units_Z   1
loop_
 _symmetry_equiv_pos_site_id
 _symmetry_equiv_pos_as_xyz
  1  'x, y, z'
loop_
 _atom_site_type_symbol
 _atom_site_label
 _atom_site_symmetry_multiplicity
 _atom_site_fract_x
 _atom_site_fract_y
 _atom_site_fract_z
 _atom_site_occupancy
  Na  Na0  1  0.49981197  0.38756327  0.75421469  1
  Na  Na1  1  0.13685131  0.75116497  0.75248574  1
  Na  Na2  1  0.00730902  0.49002951  0.49165660  1
  Na  Na3  1  0.99234872  0.00563242  0.98975661  1
  Ta  Ta4  1  0.71990508  0.86129628  0.42240937  1
  Al  Al5  1  0.28733321  0.64382288  0.07101782  1
  Al  Al6  1  0.29089142  0.14848407  0.55592865  1
  Al  Al7  1  0.70747624  0.34886838  0.93987498  1
  P  P8  1  0.49646478  0.03885488  0.76065620  1
  P  P9  1  0.78765703  0.75348230  0.75946387  1
  P  P10  1  0.20159514  0.45274728  0.75831041  1
  P  P11  1  0.23011345  0.26470347  0.24225437  1
  P  P12  1  0.78963450  0.52589777  0.24672107  1
  P  P13  1  0.48619833  0.96221373  0.25036011  1
  O  O14  1  0.58087446  0.71740982  0.92720707  1
  O  O15  1  0.21320863  0.48926945  0.92436585  1
  O  O16  1  0.35354463  0.85956344  0.92481812  1
  O  O17  1  0.35379307  0.98728556  0.43468851  1
  O  O18  1  0.21816262  0.21713302  0.41687633  1
  O  O19  1  0.57978322  0.36498753  0.42725827  1
  O  O20  1  0.42714667  0.29527755  0.06213468  1
  O  O21  1  0.79704555  0.50485787  0.06988833  1
  O  O22  1  0.63021452  0.13398756  0.07988736  1
  O  O23  1  0.63647416  0.00633734  0.58064137  1
  O  O24  1  0.78658033  0.78266921  0.58215995  1
  O  O25  1  0.41171103  0.63170140  0.58145613  1
  O  O26  1  0.33161828  0.77737622  0.23785159  1
  O  O27  1  0.20945811  0.43046299  0.23340854  1
  O  O28  1  0.98590170  0.55453816  0.23530025  1
  O  O29  1  0.99212766  0.92658643  0.73595259  1
  O  O30  1  0.20469987  0.27629262  0.73286371  1
  O  O31  1  0.33960148  0.06494736  0.74033008  1
  O  O32  1  0.65870401  0.22560015  0.76709820  1
  O  O33  1  0.80395091  0.58057374  0.76337529  1
  O  O34  1  0.01071190  0.43678725  0.76681213  1
  O  O35  1  0.02476560  0.08453771  0.25789371  1
  O  O36  1  0.80001998  0.71601494  0.26071139  1
  O  O37  1  0.65381140  0.93854147  0.26191004  1
