# generated using pymatgen
data_NaVMoO6
_symmetry_space_group_name_H-M   'P 1'
_cell_length_a   3.73250858
_cell_length_b   5.14386826
_cell_length_c   7.35507831
_cell_angle_alpha   110.63629933
_cell_angle_beta   90.09630006
_cell_angle_gamma   68.67071069
_symmetry_Int_Tables_number   1
_chemical_formula_structural   NaVMoO6
_chemical_formula_sum   'Na1 V1 Mo1 O6'
_cell_volume   121.79827799
_cell_formula_units_Z   1
loop_
 _symmetry_equiv_pos_site_id
 _symmetry_equiv_pos_as_xyz
  1  'x, y, z'
loop_
 _atom_site_type_symbol
 _atom_site_label
 _atom_site_symmetry_multiplicity
 _atom_site_fract_x
 _atom_site_fract_y
 _atom_site_fract_z
 _atom_site_occupancy
  Na  Na0  1  0.99067058  0.01223321  0.01482193  1
  V  V1  1  0.19194291  0.62746416  0.35928110  1
  Mo  Mo2  1  0.82465413  0.35969362  0.62757783  1
  O  O3  1  0.67538712  0.65660512  0.85632338  1
  O  O4  1  0.32514864  0.35550810  0.13860570  1
  O  O5  1  0.31330300  0.38256301  0.55532460  1
  O  O6  1  0.70317265  0.60379123  0.43424874  1
  O  O7  1  0.98303079  0.04312444  0.69470153  1
  O  O8  1  0.02388018  0.95683710  0.32041518  1
