# generated using pymatgen
data_NaGdTi2O6
_symmetry_space_group_name_H-M   'P 1'
_cell_length_a   5.38140260
_cell_length_b   5.53402599
_cell_length_c   7.66614485
_cell_angle_alpha   90.00000000
_cell_angle_beta   90.00000000
_cell_angle_gamma   90.00000000
_symmetry_Int_Tables_number   1
_chemical_formula_structural   NaGdTi2O6
_chemical_formula_sum   'Na2 Gd2 Ti4 O12'
_cell_volume   228.30409406
_cell_formula_units_Z   2
loop_
 _symmetry_equiv_pos_site_id
 _symmetry_equiv_pos_as_xyz
  1  'x, y, z'
loop_
 _atom_site_type_symbol
 _atom_site_label
 _atom_site_symmetry_multiplicity
 _atom_site_fract_x
 _atom_site_fract_y
 _atom_site_fract_z
 _atom_site_occupancy
  Na  Na0  1  0.49552054  0.97113478  0.25000000  1
  Na  Na1  1  0.99552054  0.52886522  0.75000000  1
  Gd  Gd2  1  0.01544245  0.43893284  0.25000000  1
  Gd  Gd3  1  0.51544245  0.06106716  0.75000000  1
  Ti  Ti4  1  0.51215800  0.51261546  0.99745623  1
  Ti  Ti5  1  0.01215800  0.98738454  0.49745623  1
  Ti  Ti6  1  0.51215800  0.51261546  0.50254377  1
  Ti  Ti7  1  0.01215800  0.98738454  0.00254377  1
  O  O8  1  0.92431720  0.02117302  0.25000000  1
  O  O9  1  0.59149909  0.52081950  0.25000000  1
  O  O10  1  0.09149909  0.97918050  0.75000000  1
  O  O11  1  0.42431720  0.47882698  0.75000000  1
  O  O12  1  0.19868397  0.70278031  0.04843512  1
  O  O13  1  0.27576840  0.21610142  0.46093423  1
  O  O14  1  0.77576840  0.28389858  0.53906577  1
  O  O15  1  0.69868397  0.79721969  0.95156488  1
  O  O16  1  0.77576840  0.28389858  0.96093423  1
  O  O17  1  0.69868397  0.79721969  0.54843512  1
  O  O18  1  0.19868397  0.70278031  0.45156488  1
  O  O19  1  0.27576840  0.21610142  0.03906577  1
