# generated using pymatgen
data_NdCd6
_symmetry_space_group_name_H-M   'P 1'
_cell_length_a   13.80089419
_cell_length_b   13.80089419
_cell_length_c   13.80089419
_cell_angle_alpha   71.67753950
_cell_angle_beta   70.25400817
_cell_angle_gamma   110.35186545
_symmetry_Int_Tables_number   1
_chemical_formula_structural   NdCd6
_chemical_formula_sum   'Nd12 Cd72'
_cell_volume   2022.81771163
_cell_formula_units_Z   12
loop_
 _symmetry_equiv_pos_site_id
 _symmetry_equiv_pos_as_xyz
  1  'x, y, z'
loop_
 _atom_site_type_symbol
 _atom_site_label
 _atom_site_symmetry_multiplicity
 _atom_site_fract_x
 _atom_site_fract_y
 _atom_site_fract_z
 _atom_site_occupancy
  Nd  Nd0  1  0.70248820  0.50646459  0.19602361  1
  Nd  Nd1  1  0.29751180  0.49353541  0.80397639  1
  Nd  Nd2  1  0.70248820  0.89851181  0.80397639  1
  Nd  Nd3  1  0.29751180  0.10148819  0.19602361  1
  Nd  Nd4  1  0.80854093  0.30140232  0.89005675  1
  Nd  Nd5  1  0.19145907  0.69859768  0.10994325  1
  Nd  Nd6  1  0.19145907  0.30140232  0.50713861  1
  Nd  Nd7  1  0.80854093  0.69859768  0.49286139  1
  Nd  Nd8  1  0.48662867  0.18885520  0.70222652  1
  Nd  Nd9  1  0.51337133  0.81114480  0.29777348  1
  Nd  Nd10  1  0.10891828  0.81114480  0.70222652  1
  Nd  Nd11  1  0.89108172  0.18885520  0.29777348  1
  Cd  Cd12  1  0.00002647  0.67711661  0.00177258  1
  Cd  Cd13  1  0.32111081  0.32288339  0.67709014  1
  Cd  Cd14  1  0.67888919  0.00179905  0.99822742  1
  Cd  Cd15  1  0.99997353  0.99820095  0.32290986  1
  Cd  Cd16  1  0.99997353  0.32288339  0.99822742  1
  Cd  Cd17  1  0.67888919  0.67711661  0.32290986  1
  Cd  Cd18  1  0.32111081  0.99820095  0.00177258  1
  Cd  Cd19  1  0.00002647  0.00179905  0.67709014  1
  Cd  Cd20  1  0.91490704  0.45296418  0.22723354  1
  Cd  Cd21  1  0.31980228  0.54703582  0.53805714  1
  Cd  Cd22  1  0.68019772  0.14214058  0.77276646  1
  Cd  Cd23  1  0.08509296  0.85785942  0.46194286  1
  Cd  Cd24  1  0.54817817  0.08947489  0.13991792  1
  Cd  Cd25  1  0.22939280  0.68809609  0.86008208  1
  Cd  Cd26  1  0.45182183  0.31190391  0.45870329  1
  Cd  Cd27  1  0.77060720  0.91052511  0.54129671  1
  Cd  Cd28  1  0.54034527  0.45580327  0.68419553  1
  Cd  Cd29  1  0.45965473  0.77545919  0.08454201  1
  Cd  Cd30  1  0.86000120  0.54419673  0.91545799  1
  Cd  Cd31  1  0.13999880  0.22454081  0.31580447  1
  Cd  Cd32  1  0.08509296  0.54703582  0.77276646  1
  Cd  Cd33  1  0.68019772  0.45296418  0.46194286  1
  Cd  Cd34  1  0.31980228  0.85785942  0.22723354  1
  Cd  Cd35  1  0.91490704  0.14214058  0.53805714  1
  Cd  Cd36  1  0.45182183  0.91052511  0.86008208  1
  Cd  Cd37  1  0.77060720  0.31190391  0.13991792  1
  Cd  Cd38  1  0.54817817  0.68809609  0.54129671  1
  Cd  Cd39  1  0.22939280  0.08947489  0.45870329  1
  Cd  Cd40  1  0.45965473  0.54419673  0.31580447  1
  Cd  Cd41  1  0.54034527  0.22454081  0.91545799  1
  Cd  Cd42  1  0.13999880  0.45580327  0.08454201  1
  Cd  Cd43  1  0.86000120  0.77545919  0.68419553  1
  Cd  Cd44  1  0.90426906  0.64820694  0.25606212  1
  Cd  Cd45  1  0.09573094  0.35179306  0.74393788  1
  Cd  Cd46  1  0.90426906  0.16033117  0.74393788  1
  Cd  Cd47  1  0.09573094  0.83966883  0.25606212  1
  Cd  Cd48  1  0.76485729  0.09017584  0.14496687  1
  Cd  Cd49  1  0.23514271  0.90982416  0.85503313  1
  Cd  Cd50  1  0.23514271  0.09017584  0.67468144  1
  Cd  Cd51  1  0.76485729  0.90982416  0.32531856  1
  Cd  Cd52  1  0.33658724  0.24187087  0.90528363  1
  Cd  Cd53  1  0.66341276  0.75812913  0.09471637  1
  Cd  Cd54  1  0.85284550  0.75812913  0.90528363  1
  Cd  Cd55  1  0.14715450  0.24187087  0.09471637  1
  Cd  Cd56  1  0.64700258  0.24377642  0.40322616  1
  Cd  Cd57  1  0.35299742  0.75622358  0.59677384  1
  Cd  Cd58  1  0.64700258  0.05022873  0.59677384  1
  Cd  Cd59  1  0.35299742  0.94977127  0.40322616  1
  Cd  Cd60  1  0.59542272  0.35234973  0.05222756  1
  Cd  Cd61  1  0.40457728  0.64765027  0.94777244  1
  Cd  Cd62  1  0.40457728  0.35234973  0.24307299  1
  Cd  Cd63  1  0.59542272  0.64765027  0.75692701  1
  Cd  Cd64  1  0.75309748  0.40363013  0.65053265  1
  Cd  Cd65  1  0.24690252  0.59636987  0.34946735  1
  Cd  Cd66  1  0.94583722  0.59636987  0.65053265  1
  Cd  Cd67  1  0.05416278  0.40363013  0.34946735  1
  Cd  Cd68  1  -0.00000000  0.59200062  0.40799938  1
  Cd  Cd69  1  0.00000000  0.40799938  0.59200062  1
  Cd  Cd70  1  0.59613614  0.00000000  0.40386386  1
  Cd  Cd71  1  0.40386386  0.00000000  0.59613614  1
  Cd  Cd72  1  0.40465131  0.40465131  0.00000000  1
  Cd  Cd73  1  0.59534869  0.59534869  -0.00000000  1
  Cd  Cd74  1  0.80278101  0.30278101  0.50000000  1
  Cd  Cd75  1  0.19721899  0.69721899  0.50000000  1
  Cd  Cd76  1  0.50000000  0.19844852  0.30155148  1
  Cd  Cd77  1  0.50000000  0.80155148  0.69844852  1
  Cd  Cd78  1  0.69278015  0.50000000  0.80721985  1
  Cd  Cd79  1  0.30721985  0.50000000  0.19278015  1
  Cd  Cd80  1  0.90586739  0.82123985  0.08462753  1
  Cd  Cd81  1  0.09413261  0.17876015  0.91537247  1
  Cd  Cd82  1  0.90586739  0.99049492  0.91537247  1
  Cd  Cd83  1  0.09413261  0.00950508  0.08462753  1
