# generated using pymatgen
data_Nd3Y3(Fe5O12)2
_symmetry_space_group_name_H-M   'P 1'
_cell_length_a   10.97396724
_cell_length_b   10.97396724
_cell_length_c   10.97396724
_cell_angle_alpha   70.52877937
_cell_angle_beta   70.52877937
_cell_angle_gamma   109.47122063
_symmetry_Int_Tables_number   1
_chemical_formula_structural   Nd3Y3(Fe5O12)2
_chemical_formula_sum   'Nd6 Y6 Fe20 O48'
_cell_volume   1017.34694994
_cell_formula_units_Z   2
loop_
 _symmetry_equiv_pos_site_id
 _symmetry_equiv_pos_as_xyz
  1  'x, y, z'
loop_
 _atom_site_type_symbol
 _atom_site_label
 _atom_site_symmetry_multiplicity
 _atom_site_fract_x
 _atom_site_fract_y
 _atom_site_fract_z
 _atom_site_occupancy
  Nd  Nd0  1  0.25000000  0.12500000  0.12500000  1
  Nd  Nd1  1  0.75000000  0.37500000  0.37500000  1
  Nd  Nd2  1  0.87500000  0.12500000  0.25000000  1
  Nd  Nd3  1  0.62500000  0.37500000  0.75000000  1
  Nd  Nd4  1  0.87500000  0.75000000  0.37500000  1
  Nd  Nd5  1  0.62500000  0.25000000  0.12500000  1
  Y  Y6  1  0.75000000  0.87500000  0.87500000  1
  Y  Y7  1  0.25000000  0.62500000  0.62500000  1
  Y  Y8  1  0.12500000  0.87500000  0.75000000  1
  Y  Y9  1  0.37500000  0.62500000  0.25000000  1
  Y  Y10  1  0.12500000  0.25000000  0.62500000  1
  Y  Y11  1  0.37500000  0.75000000  0.87500000  1
  Fe  Fe12  1  0.75000000  0.62718127  0.12281873  1
  Fe  Fe13  1  0.25000000  0.87281873  0.37718127  1
  Fe  Fe14  1  0.37281873  0.12281873  0.75000000  1
  Fe  Fe15  1  0.12718127  0.37718127  0.25000000  1
  Fe  Fe16  1  0.87718127  0.25000000  0.87281873  1
  Fe  Fe17  1  0.62281873  0.75000000  0.62718127  1
  Fe  Fe18  1  0.25000000  0.37718127  0.87281873  1
  Fe  Fe19  1  0.75000000  0.12281873  0.62718127  1
  Fe  Fe20  1  0.62281873  0.87281873  0.25000000  1
  Fe  Fe21  1  0.87718127  0.62718127  0.75000000  1
  Fe  Fe22  1  0.12718127  0.75000000  0.12281873  1
  Fe  Fe23  1  0.37281873  0.25000000  0.37718127  1
  Fe  Fe24  1  0.50000000  0.99691471  -0.00000000  1
  Fe  Fe25  1  0.49691471  0.50000000  0.50000000  1
  Fe  Fe26  1  0.00308529  0.50308529  0.99691471  1
  Fe  Fe27  1  0.00000000  0.00000000  0.50308529  1
  Fe  Fe28  1  0.50000000  0.50308529  -0.00000000  1
  Fe  Fe29  1  0.49691471  0.99691471  0.50308529  1
  Fe  Fe30  1  0.00308529  0.50000000  0.50000000  1
  Fe  Fe31  1  0.00000000  -0.00000000  0.99691471  1
  O  O32  1  0.58217443  0.87340226  0.09477206  1
  O  O33  1  0.46817432  0.67694649  0.40522794  1
  O  O34  1  0.03182568  0.62659774  0.79122783  1
  O  O35  1  0.91782557  0.82305351  0.70877217  1
  O  O36  1  0.12659774  0.70877217  0.96817432  1
  O  O37  1  0.32305351  0.79122783  0.08217443  1
  O  O38  1  0.37340226  0.40522794  0.41782557  1
  O  O39  1  0.17694649  0.09477206  0.53182568  1
  O  O40  1  0.29122783  0.41782557  0.67694649  1
  O  O41  1  0.20877217  0.53182568  0.87340226  1
  O  O42  1  0.59477206  0.96817432  0.82305351  1
  O  O43  1  0.90522794  0.08217443  0.62659774  1
  O  O44  1  0.41650138  0.11899571  0.90460272  1
  O  O45  1  0.52359842  0.32110410  0.59539728  1
  O  O46  1  0.97640158  0.38100429  0.20249433  1
  O  O47  1  0.08349862  0.17889590  0.29750567  1
  O  O48  1  0.88100429  0.29750567  0.02359842  1
  O  O49  1  0.67889590  0.20249433  0.91650138  1
  O  O50  1  0.61899571  0.59539728  0.58349862  1
  O  O51  1  0.82110410  0.90460272  0.47640158  1
  O  O52  1  0.70249433  0.58349862  0.32110410  1
  O  O53  1  0.79750567  0.47640158  0.11899571  1
  O  O54  1  0.40460272  0.02359842  0.17889590  1
  O  O55  1  0.09539728  0.91650138  0.38100429  1
  O  O56  1  0.41650138  0.29750567  0.17889590  1
  O  O57  1  0.52359842  0.20249433  0.38100429  1
  O  O58  1  0.97640158  0.59539728  0.32110410  1
  O  O59  1  0.08349862  0.90460272  0.11899571  1
  O  O60  1  0.88100429  0.58349862  0.59539728  1
  O  O61  1  0.67889590  0.47640158  0.90460272  1
  O  O62  1  0.61899571  0.02359842  0.29750567  1
  O  O63  1  0.82110410  0.91650138  0.20249433  1
  O  O64  1  0.70249433  0.11899571  0.47640158  1
  O  O65  1  0.79750567  0.32110410  0.58349862  1
  O  O66  1  0.40460272  0.38100429  0.91650138  1
  O  O67  1  0.09539728  0.17889590  0.02359842  1
  O  O68  1  0.58217443  0.70877217  0.82305351  1
  O  O69  1  0.46817432  0.79122783  0.62659774  1
  O  O70  1  0.03182568  0.40522794  0.67694649  1
  O  O71  1  0.91782557  0.09477206  0.87340226  1
  O  O72  1  0.12659774  0.41782557  0.40522794  1
  O  O73  1  0.32305351  0.53182568  0.09477206  1
  O  O74  1  0.37340226  0.96817432  0.70877217  1
  O  O75  1  0.17694649  0.08217443  0.79122783  1
  O  O76  1  0.29122783  0.87340226  0.53182568  1
  O  O77  1  0.20877217  0.67694649  0.41782557  1
  O  O78  1  0.59477206  0.62659774  0.08217443  1
  O  O79  1  0.90522794  0.82305351  0.96817432  1
