# generated using pymatgen
data_NaSr2LaTi4O12
_symmetry_space_group_name_H-M   'P 1'
_cell_length_a   5.54127712
_cell_length_b   5.54127712
_cell_length_c   7.88572504
_cell_angle_alpha   90.00000000
_cell_angle_beta   90.00000000
_cell_angle_gamma   90.00000000
_symmetry_Int_Tables_number   1
_chemical_formula_structural   NaSr2LaTi4O12
_chemical_formula_sum   'Na1 Sr2 La1 Ti4 O12'
_cell_volume   242.13711837
_cell_formula_units_Z   1
loop_
 _symmetry_equiv_pos_site_id
 _symmetry_equiv_pos_as_xyz
  1  'x, y, z'
loop_
 _atom_site_type_symbol
 _atom_site_label
 _atom_site_symmetry_multiplicity
 _atom_site_fract_x
 _atom_site_fract_y
 _atom_site_fract_z
 _atom_site_occupancy
  Na  Na0  1  -0.00000000  0.50000000  0.25000000  1
  Sr  Sr1  1  0.50000000  0.00000000  0.75000000  1
  Sr  Sr2  1  -0.00000000  0.50000000  0.75000000  1
  La  La3  1  0.50000000  0.00000000  0.25000000  1
  Ti  Ti4  1  0.50000000  0.50000000  0.00200875  1
  Ti  Ti5  1  -0.00000000  0.00000000  0.49799125  1
  Ti  Ti6  1  -0.00000000  0.00000000  0.00200875  1
  Ti  Ti7  1  0.50000000  0.50000000  0.49799125  1
  O  O8  1  0.28308486  0.21691514  0.49645298  1
  O  O9  1  0.77191964  0.72808036  0.00149072  1
  O  O10  1  0.22808036  0.27191964  0.00149072  1
  O  O11  1  0.71691514  0.78308486  0.49645298  1
  O  O12  1  0.71691514  0.21691514  0.00354702  1
  O  O13  1  0.22808036  0.72808036  0.49850928  1
  O  O14  1  0.28308486  0.78308486  0.00354702  1
  O  O15  1  0.77191964  0.27191964  0.49850928  1
  O  O16  1  0.50000000  0.50000000  0.25000000  1
  O  O17  1  -0.00000000  0.00000000  0.75000000  1
  O  O18  1  -0.00000000  0.00000000  0.25000000  1
  O  O19  1  0.50000000  0.50000000  0.75000000  1
