# generated using pymatgen
data_MgVCrO4
_symmetry_space_group_name_H-M   'P 1'
_cell_length_a   6.03339079
_cell_length_b   6.06003545
_cell_length_c   6.04594630
_cell_angle_alpha   90.00000000
_cell_angle_beta   59.93113704
_cell_angle_gamma   120.14619445
_symmetry_Int_Tables_number   1
_chemical_formula_structural   MgVCrO4
_chemical_formula_sum   'Mg2 V2 Cr2 O8'
_cell_volume   155.80014294
_cell_formula_units_Z   2
loop_
 _symmetry_equiv_pos_site_id
 _symmetry_equiv_pos_as_xyz
  1  'x, y, z'
loop_
 _atom_site_type_symbol
 _atom_site_label
 _atom_site_symmetry_multiplicity
 _atom_site_fract_x
 _atom_site_fract_y
 _atom_site_fract_z
 _atom_site_occupancy
  Mg  Mg0  1  0.25311426  0.12655713  0.12344287  1
  Mg  Mg1  1  0.74688574  0.87344287  0.87655713  1
  V  V2  1  0.50000000  -0.00000000  0.50000000  1
  V  V3  1  0.50000000  0.50000000  0.50000000  1
  Cr  Cr4  1  -0.00000000  0.50000000  0.00000000  1
  Cr  Cr5  1  -0.00000000  0.50000000  0.50000000  1
  O  O6  1  0.97938564  0.71742753  0.26030718  1
  O  O7  1  0.97938564  0.26195811  0.26030718  1
  O  O8  1  0.52313565  0.26156783  0.71987037  1
  O  O9  1  0.52313565  0.26156783  0.25699398  1
  O  O10  1  0.02061436  0.28257247  0.73969282  1
  O  O11  1  0.02061436  0.73804189  0.73969282  1
  O  O12  1  0.47686435  0.73843217  0.28012963  1
  O  O13  1  0.47686435  0.73843217  0.74300602  1
