# generated using pymatgen
data_MnFeSi2
_symmetry_space_group_name_H-M   'P 1'
_cell_length_a   4.48727283
_cell_length_b   4.48206226
_cell_length_c   4.48608025
_cell_angle_alpha   90.00000000
_cell_angle_beta   90.00000000
_cell_angle_gamma   89.77252646
_symmetry_Int_Tables_number   1
_chemical_formula_structural   MnFeSi2
_chemical_formula_sum   'Mn2 Fe2 Si4'
_cell_volume   90.22439458
_cell_formula_units_Z   2
loop_
 _symmetry_equiv_pos_site_id
 _symmetry_equiv_pos_as_xyz
  1  'x, y, z'
loop_
 _atom_site_type_symbol
 _atom_site_label
 _atom_site_symmetry_multiplicity
 _atom_site_fract_x
 _atom_site_fract_y
 _atom_site_fract_z
 _atom_site_occupancy
  Mn  Mn0  1  0.36108001  0.86553933  0.63667889  1
  Mn  Mn1  1  0.13891999  0.13446067  0.13667889  1
  Fe  Fe2  1  0.86443575  0.63925040  0.36356591  1
  Fe  Fe3  1  0.63556425  0.36074960  0.86356591  1
  Si  Si4  1  0.15597908  0.34666960  0.65654871  1
  Si  Si5  1  0.34402092  0.65333040  0.15654871  1
  Si  Si6  1  0.65697454  0.16063104  0.34320648  1
  Si  Si7  1  0.84302546  0.83936896  0.84320648  1
