# generated using pymatgen
data_MnFe3P2
_symmetry_space_group_name_H-M   'P 1'
_cell_length_a   3.38554768
_cell_length_b   5.90004510
_cell_length_c   10.25322608
_cell_angle_alpha   90.15012000
_cell_angle_beta   90.00000000
_cell_angle_gamma   90.00000000
_symmetry_Int_Tables_number   1
_chemical_formula_structural   MnFe3P2
_chemical_formula_sum   'Mn3 Fe9 P6'
_cell_volume   204.80629847
_cell_formula_units_Z   3
loop_
 _symmetry_equiv_pos_site_id
 _symmetry_equiv_pos_as_xyz
  1  'x, y, z'
loop_
 _atom_site_type_symbol
 _atom_site_label
 _atom_site_symmetry_multiplicity
 _atom_site_fract_x
 _atom_site_fract_y
 _atom_site_fract_z
 _atom_site_occupancy
  Mn  Mn0  1  0.50000000  0.59190912  0.99934777  1
  Mn  Mn1  1  0.50000000  0.09054423  0.50190376  1
  Mn  Mn2  1  0.50000000  0.20305133  0.20508897  1
  Fe  Fe3  1  0.50000000  0.70315694  0.70413058  1
  Fe  Fe4  1  0.50000000  0.70469614  0.29662275  1
  Fe  Fe5  1  0.50000000  0.20433188  0.79497071  1
  Fe  Fe6  1  0.00000000  0.25372450  0.99865020  1
  Fe  Fe7  1  0.00000000  0.75364622  0.50112385  1
  Fe  Fe8  1  -0.00000000  0.37382088  0.37393939  1
  Fe  Fe9  1  -0.00000000  0.87195629  0.87183575  1
  Fe  Fe10  1  -0.00000000  0.87302012  0.12654587  1
  Fe  Fe11  1  -0.00000000  0.37262958  0.62754691  1
  P  P12  1  -0.00000000  0.99786089  0.33570847  1
  P  P13  1  -0.00000000  0.49862407  0.83261501  1
  P  P14  1  0.00000000  0.49805593  0.16728448  1
  P  P15  1  0.00000000  0.99793507  0.66766699  1
  P  P16  1  0.50000000  0.00504282  0.99358174  1
  P  P17  1  0.50000000  0.50579399  0.50143680  1
