# generated using pymatgen
data_Y2Mg3Zn4
_symmetry_space_group_name_H-M   'P 1'
_cell_length_a   9.53350887
_cell_length_b   9.53350887
_cell_length_c   9.44318038
_cell_angle_alpha   90.00000000
_cell_angle_beta   90.00000000
_cell_angle_gamma   120.00000330
_symmetry_Int_Tables_number   1
_chemical_formula_structural   Y2Mg3Zn4
_chemical_formula_sum   'Y8 Mg12 Zn16'
_cell_volume   743.28343336
_cell_formula_units_Z   4
loop_
 _symmetry_equiv_pos_site_id
 _symmetry_equiv_pos_as_xyz
  1  'x, y, z'
loop_
 _atom_site_type_symbol
 _atom_site_label
 _atom_site_symmetry_multiplicity
 _atom_site_fract_x
 _atom_site_fract_y
 _atom_site_fract_z
 _atom_site_occupancy
  Y  Y0  1  0.00000000  -0.00000000  0.75000000  1
  Y  Y1  1  0.00000000  -0.00000000  0.25000000  1
  Y  Y2  1  0.78767495  0.21232505  0.75000000  1
  Y  Y3  1  0.21232505  0.78767495  0.25000000  1
  Y  Y4  1  0.42465011  0.21232505  0.75000000  1
  Y  Y5  1  0.57534989  0.78767495  0.25000000  1
  Y  Y6  1  0.78767495  0.57534989  0.75000000  1
  Y  Y7  1  0.21232505  0.42465011  0.25000000  1
  Mg  Mg8  1  0.83673467  0.16326533  0.41536833  1
  Mg  Mg9  1  0.16326533  0.83673467  0.58463167  1
  Mg  Mg10  1  0.32653066  0.16326533  0.41536833  1
  Mg  Mg11  1  0.16326533  0.83673467  0.91536833  1
  Mg  Mg12  1  0.67346934  0.83673467  0.58463167  1
  Mg  Mg13  1  0.83673467  0.16326533  0.08463167  1
  Mg  Mg14  1  0.83673467  0.67346934  0.41536833  1
  Mg  Mg15  1  0.67346934  0.83673467  0.91536833  1
  Mg  Mg16  1  0.16326533  0.32653066  0.58463167  1
  Mg  Mg17  1  0.32653066  0.16326533  0.08463167  1
  Mg  Mg18  1  0.16326533  0.32653066  0.91536833  1
  Mg  Mg19  1  0.83673467  0.67346934  0.08463167  1
  Zn  Zn20  1  0.43455212  0.56544788  0.75000000  1
  Zn  Zn21  1  0.56544788  0.43455212  0.25000000  1
  Zn  Zn22  1  0.13089576  0.56544788  0.75000000  1
  Zn  Zn23  1  0.86910424  0.43455212  0.25000000  1
  Zn  Zn24  1  0.43455212  0.86910424  0.75000000  1
  Zn  Zn25  1  0.56544788  0.13089576  0.25000000  1
  Zn  Zn26  1  0.66666700  0.33333300  0.99849457  1
  Zn  Zn27  1  0.33333300  0.66666700  0.00150543  1
  Zn  Zn28  1  0.33333300  0.66666700  0.49849457  1
  Zn  Zn29  1  0.66666700  0.33333300  0.50150543  1
  Zn  Zn30  1  0.50000000  0.50000000  -0.00000000  1
  Zn  Zn31  1  0.00000000  0.50000000  -0.00000000  1
  Zn  Zn32  1  0.50000000  0.50000000  0.50000000  1
  Zn  Zn33  1  0.50000000  -0.00000000  -0.00000000  1
  Zn  Zn34  1  0.00000000  0.50000000  0.50000000  1
  Zn  Zn35  1  0.50000000  -0.00000000  0.50000000  1
