# generated using pymatgen
data_MgTi(BiO3)2
_symmetry_space_group_name_H-M   'P 1'
_cell_length_a   5.63040085
_cell_length_b   5.63040124
_cell_length_c   5.72743861
_cell_angle_alpha   60.55889366
_cell_angle_beta   119.44110898
_cell_angle_gamma   119.99999866
_symmetry_Int_Tables_number   1
_chemical_formula_structural   MgTi(BiO3)2
_chemical_formula_sum   'Mg1 Ti1 Bi2 O6'
_cell_volume   129.46181292
_cell_formula_units_Z   1
loop_
 _symmetry_equiv_pos_site_id
 _symmetry_equiv_pos_as_xyz
  1  'x, y, z'
loop_
 _atom_site_type_symbol
 _atom_site_label
 _atom_site_symmetry_multiplicity
 _atom_site_fract_x
 _atom_site_fract_y
 _atom_site_fract_z
 _atom_site_occupancy
  Mg  Mg0  1  0.78619480  0.21380520  0.35858440  1
  Ti  Ti1  1  0.28499409  0.71500591  0.85498227  1
  Bi  Bi2  1  0.50332986  0.49667014  0.50998958  1
  Bi  Bi3  1  0.01050592  0.98949408  0.03151775  1
  O  O4  1  0.55907085  0.87857417  0.66778144  1
  O  O5  1  0.98728476  0.44092915  0.66778144  1
  O  O6  1  0.12142583  0.01271524  0.66778144  1
  O  O7  1  0.62334236  0.91776122  0.16039390  1
  O  O8  1  0.45481275  0.37665764  0.16039390  1
  O  O9  1  0.08223878  0.54518725  0.16039390  1
