# generated using pymatgen
data_MgTi4MnZnNiO12
_symmetry_space_group_name_H-M   'P 1'
_cell_length_a   5.12159283
_cell_length_b   5.55640822
_cell_length_c   8.87963714
_cell_angle_alpha   105.39114899
_cell_angle_beta   89.99077996
_cell_angle_gamma   117.49250510
_symmetry_Int_Tables_number   1
_chemical_formula_structural   MgTi4MnZnNiO12
_chemical_formula_sum   'Mg1 Ti4 Mn1 Zn1 Ni1 O12'
_cell_volume   213.89499875
_cell_formula_units_Z   1
loop_
 _symmetry_equiv_pos_site_id
 _symmetry_equiv_pos_as_xyz
  1  'x, y, z'
loop_
 _atom_site_type_symbol
 _atom_site_label
 _atom_site_symmetry_multiplicity
 _atom_site_fract_x
 _atom_site_fract_y
 _atom_site_fract_z
 _atom_site_occupancy
  Mg  Mg0  1  0.46795500  0.93549204  0.82001137  1
  Ti  Ti1  1  0.27973994  0.56501655  0.42927972  1
  Ti  Ti2  1  0.78564690  0.56596707  0.92603340  1
  Ti  Ti3  1  0.21651157  0.43308513  0.06870149  1
  Ti  Ti4  1  0.71763564  0.43513291  0.57592629  1
  Mn  Mn5  1  0.53683378  0.07438118  0.18042627  1
  Zn  Zn6  1  0.96051963  0.92065306  0.32233537  1
  Ni  Ni7  1  0.02827832  0.05544146  0.67533048  1
  O  O8  1  0.76988738  0.26108615  0.71863529  1
  O  O9  1  0.26116689  0.26694119  0.21913245  1
  O  O10  1  0.30216789  0.26563189  0.52776362  1
  O  O11  1  0.80228147  0.26175317  0.01869889  1
  O  O12  1  0.32486889  0.26018224  0.88588392  1
  O  O13  1  0.83043279  0.26801923  0.39366943  1
  O  O14  1  0.73420990  0.74112005  0.78159721  1
  O  O15  1  0.22821625  0.73567989  0.28222860  1
  O  O16  1  0.20009129  0.73627986  0.97241376  1
  O  O17  1  0.70050406  0.74140278  0.47698449  1
  O  O18  1  0.17704251  0.74335436  0.61336776  1
  O  O19  1  0.67600989  0.73337980  0.11158018  1
