# generated using pymatgen
data_Mn2NiSb2Pt
_symmetry_space_group_name_H-M   'P 1'
_cell_length_a   4.27754643
_cell_length_b   4.27754643
_cell_length_c   7.40693875
_cell_angle_alpha   106.78329392
_cell_angle_beta   73.21670608
_cell_angle_gamma   120.00000000
_symmetry_Int_Tables_number   1
_chemical_formula_structural   Mn2NiSb2Pt
_chemical_formula_sum   'Mn2 Ni1 Sb2 Pt1'
_cell_volume   110.65422709
_cell_formula_units_Z   1
loop_
 _symmetry_equiv_pos_site_id
 _symmetry_equiv_pos_as_xyz
  1  'x, y, z'
loop_
 _atom_site_type_symbol
 _atom_site_label
 _atom_site_symmetry_multiplicity
 _atom_site_fract_x
 _atom_site_fract_y
 _atom_site_fract_z
 _atom_site_occupancy
  Mn  Mn0  1  0.24619590  0.75380410  0.26141231  1
  Mn  Mn1  1  0.75422648  0.24577352  0.73732057  1
  Ni  Ni2  1  0.87411957  0.12588043  0.37764129  1
  Sb  Sb3  1  0.99455243  0.00544757  0.01634270  1
  Sb  Sb4  1  0.50490750  0.49509250  0.48527751  1
  Pt  Pt5  1  0.37599813  0.62400187  0.87200562  1
