# generated using pymatgen
data_Mn2SnSbPd4
_symmetry_space_group_name_H-M   'P 1'
_cell_length_a   4.56475222
_cell_length_b   4.56475222
_cell_length_c   7.88611333
_cell_angle_alpha   73.17694315
_cell_angle_beta   90.00000000
_cell_angle_gamma   120.00000000
_symmetry_Int_Tables_number   1
_chemical_formula_structural   Mn2SnSbPd4
_chemical_formula_sum   'Mn2 Sn1 Sb1 Pd4'
_cell_volume   134.12571897
_cell_formula_units_Z   1
loop_
 _symmetry_equiv_pos_site_id
 _symmetry_equiv_pos_as_xyz
  1  'x, y, z'
loop_
 _atom_site_type_symbol
 _atom_site_label
 _atom_site_symmetry_multiplicity
 _atom_site_fract_x
 _atom_site_fract_y
 _atom_site_fract_z
 _atom_site_occupancy
  Mn  Mn0  1  0.24948418  0.49896837  0.25154745  1
  Mn  Mn1  1  0.75051582  0.50103163  0.74845255  1
  Sn  Sn2  1  0.50000000  -0.00000000  0.50000000  1
  Sb  Sb3  1  -0.00000000  -0.00000000  0.00000000  1
  Pd  Pd4  1  0.62467384  0.24934768  0.12597847  1
  Pd  Pd5  1  0.12504981  0.25009963  0.62485056  1
  Pd  Pd6  1  0.87495019  0.74990037  0.37514944  1
  Pd  Pd7  1  0.37532616  0.75065232  0.87402153  1
