# generated using pymatgen
data_MnInCuTe3
_symmetry_space_group_name_H-M   'P 1'
_cell_length_a   4.47745553
_cell_length_b   6.27181439
_cell_length_c   7.70368056
_cell_angle_alpha   65.97916242
_cell_angle_beta   73.10581810
_cell_angle_gamma   90.00000000
_symmetry_Int_Tables_number   1
_chemical_formula_structural   MnInCuTe3
_chemical_formula_sum   'Mn1 In1 Cu1 Te3'
_cell_volume   187.33033362
_cell_formula_units_Z   1
loop_
 _symmetry_equiv_pos_site_id
 _symmetry_equiv_pos_as_xyz
  1  'x, y, z'
loop_
 _atom_site_type_symbol
 _atom_site_label
 _atom_site_symmetry_multiplicity
 _atom_site_fract_x
 _atom_site_fract_y
 _atom_site_fract_z
 _atom_site_occupancy
  Mn  Mn0  1  0.33686906  0.33640159  0.32626087  1
  In  In1  1  0.66456020  0.67511791  0.67088059  1
  Cu  Cu2  1  0.99878363  0.99078582  0.00243274  1
  Te  Te3  1  0.49316642  0.76782927  0.01366717  1
  Te  Te4  1  0.84542794  0.09650011  0.30914313  1
  Te  Te5  1  0.16119275  0.38336531  0.67761550  1
