# generated using pymatgen
data_LaTaTiO6
_symmetry_space_group_name_H-M   'P 1'
_cell_length_a   5.30810435
_cell_length_b   7.20205653
_cell_length_c   7.20205653
_cell_angle_alpha   76.46908553
_cell_angle_beta   70.68648077
_cell_angle_gamma   70.68648077
_symmetry_Int_Tables_number   1
_chemical_formula_structural   LaTaTiO6
_chemical_formula_sum   'La2 Ta2 Ti2 O12'
_cell_volume   242.80092449
_cell_formula_units_Z   2
loop_
 _symmetry_equiv_pos_site_id
 _symmetry_equiv_pos_as_xyz
  1  'x, y, z'
loop_
 _atom_site_type_symbol
 _atom_site_label
 _atom_site_symmetry_multiplicity
 _atom_site_fract_x
 _atom_site_fract_y
 _atom_site_fract_z
 _atom_site_occupancy
  La  La0  1  0.75000000  0.80537190  0.19462810  1
  La  La1  1  0.25000000  0.19533810  0.80466190  1
  Ta  Ta2  1  0.95048356  0.18394960  0.34682720  1
  Ta  Ta3  1  0.54951644  0.65317280  0.81605040  1
  Ti  Ti4  1  0.04902809  0.81757707  0.65301005  1
  Ti  Ti5  1  0.45097191  0.34698995  0.18242293  1
  O  O6  1  0.53111602  0.59721871  0.11243697  1
  O  O7  1  0.96888398  0.88756303  0.40278129  1
  O  O8  1  0.46938251  0.39718992  0.88926012  1
  O  O9  1  0.03061749  0.11073988  0.60281008  1
  O  O10  1  0.14623625  0.81560319  0.90141912  1
  O  O11  1  0.35376375  0.09858088  0.18439681  1
  O  O12  1  0.85211119  0.18516819  0.09761861  1
  O  O13  1  0.64788881  0.90238139  0.81483181  1
  O  O14  1  0.45587895  0.72296124  0.55993617  1
  O  O15  1  0.04412105  0.44006383  0.27703876  1
  O  O16  1  0.54008172  0.27852945  0.43839914  1
  O  O17  1  0.95991828  0.56160086  0.72147055  1
