# generated using pymatgen
data_LaZnAgP2
_symmetry_space_group_name_H-M   'P 1'
_cell_length_a   4.22925983
_cell_length_b   4.22926000
_cell_length_c   6.86538712
_cell_angle_alpha   90.00158891
_cell_angle_beta   90.00158886
_cell_angle_gamma   59.99927739
_symmetry_Int_Tables_number   1
_chemical_formula_structural   LaZnAgP2
_chemical_formula_sum   'La1 Zn1 Ag1 P2'
_cell_volume   106.34602271
_cell_formula_units_Z   1
loop_
 _symmetry_equiv_pos_site_id
 _symmetry_equiv_pos_as_xyz
  1  'x, y, z'
loop_
 _atom_site_type_symbol
 _atom_site_label
 _atom_site_symmetry_multiplicity
 _atom_site_fract_x
 _atom_site_fract_y
 _atom_site_fract_z
 _atom_site_occupancy
  La  La0  1  0.00002586  0.00002586  0.98749903  1
  Zn  Zn1  1  0.33332051  0.33332051  0.37472714  1
  Ag  Ag2  1  0.66666379  0.66666379  0.63860897  1
  P  P3  1  0.66666103  0.66666103  0.25323649  1
  P  P4  1  0.33332882  0.33332882  0.74592837  1
