# generated using pymatgen
data_Mg(InSe2)2
_symmetry_space_group_name_H-M   'P 1'
_cell_length_a   4.14214952
_cell_length_b   4.14214952
_cell_length_c   13.51412913
_cell_angle_alpha   89.99999810
_cell_angle_beta   98.81546496
_cell_angle_gamma   60.00001078
_symmetry_Int_Tables_number   1
_chemical_formula_structural   Mg(InSe2)2
_chemical_formula_sum   'Mg1 In2 Se4'
_cell_volume   197.63394747
_cell_formula_units_Z   1
loop_
 _symmetry_equiv_pos_site_id
 _symmetry_equiv_pos_as_xyz
  1  'x, y, z'
loop_
 _atom_site_type_symbol
 _atom_site_label
 _atom_site_symmetry_multiplicity
 _atom_site_fract_x
 _atom_site_fract_y
 _atom_site_fract_z
 _atom_site_occupancy
  Mg  Mg0  1  0.99901034  0.00049483  0.99851552  1
  In  In1  1  0.52671990  0.23664005  0.29007985  1
  In  In2  1  0.47033603  0.76483198  0.70550405  1
  Se  Se3  1  0.74190785  0.12904608  0.61286177  1
  Se  Se4  1  0.39965348  0.30017326  0.09948022  1
  Se  Se5  1  0.25468863  0.87265569  0.38203294  1
  Se  Se6  1  0.59768377  0.70115812  0.89652565  1
