# generated using pymatgen
data_Li9Ag4
_symmetry_space_group_name_H-M   'P 1'
_cell_length_a   8.39252251
_cell_length_b   8.33454746
_cell_length_c   8.33454746
_cell_angle_alpha   70.76790015
_cell_angle_beta   70.54989122
_cell_angle_gamma   109.45010878
_symmetry_Int_Tables_number   1
_chemical_formula_structural   Li9Ag4
_chemical_formula_sum   'Li18 Ag8'
_cell_volume   450.33108969
_cell_formula_units_Z   2
loop_
 _symmetry_equiv_pos_site_id
 _symmetry_equiv_pos_as_xyz
  1  'x, y, z'
loop_
 _atom_site_type_symbol
 _atom_site_label
 _atom_site_symmetry_multiplicity
 _atom_site_fract_x
 _atom_site_fract_y
 _atom_site_fract_z
 _atom_site_occupancy
  Li  Li0  1  0.78005443  0.77110176  0.22889824  1
  Li  Li1  1  0.21994557  0.99104732  0.00895268  1
  Li  Li2  1  -0.00000000  0.22999554  0.00852086  1
  Li  Li3  1  0.00000000  0.99147914  0.77000446  1
  Li  Li4  1  0.36569462  0.65331746  0.34668254  1
  Li  Li5  1  0.65771265  0.66064448  0.63120130  1
  Li  Li6  1  0.65771265  0.36879870  0.33935552  1
  Li  Li7  1  0.63430538  0.28762283  0.71237717  1
  Li  Li8  1  0.34228735  0.71108606  0.99706817  1
  Li  Li9  1  0.34228735  0.00293183  0.28891394  1
  Li  Li10  1  -0.00000000  0.34899890  0.28113907  1
  Li  Li11  1  0.72271584  0.35641434  0.99594220  1
  Li  Li12  1  0.27728416  0.63369851  0.71865803  1
  Li  Li13  1  0.00000000  0.71886093  0.65100110  1
  Li  Li14  1  0.27728416  0.28134197  0.36630149  1
  Li  Li15  1  0.72271584  0.00405780  0.64358566  1
  Li  Li16  1  0.33094786  0.33162961  0.66837039  1
  Li  Li17  1  0.66905214  0.00068175  0.99931825  1
  Ag  Ag18  1  0.00000000  0.65804909  0.99871516  1
  Ag  Ag19  1  0.00000000  0.00128484  0.34195091  1
  Ag  Ag20  1  0.64157835  0.65122549  0.00395120  1
  Ag  Ag21  1  0.64157835  0.99604880  0.34877451  1
  Ag  Ag22  1  0.00000000  0.64061053  0.35938947  1
  Ag  Ag23  1  0.35842165  0.35447045  0.99035286  1
  Ag  Ag24  1  0.35842165  0.00964714  0.64552955  1
  Ag  Ag25  1  -0.00000000  0.34495475  0.65504525  1
