# generated using pymatgen
data_Li2Ti4Ni(PO5)4
_symmetry_space_group_name_H-M   'P 1'
_cell_length_a   6.45344938
_cell_length_b   7.33410005
_cell_length_c   7.47851618
_cell_angle_alpha   89.82793998
_cell_angle_beta   89.87850391
_cell_angle_gamma   90.70228658
_symmetry_Int_Tables_number   1
_chemical_formula_structural   Li2Ti4Ni(PO5)4
_chemical_formula_sum   'Li2 Ti4 Ni1 P4 O20'
_cell_volume   353.93098243
_cell_formula_units_Z   1
loop_
 _symmetry_equiv_pos_site_id
 _symmetry_equiv_pos_as_xyz
  1  'x, y, z'
loop_
 _atom_site_type_symbol
 _atom_site_label
 _atom_site_symmetry_multiplicity
 _atom_site_fract_x
 _atom_site_fract_y
 _atom_site_fract_z
 _atom_site_occupancy
  Li  Li0  1  -0.00000000  0.50000000  0.50000000  1
  Li  Li1  1  -0.00000000  -0.00000000  -0.00000000  1
  Ti  Ti2  1  0.73877942  0.27162150  0.84003414  1
  Ti  Ti3  1  0.24466691  0.78540504  0.66962508  1
  Ti  Ti4  1  0.26122058  0.72837850  0.15996586  1
  Ti  Ti5  1  0.75533309  0.21459496  0.33037492  1
  Ni  Ni6  1  0.50000000  0.50000000  0.50000000  1
  P  P7  1  0.24860669  0.37545023  0.87308279  1
  P  P8  1  0.75386760  0.87351443  0.62425404  1
  P  P9  1  0.75139331  0.62454977  0.12691721  1
  P  P10  1  0.24613240  0.12648557  0.37574596  1
  O  O11  1  0.44292786  0.25221567  0.36951378  1
  O  O12  1  0.55809025  0.74411555  0.12919788  1
  O  O13  1  0.55707214  0.74778433  0.63048622  1
  O  O14  1  0.44190975  0.25588445  0.87080212  1
  O  O15  1  0.24612770  0.49315560  0.04272946  1
  O  O16  1  0.75042241  0.98284172  0.44714231  1
  O  O17  1  0.75387230  0.50684440  0.95727054  1
  O  O18  1  0.24957759  0.01715828  0.55285769  1
  O  O19  1  0.73557474  0.35331124  0.61536871  1
  O  O20  1  0.23196809  0.84015860  0.89054459  1
  O  O21  1  0.26442526  0.64668876  0.38463129  1
  O  O22  1  0.76803191  0.15984140  0.10945541  1
  O  O23  1  0.05445375  0.25256847  0.86353370  1
  O  O24  1  0.94292038  0.74554487  0.62237354  1
  O  O25  1  0.94554625  0.74743153  0.13646630  1
  O  O26  1  0.05707962  0.25445513  0.37762646  1
  O  O27  1  0.25654320  0.50234545  0.70089140  1
  O  O28  1  0.76132018  0.00097912  0.78669103  1
  O  O29  1  0.74345680  0.49765455  0.29910860  1
  O  O30  1  0.23867982  0.99902088  0.21330897  1
