# generated using pymatgen
data_Li4ScIn3(SiO3)8
_symmetry_space_group_name_H-M   'P 1'
_cell_length_a   5.43903807
_cell_length_b   9.51870816
_cell_length_c   9.18722993
_cell_angle_alpha   90.00000000
_cell_angle_beta   90.00000000
_cell_angle_gamma   101.74399501
_symmetry_Int_Tables_number   1
_chemical_formula_structural   Li4ScIn3(SiO3)8
_chemical_formula_sum   'Li4 Sc1 In3 Si8 O24'
_cell_volume   465.69011996
_cell_formula_units_Z   1
loop_
 _symmetry_equiv_pos_site_id
 _symmetry_equiv_pos_as_xyz
  1  'x, y, z'
loop_
 _atom_site_type_symbol
 _atom_site_label
 _atom_site_symmetry_multiplicity
 _atom_site_fract_x
 _atom_site_fract_y
 _atom_site_fract_z
 _atom_site_occupancy
  Li  Li0  1  0.25000000  0.50000000  0.74672081  1
  Li  Li1  1  0.75000000  -0.00000000  0.24857229  1
  Li  Li2  1  0.75000000  0.50000000  0.25329357  1
  Li  Li3  1  0.25000000  -0.00000000  0.75141146  1
  Sc  Sc4  1  0.25000000  0.50000000  0.38927007  1
  In  In5  1  0.75000000  -0.00000000  0.89122691  1
  In  In6  1  0.75000000  0.50000000  0.60681591  1
  In  In7  1  0.25000000  -0.00000000  0.10880121  1
  Si  Si8  1  0.47744603  0.69842040  0.08606754  1
  Si  Si9  1  0.97865877  0.20000339  0.58500087  1
  Si  Si10  1  0.02255397  0.30157960  0.08606754  1
  Si  Si11  1  0.52134123  0.79999661  0.58500087  1
  Si  Si12  1  0.52190192  0.30117215  0.91532627  1
  Si  Si13  1  0.02256630  0.80028135  0.41508160  1
  Si  Si14  1  0.97809808  0.69882785  0.91532627  1
  Si  Si15  1  0.47743370  0.19971865  0.41508160  1
  O  O16  1  0.54163792  0.87668343  0.08481597  1
  O  O17  1  0.04283195  0.37823125  0.58015618  1
  O  O18  1  0.95836208  0.12331657  0.08481597  1
  O  O19  1  0.45716805  0.62176875  0.58015618  1
  O  O20  1  0.45873406  0.12261468  0.91674432  1
  O  O21  1  0.96772824  0.62183944  0.41522851  1
  O  O22  1  0.04126594  0.87738532  0.91674432  1
  O  O23  1  0.53227176  0.37816056  0.41522851  1
  O  O24  1  0.47826833  0.62412849  0.24499114  1
  O  O25  1  0.99364112  0.12872967  0.74338090  1
  O  O26  1  0.02173167  0.37587151  0.24499114  1
  O  O27  1  0.50635888  0.87127033  0.74338090  1
  O  O28  1  0.50725983  0.37194683  0.75650358  1
  O  O29  1  0.00578456  0.87103208  0.25662369  1
  O  O30  1  0.99274017  0.62805317  0.75650358  1
  O  O31  1  0.49421544  0.12896792  0.25662369  1
  O  O32  1  0.19479717  0.64680906  0.01559494  1
  O  O33  1  0.69477877  0.14772597  0.51553787  1
  O  O34  1  0.30520283  0.35319094  0.01559494  1
  O  O35  1  0.80522123  0.85227403  0.51553787  1
  O  O36  1  0.80490319  0.35366600  0.98622097  1
  O  O37  1  0.30562084  0.85385503  0.48466952  1
  O  O38  1  0.69509681  0.64633400  0.98622097  1
  O  O39  1  0.19437916  0.14614497  0.48466952  1
