# generated using pymatgen
data_Li3(CuO2)2
_symmetry_space_group_name_H-M   'P 1'
_cell_length_a   2.79708541
_cell_length_b   5.24646430
_cell_length_c   6.98636887
_cell_angle_alpha   78.35247169
_cell_angle_beta   78.45241493
_cell_angle_gamma   105.46018675
_symmetry_Int_Tables_number   1
_chemical_formula_structural   Li3(CuO2)2
_chemical_formula_sum   'Li3 Cu2 O4'
_cell_volume   93.20982389
_cell_formula_units_Z   1
loop_
 _symmetry_equiv_pos_site_id
 _symmetry_equiv_pos_as_xyz
  1  'x, y, z'
loop_
 _atom_site_type_symbol
 _atom_site_label
 _atom_site_symmetry_multiplicity
 _atom_site_fract_x
 _atom_site_fract_y
 _atom_site_fract_z
 _atom_site_occupancy
  Li  Li0  1  0.23163659  0.58403432  0.12076113  1
  Li  Li1  1  0.77277430  0.40644271  0.86089411  1
  Li  Li2  1  0.49796347  0.46201177  0.46608484  1
  Cu  Cu3  1  0.10784484  0.95076688  0.73507720  1
  Cu  Cu4  1  0.88422221  0.03049267  0.26204825  1
  O  O5  1  0.78039792  0.21331936  0.65252353  1
  O  O6  1  0.21774626  0.76696575  0.33147323  1
  O  O7  1  0.43174763  0.69280239  0.82930713  1
  O  O8  1  0.55766678  0.29616414  0.18083058  1
