# generated using pymatgen
data_VPbO4
_symmetry_space_group_name_H-M   'P 1'
_cell_length_a   6.92691397
_cell_length_b   6.99411653
_cell_length_c   7.30367254
_cell_angle_alpha   90.00000000
_cell_angle_beta   90.00000000
_cell_angle_gamma   105.06343724
_symmetry_Int_Tables_number   1
_chemical_formula_structural   VPbO4
_chemical_formula_sum   'V4 Pb4 O16'
_cell_volume   341.68711500
_cell_formula_units_Z   4
loop_
 _symmetry_equiv_pos_site_id
 _symmetry_equiv_pos_as_xyz
  1  'x, y, z'
loop_
 _atom_site_type_symbol
 _atom_site_label
 _atom_site_symmetry_multiplicity
 _atom_site_fract_x
 _atom_site_fract_y
 _atom_site_fract_z
 _atom_site_occupancy
  V  V0  1  0.11273343  0.79702634  0.16194517  1
  V  V1  1  0.88726657  0.20297366  0.83805483  1
  V  V2  1  0.38726657  0.70297366  0.66194517  1
  V  V3  1  0.61273343  0.29702634  0.33805483  1
  Pb  Pb4  1  0.90807638  0.72210288  0.63678366  1
  Pb  Pb5  1  0.09192362  0.27789712  0.36321634  1
  Pb  Pb6  1  0.59192362  0.77789712  0.13678366  1
  Pb  Pb7  1  0.40807638  0.22210288  0.86321634  1
  O  O8  1  0.32706270  0.97468238  0.09779720  1
  O  O9  1  0.67293730  0.02531762  0.90220280  1
  O  O10  1  0.17293730  0.52531762  0.59779720  1
  O  O11  1  0.82706270  0.47468238  0.40220280  1
  O  O12  1  0.21016035  0.59666278  0.20923970  1
  O  O13  1  0.78983965  0.40333722  0.79076030  1
  O  O14  1  0.28983965  0.90333722  0.70923970  1
  O  O15  1  0.71016035  0.09666278  0.29076030  1
  O  O16  1  0.02499239  0.89191856  0.35875983  1
  O  O17  1  0.97500761  0.10808144  0.64124017  1
  O  O18  1  0.47500761  0.60808144  0.85875983  1
  O  O19  1  0.52499239  0.39191856  0.14124017  1
  O  O20  1  0.91850918  0.75854631  0.99938796  1
  O  O21  1  0.08149082  0.24145369  0.00061204  1
  O  O22  1  0.58149082  0.74145369  0.49938796  1
  O  O23  1  0.41850918  0.25854631  0.50061204  1
