# generated using pymatgen
data_La9Ga5Se21
_symmetry_space_group_name_H-M   'P 1'
_cell_length_a   12.44279748
_cell_length_b   12.44282301
_cell_length_c   12.44364511
_cell_angle_alpha   96.43839377
_cell_angle_beta   83.55869177
_cell_angle_gamma   83.55629119
_symmetry_Int_Tables_number   1
_chemical_formula_structural   La9Ga5Se21
_chemical_formula_sum   'La18 Ga10 Se42'
_cell_volume   1887.07579716
_cell_formula_units_Z   2
loop_
 _symmetry_equiv_pos_site_id
 _symmetry_equiv_pos_as_xyz
  1  'x, y, z'
loop_
 _atom_site_type_symbol
 _atom_site_label
 _atom_site_symmetry_multiplicity
 _atom_site_fract_x
 _atom_site_fract_y
 _atom_site_fract_z
 _atom_site_occupancy
  La  La0  1  0.25186952  0.11640704  0.88300167  1
  La  La1  1  0.91827564  0.45425106  0.22014587  1
  La  La2  1  0.58757323  0.78277809  0.55167175  1
  La  La3  1  0.44833421  0.41245961  0.78279235  1
  La  La4  1  0.11700894  0.74818641  0.11640162  1
  La  La5  1  0.77984517  0.08175372  0.45421979  1
  La  La6  1  0.54574583  0.22016026  0.08172677  1
  La  La7  1  0.21721148  0.55162898  0.41241344  1
  La  La8  1  0.88355052  0.88301333  0.74817597  1
  La  La9  1  0.41643979  0.21415198  0.44745293  1
  La  La10  1  0.07786666  0.54877002  0.78327396  1
  La  La11  1  0.74902088  0.88034687  0.11353427  1
  La  La12  1  0.21671240  0.92210782  0.54878326  1
  La  La13  1  0.88647054  0.25101787  0.88039830  1
  La  La14  1  0.55255452  0.58352250  0.21414461  1
  La  La15  1  0.11963796  0.11351373  0.25099016  1
  La  La16  1  0.78585066  0.44744806  0.58357867  1
  La  La17  1  0.45124708  0.78327018  0.92215067  1
  Ga  Ga18  1  0.94461248  0.72201495  0.38926406  1
  Ga  Ga19  1  0.61072859  0.05541307  0.72199325  1
  Ga  Ga20  1  0.27803393  0.38924610  0.05534846  1
  Ga  Ga21  1  0.44445353  0.88853701  0.22233824  1
  Ga  Ga22  1  0.11146026  0.22229076  0.55556944  1
  Ga  Ga23  1  0.77769454  0.55555637  0.88854509  1
  Ga  Ga24  1  0.14823684  0.85178075  0.85173000  1
  Ga  Ga25  1  0.84498276  0.15501581  0.15501802  1
  Ga  Ga26  1  0.34554681  0.65443846  0.65446204  1
  Ga  Ga27  1  0.64869439  0.35131504  0.35134092  1
  Se  Se28  1  0.69503160  0.54921443  0.39276408  1
  Se  Se29  1  0.34803536  0.88385938  0.73847028  1
  Se  Se30  1  0.01486094  0.22785277  0.07772670  1
  Se  Se31  1  0.92227230  0.98514415  0.22785615  1
  Se  Se32  1  0.60722748  0.30495896  0.54921678  1
  Se  Se33  1  0.26154697  0.65195750  0.88384849  1
  Se  Se34  1  0.11612277  0.73846955  0.65196212  1
  Se  Se35  1  0.77212636  0.07770523  0.98514102  1
  Se  Se36  1  0.45078096  0.39276449  0.30496894  1
  Se  Se37  1  0.63643710  0.13317250  0.27799708  1
  Se  Se38  1  0.29179256  0.46626951  0.61524518  1
  Se  Se39  1  0.97401927  0.78121484  0.93735520  1
  Se  Se40  1  0.38473100  0.70819452  0.46627569  1
  Se  Se41  1  0.06261653  0.02598892  0.78119662  1
  Se  Se42  1  0.72200964  0.36356727  0.13316310  1
  Se  Se43  1  0.21879546  0.93736585  0.02596608  1
  Se  Se44  1  0.86682993  0.27798547  0.36356855  1
  Se  Se45  1  0.53371922  0.61526811  0.70820158  1
  Se  Se46  1  0.97779032  0.54177178  0.44858335  1
  Se  Se47  1  0.64177891  0.87558665  0.78083419  1
  Se  Se48  1  0.30416382  0.20720194  0.11173006  1
  Se  Se49  1  0.88827155  0.69584230  0.20719653  1
  Se  Se50  1  0.55140641  0.02220460  0.54173964  1
  Se  Se51  1  0.21916927  0.35819675  0.87555303  1
  Se  Se52  1  0.12443257  0.78083018  0.35821350  1
  Se  Se53  1  0.79279870  0.11173332  0.69583315  1
  Se  Se54  1  0.45827014  0.44860092  0.02219236  1
  Se  Se55  1  0.51927808  0.96829527  0.06493920  1
  Se  Se56  1  0.18370692  0.30175955  0.39617850  1
  Se  Se57  1  0.84578303  0.63507152  0.72772510  1
  Se  Se58  1  0.60384414  0.81626501  0.30176771  1
  Se  Se59  1  0.27229513  0.15419640  0.63505979  1
  Se  Se60  1  0.93507340  0.48072480  0.96830268  1
  Se  Se61  1  0.36493842  0.72771309  0.15421409  1
  Se  Se62  1  0.03170656  0.06491299  0.48072217  1
  Se  Se63  1  0.69823479  0.39617579  0.81628349  1
  Se  Se64  1  0.81847668  0.84678387  0.51640680  1
  Se  Se65  1  0.48359530  0.18153369  0.84674555  1
  Se  Se66  1  0.15326349  0.51640315  0.18147650  1
  Se  Se67  1  0.65302911  0.68121800  0.01669770  1
  Se  Se68  1  0.31876411  0.01667667  0.34698272  1
  Se  Se69  1  0.98331458  0.34695247  0.68123297  1
