# generated using pymatgen
data_Li2Zr4As3(PO8)3
_symmetry_space_group_name_H-M   'P 1'
_cell_length_a   9.11712384
_cell_length_b   9.17632375
_cell_length_c   12.88263591
_cell_angle_alpha   90.00000000
_cell_angle_beta   91.20815429
_cell_angle_gamma   90.00000000
_symmetry_Int_Tables_number   1
_chemical_formula_structural   Li2Zr4As3(PO8)3
_chemical_formula_sum   'Li4 Zr8 As6 P6 O48'
_cell_volume   1077.54336397
_cell_formula_units_Z   2
loop_
 _symmetry_equiv_pos_site_id
 _symmetry_equiv_pos_as_xyz
  1  'x, y, z'
loop_
 _atom_site_type_symbol
 _atom_site_label
 _atom_site_symmetry_multiplicity
 _atom_site_fract_x
 _atom_site_fract_y
 _atom_site_fract_z
 _atom_site_occupancy
  Li  Li0  1  0.18376067  0.72014799  0.16628345  1
  Li  Li1  1  0.68376067  0.77985201  0.66628345  1
  Li  Li2  1  0.79805955  0.28933760  0.84179913  1
  Li  Li3  1  0.29805955  0.21066240  0.34179913  1
  Zr  Zr4  1  0.75861436  0.51760029  0.11510802  1
  Zr  Zr5  1  0.25861436  0.98239971  0.61510802  1
  Zr  Zr6  1  0.24493907  0.47462192  0.88308530  1
  Zr  Zr7  1  0.74493907  0.02537808  0.38308530  1
  Zr  Zr8  1  0.74142255  0.95769533  0.88354268  1
  Zr  Zr9  1  0.24142255  0.54230467  0.38354268  1
  Zr  Zr10  1  0.26195275  0.04966793  0.11618248  1
  Zr  Zr11  1  0.76195275  0.45033207  0.61618248  1
  As  As12  1  0.89806189  0.88342298  0.14615811  1
  As  As13  1  0.39806189  0.61657702  0.64615811  1
  As  As14  1  0.10143118  0.11604074  0.85296439  1
  As  As15  1  0.60143118  0.38395926  0.35296439  1
  As  As16  1  0.46715213  0.75459870  0.01109090  1
  As  As17  1  0.96715213  0.74540130  0.51109090  1
  P  P18  1  0.53358243  0.24818500  0.98952054  1
  P  P19  1  0.03358243  0.25181500  0.48952054  1
  P  P20  1  0.88515003  0.59898257  0.85684379  1
  P  P21  1  0.38515003  0.90101743  0.35684379  1
  P  P22  1  0.11810738  0.40043590  0.14349107  1
  P  P23  1  0.61810738  0.09956410  0.64349107  1
  O  O24  1  0.82213741  0.54261970  0.95934335  1
  O  O25  1  0.32213741  0.95738030  0.45934335  1
  O  O26  1  0.17828454  0.44920963  0.03856237  1
  O  O27  1  0.67828454  0.05079037  0.53856237  1
  O  O28  1  0.84579609  0.92884809  0.02213553  1
  O  O29  1  0.34579609  0.57115191  0.52213553  1
  O  O30  1  0.15401304  0.07243448  0.97696317  1
  O  O31  1  0.65401304  0.42756552  0.47696317  1
  O  O32  1  0.81732903  0.75038800  0.82839724  1
  O  O33  1  0.31732903  0.74961200  0.32839724  1
  O  O34  1  0.18510002  0.25071886  0.17649961  1
  O  O35  1  0.68510002  0.24928114  0.67649961  1
  O  O36  1  0.66648926  0.98172499  0.72491120  1
  O  O37  1  0.16648926  0.51827501  0.22491120  1
  O  O38  1  0.33786927  0.01671248  0.27300536  1
  O  O39  1  0.83786927  0.48328752  0.77300536  1
  O  O40  1  0.54666331  0.88119626  0.93412465  1
  O  O41  1  0.04666331  0.61880374  0.43412465  1
  O  O42  1  0.45152920  0.13721420  0.05823992  1
  O  O43  1  0.95152920  0.36278580  0.55823992  1
  O  O44  1  0.64855600  0.16963240  0.92061951  1
  O  O45  1  0.14855600  0.33036760  0.42061951  1
  O  O46  1  0.33558634  0.83249097  0.08670290  1
  O  O47  1  0.83558634  0.66750903  0.58670290  1
  O  O48  1  0.88984156  0.69885840  0.16075608  1
  O  O49  1  0.38984156  0.80114160  0.66075608  1
  O  O50  1  0.12333677  0.29715895  0.83186471  1
  O  O51  1  0.62333677  0.20284105  0.33186471  1
  O  O52  1  0.61996021  0.35241862  0.06238660  1
  O  O53  1  0.11996021  0.14758138  0.56238660  1
  O  O54  1  0.38038664  0.64129043  0.92652218  1
  O  O55  1  0.88038664  0.85870957  0.42652218  1
  O  O56  1  0.69328978  0.48945924  0.26848766  1
  O  O57  1  0.19328978  0.01054076  0.76848766  1
  O  O58  1  0.29859235  0.51438784  0.72865545  1
  O  O59  1  0.79859235  0.98561216  0.22865545  1
  O  O60  1  0.91475109  0.09666413  0.83855841  1
  O  O61  1  0.41475109  0.40333587  0.33855841  1
  O  O62  1  0.08170323  0.91793740  0.16489667  1
  O  O63  1  0.58170323  0.58206260  0.66489667  1
  O  O64  1  0.59073684  0.67109179  0.09083524  1
  O  O65  1  0.09073684  0.82890821  0.59083524  1
  O  O66  1  0.42278386  0.32986004  0.91927455  1
  O  O67  1  0.92278386  0.17013996  0.41927455  1
  O  O68  1  0.94968415  0.39028122  0.13885149  1
  O  O69  1  0.44968415  0.10971878  0.63885149  1
  O  O70  1  0.05334604  0.60713886  0.86333629  1
  O  O71  1  0.55334604  0.89286114  0.36333629  1
