# generated using pymatgen
data_La4Ni3Sn8
_symmetry_space_group_name_H-M   'P 1'
_cell_length_a   4.56865565
_cell_length_b   4.55329032
_cell_length_c   18.19253457
_cell_angle_alpha   90.00115612
_cell_angle_beta   89.99990038
_cell_angle_gamma   90.00111150
_symmetry_Int_Tables_number   1
_chemical_formula_structural   La4Ni3Sn8
_chemical_formula_sum   'La4 Ni3 Sn8'
_cell_volume   378.44866390
_cell_formula_units_Z   1
loop_
 _symmetry_equiv_pos_site_id
 _symmetry_equiv_pos_as_xyz
  1  'x, y, z'
loop_
 _atom_site_type_symbol
 _atom_site_label
 _atom_site_symmetry_multiplicity
 _atom_site_fract_x
 _atom_site_fract_y
 _atom_site_fract_z
 _atom_site_occupancy
  La  La0  1  0.25000350  -0.00000046  0.39509573  1
  La  La1  1  0.24999807  0.50000161  0.89101759  1
  La  La2  1  0.75000073  0.49999953  0.10868776  1
  La  La3  1  0.74999974  0.99999858  0.60891541  1
  Ni  Ni4  1  0.25000353  0.49999865  0.68366102  1
  Ni  Ni5  1  0.74999822  0.49999930  0.31438976  1
  Ni  Ni6  1  0.75000147  0.00000162  0.81571992  1
  Sn  Sn7  1  0.24999792  0.00000030  0.05244836  1
  Sn  Sn8  1  0.25000105  0.49999969  0.54741369  1
  Sn  Sn9  1  0.74999981  0.49999885  0.45206230  1
  Sn  Sn10  1  0.74999868  0.00000147  0.95266557  1
  Sn  Sn11  1  0.25000083  0.50000098  0.24627877  1
  Sn  Sn12  1  0.24999669  0.00000178  0.75117005  1
  Sn  Sn13  1  0.74999928  0.99999861  0.24596231  1
  Sn  Sn14  1  0.75000048  0.49999950  0.74921175  1
