# generated using pymatgen
data_La4ZnCu(RhO6)2
_symmetry_space_group_name_H-M   'P 1'
_cell_length_a   5.59626871
_cell_length_b   5.68506724
_cell_length_c   7.94369471
_cell_angle_alpha   90.25163248
_cell_angle_beta   90.03850493
_cell_angle_gamma   90.05157029
_symmetry_Int_Tables_number   1
_chemical_formula_structural   La4ZnCu(RhO6)2
_chemical_formula_sum   'La4 Zn1 Cu1 Rh2 O12'
_cell_volume   252.72735218
_cell_formula_units_Z   1
loop_
 _symmetry_equiv_pos_site_id
 _symmetry_equiv_pos_as_xyz
  1  'x, y, z'
loop_
 _atom_site_type_symbol
 _atom_site_label
 _atom_site_symmetry_multiplicity
 _atom_site_fract_x
 _atom_site_fract_y
 _atom_site_fract_z
 _atom_site_occupancy
  La  La0  1  0.00965096  0.44933837  0.24915717  1
  La  La1  1  0.49098502  0.95005351  0.24828551  1
  La  La2  1  0.99034904  0.55066163  0.75084283  1
  La  La3  1  0.50901498  0.04994649  0.75171449  1
  Zn  Zn4  1  0.00000000  -0.00000000  0.50000000  1
  Cu  Cu5  1  0.50000000  0.50000000  -0.00000000  1
  Rh  Rh6  1  0.50000000  0.50000000  0.50000000  1
  Rh  Rh7  1  0.00000000  -0.00000000  -0.00000000  1
  O  O8  1  0.91126499  0.02319110  0.24771208  1
  O  O9  1  0.58887068  0.52331159  0.25113433  1
  O  O10  1  0.08873501  0.97680890  0.75228792  1
  O  O11  1  0.41112932  0.47668841  0.74886567  1
  O  O12  1  0.19909556  0.70681222  0.04673790  1
  O  O13  1  0.30396130  0.20833592  0.45355256  1
  O  O14  1  0.79318577  0.30105950  0.54636625  1
  O  O15  1  0.70402859  0.79874162  0.95331323  1
  O  O16  1  0.80090444  0.29318778  0.95326210  1
  O  O17  1  0.69603870  0.79166408  0.54644744  1
  O  O18  1  0.20681423  0.69894050  0.45363375  1
  O  O19  1  0.29597141  0.20125838  0.04668677  1
