# generated using pymatgen
data_La5Cu6S7O4
_symmetry_space_group_name_H-M   'P 1'
_cell_length_a   5.59459008
_cell_length_b   12.11412273
_cell_length_c   12.11412273
_cell_angle_alpha   86.89465776
_cell_angle_beta   103.35076477
_cell_angle_gamma   76.64923523
_symmetry_Int_Tables_number   1
_chemical_formula_structural   La5Cu6S7O4
_chemical_formula_sum   'La10 Cu12 S14 O8'
_cell_volume   772.21356713
_cell_formula_units_Z   2
loop_
 _symmetry_equiv_pos_site_id
 _symmetry_equiv_pos_as_xyz
  1  'x, y, z'
loop_
 _atom_site_type_symbol
 _atom_site_label
 _atom_site_symmetry_multiplicity
 _atom_site_fract_x
 _atom_site_fract_y
 _atom_site_fract_z
 _atom_site_occupancy
  La  La0  1  0.60259642  0.72597940  0.93914316  1
  La  La1  1  0.38943266  0.27402060  0.06085684  1
  La  La2  1  0.10259642  0.56085684  0.77402060  1
  La  La3  1  0.88943266  0.43914316  0.22597940  1
  La  La4  1  0.74993207  0.92855970  0.42855970  1
  La  La5  1  0.24993207  0.07144030  0.57144030  1
  La  La6  1  0.56775619  0.25351444  0.38976318  1
  La  La7  1  0.43150744  0.74648556  0.61023682  1
  La  La8  1  0.06775619  0.11023682  0.24648556  1
  La  La9  1  0.93150744  0.88976318  0.75351444  1
  Cu  Cu10  1  0.90229726  0.32361597  0.65362195  1
  Cu  Cu11  1  0.57229128  0.67638403  0.34637805  1
  Cu  Cu12  1  0.40229726  0.84637805  0.17638403  1
  Cu  Cu13  1  0.07229128  0.15362195  0.82361597  1
  Cu  Cu14  1  0.09764508  0.67635254  0.34636275  1
  Cu  Cu15  1  0.42763487  0.32364746  0.65363725  1
  Cu  Cu16  1  0.59764508  0.15363725  0.82364746  1
  Cu  Cu17  1  0.92763487  0.84636275  0.17635254  1
  Cu  Cu18  1  0.74402246  0.50000000  0.50000000  1
  Cu  Cu19  1  0.24402246  0.00000000  0.00000000  1
  Cu  Cu20  1  0.25583288  0.50000000  0.50000000  1
  Cu  Cu21  1  0.75583288  0.00000000  0.00000000  1
  S  S22  1  0.74991009  0.15533349  0.65533349  1
  S  S23  1  0.24991009  0.84466651  0.34466651  1
  S  S24  1  0.74981809  0.69262956  0.19262956  1
  S  S25  1  0.24981809  0.30737044  0.80737044  1
  S  S26  1  0.57330377  0.01434864  0.16136679  1
  S  S27  1  0.42628563  0.98565136  0.83863321  1
  S  S28  1  0.07330377  0.33863321  0.48565136  1
  S  S29  1  0.92628563  0.66136679  0.51434864  1
  S  S30  1  0.08961124  0.83247720  0.01252254  1
  S  S31  1  0.90956590  0.16752280  0.98747746  1
  S  S32  1  0.58961124  0.48747746  0.66752280  1
  S  S33  1  0.40956590  0.51252254  0.33247720  1
  S  S34  1  0.96507599  0.49544334  0.99544334  1
  S  S35  1  0.46507599  0.50455666  0.00455666  1
  O  O36  1  0.90720415  0.09274086  0.40725959  1
  O  O37  1  0.59268542  0.90725914  0.59274041  1
  O  O38  1  0.40720415  0.09274041  0.40725914  1
  O  O39  1  0.09268542  0.90725959  0.59274086  1
  O  O40  1  0.27971435  0.71952332  0.78006089  1
  O  O41  1  0.21917678  0.28047668  0.21993911  1
  O  O42  1  0.77971435  0.71993911  0.78047668  1
  O  O43  1  0.71917678  0.28006089  0.21952332  1
