# generated using pymatgen
data_La2Te6WO18
_symmetry_space_group_name_H-M   'P 1'
_cell_length_a   6.92132358
_cell_length_b   6.92130339
_cell_length_c   20.55502334
_cell_angle_alpha   89.99934600
_cell_angle_beta   89.99949636
_cell_angle_gamma   60.00036994
_symmetry_Int_Tables_number   1
_chemical_formula_structural   La2Te6WO18
_chemical_formula_sum   'La4 Te12 W2 O36'
_cell_volume   852.76087232
_cell_formula_units_Z   2
loop_
 _symmetry_equiv_pos_site_id
 _symmetry_equiv_pos_as_xyz
  1  'x, y, z'
loop_
 _atom_site_type_symbol
 _atom_site_label
 _atom_site_symmetry_multiplicity
 _atom_site_fract_x
 _atom_site_fract_y
 _atom_site_fract_z
 _atom_site_occupancy
  La  La0  1  0.66666601  0.66665937  0.74493365  1
  La  La1  1  0.66667513  0.66667243  0.24493298  1
  La  La2  1  0.33332998  0.33333926  0.25570351  1
  La  La3  1  0.33333066  0.33332697  0.75570856  1
  Te  Te4  1  0.37002257  0.00003948  0.91404922  1
  Te  Te5  1  0.62994647  0.37002141  0.91404741  1
  Te  Te6  1  0.00003843  0.62993555  0.91404867  1
  Te  Te7  1  0.00004538  0.37002187  0.41404857  1
  Te  Te8  1  0.62992731  0.00004360  0.41404708  1
  Te  Te9  1  0.37002005  0.62994117  0.41404702  1
  Te  Te10  1  0.62466939  0.99947121  0.08643973  1
  Te  Te11  1  0.37585494  0.62466856  0.08643941  1
  Te  Te12  1  0.99948042  0.37585857  0.08643909  1
  Te  Te13  1  0.99947323  0.62467250  0.58643908  1
  Te  Te14  1  0.37585822  0.99947810  0.58643745  1
  Te  Te15  1  0.62466836  0.37585782  0.58643819  1
  W  W16  1  -0.00000125  -0.00000346  0.77823288  1
  W  W17  1  -0.00000250  -0.00000152  0.27823166  1
  O  O18  1  0.67432621  0.90236776  0.93938269  1
  O  O19  1  0.42330434  0.67431431  0.93938304  1
  O  O20  1  0.90235730  0.42330170  0.93938449  1
  O  O21  1  0.90236597  0.67432891  0.43938363  1
  O  O22  1  0.42330200  0.90235774  0.43938524  1
  O  O23  1  0.67431111  0.42330677  0.43938344  1
  O  O24  1  0.32281790  0.09674577  0.06086251  1
  O  O25  1  0.58044636  0.32282336  0.06086358  1
  O  O26  1  0.09675342  0.58044629  0.06086139  1
  O  O27  1  0.09674922  0.32281540  0.56086350  1
  O  O28  1  0.58044317  0.09675505  0.56086218  1
  O  O29  1  0.32282863  0.58044381  0.56086425  1
  O  O30  1  0.33331560  0.33331892  0.90074170  1
  O  O31  1  0.33332108  0.33331309  0.40074140  1
  O  O32  1  0.66667861  0.66667708  0.09744042  1
  O  O33  1  0.66667866  0.66667907  0.59744092  1
  O  O34  1  0.75053674  0.00144979  0.74872935  1
  O  O35  1  0.24800369  0.75054451  0.74873082  1
  O  O36  1  0.00145403  0.24801807  0.74873080  1
  O  O37  1  0.00144798  0.75054153  0.24873014  1
  O  O38  1  0.24801587  0.00145579  0.24873068  1
  O  O39  1  0.75054445  0.24799989  0.24873083  1
  O  O40  1  0.42660444  0.96752274  0.82329355  1
  O  O41  1  0.60587129  0.42660266  0.82329240  1
  O  O42  1  0.96752023  0.60587205  0.82329500  1
  O  O43  1  0.96751927  0.42660600  0.32329349  1
  O  O44  1  0.60587380  0.96751794  0.32329543  1
  O  O45  1  0.42660296  0.60587294  0.32329294  1
  O  O46  1  0.57074997  0.03211227  0.17610338  1
  O  O47  1  0.39714033  0.57075209  0.17610206  1
  O  O48  1  0.03211086  0.39713815  0.17610197  1
  O  O49  1  0.03211380  0.57074652  0.67610420  1
  O  O50  1  0.39713808  0.03211224  0.67610150  1
  O  O51  1  0.57075065  0.39713881  0.67610231  1
  O  O52  1  0.99999840  -0.00000065  0.86706546  1
  O  O53  1  0.00000080  0.99999870  0.36706516  1
