# generated using pymatgen
data_KNbWO6
_symmetry_space_group_name_H-M   'P 1'
_cell_length_a   7.48925648
_cell_length_b   7.46038662
_cell_length_c   7.52715234
_cell_angle_alpha   90.00000000
_cell_angle_beta   59.83247394
_cell_angle_gamma   119.87256469
_symmetry_Int_Tables_number   1
_chemical_formula_structural   KNbWO6
_chemical_formula_sum   'K2 Nb2 W2 O12'
_cell_volume   297.20046577
_cell_formula_units_Z   2
loop_
 _symmetry_equiv_pos_site_id
 _symmetry_equiv_pos_as_xyz
  1  'x, y, z'
loop_
 _atom_site_type_symbol
 _atom_site_label
 _atom_site_symmetry_multiplicity
 _atom_site_fract_x
 _atom_site_fract_y
 _atom_site_fract_z
 _atom_site_occupancy
  K  K0  1  0.53666966  0.05164171  0.48166517  1
  K  K1  1  0.46333034  0.51497206  0.51833483  1
  Nb  Nb2  1  0.00000000  0.99765994  0.50000000  1
  Nb  Nb3  1  -0.00000000  0.99765994  0.00000000  1
  W  W4  1  0.49932293  0.49771965  0.00033853  1
  W  W5  1  0.50067707  0.99839671  0.99966147  1
  O  O6  1  0.87082657  0.93756146  0.31458671  1
  O  O7  1  0.61166875  0.30563268  0.94416563  1
  O  O8  1  0.25635365  0.94055497  0.93902832  1
  O  O9  1  0.25439192  0.31483207  0.30422068  1
  O  O10  1  0.25439192  0.31483207  0.94138740  1
  O  O11  1  0.25635365  0.94055497  0.30461802  1
  O  O12  1  0.12917343  0.06673489  0.68541329  1
  O  O13  1  0.38833125  0.69396394  0.05583437  1
  O  O14  1  0.74560808  0.06044014  0.05861260  1
  O  O15  1  0.74364635  0.68420132  0.69538198  1
  O  O16  1  0.74364635  0.68420132  0.06097168  1
  O  O17  1  0.74560808  0.06044014  0.69577932  1
