# generated using pymatgen
data_Y3Mg2Si3O13
_symmetry_space_group_name_H-M   'P 1'
_cell_length_a   6.61446253
_cell_length_b   9.45536083
_cell_length_c   9.45536083
_cell_angle_alpha   120.00000518
_cell_angle_beta   90.00000000
_cell_angle_gamma   90.00000000
_symmetry_Int_Tables_number   1
_chemical_formula_structural   Y3Mg2Si3O13
_chemical_formula_sum   'Y6 Mg4 Si6 O26'
_cell_volume   512.13137518
_cell_formula_units_Z   2
loop_
 _symmetry_equiv_pos_site_id
 _symmetry_equiv_pos_as_xyz
  1  'x, y, z'
loop_
 _atom_site_type_symbol
 _atom_site_label
 _atom_site_symmetry_multiplicity
 _atom_site_fract_x
 _atom_site_fract_y
 _atom_site_fract_z
 _atom_site_occupancy
  Y  Y0  1  0.75000000  0.75936063  0.00494990  1
  Y  Y1  1  0.25000000  0.24063937  0.99505010  1
  Y  Y2  1  0.75000000  0.24558926  0.24063937  1
  Y  Y3  1  0.25000000  0.75441074  0.75936063  1
  Y  Y4  1  0.75000000  0.99505010  0.75441074  1
  Y  Y5  1  0.25000000  0.00494990  0.24558926  1
  Mg  Mg6  1  0.01679002  0.66666700  0.33333300  1
  Mg  Mg7  1  0.98320998  0.33333300  0.66666700  1
  Mg  Mg8  1  0.51679002  0.33333300  0.66666700  1
  Mg  Mg9  1  0.48320998  0.66666700  0.33333300  1
  Si  Si10  1  0.75000000  0.97494718  0.37730387  1
  Si  Si11  1  0.25000000  0.02505282  0.62269613  1
  Si  Si12  1  0.75000000  0.40235669  0.02505282  1
  Si  Si13  1  0.25000000  0.59764331  0.97494718  1
  Si  Si14  1  0.75000000  0.62269613  0.59764331  1
  Si  Si15  1  0.25000000  0.37730387  0.40235669  1
  O  O16  1  0.75000000  0.86516735  0.46716060  1
  O  O17  1  0.25000000  0.13483265  0.53283940  1
  O  O18  1  0.75000000  0.60199325  0.13483265  1
  O  O19  1  0.25000000  0.39800675  0.86516735  1
  O  O20  1  0.75000000  0.53283940  0.39800675  1
  O  O21  1  0.25000000  0.46716060  0.60199325  1
  O  O22  1  0.94020111  0.91659281  0.24728883  1
  O  O23  1  0.05979889  0.08340719  0.75271117  1
  O  O24  1  0.94020111  0.33069602  0.08340719  1
  O  O25  1  0.44020111  0.08340719  0.75271117  1
  O  O26  1  0.05979889  0.66930398  0.91659281  1
  O  O27  1  0.55979889  0.91659281  0.24728883  1
  O  O28  1  0.94020111  0.75271117  0.66930398  1
  O  O29  1  0.44020111  0.66930398  0.91659281  1
  O  O30  1  0.05979889  0.24728883  0.33069602  1
  O  O31  1  0.55979889  0.33069602  0.08340719  1
  O  O32  1  0.44020111  0.24728883  0.33069602  1
  O  O33  1  0.55979889  0.75271117  0.66930398  1
  O  O34  1  0.75000000  0.49798536  0.66972249  1
  O  O35  1  0.25000000  0.50201464  0.33027751  1
  O  O36  1  0.75000000  0.17173713  0.50201464  1
  O  O37  1  0.25000000  0.82826287  0.49798536  1
  O  O38  1  0.75000000  0.33027751  0.82826287  1
  O  O39  1  0.25000000  0.66972249  0.17173713  1
  O  O40  1  0.75000000  0.00000000  0.00000000  1
  O  O41  1  0.25000000  0.00000000  0.00000000  1
