# generated using pymatgen
data_HoAl7Fe5
_symmetry_space_group_name_H-M   'P 1'
_cell_length_a   5.01571622
_cell_length_b   6.60136971
_cell_length_c   6.60136971
_cell_angle_alpha   98.13819443
_cell_angle_beta   112.32746284
_cell_angle_gamma   67.67253716
_symmetry_Int_Tables_number   1
_chemical_formula_structural   HoAl7Fe5
_chemical_formula_sum   'Ho1 Al7 Fe5'
_cell_volume   187.02872440
_cell_formula_units_Z   1
loop_
 _symmetry_equiv_pos_site_id
 _symmetry_equiv_pos_as_xyz
  1  'x, y, z'
loop_
 _atom_site_type_symbol
 _atom_site_label
 _atom_site_symmetry_multiplicity
 _atom_site_fract_x
 _atom_site_fract_y
 _atom_site_fract_z
 _atom_site_occupancy
  Ho  Ho0  1  0.00452910  0.99547090  0.00452910  1
  Al  Al1  1  0.65976231  0.34023769  0.65976231  1
  Al  Al2  1  0.33874596  0.66125404  0.33874596  1
  Al  Al3  1  0.99188647  0.35091262  0.33468556  1
  Al  Al4  1  0.99188647  0.66531444  0.64908738  1
  Al  Al5  1  0.27525148  0.22474852  0.77525148  1
  Al  Al6  1  0.50459992  0.78387902  0.79307887  1
  Al  Al7  1  0.50459992  0.20692113  0.21612098  1
  Fe  Fe8  1  0.49682279  0.00184187  0.49919182  1
  Fe  Fe9  1  0.00052716  0.00184187  0.49919182  1
  Fe  Fe10  1  0.49682279  0.50080818  0.99815813  1
  Fe  Fe11  1  0.00052716  0.50080818  0.99815813  1
  Fe  Fe12  1  0.73403844  0.76596156  0.23403844  1
