# generated using pymatgen
data_UCr4H48C14(N15O11)2
_symmetry_space_group_name_H-M   'P 1'
_cell_length_a   6.80503469
_cell_length_b   10.91805111
_cell_length_c   16.89076760
_cell_angle_alpha   93.71128099
_cell_angle_beta   97.05729637
_cell_angle_gamma   92.97475429
_symmetry_Int_Tables_number   1
_chemical_formula_structural   UCr4H48C14(N15O11)2
_chemical_formula_sum   'U1 Cr4 H48 C14 N30 O22'
_cell_volume   1240.55439904
_cell_formula_units_Z   1
loop_
 _symmetry_equiv_pos_site_id
 _symmetry_equiv_pos_as_xyz
  1  'x, y, z'
loop_
 _atom_site_type_symbol
 _atom_site_label
 _atom_site_symmetry_multiplicity
 _atom_site_fract_x
 _atom_site_fract_y
 _atom_site_fract_z
 _atom_site_occupancy
  U  U0  1  -0.00000000  0.50000000  0.00000000  1
  Cr  Cr1  1  0.94306565  0.21697211  0.11430206  1
  Cr  Cr2  1  0.05693435  0.78302789  0.88569794  1
  Cr  Cr3  1  0.10236491  0.64734621  0.21154444  1
  Cr  Cr4  1  0.89763509  0.35265379  0.78845556  1
  H  H5  1  0.64023165  0.49803862  0.17199990  1
  H  H6  1  0.35976835  0.50196138  0.82800010  1
  H  H7  1  0.64960561  0.05479058  0.29218881  1
  H  H8  1  0.35039439  0.94520942  0.70781119  1
  H  H9  1  0.32883403  0.93367584  0.10994785  1
  H  H10  1  0.67116597  0.06632416  0.89005215  1
  H  H11  1  0.21958180  0.47322342  0.44591859  1
  H  H12  1  0.78041820  0.52677658  0.55408141  1
  H  H13  1  0.27738852  0.21869169  0.74059998  1
  H  H14  1  0.72261148  0.78130831  0.25940002  1
  H  H15  1  0.52948009  0.03550279  0.09749892  1
  H  H16  1  0.47051991  0.96449721  0.90250108  1
  H  H17  1  0.27522140  0.37798290  0.57254411  1
  H  H18  1  0.72477860  0.62201710  0.42745589  1
  H  H19  1  0.10583232  0.05519653  0.22039036  1
  H  H20  1  0.89416768  0.94480347  0.77960964  1
  H  H21  1  0.17953374  0.44904751  0.34170674  1
  H  H22  1  0.82046626  0.55095249  0.65829326  1
  H  H23  1  0.17072281  0.03892945  0.93229416  1
  H  H24  1  0.82927719  0.96107055  0.06770584  1
  H  H25  1  0.71623562  0.01477638  0.44623663  1
  H  H26  1  0.28376438  0.98522362  0.55376337  1
  H  H27  1  0.57564446  0.66616302  0.05281279  1
  H  H28  1  0.42435554  0.33383698  0.94718721  1
  H  H29  1  0.76078319  0.15364992  0.56691387  1
  H  H30  1  0.23921681  0.84635008  0.43308613  1
  H  H31  1  0.41424830  0.45472382  0.17137182  1
  H  H32  1  0.58575170  0.54527618  0.82862818  1
  H  H33  1  0.23076366  0.69148379  0.39478009  1
  H  H34  1  0.76923634  0.30851621  0.60521991  1
  H  H35  1  0.31001805  0.13364880  0.60188009  1
  H  H36  1  0.68998195  0.86635120  0.39811991  1
  H  H37  1  0.12081422  0.24827300  0.28114910  1
  H  H38  1  0.87918578  0.75172700  0.71885090  1
  H  H39  1  0.62561363  0.37901221  0.27609525  1
  H  H40  1  0.37438637  0.62098779  0.72390475  1
  H  H41  1  0.50028187  0.18797715  0.74045867  1
  H  H42  1  0.49971813  0.81202285  0.25954133  1
  H  H43  1  0.30980155  0.42158086  0.67605947  1
  H  H44  1  0.69019845  0.57841914  0.32394053  1
  H  H45  1  0.64297564  0.17276040  0.22680167  1
  H  H46  1  0.35702436  0.82723960  0.77319833  1
  H  H47  1  0.14361479  0.92579193  0.27270574  1
  H  H48  1  0.85638521  0.07420807  0.72729426  1
  H  H49  1  0.16351435  0.19375815  0.96365735  1
  H  H50  1  0.83648565  0.80624185  0.03634265  1
  H  H51  1  0.35525788  0.71862785  0.08144400  1
  H  H52  1  0.64474212  0.28137215  0.91855600  1
  C  C53  1  0.16880973  0.08901968  0.34321972  1
  C  C54  1  0.83119027  0.91098032  0.65678028  1
  C  C55  1  0.29763137  0.56390195  0.60268889  1
  C  C56  1  0.70236863  0.43609805  0.39731111  1
  C  C57  1  0.67380142  0.22752975  0.34772934  1
  C  C58  1  0.32619858  0.77247025  0.65227066  1
  C  C59  1  0.24117783  0.12424504  0.47872912  1
  C  C60  1  0.75882217  0.87575496  0.52127088  1
  C  C61  1  0.19839570  0.29155216  0.40504818  1
  C  C62  1  0.80160430  0.70844784  0.59495182  1
  C  C63  1  0.73008337  0.28086113  0.48237818  1
  C  C64  1  0.26991663  0.71913887  0.51762182  1
  C  C65  1  0.57500574  0.85310307  0.07580722  1
  C  C66  1  0.42499426  0.14689693  0.92419278  1
  N  N67  1  0.49743276  0.73745693  0.07173520  1
  N  N68  1  0.50256724  0.26254307  0.92826480  1
  N  N69  1  0.12767861  0.01869600  0.27507773  1
  N  N70  1  0.87232139  0.98130400  0.72492227  1
  N  N71  1  0.23612796  0.24880545  0.47732147  1
  N  N72  1  0.76387204  0.75119455  0.52267853  1
  N  N73  1  0.20944350  0.04150864  0.41354146  1
  N  N74  1  0.79055650  0.95849136  0.58645854  1
  N  N75  1  0.52960530  0.05256928  0.90193849  1
  N  N76  1  0.47039470  0.94743072  0.09806151  1
  N  N77  1  0.28114849  0.07870457  0.54964120  1
  N  N78  1  0.71885151  0.92129543  0.45035880  1
  N  N79  1  0.19012469  0.41121628  0.39626806  1
  N  N80  1  0.80987531  0.58878372  0.60373194  1
  N  N81  1  0.24336141  0.75462167  0.44300078  1
  N  N82  1  0.75663859  0.24537833  0.55699922  1
  N  N83  1  0.70612917  0.19067430  0.42162106  1
  N  N84  1  0.29387083  0.80932570  0.57837894  1
  N  N85  1  0.16601786  0.21364435  0.33724881  1
  N  N86  1  0.83398214  0.78635565  0.66275119  1
  N  N87  1  0.29520035  0.44599412  0.61854320  1
  N  N88  1  0.70479965  0.55400588  0.38145680  1
  N  N89  1  0.24105669  0.12463573  0.94154004  1
  N  N90  1  0.75894331  0.87536427  0.05845996  1
  N  N91  1  0.26881985  0.59670125  0.52764015  1
  N  N92  1  0.73118015  0.40329875  0.47235985  1
  N  N93  1  0.64197145  0.14613974  0.28401240  1
  N  N94  1  0.35802855  0.85386026  0.71598760  1
  N  N95  1  0.66895705  0.34960772  0.33365805  1
  N  N96  1  0.33104295  0.65039228  0.66634195  1
  O  O97  1  0.14644870  0.56836904  0.12382407  1
  O  O98  1  0.85355130  0.43163096  0.87617593  1
  O  O99  1  0.75523005  0.52803114  0.03085827  1
  O  O100  1  0.24476995  0.47196886  0.96914173  1
  O  O101  1  0.70367114  0.18364546  0.11486456  1
  O  O102  1  0.29632886  0.81635454  0.88513544  1
  O  O103  1  0.21736428  0.58415135  0.28870002  1
  O  O104  1  0.78263572  0.41584865  0.71129998  1
  O  O105  1  0.03314498  0.29545737  0.19896050  1
  O  O106  1  0.96685502  0.70454263  0.80103950  1
  O  O107  1  0.20014283  0.78941789  0.21212610  1
  O  O108  1  0.79985717  0.21058211  0.78787390  1
  O  O109  1  0.54933931  0.44206074  0.19499222  1
  O  O110  1  0.45066069  0.55793926  0.80500778  1
  O  O111  1  0.36544399  0.16457329  0.71410834  1
  O  O112  1  0.63455601  0.83542671  0.28589166  1
  O  O113  1  0.13723615  0.35121248  0.78048911  1
  O  O114  1  0.86276385  0.64878752  0.21951089  1
  O  O115  1  0.98937677  0.30185497  0.03499504  1
  O  O116  1  0.01062323  0.69814503  0.96500496  1
  O  O117  1  0.05213551  0.08551978  0.10818198  1
  O  O118  1  0.94786449  0.91448022  0.89181802  1
