# generated using pymatgen
data_Ho6Mg(GeS7)2
_symmetry_space_group_name_H-M   'P 1'
_cell_length_a   5.87919025
_cell_length_b   9.78181124
_cell_length_c   9.78160580
_cell_angle_alpha   119.99986703
_cell_angle_beta   90.00009409
_cell_angle_gamma   90.00089168
_symmetry_Int_Tables_number   1
_chemical_formula_structural   Ho6Mg(GeS7)2
_chemical_formula_sum   'Ho6 Mg1 Ge2 S14'
_cell_volume   487.16733678
_cell_formula_units_Z   1
loop_
 _symmetry_equiv_pos_site_id
 _symmetry_equiv_pos_as_xyz
  1  'x, y, z'
loop_
 _atom_site_type_symbol
 _atom_site_label
 _atom_site_symmetry_multiplicity
 _atom_site_fract_x
 _atom_site_fract_y
 _atom_site_fract_z
 _atom_site_occupancy
  Ho  Ho0  1  0.73867963  0.13880750  0.36139392  1
  Ho  Ho1  1  0.73870527  0.63863636  0.77742313  1
  Ho  Ho2  1  0.73869525  0.22258240  0.86120004  1
  Ho  Ho3  1  0.23451112  0.86190761  0.64253269  1
  Ho  Ho4  1  0.23450451  0.35744255  0.21937006  1
  Ho  Ho5  1  0.23449741  0.78062485  0.13808658  1
  Mg  Mg6  1  0.54383655  0.00000212  0.00000110  1
  Ge  Ge7  1  0.15892085  0.33334479  0.66666909  1
  Ge  Ge8  1  0.65484608  0.66665222  0.33332580  1
  S  S9  1  0.53499000  0.33335060  0.66667702  1
  S  S10  1  0.03201889  0.66665694  0.33332723  1
  S  S11  1  0.99730749  0.48114436  0.90409532  1
  S  S12  1  0.99732171  0.09592509  0.57705079  1
  S  S13  1  0.99730940  0.42295908  0.51886446  1
  S  S14  1  0.49226084  0.52004861  0.09603531  1
  S  S15  1  0.49226415  0.90393749  0.42401215  1
  S  S16  1  0.49225616  0.57597788  0.47993557  1
  S  S17  1  0.78904107  0.25213579  0.15210816  1
  S  S18  1  0.78904439  0.84789919  0.10004070  1
  S  S19  1  0.78904087  0.89996290  0.74784728  1
  S  S20  1  0.30578118  0.74897789  0.85032311  1
  S  S21  1  0.30577877  0.14967589  0.89864365  1
  S  S22  1  0.30578841  0.10134793  0.25103682  1
