# generated using pymatgen
data_HoSc(BO3)2
_symmetry_space_group_name_H-M   'P 1'
_cell_length_a   4.89748358
_cell_length_b   4.89748357
_cell_length_c   6.05310067
_cell_angle_alpha   66.13748487
_cell_angle_beta   66.13748489
_cell_angle_gamma   60.00000321
_symmetry_Int_Tables_number   1
_chemical_formula_structural   HoSc(BO3)2
_chemical_formula_sum   'Ho1 Sc1 B2 O6'
_cell_volume   111.17326855
_cell_formula_units_Z   1
loop_
 _symmetry_equiv_pos_site_id
 _symmetry_equiv_pos_as_xyz
  1  'x, y, z'
loop_
 _atom_site_type_symbol
 _atom_site_label
 _atom_site_symmetry_multiplicity
 _atom_site_fract_x
 _atom_site_fract_y
 _atom_site_fract_z
 _atom_site_occupancy
  Ho  Ho0  1  0.00000000  -0.00000000  -0.00000000  1
  Sc  Sc1  1  0.50000000  0.50000000  0.50000000  1
  B  B2  1  0.75457057  0.75457057  0.73628828  1
  B  B3  1  0.24542943  0.24542943  0.26371172  1
  O  O4  1  0.04536512  0.47920380  0.74031190  1
  O  O5  1  0.47920380  0.73511917  0.74031190  1
  O  O6  1  0.73511917  0.04536512  0.74031190  1
  O  O7  1  0.52079620  0.26488083  0.25968810  1
  O  O8  1  0.26488083  0.95463488  0.25968810  1
  O  O9  1  0.95463488  0.52079620  0.25968810  1
