# generated using pymatgen
data_In11S16
_symmetry_space_group_name_H-M   'P 1'
_cell_length_a   7.79560315
_cell_length_b   11.03479253
_cell_length_c   7.79560315
_cell_angle_alpha   90.00000000
_cell_angle_beta   90.00000000
_cell_angle_gamma   90.00000000
_symmetry_Int_Tables_number   1
_chemical_formula_structural   In11S16
_chemical_formula_sum   'In11 S16'
_cell_volume   670.60010475
_cell_formula_units_Z   1
loop_
 _symmetry_equiv_pos_site_id
 _symmetry_equiv_pos_as_xyz
  1  'x, y, z'
loop_
 _atom_site_type_symbol
 _atom_site_label
 _atom_site_symmetry_multiplicity
 _atom_site_fract_x
 _atom_site_fract_y
 _atom_site_fract_z
 _atom_site_occupancy
  In  In0  1  0.25000000  0.75696244  0.24902706  1
  In  In1  1  0.75000000  0.24928288  0.76595250  1
  In  In2  1  0.25000000  0.75696244  0.75097294  1
  In  In3  1  0.75000000  0.24928288  0.23404750  1
  In  In4  1  0.49902706  0.49303756  -0.00000000  1
  In  In5  1  0.01595250  0.00071712  0.50000000  1
  In  In6  1  0.00097294  0.49303756  0.00000000  1
  In  In7  1  0.48404750  0.00071712  0.50000000  1
  In  In8  1  0.75000000  0.62500000  0.50000000  1
  In  In9  1  0.75000000  0.87867847  -0.00000000  1
  In  In10  1  0.25000000  0.37132153  0.50000000  1
  S  S11  1  0.75000000  0.49637559  0.23624932  1
  S  S12  1  0.25000000  0.98727592  0.73535606  1
  S  S13  1  0.75000000  0.49637559  0.76375068  1
  S  S14  1  0.25000000  0.98727592  0.26464394  1
  S  S15  1  0.98535606  0.26272408  -0.00000000  1
  S  S16  1  0.48624932  0.75362441  0.50000000  1
  S  S17  1  0.51464394  0.26272408  -0.00000000  1
  S  S18  1  0.01375068  0.75362441  0.50000000  1
  S  S19  1  0.25000000  0.51367150  0.76590439  1
  S  S20  1  0.75000000  0.00719597  0.27515823  1
  S  S21  1  0.25000000  0.51367150  0.23409561  1
  S  S22  1  0.75000000  0.00719597  0.72484177  1
  S  S23  1  0.01590439  0.73632850  0.00000000  1
  S  S24  1  0.52515823  0.24280403  0.50000000  1
  S  S25  1  0.48409561  0.73632850  0.00000000  1
  S  S26  1  0.97484177  0.24280403  0.50000000  1
