# generated using pymatgen
data_Hg2IBr3
_symmetry_space_group_name_H-M   'P 1'
_cell_length_a   4.43688730
_cell_length_b   4.43688730
_cell_length_c   13.46992239
_cell_angle_alpha   88.82991524
_cell_angle_beta   91.17008476
_cell_angle_gamma   108.95199212
_symmetry_Int_Tables_number   1
_chemical_formula_structural   Hg2IBr3
_chemical_formula_sum   'Hg2 I1 Br3'
_cell_volume   250.71501141
_cell_formula_units_Z   1
loop_
 _symmetry_equiv_pos_site_id
 _symmetry_equiv_pos_as_xyz
  1  'x, y, z'
loop_
 _atom_site_type_symbol
 _atom_site_label
 _atom_site_symmetry_multiplicity
 _atom_site_fract_x
 _atom_site_fract_y
 _atom_site_fract_z
 _atom_site_occupancy
  Hg  Hg0  1  0.16019114  0.83980886  0.43667063  1
  Hg  Hg1  1  0.83546861  0.16453139  0.93315514  1
  I  I2  1  0.42513286  0.57486714  0.30497228  1
  Br  Br3  1  0.57970897  0.42029103  0.80931771  1
  Br  Br4  1  0.90965160  0.09034840  0.56035994  1
  Br  Br5  1  0.08984681  0.91015319  0.05856430  1
