# generated using pymatgen
data_K4Sn21Hg2
_symmetry_space_group_name_H-M   'P 1'
_cell_length_a   12.48019384
_cell_length_b   12.47076363
_cell_length_c   12.48019384
_cell_angle_alpha   90.00000000
_cell_angle_beta   90.01695011
_cell_angle_gamma   90.00000000
_symmetry_Int_Tables_number   1
_chemical_formula_structural   K4Sn21Hg2
_chemical_formula_sum   'K8 Sn42 Hg4'
_cell_volume   1942.38667470
_cell_formula_units_Z   2
loop_
 _symmetry_equiv_pos_site_id
 _symmetry_equiv_pos_as_xyz
  1  'x, y, z'
loop_
 _atom_site_type_symbol
 _atom_site_label
 _atom_site_symmetry_multiplicity
 _atom_site_fract_x
 _atom_site_fract_y
 _atom_site_fract_z
 _atom_site_occupancy
  K  K0  1  0.50046123  0.50000000  0.49947789  1
  K  K1  1  0.99947789  0.00000000  0.00046123  1
  K  K2  1  0.99902958  0.75000000  0.49902958  1
  K  K3  1  0.25099345  0.50000000  0.00101819  1
  K  K4  1  0.50101819  0.00000000  0.75099345  1
  K  K5  1  0.99902958  0.25000000  0.49902958  1
  K  K6  1  0.74909244  0.50000000  0.00102820  1
  K  K7  1  0.50102820  0.00000000  0.24909244  1
  Sn  Sn8  1  0.38306445  0.80595334  0.49977965  1
  Sn  Sn9  1  0.19377325  0.50000000  0.61663804  1
  Sn  Sn10  1  0.50012648  0.61876743  0.80932609  1
  Sn  Sn11  1  0.62007675  0.18928406  0.49986698  1
  Sn  Sn12  1  0.81087073  0.50000000  0.38052174  1
  Sn  Sn13  1  0.50018335  0.38148979  0.19065257  1
  Sn  Sn14  1  0.80608508  0.50000000  0.61664217  1
  Sn  Sn15  1  0.50012648  0.38123257  0.80932609  1
  Sn  Sn16  1  0.18915205  0.50000000  0.38033207  1
  Sn  Sn17  1  0.50018335  0.61851021  0.19065257  1
  Sn  Sn18  1  0.62007675  0.81071594  0.49986698  1
  Sn  Sn19  1  0.38306445  0.19404666  0.49977965  1
  Sn  Sn20  1  0.30932609  0.88123257  0.00012648  1
  Sn  Sn21  1  0.99986698  0.68928406  0.12007675  1
  Sn  Sn22  1  0.11664217  0.00000000  0.30608508  1
  Sn  Sn23  1  0.69065257  0.11851021  0.00018335  1
  Sn  Sn24  1  0.99977965  0.30595334  0.88306445  1
  Sn  Sn25  1  0.88033207  0.00000000  0.68915205  1
  Sn  Sn26  1  0.99986698  0.31071594  0.12007675  1
  Sn  Sn27  1  0.88052174  0.00000000  0.31087073  1
  Sn  Sn28  1  0.99977965  0.69404666  0.88306445  1
  Sn  Sn29  1  0.11663804  0.00000000  0.69377325  1
  Sn  Sn30  1  0.30932609  0.11876743  0.00012648  1
  Sn  Sn31  1  0.69065257  0.88148979  0.00018335  1
  Sn  Sn32  1  0.31752421  0.68274413  0.68349350  1
  Sn  Sn33  1  0.68109128  0.31833982  0.31847965  1
  Sn  Sn34  1  0.68130458  0.31719018  0.68269448  1
  Sn  Sn35  1  0.31774374  0.68184307  0.31742357  1
  Sn  Sn36  1  0.68109128  0.68166018  0.31847965  1
  Sn  Sn37  1  0.31752421  0.31725587  0.68349350  1
  Sn  Sn38  1  0.31774374  0.31815693  0.31742357  1
  Sn  Sn39  1  0.68130458  0.68280982  0.68269448  1
  Sn  Sn40  1  0.18269448  0.81719018  0.18130458  1
  Sn  Sn41  1  0.81742357  0.18184307  0.81774374  1
  Sn  Sn42  1  0.81847965  0.18166018  0.18109128  1
  Sn  Sn43  1  0.18349350  0.81725587  0.81752421  1
  Sn  Sn44  1  0.18349350  0.18274413  0.81752421  1
  Sn  Sn45  1  0.81847965  0.81833982  0.18109128  1
  Sn  Sn46  1  0.81742357  0.81815693  0.81774374  1
  Sn  Sn47  1  0.18269448  0.18280982  0.18130458  1
  Sn  Sn48  1  0.24990484  0.00000000  0.50020901  1
  Sn  Sn49  1  0.00020901  0.50000000  0.74990484  1
  Hg  Hg50  1  0.49993968  0.75000000  0.99993968  1
  Hg  Hg51  1  0.75013604  0.00000000  0.50006236  1
  Hg  Hg52  1  0.00006236  0.50000000  0.25013604  1
  Hg  Hg53  1  0.49993968  0.25000000  0.99993968  1
