# generated using pymatgen
data_Eu3Si4
_symmetry_space_group_name_H-M   'P 1'
_cell_length_a   3.96616414
_cell_length_b   4.55910561
_cell_length_c   9.64676062
_cell_angle_alpha   76.33159208
_cell_angle_beta   78.13714691
_cell_angle_gamma   90.00000000
_symmetry_Int_Tables_number   1
_chemical_formula_structural   Eu3Si4
_chemical_formula_sum   'Eu3 Si4'
_cell_volume   165.65767963
_cell_formula_units_Z   1
loop_
 _symmetry_equiv_pos_site_id
 _symmetry_equiv_pos_as_xyz
  1  'x, y, z'
loop_
 _atom_site_type_symbol
 _atom_site_label
 _atom_site_symmetry_multiplicity
 _atom_site_fract_x
 _atom_site_fract_y
 _atom_site_fract_z
 _atom_site_occupancy
  Eu  Eu0  1  -0.00000000  0.99588860  0.00000000  1
  Eu  Eu1  1  0.68489545  0.18321771  0.63020910  1
  Eu  Eu2  1  0.31510455  0.81342681  0.36979090  1
  Si  Si3  1  0.86173250  0.36282439  0.27653499  1
  Si  Si4  1  0.13826750  0.63935938  0.72346501  1
  Si  Si5  1  0.56467887  0.54532042  0.87064227  1
  Si  Si6  1  0.43532113  0.41596269  0.12935773  1
