# generated using pymatgen
data_GaFe4Co8Si3
_symmetry_space_group_name_H-M   'P 1'
_cell_length_a   3.99942428
_cell_length_b   3.99942428
_cell_length_c   13.25832466
_cell_angle_alpha   90.00000000
_cell_angle_beta   81.32514977
_cell_angle_gamma   120.00000000
_symmetry_Int_Tables_number   1
_chemical_formula_structural   GaFe4Co8Si3
_chemical_formula_sum   'Ga1 Fe4 Co8 Si3'
_cell_volume   180.85305266
_cell_formula_units_Z   1
loop_
 _symmetry_equiv_pos_site_id
 _symmetry_equiv_pos_as_xyz
  1  'x, y, z'
loop_
 _atom_site_type_symbol
 _atom_site_label
 _atom_site_symmetry_multiplicity
 _atom_site_fract_x
 _atom_site_fract_y
 _atom_site_fract_z
 _atom_site_occupancy
  Ga  Ga0  1  0.25000000  0.62500000  0.12500000  1
  Fe  Fe1  1  0.99932521  0.49966261  0.50101218  1
  Fe  Fe2  1  0.50067479  0.75033739  0.74898782  1
  Fe  Fe3  1  -0.00002757  -0.00001378  0.00004135  1
  Fe  Fe4  1  0.50002757  0.25001378  0.24995865  1
  Co  Co5  1  0.62500649  0.81250324  0.56249027  1
  Co  Co6  1  0.12546928  0.06273464  0.81179608  1
  Co  Co7  1  0.62826396  0.31413198  0.05760406  1
  Co  Co8  1  0.12166016  0.56083008  0.31750976  1
  Co  Co9  1  0.87499351  0.43749676  0.68750973  1
  Co  Co10  1  0.37833984  0.68916992  0.93249024  1
  Co  Co11  1  0.87173604  0.93586802  0.19239594  1
  Co  Co12  1  0.37453072  0.18726536  0.43820392  1
  Si  Si13  1  0.74955731  0.87477865  0.37566404  1
  Si  Si14  1  0.25000000  0.12500000  0.62500000  1
  Si  Si15  1  0.75044269  0.37522135  0.87433596  1
