# generated using pymatgen
data_Ho4(NiGe4)3
_symmetry_space_group_name_H-M   'P 1'
_cell_length_a   4.07099912
_cell_length_b   4.07965866
_cell_length_c   21.59786837
_cell_angle_alpha   90.00000000
_cell_angle_beta   90.00000000
_cell_angle_gamma   90.00000000
_symmetry_Int_Tables_number   1
_chemical_formula_structural   Ho4(NiGe4)3
_chemical_formula_sum   'Ho4 Ni3 Ge12'
_cell_volume   358.70359248
_cell_formula_units_Z   1
loop_
 _symmetry_equiv_pos_site_id
 _symmetry_equiv_pos_as_xyz
  1  'x, y, z'
loop_
 _atom_site_type_symbol
 _atom_site_label
 _atom_site_symmetry_multiplicity
 _atom_site_fract_x
 _atom_site_fract_y
 _atom_site_fract_z
 _atom_site_occupancy
  Ho  Ho0  1  -0.00000000  0.50000000  0.32993054  1
  Ho  Ho1  1  0.50000000  0.50000000  0.83147444  1
  Ho  Ho2  1  0.50000000  0.50000000  0.16641203  1
  Ho  Ho3  1  -0.00000000  0.50000000  0.66922362  1
  Ni  Ni4  1  0.50000000  -0.00000000  0.61109212  1
  Ni  Ni5  1  0.50000000  -0.00000000  0.38909980  1
  Ni  Ni6  1  -0.00000000  -0.00000000  0.88871703  1
  Ge  Ge7  1  -0.00000000  0.00000000  0.44237789  1
  Ge  Ge8  1  0.50000000  0.00000000  0.94451798  1
  Ge  Ge9  1  0.50000000  0.00000000  0.06184536  1
  Ge  Ge10  1  -0.00000000  0.00000000  0.55770667  1
  Ge  Ge11  1  -0.00000000  0.00000000  0.20934480  1
  Ge  Ge12  1  0.50000000  0.00000000  0.71651123  1
  Ge  Ge13  1  0.50000000  0.00000000  0.28205219  1
  Ge  Ge14  1  -0.00000000  0.00000000  0.78311801  1
  Ge  Ge15  1  -0.00000000  0.50000000  0.06132899  1
  Ge  Ge16  1  0.50000000  0.50000000  0.55751243  1
  Ge  Ge17  1  0.50000000  0.50000000  0.44278785  1
  Ge  Ge18  1  -0.00000000  0.50000000  0.94474702  1
