# generated using pymatgen
data_K2PH4O7
_symmetry_space_group_name_H-M   'P 1'
_cell_length_a   6.14374529
_cell_length_b   6.64992514
_cell_length_c   17.34195561
_cell_angle_alpha   90.00000000
_cell_angle_beta   99.04706267
_cell_angle_gamma   90.00000000
_symmetry_Int_Tables_number   1
_chemical_formula_structural   K2PH4O7
_chemical_formula_sum   'K8 P4 H16 O28'
_cell_volume   699.69908349
_cell_formula_units_Z   4
loop_
 _symmetry_equiv_pos_site_id
 _symmetry_equiv_pos_as_xyz
  1  'x, y, z'
loop_
 _atom_site_type_symbol
 _atom_site_label
 _atom_site_symmetry_multiplicity
 _atom_site_fract_x
 _atom_site_fract_y
 _atom_site_fract_z
 _atom_site_occupancy
  K  K0  1  0.29128219  0.30249477  0.96397023  1
  K  K1  1  0.79128219  0.19750523  0.46397023  1
  K  K2  1  0.70871781  0.69750523  0.03602977  1
  K  K3  1  0.20871781  0.80249477  0.53602977  1
  K  K4  1  0.77407197  0.53645804  0.68955163  1
  K  K5  1  0.27407197  0.96354196  0.18955163  1
  K  K6  1  0.22592803  0.46354196  0.31044837  1
  K  K7  1  0.72592803  0.03645804  0.81044837  1
  P  P8  1  0.25142705  0.79166302  0.84555559  1
  P  P9  1  0.75142705  0.70833698  0.34555559  1
  P  P10  1  0.74857295  0.20833698  0.15444441  1
  P  P11  1  0.24857295  0.29166302  0.65444441  1
  H  H12  1  0.07787660  0.41070951  0.12419419  1
  H  H13  1  0.57787660  0.08929049  0.62419419  1
  H  H14  1  0.92212340  0.58929049  0.87580581  1
  H  H15  1  0.42212340  0.91070951  0.37580581  1
  H  H16  1  0.57376769  0.53109052  0.84391783  1
  H  H17  1  0.07376769  0.96890948  0.34391783  1
  H  H18  1  0.42623231  0.46890948  0.15608217  1
  H  H19  1  0.92623231  0.03109052  0.65608217  1
  H  H20  1  0.20061141  0.09336643  0.78264178  1
  H  H21  1  0.70061141  0.40663357  0.28264178  1
  H  H22  1  0.79938859  0.90663357  0.21735822  1
  H  H23  1  0.29938859  0.59336643  0.71735822  1
  H  H24  1  0.16022424  0.86473533  0.98788476  1
  H  H25  1  0.66022424  0.63526467  0.48788476  1
  H  H26  1  0.83977576  0.13526467  0.01211524  1
  H  H27  1  0.33977576  0.36473533  0.51211524  1
  O  O28  1  0.14373315  0.49852709  0.08485339  1
  O  O29  1  0.64373315  0.00147291  0.58485339  1
  O  O30  1  0.85626685  0.50147291  0.91514661  1
  O  O31  1  0.35626685  0.99852709  0.41514661  1
  O  O32  1  0.41990953  0.70089819  0.79693033  1
  O  O33  1  0.91990953  0.79910181  0.29693033  1
  O  O34  1  0.58009047  0.29910181  0.20306967  1
  O  O35  1  0.08009047  0.20089819  0.70306967  1
  O  O36  1  0.31868681  0.75422477  0.93357782  1
  O  O37  1  0.81868681  0.74577523  0.43357782  1
  O  O38  1  0.68131319  0.24577523  0.06642218  1
  O  O39  1  0.18131319  0.25422477  0.56642218  1
  O  O40  1  0.26184364  0.03500227  0.83627206  1
  O  O41  1  0.76184364  0.46499773  0.33627206  1
  O  O42  1  0.73815636  0.96499773  0.16372794  1
  O  O43  1  0.23815636  0.53500227  0.66372794  1
  O  O44  1  0.01612127  0.72094778  0.81451555  1
  O  O45  1  0.51612127  0.77905222  0.31451555  1
  O  O46  1  0.98387873  0.27905222  0.18548445  1
  O  O47  1  0.48387873  0.22094778  0.68548445  1
  O  O48  1  0.66659451  0.40999464  0.86499025  1
  O  O49  1  0.16659451  0.09000536  0.36499025  1
  O  O50  1  0.33340549  0.59000536  0.13500975  1
  O  O51  1  0.83340549  0.90999464  0.63500975  1
  O  O52  1  0.08596155  0.94557659  0.02673256  1
  O  O53  1  0.58596155  0.55442341  0.52673256  1
  O  O54  1  0.91403845  0.05442341  0.97326744  1
  O  O55  1  0.41403845  0.44557659  0.47326744  1
