# generated using pymatgen
data_In4CuAg3Te8
_symmetry_space_group_name_H-M   'P 1'
_cell_length_a   6.52372729
_cell_length_b   6.52372729
_cell_length_c   12.83391532
_cell_angle_alpha   90.00000000
_cell_angle_beta   90.00000000
_cell_angle_gamma   90.00000000
_symmetry_Int_Tables_number   1
_chemical_formula_structural   In4CuAg3Te8
_chemical_formula_sum   'In4 Cu1 Ag3 Te8'
_cell_volume   546.19882996
_cell_formula_units_Z   1
loop_
 _symmetry_equiv_pos_site_id
 _symmetry_equiv_pos_as_xyz
  1  'x, y, z'
loop_
 _atom_site_type_symbol
 _atom_site_label
 _atom_site_symmetry_multiplicity
 _atom_site_fract_x
 _atom_site_fract_y
 _atom_site_fract_z
 _atom_site_occupancy
  In  In0  1  0.50000000  -0.00000000  0.25231850  1
  In  In1  1  -0.00000000  0.50000000  0.74768150  1
  In  In2  1  0.50000000  0.50000000  -0.00000000  1
  In  In3  1  0.00000000  -0.00000000  0.50000000  1
  Cu  Cu4  1  0.50000000  0.50000000  0.50000000  1
  Ag  Ag5  1  0.00000000  0.50000000  0.25152559  1
  Ag  Ag6  1  0.50000000  0.00000000  0.74847441  1
  Ag  Ag7  1  -0.00000000  0.00000000  -0.00000000  1
  Te  Te8  1  0.73794839  0.26798797  0.38120138  1
  Te  Te9  1  0.24937644  0.75695306  0.87451446  1
  Te  Te10  1  0.26205161  0.73201203  0.38120138  1
  Te  Te11  1  0.75062356  0.24304694  0.87451446  1
  Te  Te12  1  0.24304694  0.24937644  0.12548554  1
  Te  Te13  1  0.73201203  0.73794839  0.61879862  1
  Te  Te14  1  0.75695306  0.75062356  0.12548554  1
  Te  Te15  1  0.26798797  0.26205161  0.61879862  1
