# generated using pymatgen
data_Ga2Ag2TeSe3
_symmetry_space_group_name_H-M   'P 1'
_cell_length_a   6.17648763
_cell_length_b   6.12121927
_cell_length_c   7.24719142
_cell_angle_alpha   65.01906574
_cell_angle_beta   63.97148677
_cell_angle_gamma   90.00000000
_symmetry_Int_Tables_number   1
_chemical_formula_structural   Ga2Ag2TeSe3
_chemical_formula_sum   'Ga2 Ag2 Te1 Se3'
_cell_volume   217.32246677
_cell_formula_units_Z   1
loop_
 _symmetry_equiv_pos_site_id
 _symmetry_equiv_pos_as_xyz
  1  'x, y, z'
loop_
 _atom_site_type_symbol
 _atom_site_label
 _atom_site_symmetry_multiplicity
 _atom_site_fract_x
 _atom_site_fract_y
 _atom_site_fract_z
 _atom_site_occupancy
  Ga  Ga0  1  0.24412104  0.74567470  0.49110700  1
  Ga  Ga1  1  0.50587896  0.48678170  0.00889300  1
  Ag  Ag2  1  0.76050596  0.26188256  0.49374338  1
  Ag  Ag3  1  0.98949404  0.00562595  0.00625662  1
  Te  Te4  1  0.37500000  0.85310833  0.75000000  1
  Se  Se5  1  0.87500000  0.40010772  0.75000000  1
  Se  Se6  1  0.15504497  0.12341370  0.24999163  1
  Se  Se7  1  0.59495503  0.62340533  0.25000837  1
