# generated using pymatgen
data_Ga2Se3
_symmetry_space_group_name_H-M   'P 1'
_cell_length_a   3.90380490
_cell_length_b   5.78702404
_cell_length_c   6.86948319
_cell_angle_alpha   114.91116428
_cell_angle_beta   106.50750847
_cell_angle_gamma   90.00000000
_symmetry_Int_Tables_number   1
_chemical_formula_structural   Ga2Se3
_chemical_formula_sum   'Ga2 Se3'
_cell_volume   133.66685118
_cell_formula_units_Z   1
loop_
 _symmetry_equiv_pos_site_id
 _symmetry_equiv_pos_as_xyz
  1  'x, y, z'
loop_
 _atom_site_type_symbol
 _atom_site_label
 _atom_site_symmetry_multiplicity
 _atom_site_fract_x
 _atom_site_fract_y
 _atom_site_fract_z
 _atom_site_occupancy
  Ga  Ga0  1  0.99446982  0.00324199  0.98893963  1
  Ga  Ga1  1  0.67219718  0.68096936  0.34439337  1
  Se  Se2  1  0.49603531  0.73679974  0.99207063  1
  Se  Se3  1  0.17063169  0.41139611  0.34126237  1
  Se  Se4  1  0.83333300  0.08425980  0.66666700  1
