# generated using pymatgen
data_ErSc(BO3)2
_symmetry_space_group_name_H-M   'P 1'
_cell_length_a   4.89395937
_cell_length_b   4.89395938
_cell_length_c   6.04066692
_cell_angle_alpha   66.10358730
_cell_angle_beta   66.10358734
_cell_angle_gamma   60.00000371
_symmetry_Int_Tables_number   1
_chemical_formula_structural   ErSc(BO3)2
_chemical_formula_sum   'Er1 Sc1 B2 O6'
_cell_volume   110.74390824
_cell_formula_units_Z   1
loop_
 _symmetry_equiv_pos_site_id
 _symmetry_equiv_pos_as_xyz
  1  'x, y, z'
loop_
 _atom_site_type_symbol
 _atom_site_label
 _atom_site_symmetry_multiplicity
 _atom_site_fract_x
 _atom_site_fract_y
 _atom_site_fract_z
 _atom_site_occupancy
  Er  Er0  1  -0.00000000  -0.00000000  0.00000000  1
  Sc  Sc1  1  0.50000000  0.50000000  0.50000000  1
  B  B2  1  0.75417778  0.75417778  0.73746665  1
  B  B3  1  0.24582222  0.24582222  0.26253335  1
  O  O4  1  0.04482375  0.47750972  0.74116272  1
  O  O5  1  0.47750972  0.73650381  0.74116272  1
  O  O6  1  0.73650381  0.04482375  0.74116272  1
  O  O7  1  0.52249028  0.26349619  0.25883728  1
  O  O8  1  0.26349619  0.95517625  0.25883728  1
  O  O9  1  0.95517625  0.52249028  0.25883728  1
