# generated using pymatgen
data_DyAlFe
_symmetry_space_group_name_H-M   'P 1'
_cell_length_a   5.31320748
_cell_length_b   5.31312643
_cell_length_c   8.69144628
_cell_angle_alpha   90.00000000
_cell_angle_beta   90.00000000
_cell_angle_gamma   60.91933323
_symmetry_Int_Tables_number   1
_chemical_formula_structural   DyAlFe
_chemical_formula_sum   'Dy4 Al4 Fe4'
_cell_volume   214.42664107
_cell_formula_units_Z   4
loop_
 _symmetry_equiv_pos_site_id
 _symmetry_equiv_pos_as_xyz
  1  'x, y, z'
loop_
 _atom_site_type_symbol
 _atom_site_label
 _atom_site_symmetry_multiplicity
 _atom_site_fract_x
 _atom_site_fract_y
 _atom_site_fract_z
 _atom_site_occupancy
  Dy  Dy0  1  0.33403364  0.33404836  0.55466714  1
  Dy  Dy1  1  0.66831127  0.66833306  0.42623728  1
  Dy  Dy2  1  0.66831127  0.66833306  0.07376272  1
  Dy  Dy3  1  0.33403364  0.33404836  0.94533286  1
  Al  Al4  1  0.99516563  0.99522380  0.48383994  1
  Al  Al5  1  0.99516563  0.99522380  0.01616006  1
  Al  Al6  1  0.83426007  0.33993682  0.75000000  1
  Al  Al7  1  0.33989669  0.83426197  0.75000000  1
  Fe  Fe8  1  0.83338722  0.83342375  0.75000000  1
  Fe  Fe9  1  0.18095213  0.64272020  0.25000000  1
  Fe  Fe10  1  0.64285152  0.18082629  0.25000000  1
  Fe  Fe11  1  0.17363128  0.17362053  0.25000000  1
