# generated using pymatgen
data_Sr2EuCu2(BiO4)2
_symmetry_space_group_name_H-M   'P 1'
_cell_length_a   3.79787909
_cell_length_b   3.79787909
_cell_length_c   15.91642754
_cell_angle_alpha   96.85210319
_cell_angle_beta   96.85210319
_cell_angle_gamma   90.00000000
_symmetry_Int_Tables_number   1
_chemical_formula_structural   Sr2EuCu2(BiO4)2
_chemical_formula_sum   'Sr2 Eu1 Cu2 Bi2 O8'
_cell_volume   226.28530908
_cell_formula_units_Z   1
loop_
 _symmetry_equiv_pos_site_id
 _symmetry_equiv_pos_as_xyz
  1  'x, y, z'
loop_
 _atom_site_type_symbol
 _atom_site_label
 _atom_site_symmetry_multiplicity
 _atom_site_fract_x
 _atom_site_fract_y
 _atom_site_fract_z
 _atom_site_occupancy
  Sr  Sr0  1  0.11244491  0.11244491  0.22488981  1
  Sr  Sr1  1  0.88755509  0.88755509  0.77511019  1
  Eu  Eu2  1  -0.00000000  -0.00000000  -0.00000000  1
  Cu  Cu3  1  0.44650004  0.44650004  0.89300007  1
  Cu  Cu4  1  0.55349996  0.55349996  0.10699993  1
  Bi  Bi5  1  0.29734285  0.29734285  0.59468570  1
  Bi  Bi6  1  0.70265715  0.70265715  0.40531430  1
  O  O7  1  0.05255034  0.55255034  0.10510068  1
  O  O8  1  0.94744966  0.44744966  0.89489932  1
  O  O9  1  0.55255034  0.05255034  0.10510068  1
  O  O10  1  0.44744966  0.94744966  0.89489932  1
  O  O11  1  0.20262406  0.20262406  0.40524812  1
  O  O12  1  0.79737594  0.79737594  0.59475188  1
  O  O13  1  0.36421039  0.36421039  0.72842077  1
  O  O14  1  0.63578961  0.63578961  0.27157923  1
