# generated using pymatgen
data_Cu2AgBiPbS4
_symmetry_space_group_name_H-M   'P 1'
_cell_length_a   4.15391703
_cell_length_b   12.86338979
_cell_length_c   14.77709112
_cell_angle_alpha   90.00000000
_cell_angle_beta   90.00000000
_cell_angle_gamma   90.00000000
_symmetry_Int_Tables_number   1
_chemical_formula_structural   Cu2AgBiPbS4
_chemical_formula_sum   'Cu8 Ag4 Bi4 Pb4 S16'
_cell_volume   789.59101732
_cell_formula_units_Z   4
loop_
 _symmetry_equiv_pos_site_id
 _symmetry_equiv_pos_as_xyz
  1  'x, y, z'
loop_
 _atom_site_type_symbol
 _atom_site_label
 _atom_site_symmetry_multiplicity
 _atom_site_fract_x
 _atom_site_fract_y
 _atom_site_fract_z
 _atom_site_occupancy
  Cu  Cu0  1  0.75000000  0.05682749  0.85643152  1
  Cu  Cu1  1  0.75000000  0.55682749  0.64356848  1
  Cu  Cu2  1  0.25000000  0.94317251  0.14356848  1
  Cu  Cu3  1  0.25000000  0.44317251  0.35643152  1
  Cu  Cu4  1  0.75000000  0.55775410  0.36651704  1
  Cu  Cu5  1  0.75000000  0.05775410  0.13348296  1
  Cu  Cu6  1  0.25000000  0.44224590  0.63348296  1
  Cu  Cu7  1  0.25000000  0.94224590  0.86651704  1
  Ag  Ag8  1  0.75000000  0.33157186  0.42272686  1
  Ag  Ag9  1  0.75000000  0.83157186  0.07727314  1
  Ag  Ag10  1  0.25000000  0.66842814  0.57727314  1
  Ag  Ag11  1  0.25000000  0.16842814  0.92272686  1
  Bi  Bi12  1  0.75000000  0.42891881  0.89786857  1
  Bi  Bi13  1  0.75000000  0.92891881  0.60213143  1
  Bi  Bi14  1  0.25000000  0.57108119  0.10213143  1
  Bi  Bi15  1  0.25000000  0.07108119  0.39786857  1
  Pb  Pb16  1  0.75000000  0.28732949  0.16726891  1
  Pb  Pb17  1  0.75000000  0.78732949  0.33273109  1
  Pb  Pb18  1  0.25000000  0.71267051  0.83273109  1
  Pb  Pb19  1  0.25000000  0.21267051  0.66726891  1
  S  S20  1  0.75000000  0.22165106  0.81564216  1
  S  S21  1  0.75000000  0.72165106  0.68435784  1
  S  S22  1  0.25000000  0.77834894  0.18435784  1
  S  S23  1  0.25000000  0.27834894  0.31564216  1
  S  S24  1  0.75000000  0.50802533  0.21425407  1
  S  S25  1  0.75000000  0.00802533  0.28574593  1
  S  S26  1  0.25000000  0.49197467  0.78574593  1
  S  S27  1  0.25000000  0.99197467  0.71425407  1
  S  S28  1  0.75000000  0.39727079  0.58362340  1
  S  S29  1  0.75000000  0.89727079  0.91637660  1
  S  S30  1  0.25000000  0.60272921  0.41637660  1
  S  S31  1  0.25000000  0.10272921  0.08362340  1
  S  S32  1  0.75000000  0.12771497  0.53168924  1
  S  S33  1  0.75000000  0.62771497  0.96831076  1
  S  S34  1  0.25000000  0.87228503  0.46831076  1
  S  S35  1  0.25000000  0.37228503  0.03168924  1
