# generated using pymatgen
data_CsMnH5(SO5)2
_symmetry_space_group_name_H-M   'P 1'
_cell_length_a   4.86305676
_cell_length_b   5.98443258
_cell_length_c   8.77713611
_cell_angle_alpha   104.21348055
_cell_angle_beta   95.92559059
_cell_angle_gamma   94.39694662
_symmetry_Int_Tables_number   1
_chemical_formula_structural   CsMnH5(SO5)2
_chemical_formula_sum   'Cs1 Mn1 H5 S2 O10'
_cell_volume   244.91278121
_cell_formula_units_Z   1
loop_
 _symmetry_equiv_pos_site_id
 _symmetry_equiv_pos_as_xyz
  1  'x, y, z'
loop_
 _atom_site_type_symbol
 _atom_site_label
 _atom_site_symmetry_multiplicity
 _atom_site_fract_x
 _atom_site_fract_y
 _atom_site_fract_z
 _atom_site_occupancy
  Cs  Cs0  1  0.99899839  0.00460838  0.49450432  1
  Mn  Mn1  1  0.00041988  0.00616967  0.00628767  1
  H  H2  1  0.65049949  0.27214190  0.84620857  1
  H  H3  1  0.35018671  0.72614737  0.15640394  1
  H  H4  1  0.96462546  0.34974486  0.83607415  1
  H  H5  1  0.03309050  0.64731155  0.16410285  1
  H  H6  1  0.50015810  0.53091030  0.51749544  1
  S  S7  1  0.43196126  0.68725545  0.76824547  1
  S  S8  1  0.56785916  0.31709641  0.23782992  1
  O  O9  1  0.27060767  0.88563542  0.81760432  1
  O  O10  1  0.72969204  0.11558343  0.18569112  1
  O  O11  1  0.27982723  0.45947038  0.75308724  1
  O  O12  1  0.72380099  0.54106090  0.24173145  1
  O  O13  1  0.69880317  0.71624318  0.87050823  1
  O  O14  1  0.30476139  0.28727819  0.12818374  1
  O  O15  1  0.49550779  0.69751265  0.59781014  1
  O  O16  1  0.50332982  0.31581224  0.40250080  1
  O  O17  1  0.83592466  0.21898417  0.84442490  1
  O  O18  1  0.16294630  0.77603354  0.15230573  1
