# generated using pymatgen
data_ErAl7Fe5
_symmetry_space_group_name_H-M   'P 1'
_cell_length_a   5.01689235
_cell_length_b   6.60725024
_cell_length_c   6.60725024
_cell_angle_alpha   98.18722481
_cell_angle_beta   112.31203843
_cell_angle_gamma   67.68796157
_symmetry_Int_Tables_number   1
_chemical_formula_structural   ErAl7Fe5
_chemical_formula_sum   'Er1 Al7 Fe5'
_cell_volume   187.44804312
_cell_formula_units_Z   1
loop_
 _symmetry_equiv_pos_site_id
 _symmetry_equiv_pos_as_xyz
  1  'x, y, z'
loop_
 _atom_site_type_symbol
 _atom_site_label
 _atom_site_symmetry_multiplicity
 _atom_site_fract_x
 _atom_site_fract_y
 _atom_site_fract_z
 _atom_site_occupancy
  Er  Er0  1  0.00456049  0.99543951  0.00456049  1
  Al  Al1  1  0.66029068  0.33970932  0.66029068  1
  Al  Al2  1  0.33869442  0.66130558  0.33869442  1
  Al  Al3  1  0.99155826  0.35078388  0.33390040  1
  Al  Al4  1  0.99155826  0.66609960  0.64921612  1
  Al  Al5  1  0.27460882  0.22539118  0.77460882  1
  Al  Al6  1  0.50473902  0.78519936  0.79467741  1
  Al  Al7  1  0.50473902  0.20532259  0.21480064  1
  Fe  Fe8  1  0.49564520  0.00212999  0.49930080  1
  Fe  Fe9  1  0.00152562  0.00212999  0.49930080  1
  Fe  Fe10  1  0.49564520  0.50069920  0.99787001  1
  Fe  Fe11  1  0.00152562  0.50069920  0.99787001  1
  Fe  Fe12  1  0.73490941  0.76509059  0.23490941  1
