# generated using pymatgen
data_Tl(FeS)2
_symmetry_space_group_name_H-M   'P 1'
_cell_length_a   3.62602314
_cell_length_b   3.62602314
_cell_length_c   7.70366527
_cell_angle_alpha   103.61190259
_cell_angle_beta   103.61190259
_cell_angle_gamma   89.99999994
_symmetry_Int_Tables_number   1
_chemical_formula_structural   Tl(FeS)2
_chemical_formula_sum   'Tl1 Fe2 S2'
_cell_volume   95.51349046
_cell_formula_units_Z   1
loop_
 _symmetry_equiv_pos_site_id
 _symmetry_equiv_pos_as_xyz
  1  'x, y, z'
loop_
 _atom_site_type_symbol
 _atom_site_label
 _atom_site_symmetry_multiplicity
 _atom_site_fract_x
 _atom_site_fract_y
 _atom_site_fract_z
 _atom_site_occupancy
  S  S0  1  0.64728259  0.64728259  0.29456517  1
  S  S1  1  0.35271741  0.35271741  0.70543483  1
  Fe  Fe2  1  0.25000000  0.75000000  0.50000000  1
  Fe  Fe3  1  0.75000000  0.25000000  0.50000000  1
  Tl  Tl4  1  0.00000000  0.00000000  0.00000000  1
