# generated using pymatgen
data_Dy20In40Rh19
_symmetry_space_group_name_H-M   'P 1'
_cell_length_a   9.43680371
_cell_length_b   13.57373621
_cell_length_c   13.57373621
_cell_angle_alpha   90.00000000
_cell_angle_beta   90.00000000
_cell_angle_gamma   90.00000000
_symmetry_Int_Tables_number   1
_chemical_formula_structural   Dy20In40Rh19
_chemical_formula_sum   'Dy20 In40 Rh19'
_cell_volume   1738.69630610
_cell_formula_units_Z   1
loop_
 _symmetry_equiv_pos_site_id
 _symmetry_equiv_pos_as_xyz
  1  'x, y, z'
loop_
 _atom_site_type_symbol
 _atom_site_label
 _atom_site_symmetry_multiplicity
 _atom_site_fract_x
 _atom_site_fract_y
 _atom_site_fract_z
 _atom_site_occupancy
  Dy  Dy0  1  0.84996665  0.75000000  0.75000000  1
  Dy  Dy1  1  0.15003335  0.25000000  0.25000000  1
  Dy  Dy2  1  0.35568372  0.75000000  0.75000000  1
  Dy  Dy3  1  0.64431628  0.25000000  0.25000000  1
  Dy  Dy4  1  0.76923412  0.02494235  0.75000000  1
  Dy  Dy5  1  0.76923412  0.47505765  0.75000000  1
  Dy  Dy6  1  0.76602626  0.75000000  0.02765747  1
  Dy  Dy7  1  0.76602626  0.75000000  0.47234253  1
  Dy  Dy8  1  0.23397374  0.97234253  0.25000000  1
  Dy  Dy9  1  0.23397374  0.52765747  0.25000000  1
  Dy  Dy10  1  0.23076588  0.25000000  0.97505765  1
  Dy  Dy11  1  0.23076588  0.25000000  0.52494235  1
  Dy  Dy12  1  0.26345090  0.95403503  0.95127429  1
  Dy  Dy13  1  0.26345090  0.54596497  0.95127429  1
  Dy  Dy14  1  0.26345090  0.95403503  0.54872571  1
  Dy  Dy15  1  0.26345090  0.54596497  0.54872571  1
  Dy  Dy16  1  0.73654910  0.04872571  0.04596497  1
  Dy  Dy17  1  0.73654910  0.45127429  0.04596497  1
  Dy  Dy18  1  0.73654910  0.04872571  0.45403503  1
  Dy  Dy19  1  0.73654910  0.45127429  0.45403503  1
  In  In20  1  -0.00000000  0.40116406  0.59883594  1
  In  In21  1  -0.00000000  0.09883594  0.59883594  1
  In  In22  1  -0.00000000  0.40116406  0.90116406  1
  In  In23  1  -0.00000000  0.09883594  0.90116406  1
  In  In24  1  -0.00000000  0.59913445  0.40086555  1
  In  In25  1  -0.00000000  0.90086555  0.40086555  1
  In  In26  1  -0.00000000  0.59913445  0.09913445  1
  In  In27  1  -0.00000000  0.90086555  0.09913445  1
  In  In28  1  0.23765134  0.36360424  0.75000000  1
  In  In29  1  0.23765134  0.13639576  0.75000000  1
  In  In30  1  0.23929757  0.75000000  0.36463644  1
  In  In31  1  0.23929757  0.75000000  0.13536356  1
  In  In32  1  0.76070243  0.63536356  0.25000000  1
  In  In33  1  0.76070243  0.86463644  0.25000000  1
  In  In34  1  0.76234866  0.25000000  0.63639576  1
  In  In35  1  0.76234866  0.25000000  0.86360424  1
  In  In36  1  0.50000000  0.89049366  0.10950634  1
  In  In37  1  0.50000000  0.60950634  0.10950634  1
  In  In38  1  0.50000000  0.89049366  0.39049366  1
  In  In39  1  0.50000000  0.60950634  0.39049366  1
  In  In40  1  0.50000000  0.11830061  0.88169939  1
  In  In41  1  0.50000000  0.38169939  0.88169939  1
  In  In42  1  0.50000000  0.11830061  0.61830061  1
  In  In43  1  0.50000000  0.38169939  0.61830061  1
  In  In44  1  0.09840373  0.58067594  0.75000000  1
  In  In45  1  0.09840373  0.91932406  0.75000000  1
  In  In46  1  0.09846302  0.75000000  0.58032429  1
  In  In47  1  0.09846302  0.75000000  0.91967571  1
  In  In48  1  0.90153698  0.41967571  0.25000000  1
  In  In49  1  0.90153698  0.08032429  0.25000000  1
  In  In50  1  0.90159627  0.25000000  0.41932406  1
  In  In51  1  0.90159627  0.25000000  0.08067594  1
  In  In52  1  0.59407786  0.87998034  0.87993517  1
  In  In53  1  0.59407786  0.62001966  0.87993517  1
  In  In54  1  0.59407786  0.87998034  0.62006483  1
  In  In55  1  0.59407786  0.62001966  0.62006483  1
  In  In56  1  0.40592214  0.12006483  0.12001966  1
  In  In57  1  0.40592214  0.37993517  0.12001966  1
  In  In58  1  0.40592214  0.12006483  0.37998034  1
  In  In59  1  0.40592214  0.37993517  0.37998034  1
  Rh  Rh60  1  -0.00000000  0.25000000  0.75000000  1
  Rh  Rh61  1  -0.00000000  0.75000000  0.25000000  1
  Rh  Rh62  1  0.10668872  0.09590805  0.09661107  1
  Rh  Rh63  1  0.10668872  0.40409195  0.09661107  1
  Rh  Rh64  1  0.10668872  0.09590805  0.40338893  1
  Rh  Rh65  1  0.10668872  0.40409195  0.40338893  1
  Rh  Rh66  1  0.89331128  0.90338893  0.90409195  1
  Rh  Rh67  1  0.89331128  0.59661107  0.90409195  1
  Rh  Rh68  1  0.89331128  0.90338893  0.59590805  1
  Rh  Rh69  1  0.89331128  0.59661107  0.59590805  1
  Rh  Rh70  1  0.40720012  0.52677696  0.75000000  1
  Rh  Rh71  1  0.40720012  0.97322304  0.75000000  1
  Rh  Rh72  1  0.40620493  0.75000000  0.52925412  1
  Rh  Rh73  1  0.40620493  0.75000000  0.97074588  1
  Rh  Rh74  1  0.59379507  0.47074588  0.25000000  1
  Rh  Rh75  1  0.59379507  0.02925412  0.25000000  1
  Rh  Rh76  1  0.59279988  0.25000000  0.47322304  1
  Rh  Rh77  1  0.59279988  0.25000000  0.02677696  1
  Rh  Rh78  1  0.50000000  0.75000000  0.25000000  1
