# generated using pymatgen
data_CeY4Zn5
_symmetry_space_group_name_H-M   'P 1'
_cell_length_a   3.60349506
_cell_length_b   3.60349506
_cell_length_c   18.08652293
_cell_angle_alpha   90.00000000
_cell_angle_beta   90.00000000
_cell_angle_gamma   90.00000000
_symmetry_Int_Tables_number   1
_chemical_formula_structural   CeY4Zn5
_chemical_formula_sum   'Ce1 Y4 Zn5'
_cell_volume   234.85669518
_cell_formula_units_Z   1
loop_
 _symmetry_equiv_pos_site_id
 _symmetry_equiv_pos_as_xyz
  1  'x, y, z'
loop_
 _atom_site_type_symbol
 _atom_site_label
 _atom_site_symmetry_multiplicity
 _atom_site_fract_x
 _atom_site_fract_y
 _atom_site_fract_z
 _atom_site_occupancy
  Ce  Ce0  1  -0.00000000  -0.00000000  -0.00000000  1
  Y  Y1  1  0.00000000  0.00000000  0.19996059  1
  Y  Y2  1  -0.00000000  -0.00000000  0.40034847  1
  Y  Y3  1  -0.00000000  0.00000000  0.59965153  1
  Y  Y4  1  -0.00000000  0.00000000  0.80003941  1
  Zn  Zn5  1  0.50000000  0.50000000  0.10162323  1
  Zn  Zn6  1  0.50000000  0.50000000  0.30023576  1
  Zn  Zn7  1  0.50000000  0.50000000  0.50000000  1
  Zn  Zn8  1  0.50000000  0.50000000  0.69976424  1
  Zn  Zn9  1  0.50000000  0.50000000  0.89837677  1
