# generated using pymatgen
data_CdHgTe2
_symmetry_space_group_name_H-M   'P 1'
_cell_length_a   4.70607358
_cell_length_b   4.70607358
_cell_length_c   8.14089901
_cell_angle_alpha   73.19957271
_cell_angle_beta   90.00000000
_cell_angle_gamma   120.00000000
_symmetry_Int_Tables_number   1
_chemical_formula_structural   CdHgTe2
_chemical_formula_sum   'Cd1 Hg1 Te2'
_cell_volume   147.18911533
_cell_formula_units_Z   1
loop_
 _symmetry_equiv_pos_site_id
 _symmetry_equiv_pos_as_xyz
  1  'x, y, z'
loop_
 _atom_site_type_symbol
 _atom_site_label
 _atom_site_symmetry_multiplicity
 _atom_site_fract_x
 _atom_site_fract_y
 _atom_site_fract_z
 _atom_site_occupancy
  Cd  Cd0  1  0.00004826  0.00009651  0.99985523  1
  Hg  Hg1  1  0.49998529  0.99997058  0.50004413  1
  Te  Te2  1  0.87524255  0.75048510  0.37427235  1
  Te  Te3  1  0.37472391  0.74944781  0.87582828  1
