# generated using pymatgen
data_CrIr
_symmetry_space_group_name_H-M   'P 1'
_cell_length_a   2.68533197
_cell_length_b   2.68556773
_cell_length_c   4.22304602
_cell_angle_alpha   90.00000000
_cell_angle_beta   90.00000000
_cell_angle_gamma   59.99708138
_symmetry_Int_Tables_number   1
_chemical_formula_structural   CrIr
_chemical_formula_sum   'Cr1 Ir1'
_cell_volume   26.37410704
_cell_formula_units_Z   1
loop_
 _symmetry_equiv_pos_site_id
 _symmetry_equiv_pos_as_xyz
  1  'x, y, z'
loop_
 _atom_site_type_symbol
 _atom_site_label
 _atom_site_symmetry_multiplicity
 _atom_site_fract_x
 _atom_site_fract_y
 _atom_site_fract_z
 _atom_site_occupancy
  Cr  Cr0  1  0.33337978  0.33331011  0.75000000  1
  Ir  Ir1  1  0.66662022  0.66668989  0.25000000  1
