# generated using pymatgen
data_CeNdSi2
_symmetry_space_group_name_H-M   'P 1'
_cell_length_a   3.92249366
_cell_length_b   5.86219700
_cell_length_c   8.20340315
_cell_angle_alpha   90.00000000
_cell_angle_beta   90.00000000
_cell_angle_gamma   90.00000000
_symmetry_Int_Tables_number   1
_chemical_formula_structural   CeNdSi2
_chemical_formula_sum   'Ce2 Nd2 Si4'
_cell_volume   188.63258414
_cell_formula_units_Z   2
loop_
 _symmetry_equiv_pos_site_id
 _symmetry_equiv_pos_as_xyz
  1  'x, y, z'
loop_
 _atom_site_type_symbol
 _atom_site_label
 _atom_site_symmetry_multiplicity
 _atom_site_fract_x
 _atom_site_fract_y
 _atom_site_fract_z
 _atom_site_occupancy
  Ce  Ce0  1  0.25000000  0.38617886  0.68028370  1
  Ce  Ce1  1  0.25000000  0.11382114  0.18028370  1
  Nd  Nd2  1  0.75000000  0.61304578  0.32000530  1
  Nd  Nd3  1  0.75000000  0.88695422  0.82000530  1
  Si  Si4  1  0.25000000  0.87771390  0.53488885  1
  Si  Si5  1  0.25000000  0.62228610  0.03488885  1
  Si  Si6  1  0.75000000  0.12427139  0.46482215  1
  Si  Si7  1  0.75000000  0.37572861  0.96482215  1
