# generated using pymatgen
data_Dy9Al5Se21
_symmetry_space_group_name_H-M   'P 1'
_cell_length_a   11.96480370
_cell_length_b   11.96502950
_cell_length_c   11.96497586
_cell_angle_alpha   94.09120818
_cell_angle_beta   85.91072833
_cell_angle_gamma   85.90999053
_symmetry_Int_Tables_number   1
_chemical_formula_structural   Dy9Al5Se21
_chemical_formula_sum   'Dy18 Al10 Se42'
_cell_volume   1699.14864114
_cell_formula_units_Z   2
loop_
 _symmetry_equiv_pos_site_id
 _symmetry_equiv_pos_as_xyz
  1  'x, y, z'
loop_
 _atom_site_type_symbol
 _atom_site_label
 _atom_site_symmetry_multiplicity
 _atom_site_fract_x
 _atom_site_fract_y
 _atom_site_fract_z
 _atom_site_occupancy
  Dy  Dy0  1  0.26199290  0.11175885  0.88406499  1
  Dy  Dy1  1  0.92912579  0.45320576  0.22820442  1
  Dy  Dy2  1  0.60569091  0.76552238  0.55611985  1
  Dy  Dy3  1  0.44388046  0.39430256  0.76552423  1
  Dy  Dy4  1  0.11592651  0.73800093  0.11175633  1
  Dy  Dy5  1  0.77178941  0.07087053  0.45321550  1
  Dy  Dy6  1  0.54679115  0.22820295  0.07088314  1
  Dy  Dy7  1  0.23447838  0.55611390  0.39430553  1
  Dy  Dy8  1  0.88824242  0.88406372  0.73800351  1
  Dy  Dy9  1  0.41388861  0.21158089  0.43121467  1
  Dy  Dy10  1  0.06896739  0.54896413  0.77277093  1
  Dy  Dy11  1  0.75358514  0.87525500  0.09665253  1
  Dy  Dy12  1  0.22722617  0.93103206  0.54896041  1
  Dy  Dy13  1  0.90335691  0.24642122  0.87524583  1
  Dy  Dy14  1  0.56879051  0.58611514  0.21157791  1
  Dy  Dy15  1  0.12474669  0.09663618  0.24641187  1
  Dy  Dy16  1  0.78841805  0.43120998  0.58610611  1
  Dy  Dy17  1  0.45104111  0.77278144  0.93102679  1
  Al  Al18  1  0.95310310  0.72024825  0.38736111  1
  Al  Al19  1  0.61262266  0.04690275  0.72024614  1
  Al  Al20  1  0.27975067  0.38737042  0.04689672  1
  Al  Al21  1  0.45238109  0.88217879  0.22378606  1
  Al  Al22  1  0.11781626  0.22377067  0.54762694  1
  Al  Al23  1  0.77622216  0.54761603  0.88218465  1
  Al  Al24  1  0.14273161  0.85727488  0.85726700  1
  Al  Al25  1  0.82672010  0.17328356  0.17328550  1
  Al  Al26  1  0.32757999  0.67241935  0.67242512  1
  Al  Al27  1  0.64206582  0.35792996  0.35793052  1
  Se  Se28  1  0.82697215  0.84255928  0.51005850  1
  Se  Se29  1  0.48993973  0.17302585  0.84257224  1
  Se  Se30  1  0.15744143  0.51005785  0.17302242  1
  Se  Se31  1  0.65797138  0.67402633  0.00908229  1
  Se  Se32  1  0.32598753  0.00907971  0.34202775  1
  Se  Se33  1  0.99092297  0.34203310  0.67399843  1
  Se  Se34  1  0.99530003  0.53715674  0.44879537  1
  Se  Se35  1  0.65001379  0.86467598  0.78472656  1
  Se  Se36  1  0.31104524  0.20139358  0.10756217  1
  Se  Se37  1  0.89244626  0.68895062  0.20140104  1
  Se  Se38  1  0.55119882  0.00470157  0.53717502  1
  Se  Se39  1  0.21527858  0.34998679  0.86469008  1
  Se  Se40  1  0.13531621  0.78472443  0.34998113  1
  Se  Se41  1  0.79859791  0.10755043  0.68895970  1
  Se  Se42  1  0.46283648  0.44879356  0.00470115  1
  Se  Se43  1  0.52330759  0.96348259  0.05908513  1
  Se  Se44  1  0.18756752  0.29769735  0.37865120  1
  Se  Se45  1  0.84121638  0.62918134  0.71395998  1
  Se  Se46  1  0.62133666  0.81244479  0.29770145  1
  Se  Se47  1  0.28603019  0.15877845  0.62917935  1
  Se  Se48  1  0.94091204  0.47670338  0.96347561  1
  Se  Se49  1  0.37082574  0.71396989  0.15877693  1
  Se  Se50  1  0.03652560  0.05909096  0.47670096  1
  Se  Se51  1  0.70230121  0.37866012  0.81243672  1
  Se  Se52  1  0.68989841  0.55873329  0.41531632  1
  Se  Se53  1  0.33894389  0.89518347  0.76139080  1
  Se  Se54  1  0.00571364  0.23965033  0.10107507  1
  Se  Se55  1  0.89892628  0.99428902  0.23965668  1
  Se  Se56  1  0.58468354  0.31009498  0.55873468  1
  Se  Se57  1  0.23861082  0.66107388  0.89515633  1
  Se  Se58  1  0.10482383  0.76139487  0.66106076  1
  Se  Se59  1  0.76034589  0.10108015  0.99429536  1
  Se  Se60  1  0.44126094  0.41532692  0.31009446  1
  Se  Se61  1  0.61672539  0.15085945  0.28429605  1
  Se  Se62  1  0.26946998  0.48506270  0.61840939  1
  Se  Se63  1  0.95631146  0.79455997  0.94209334  1
  Se  Se64  1  0.38159214  0.73053100  0.48506514  1
  Se  Se65  1  0.05791250  0.04368948  0.79455656  1
  Se  Se66  1  0.71570711  0.38327360  0.15086203  1
  Se  Se67  1  0.20545021  0.94207965  0.04368838  1
  Se  Se68  1  0.84913463  0.28428791  0.38326955  1
  Se  Se69  1  0.51493197  0.61840637  0.73053761  1
