# generated using pymatgen
data_CaYMn2O6
_symmetry_space_group_name_H-M   'P 1'
_cell_length_a   5.36229489
_cell_length_b   5.55228497
_cell_length_c   7.59328749
_cell_angle_alpha   90.00000000
_cell_angle_beta   90.00000000
_cell_angle_gamma   90.00000000
_symmetry_Int_Tables_number   1
_chemical_formula_structural   CaYMn2O6
_chemical_formula_sum   'Ca2 Y2 Mn4 O12'
_cell_volume   226.07486736
_cell_formula_units_Z   2
loop_
 _symmetry_equiv_pos_site_id
 _symmetry_equiv_pos_as_xyz
  1  'x, y, z'
loop_
 _atom_site_type_symbol
 _atom_site_label
 _atom_site_symmetry_multiplicity
 _atom_site_fract_x
 _atom_site_fract_y
 _atom_site_fract_z
 _atom_site_occupancy
  Ca  Ca0  1  0.51139669  0.55310996  0.25000000  1
  Ca  Ca1  1  0.01139669  0.94689004  0.75000000  1
  Y  Y2  1  0.98445301  0.06299327  0.25000000  1
  Y  Y3  1  0.48445301  0.43700673  0.75000000  1
  Mn  Mn4  1  0.99967607  0.50341945  0.00103577  1
  Mn  Mn5  1  0.49967607  0.99658055  0.50103577  1
  Mn  Mn6  1  0.99967607  0.50341945  0.49896423  1
  Mn  Mn7  1  0.49967607  0.99658055  -0.00103577  1
  O  O8  1  0.80253012  0.80177237  0.04951869  1
  O  O9  1  0.70713491  0.29146715  0.45374839  1
  O  O10  1  0.20713491  0.20853285  0.54625161  1
  O  O11  1  0.30253012  0.69822763  0.95048131  1
  O  O12  1  0.20713491  0.20853285  0.95374839  1
  O  O13  1  0.30253012  0.69822763  0.54951869  1
  O  O14  1  0.80253012  0.80177237  0.45048131  1
  O  O15  1  0.70713491  0.29146715  0.04625161  1
  O  O16  1  0.40015906  0.97481732  0.25000000  1
  O  O17  1  0.08530903  0.46842942  0.25000000  1
  O  O18  1  0.58530903  0.03157058  0.75000000  1
  O  O19  1  0.90015906  0.52518268  0.75000000  1
