# generated using pymatgen
data_CeTa7O19
_symmetry_space_group_name_H-M   'P 1'
_cell_length_a   6.29633331
_cell_length_b   6.29309899
_cell_length_c   20.14978689
_cell_angle_alpha   89.99591502
_cell_angle_beta   90.00475234
_cell_angle_gamma   120.03021481
_symmetry_Int_Tables_number   1
_chemical_formula_structural   CeTa7O19
_chemical_formula_sum   'Ce2 Ta14 O38'
_cell_volume   691.22757127
_cell_formula_units_Z   2
loop_
 _symmetry_equiv_pos_site_id
 _symmetry_equiv_pos_as_xyz
  1  'x, y, z'
loop_
 _atom_site_type_symbol
 _atom_site_label
 _atom_site_symmetry_multiplicity
 _atom_site_fract_x
 _atom_site_fract_y
 _atom_site_fract_z
 _atom_site_occupancy
  Ce  Ce0  1  0.33234965  0.66654988  0.50000278  1
  Ce  Ce1  1  0.66767541  0.33344426  0.99999605  1
  Ta  Ta2  1  0.64140523  0.99723623  0.84484320  1
  Ta  Ta3  1  0.35565550  0.35873468  0.84478429  1
  Ta  Ta4  1  0.00301601  0.64443845  0.84470213  1
  Ta  Ta5  1  0.35552560  0.99688202  0.15527322  1
  Ta  Ta6  1  0.64122358  0.64419014  0.15521981  1
  Ta  Ta7  1  0.00278358  0.35845762  0.15522400  1
  Ta  Ta8  1  0.35859529  0.00275003  0.34479200  1
  Ta  Ta9  1  0.64432656  0.64125816  0.34475276  1
  Ta  Ta10  1  0.99700499  0.35556723  0.34466026  1
  Ta  Ta11  1  0.64447988  0.00312671  0.65531647  1
  Ta  Ta12  1  0.35877298  0.35582706  0.65526725  1
  Ta  Ta13  1  0.99725479  0.64154072  0.65526703  1
  Ta  Ta14  1  0.66620534  0.33360350  0.49998863  1
  Ta  Ta15  1  0.33378258  0.66639575  -0.00001711  1
  O  O16  1  0.24289827  0.99706631  0.65439538  1
  O  O17  1  0.75415623  0.75729513  0.65439035  1
  O  O18  1  0.00324521  0.24601083  0.65435492  1
  O  O19  1  0.75402086  0.99681097  0.34562947  1
  O  O20  1  0.24275437  0.24583705  0.34559820  1
  O  O21  1  0.00307310  0.75718835  0.34563239  1
  O  O22  1  0.75707439  0.00288299  0.15439940  1
  O  O23  1  0.24585162  0.24270704  0.15438551  1
  O  O24  1  0.99672082  0.75397442  0.15434725  1
  O  O25  1  0.24598043  0.00318433  0.84563820  1
  O  O26  1  0.75724420  0.75417209  0.84559626  1
  O  O27  1  0.99693818  0.24282386  0.84562861  1
  O  O28  1  0.36924351  0.94951512  0.05538895  1
  O  O29  1  0.58025102  0.63083049  0.05529451  1
  O  O30  1  0.05049646  0.42032199  0.05540862  1
  O  O31  1  0.58005418  0.94974551  0.94467838  1
  O  O32  1  0.36908129  0.41994876  0.94466703  1
  O  O33  1  0.05047313  0.63056029  0.94456817  1
  O  O34  1  0.63070587  0.05044534  0.55535918  1
  O  O35  1  0.41977433  0.36922984  0.55528193  1
  O  O36  1  0.94956509  0.57972754  0.55539655  1
  O  O37  1  0.41988585  0.05017192  0.44468560  1
  O  O38  1  0.63087248  0.58003575  0.44467260  1
  O  O39  1  0.94957763  0.36950120  0.44459896  1
  O  O40  1  0.33348872  0.66678055  0.63437715  1
  O  O41  1  0.66679925  0.33343859  0.65828241  1
  O  O42  1  0.66676612  0.33327312  0.34172044  1
  O  O43  1  0.33333110  0.66640204  0.36562250  1
  O  O44  1  0.66651120  0.33321661  0.13438476  1
  O  O45  1  0.33319260  0.66653775  0.15828396  1
  O  O46  1  0.33324291  0.66674958  0.84171848  1
  O  O47  1  0.66669839  0.33361463  0.86561006  1
  O  O48  1  0.59968809  0.00000910  0.74993832  1
  O  O49  1  0.40031398  0.40029793  0.74997011  1
  O  O50  1  0.00002504  0.59967135  0.75000115  1
  O  O51  1  0.40033987  0.99998628  0.24997623  1
  O  O52  1  0.59967003  0.59973345  0.25000858  1
  O  O53  1  0.99993722  0.40029946  0.25003667  1
