# generated using pymatgen
data_Ce4UO10
_symmetry_space_group_name_H-M   'P 1'
_cell_length_a   3.84574850
_cell_length_b   3.84574850
_cell_length_c   13.94176863
_cell_angle_alpha   97.92760932
_cell_angle_beta   82.07239068
_cell_angle_gamma   90.00000000
_symmetry_Int_Tables_number   1
_chemical_formula_structural   Ce4UO10
_chemical_formula_sum   'Ce4 U1 O10'
_cell_volume   202.23533457
_cell_formula_units_Z   1
loop_
 _symmetry_equiv_pos_site_id
 _symmetry_equiv_pos_as_xyz
  1  'x, y, z'
loop_
 _atom_site_type_symbol
 _atom_site_label
 _atom_site_symmetry_multiplicity
 _atom_site_fract_x
 _atom_site_fract_y
 _atom_site_fract_z
 _atom_site_occupancy
  Ce  Ce0  1  0.39818135  0.60181865  0.20363731  1
  Ce  Ce1  1  0.79943771  0.20056229  0.40112458  1
  Ce  Ce2  1  0.20056229  0.79943771  0.59887542  1
  Ce  Ce3  1  0.60181865  0.39818135  0.79636269  1
  U  U4  1  -0.00000000  -0.00000000  -0.00000000  1
  O  O5  1  0.54686097  0.95313903  0.90627805  1
  O  O6  1  0.75000000  0.75000000  0.50000000  1
  O  O7  1  0.14940774  0.35059226  0.70118451  1
  O  O8  1  0.95313903  0.54686097  0.09372195  1
  O  O9  1  0.35059226  0.14940774  0.29881549  1
  O  O10  1  0.45313903  0.04686097  0.09372195  1
  O  O11  1  0.64940774  0.85059226  0.70118451  1
  O  O12  1  0.04686097  0.45313903  0.90627805  1
  O  O13  1  0.85059226  0.64940774  0.29881549  1
  O  O14  1  0.25000000  0.25000000  0.50000000  1
