# generated using pymatgen
data_Cd2Hg13(As2Cl3)4
_symmetry_space_group_name_H-M   'P 1'
_cell_length_a   12.52914048
_cell_length_b   12.52981460
_cell_length_c   12.52912496
_cell_angle_alpha   89.98660292
_cell_angle_beta   90.00004593
_cell_angle_gamma   90.00021895
_symmetry_Int_Tables_number   1
_chemical_formula_structural   Cd2Hg13(As2Cl3)4
_chemical_formula_sum   'Cd4 Hg26 As16 Cl24'
_cell_volume   1966.91979986
_cell_formula_units_Z   2
loop_
 _symmetry_equiv_pos_site_id
 _symmetry_equiv_pos_as_xyz
  1  'x, y, z'
loop_
 _atom_site_type_symbol
 _atom_site_label
 _atom_site_symmetry_multiplicity
 _atom_site_fract_x
 _atom_site_fract_y
 _atom_site_fract_z
 _atom_site_occupancy
  Cd  Cd0  1  0.50000000  0.50000000  0.50000000  1
  Cd  Cd1  1  -0.00000000  -0.00000000  0.50000000  1
  Cd  Cd2  1  0.50000000  -0.00000000  -0.00000000  1
  Cd  Cd3  1  -0.00000000  0.50000000  -0.00000000  1
  Hg  Hg4  1  -0.00000000  0.50000000  0.50000000  1
  Hg  Hg5  1  0.50000000  -0.00000000  0.50000000  1
  Hg  Hg6  1  0.78209606  0.47197606  0.29161914  1
  Hg  Hg7  1  0.28209523  0.02802326  0.70838072  1
  Hg  Hg8  1  0.21796747  0.97218505  0.20825167  1
  Hg  Hg9  1  0.71796787  0.52781502  0.79174812  1
  Hg  Hg10  1  0.29180401  0.78212221  0.47196043  1
  Hg  Hg11  1  0.70844436  0.28199807  0.02780022  1
  Hg  Hg12  1  0.20844357  0.21799960  0.97219967  1
  Hg  Hg13  1  0.79180325  0.71787880  0.52803969  1
  Hg  Hg14  1  0.47214726  0.29164067  0.78212981  1
  Hg  Hg15  1  0.02798714  0.70827668  0.28199284  1
  Hg  Hg16  1  0.97214678  0.20835991  0.21786946  1
  Hg  Hg17  1  0.52798741  0.79172319  0.71800647  1
  Hg  Hg18  1  0.21790394  0.52802394  0.70838086  1
  Hg  Hg19  1  0.71790477  0.97197674  0.29161928  1
  Hg  Hg20  1  0.78203253  0.02781495  0.79174833  1
  Hg  Hg21  1  0.28203213  0.47218498  0.20825188  1
  Hg  Hg22  1  0.70819599  0.21787779  0.52803957  1
  Hg  Hg23  1  0.29155564  0.71800193  0.97219978  1
  Hg  Hg24  1  0.79155643  0.78200040  0.02780033  1
  Hg  Hg25  1  0.20819675  0.28212120  0.47196031  1
  Hg  Hg26  1  0.52785274  0.70835933  0.21787019  1
  Hg  Hg27  1  0.97201286  0.29172332  0.71800716  1
  Hg  Hg28  1  0.02785322  0.79164009  0.78213054  1
  Hg  Hg29  1  0.47201259  0.20827681  0.28199353  1
  As  As30  1  0.83511742  0.66484601  0.33512161  1
  As  As31  1  0.33511744  0.83515521  0.66487869  1
  As  As32  1  0.16493390  0.16496053  0.16494924  1
  As  As33  1  0.66493368  0.33503977  0.83505118  1
  As  As34  1  0.16488258  0.33515399  0.66487839  1
  As  As35  1  0.66488256  0.16484479  0.33512131  1
  As  As36  1  0.83506610  0.83503947  0.83505076  1
  As  As37  1  0.33506632  0.66496023  0.16494882  1
  As  As38  1  0.78056305  0.28055612  0.21936304  1
  As  As39  1  0.28056251  0.21944431  0.78063810  1
  As  As40  1  0.21965118  0.78036699  0.28027061  1
  As  As41  1  0.71965039  0.71963398  0.71972964  1
  As  As42  1  0.21943695  0.71944388  0.78063696  1
  As  As43  1  0.71943749  0.78055569  0.21936190  1
  As  As44  1  0.78034882  0.21963301  0.71972939  1
  As  As45  1  0.28034961  0.28036602  0.28027036  1
  Cl  Cl46  1  0.54069455  0.46432888  0.29118446  1
  Cl  Cl47  1  0.04069514  0.03567390  0.70881879  1
  Cl  Cl48  1  0.45912901  0.96429887  0.20807417  1
  Cl  Cl49  1  0.95911806  0.53570082  0.79192294  1
  Cl  Cl50  1  0.29181128  0.54082772  0.46420425  1
  Cl  Cl51  1  0.70871040  0.04074439  0.03558619  1
  Cl  Cl52  1  0.20870192  0.45925373  0.96441776  1
  Cl  Cl53  1  0.79181053  0.95917170  0.53579407  1
  Cl  Cl54  1  0.46420406  0.29179487  0.54079277  1
  Cl  Cl55  1  0.03558572  0.70869067  0.04078903  1
  Cl  Cl56  1  0.96420767  0.20819395  0.45920292  1
  Cl  Cl57  1  0.53558954  0.79130865  0.95921735  1
  Cl  Cl58  1  0.45930545  0.53567112  0.70881554  1
  Cl  Cl59  1  0.95930486  0.96432610  0.29118121  1
  Cl  Cl60  1  0.54087099  0.03570113  0.79192583  1
  Cl  Cl61  1  0.04088194  0.46429918  0.20807706  1
  Cl  Cl62  1  0.70818872  0.45917228  0.53579575  1
  Cl  Cl63  1  0.29128960  0.95925561  0.96441381  1
  Cl  Cl64  1  0.79129808  0.54074627  0.03558224  1
  Cl  Cl65  1  0.20818947  0.04082830  0.46420593  1
  Cl  Cl66  1  0.53579594  0.70820513  0.45920723  1
  Cl  Cl67  1  0.96441428  0.29130933  0.95921097  1
  Cl  Cl68  1  0.03579233  0.79180605  0.54079708  1
  Cl  Cl69  1  0.46441046  0.20869135  0.04078265  1
