# generated using pymatgen
data_CaYb3Mn4O12
_symmetry_space_group_name_H-M   'P 1'
_cell_length_a   5.36431526
_cell_length_b   5.25183763
_cell_length_c   7.52266302
_cell_angle_alpha   90.00000000
_cell_angle_beta   90.00000000
_cell_angle_gamma   90.00036884
_symmetry_Int_Tables_number   1
_chemical_formula_structural   CaYb3Mn4O12
_chemical_formula_sum   'Ca1 Yb3 Mn4 O12'
_cell_volume   211.93231979
_cell_formula_units_Z   1
loop_
 _symmetry_equiv_pos_site_id
 _symmetry_equiv_pos_as_xyz
  1  'x, y, z'
loop_
 _atom_site_type_symbol
 _atom_site_label
 _atom_site_symmetry_multiplicity
 _atom_site_fract_x
 _atom_site_fract_y
 _atom_site_fract_z
 _atom_site_occupancy
  Ca  Ca0  1  0.45280376  0.99148719  0.75000000  1
  Yb  Yb1  1  0.94727198  0.51102051  0.75000000  1
  Yb  Yb2  1  0.55439785  0.01116548  0.25000000  1
  Yb  Yb3  1  0.05273205  0.48875057  0.25000000  1
  Mn  Mn4  1  0.49999323  0.49993661  0.49873040  1
  Mn  Mn5  1  0.00065253  -0.00013857  0.00088095  1
  Mn  Mn6  1  0.49999323  0.49993661  0.00126960  1
  Mn  Mn7  1  0.00065253  -0.00013857  0.49911905  1
  O  O8  1  0.20047564  0.69905446  0.96125266  1
  O  O9  1  0.70431191  0.79690346  0.53899529  1
  O  O10  1  0.79602987  0.29721521  0.45770959  1
  O  O11  1  0.29540220  0.20319015  0.04425464  1
  O  O12  1  0.79602987  0.29721521  0.04229041  1
  O  O13  1  0.29540220  0.20319015  0.45574536  1
  O  O14  1  0.20047564  0.69905446  0.53874734  1
  O  O15  1  0.70431191  0.79690346  0.96100471  1
  O  O16  1  0.01807357  0.08056090  0.75000000  1
  O  O17  1  0.52088173  0.42394602  0.75000000  1
  O  O18  1  0.98007507  0.91853145  0.25000000  1
  O  O19  1  0.48003323  0.58221522  0.25000000  1
