# generated using pymatgen
data_CaMgCd
_symmetry_space_group_name_H-M   'P 1'
_cell_length_a   6.01285024
_cell_length_b   6.01295721
_cell_length_c   10.10377747
_cell_angle_alpha   90.00000000
_cell_angle_beta   90.00000000
_cell_angle_gamma   60.66049064
_symmetry_Int_Tables_number   1
_chemical_formula_structural   CaMgCd
_chemical_formula_sum   'Ca4 Mg4 Cd4'
_cell_volume   318.44546164
_cell_formula_units_Z   4
loop_
 _symmetry_equiv_pos_site_id
 _symmetry_equiv_pos_as_xyz
  1  'x, y, z'
loop_
 _atom_site_type_symbol
 _atom_site_label
 _atom_site_symmetry_multiplicity
 _atom_site_fract_x
 _atom_site_fract_y
 _atom_site_fract_z
 _atom_site_occupancy
  Ca  Ca0  1  0.33241982  0.33241092  0.56306285  1
  Ca  Ca1  1  0.66565931  0.66565829  0.44473164  1
  Ca  Ca2  1  0.66565931  0.66565829  0.05526836  1
  Ca  Ca3  1  0.33241982  0.33241092  0.93693715  1
  Mg  Mg4  1  0.83517492  0.83516217  0.75000000  1
  Mg  Mg5  1  0.16773990  0.66391243  0.25000000  1
  Mg  Mg6  1  0.66390782  0.16775284  0.25000000  1
  Mg  Mg7  1  0.16820506  0.16822491  0.25000000  1
  Cd  Cd8  1  0.99817740  0.99818045  0.49774243  1
  Cd  Cd9  1  0.99817740  0.99818045  0.00225757  1
  Cd  Cd10  1  0.83096718  0.34149025  0.75000000  1
  Cd  Cd11  1  0.34149205  0.83095807  0.75000000  1
