# generated using pymatgen
data_MgAl2SiHO7
_symmetry_space_group_name_H-M   'P 1'
_cell_length_a   5.53196247
_cell_length_b   5.53196247
_cell_length_c   17.89645287
_cell_angle_alpha   91.02529925
_cell_angle_beta   97.88413625
_cell_angle_gamma   119.89101707
_symmetry_Int_Tables_number   1
_chemical_formula_structural   MgAl2SiHO7
_chemical_formula_sum   'Mg4 Al8 Si4 H4 O28'
_cell_volume   467.95665648
_cell_formula_units_Z   4
loop_
 _symmetry_equiv_pos_site_id
 _symmetry_equiv_pos_as_xyz
  1  'x, y, z'
loop_
 _atom_site_type_symbol
 _atom_site_label
 _atom_site_symmetry_multiplicity
 _atom_site_fract_x
 _atom_site_fract_y
 _atom_site_fract_z
 _atom_site_occupancy
  Mg  Mg0  1  0.17285590  0.83287779  0.50046886  1
  Mg  Mg1  1  0.82714410  0.16712221  0.49953114  1
  Mg  Mg2  1  0.83240892  0.67238704  0.99953114  1
  Mg  Mg3  1  0.16759108  0.32761296  0.00046886  1
  Al  Al4  1  0.15234067  0.90234067  0.25000000  1
  Al  Al5  1  0.84765933  0.09765933  0.75000000  1
  Al  Al6  1  0.65370977  0.90298441  0.25045978  1
  Al  Al7  1  0.34629023  0.09701559  0.74954022  1
  Al  Al8  1  0.15252463  0.40324999  0.24954022  1
  Al  Al9  1  0.84747537  0.59675001  0.75045978  1
  Al  Al10  1  0.50000000  -0.00000000  0.00000000  1
  Al  Al11  1  0.50000000  0.50000000  0.50000000  1
  Si  Si12  1  0.59469883  0.36700019  0.15628886  1
  Si  Si13  1  0.40530117  0.63299981  0.84371114  1
  Si  Si14  1  0.71071133  0.43840997  0.34371114  1
  Si  Si15  1  0.28928867  0.56159003  0.65628886  1
  H  H16  1  0.87607589  0.03520146  0.11069011  1
  H  H17  1  0.12392411  0.96479854  0.88930989  1
  H  H18  1  0.42451135  0.76538578  0.38930989  1
  H  H19  1  0.57548865  0.23461422  0.61069011  1
  O  O20  1  0.85467863  0.26373124  0.31311603  1
  O  O21  1  0.14532137  0.73626876  0.68688397  1
  O  O22  1  0.45061521  0.54156260  0.18688397  1
  O  O23  1  0.54938479  0.45843740  0.81311603  1
  O  O24  1  0.16001099  0.17539584  0.45427062  1
  O  O25  1  0.83998901  0.82460416  0.54572938  1
  O  O26  1  0.22112521  0.70574037  0.04572938  1
  O  O27  1  0.77887479  0.29425963  0.95427062  1
  O  O28  1  0.53313788  0.32819680  0.06229691  1
  O  O29  1  0.46686212  0.67180320  0.93770309  1
  O  O30  1  0.76589989  0.47084097  0.43770309  1
  O  O31  1  0.23410011  0.52915903  0.56229691  1
  O  O32  1  0.85494646  0.75236877  0.31258842  1
  O  O33  1  0.14505354  0.24763123  0.68741158  1
  O  O34  1  0.93978036  0.54235805  0.18741158  1
  O  O35  1  0.06021964  0.45764195  0.81258842  1
  O  O36  1  0.45198629  0.05341588  0.18792010  1
  O  O37  1  0.54801371  0.94658412  0.81207990  1
  O  O38  1  0.36549578  0.26406619  0.31207990  1
  O  O39  1  0.63450422  0.73593381  0.68792010  1
  O  O40  1  0.95452872  0.05142896  0.20062955  1
  O  O41  1  0.04547128  0.94857104  0.79937045  1
  O  O42  1  0.35079941  0.75389917  0.29937045  1
  O  O43  1  0.64920059  0.24610083  0.70062955  1
  O  O44  1  0.83401791  0.01347918  0.05332072  1
  O  O45  1  0.16598209  0.98652082  0.94667928  1
  O  O46  1  0.46015846  0.78069718  0.44667928  1
  O  O47  1  0.53984154  0.21930282  0.55332072  1
