# generated using pymatgen
data_Ca3Mg5(SiO3)8
_symmetry_space_group_name_H-M   'P 1'
_cell_length_a   5.31413655
_cell_length_b   6.68585787
_cell_length_c   13.28066851
_cell_angle_alpha   89.53875070
_cell_angle_beta   100.66116568
_cell_angle_gamma   77.62206716
_symmetry_Int_Tables_number   1
_chemical_formula_structural   Ca3Mg5(SiO3)8
_chemical_formula_sum   'Ca3 Mg5 Si8 O24'
_cell_volume   452.37259161
_cell_formula_units_Z   1
loop_
 _symmetry_equiv_pos_site_id
 _symmetry_equiv_pos_as_xyz
  1  'x, y, z'
loop_
 _atom_site_type_symbol
 _atom_site_label
 _atom_site_symmetry_multiplicity
 _atom_site_fract_x
 _atom_site_fract_y
 _atom_site_fract_z
 _atom_site_occupancy
  Ca  Ca0  1  0.39749755  0.69984298  0.64791033  1
  Ca  Ca1  1  0.59943922  0.30302111  0.35034218  1
  Ca  Ca2  1  0.10001285  0.29762707  0.84931395  1
  Mg  Mg3  1  0.20507687  0.09201865  0.45214779  1
  Mg  Mg4  1  0.70127999  0.09513741  0.95428699  1
  Mg  Mg5  1  0.29659901  0.90636393  0.04890456  1
  Mg  Mg6  1  0.79607508  0.90763005  0.54383641  1
  Mg  Mg7  1  0.88006047  0.74334409  0.13062143  1
  Si  Si8  1  0.14020262  0.61989015  0.40106148  1
  Si  Si9  1  0.63812222  0.61704449  0.90461928  1
  Si  Si10  1  0.94947834  0.19604478  0.19176498  1
  Si  Si11  1  0.46015710  0.19208117  0.68987791  1
  Si  Si12  1  0.35093716  0.38306713  0.09948656  1
  Si  Si13  1  0.86647843  0.37939377  0.59676499  1
  Si  Si14  1  0.55502743  0.79985566  0.30712061  1
  Si  Si15  1  0.04258820  0.80771068  0.81152821  1
  O  O16  1  0.83859974  0.62398970  0.33502513  1
  O  O17  1  0.33467579  0.63436836  0.83604778  1
  O  O18  1  0.18601033  0.32206083  0.18675853  1
  O  O19  1  0.68394427  0.33431770  0.68411831  1
  O  O20  1  0.65805106  0.36705479  0.16527877  1
  O  O21  1  0.16800255  0.36615449  0.66823711  1
  O  O22  1  0.32174292  0.66709872  0.31409748  1
  O  O23  1  0.81943748  0.66591743  0.81914627  1
  O  O24  1  0.27035312  0.38863244  0.44426686  1
  O  O25  1  0.76567003  0.38353452  0.94304915  1
  O  O26  1  0.97773559  0.11550003  0.30759952  1
  O  O27  1  0.48767324  0.10992896  0.80652451  1
  O  O28  1  0.20439980  0.61860017  0.06566321  1
  O  O29  1  0.73737071  0.61272494  0.55706611  1
  O  O30  1  0.54975095  0.86863080  0.18938789  1
  O  O31  1  0.01454070  0.88725046  0.69522885  1
  O  O32  1  0.13075932  0.79667596  0.48460925  1
  O  O33  1  0.63121455  0.79018797  0.99026811  1
  O  O34  1  0.95902844  0.02299446  0.10510120  1
  O  O35  1  0.46041300  0.02724481  0.60125222  1
  O  O36  1  0.36508564  0.21047233  0.01340419  1
  O  O37  1  0.87289102  0.20255294  0.51442222  1
  O  O38  1  0.54173340  0.97226205  0.39281799  1
  O  O39  1  0.04188378  0.97177202  0.90104170  1
