# generated using pymatgen
data_Bi2(PbS2)3
_symmetry_space_group_name_H-M   'P 1'
_cell_length_a   4.10987463
_cell_length_b   7.13464416
_cell_length_c   20.92851738
_cell_angle_alpha   90.00000000
_cell_angle_beta   90.00000000
_cell_angle_gamma   73.26040314
_symmetry_Int_Tables_number   1
_chemical_formula_structural   Bi2(PbS2)3
_chemical_formula_sum   'Bi4 Pb6 S12'
_cell_volume   587.67095666
_cell_formula_units_Z   2
loop_
 _symmetry_equiv_pos_site_id
 _symmetry_equiv_pos_as_xyz
  1  'x, y, z'
loop_
 _atom_site_type_symbol
 _atom_site_label
 _atom_site_symmetry_multiplicity
 _atom_site_fract_x
 _atom_site_fract_y
 _atom_site_fract_z
 _atom_site_occupancy
  Bi  Bi0  1  0.08986980  0.82026041  0.36450163  1
  Bi  Bi1  1  0.91013020  0.17973959  0.63549837  1
  Bi  Bi2  1  0.08986980  0.82026041  0.13549837  1
  Bi  Bi3  1  0.91013020  0.17973959  0.86450163  1
  Pb  Pb4  1  0.36127181  0.27745638  0.45470442  1
  Pb  Pb5  1  0.63872819  0.72254362  0.54529558  1
  Pb  Pb6  1  0.36127181  0.27745638  0.04529558  1
  Pb  Pb7  1  0.63872819  0.72254362  0.95470442  1
  Pb  Pb8  1  0.83663259  0.32673482  0.25000000  1
  Pb  Pb9  1  0.16336741  0.67326518  0.75000000  1
  S  S10  1  0.18693138  0.62613725  0.25000000  1
  S  S11  1  0.81306862  0.37386275  0.75000000  1
  S  S12  1  0.45592739  0.08814522  0.33483029  1
  S  S13  1  0.54407261  0.91185478  0.66516971  1
  S  S14  1  0.45592739  0.08814522  0.16516971  1
  S  S15  1  0.54407261  0.91185478  0.83483029  1
  S  S16  1  0.72070584  0.55858831  0.40636930  1
  S  S17  1  0.27929416  0.44141169  0.59363070  1
  S  S18  1  0.72070584  0.55858831  0.09363070  1
  S  S19  1  0.27929416  0.44141169  0.90636930  1
  S  S20  1  -0.00000000  0.00000000  0.50000000  1
  S  S21  1  -0.00000000  0.00000000  0.00000000  1
