# generated using pymatgen
data_MgH8C6S2(NO4)2
_symmetry_space_group_name_H-M   'P 1'
_cell_length_a   5.15492474
_cell_length_b   7.44773903
_cell_length_c   8.22859760
_cell_angle_alpha   85.07217820
_cell_angle_beta   81.96884056
_cell_angle_gamma   72.21524093
_symmetry_Int_Tables_number   1
_chemical_formula_structural   MgH8C6S2(NO4)2
_chemical_formula_sum   'Mg1 H8 C6 S2 N2 O8'
_cell_volume   297.55570005
_cell_formula_units_Z   1
loop_
 _symmetry_equiv_pos_site_id
 _symmetry_equiv_pos_as_xyz
  1  'x, y, z'
loop_
 _atom_site_type_symbol
 _atom_site_label
 _atom_site_symmetry_multiplicity
 _atom_site_fract_x
 _atom_site_fract_y
 _atom_site_fract_z
 _atom_site_occupancy
  Mg  Mg0  1  0.00000000  0.00000000  -0.00000000  1
  H  H1  1  0.26015298  0.19582936  0.77010944  1
  H  H2  1  0.73984702  0.80417064  0.22989056  1
  H  H3  1  0.51266361  0.99263129  0.18051858  1
  H  H4  1  0.48733639  0.00736871  0.81948142  1
  H  H5  1  0.23884221  0.63064647  0.09663523  1
  H  H6  1  0.76115779  0.36935353  0.90336477  1
  H  H7  1  0.46147591  0.70339630  0.98111135  1
  H  H8  1  0.53852409  0.29660370  0.01888865  1
  C  C9  1  0.48012490  0.41648552  0.53846108  1
  C  C10  1  0.51987510  0.58351448  0.46153892  1
  C  C11  1  0.10899255  0.29845762  0.20626380  1
  C  C12  1  0.89100745  0.70154238  0.79373620  1
  C  C13  1  0.13759006  0.61751199  0.67491345  1
  C  C14  1  0.86240994  0.38248801  0.32508655  1
  S  S15  1  0.72781773  0.22570736  0.45329778  1
  S  S16  1  0.27218227  0.77429264  0.54670222  1
  N  N17  1  0.26412381  0.43518716  0.65747642  1
  N  N18  1  0.73587619  0.56481284  0.34252358  1
  O  O19  1  0.28002843  0.74800980  0.05015815  1
  O  O20  1  0.71997157  0.25199020  0.94984185  1
  O  O21  1  0.28640642  0.06516614  0.81592019  1
  O  O22  1  0.71359358  0.93483386  0.18407981  1
  O  O23  1  0.24651599  0.40289604  0.13606163  1
  O  O24  1  0.75348401  0.59710396  0.86393837  1
  O  O25  1  0.16410160  0.12129585  0.18763447  1
  O  O26  1  0.83589840  0.87870415  0.81236553  1
