# generated using pymatgen
data_Ca10Si6F
_symmetry_space_group_name_H-M   'P 1'
_cell_length_a   7.62904059
_cell_length_b   7.62904059
_cell_length_c   9.14352772
_cell_angle_alpha   65.34316194
_cell_angle_beta   65.34316194
_cell_angle_gamma   90.00000000
_symmetry_Int_Tables_number   1
_chemical_formula_structural   Ca10Si6F
_chemical_formula_sum   'Ca10 Si6 F1'
_cell_volume   429.68474100
_cell_formula_units_Z   1
loop_
 _symmetry_equiv_pos_site_id
 _symmetry_equiv_pos_as_xyz
  1  'x, y, z'
loop_
 _atom_site_type_symbol
 _atom_site_label
 _atom_site_symmetry_multiplicity
 _atom_site_fract_x
 _atom_site_fract_y
 _atom_site_fract_z
 _atom_site_occupancy
  Ca  Ca0  1  0.31706576  0.81706576  0.70244174  1
  Ca  Ca1  1  0.98049250  0.48049250  0.70244174  1
  Ca  Ca2  1  0.46414174  0.32003584  0.71582242  1
  Ca  Ca3  1  0.82003584  0.96414174  0.71582242  1
  Ca  Ca4  1  0.67996416  0.17996416  0.28417758  1
  Ca  Ca5  1  0.03585826  0.53585826  0.28417758  1
  Ca  Ca6  1  0.51950750  0.68293424  0.29755826  1
  Ca  Ca7  1  0.18293424  0.01950750  0.29755826  1
  Ca  Ca8  1  0.50000000  0.50000000  0.00000000  1
  Ca  Ca9  1  -0.00000000  -0.00000000  0.00000000  1
  Si  Si10  1  0.75000000  0.75000000  0.50000000  1
  Si  Si11  1  0.25000000  0.25000000  0.50000000  1
  Si  Si12  1  0.38978693  0.88978693  0.99585655  1
  Si  Si13  1  0.61435652  0.11435652  0.99585655  1
  Si  Si14  1  0.11021307  0.38564348  0.00414345  1
  Si  Si15  1  0.88564348  0.61021307  0.00414345  1
  F  F16  1  0.25000000  0.75000000  0.50000000  1
