# generated using pymatgen
data_Ca3LaMn2(IrO6)2
_symmetry_space_group_name_H-M   'P 1'
_cell_length_a   5.53106381
_cell_length_b   5.68850895
_cell_length_c   7.86046658
_cell_angle_alpha   89.87341315
_cell_angle_beta   89.93221868
_cell_angle_gamma   89.92974348
_symmetry_Int_Tables_number   1
_chemical_formula_structural   Ca3LaMn2(IrO6)2
_chemical_formula_sum   'Ca3 La1 Mn2 Ir2 O12'
_cell_volume   247.31687554
_cell_formula_units_Z   1
loop_
 _symmetry_equiv_pos_site_id
 _symmetry_equiv_pos_as_xyz
  1  'x, y, z'
loop_
 _atom_site_type_symbol
 _atom_site_label
 _atom_site_symmetry_multiplicity
 _atom_site_fract_x
 _atom_site_fract_y
 _atom_site_fract_z
 _atom_site_occupancy
  Ca  Ca0  1  0.48967849  0.44714872  0.25041527  1
  Ca  Ca1  1  0.00887361  0.94405976  0.25053131  1
  Ca  Ca2  1  0.51121329  0.55619483  0.74949282  1
  La  La3  1  0.98926447  0.05214250  0.75069818  1
  Mn  Mn4  1  0.00142445  0.50227651  0.00607141  1
  Mn  Mn5  1  0.49804715  0.00024031  0.49320450  1
  Ir  Ir6  1  -0.00004048  0.50074261  0.49641799  1
  Ir  Ir7  1  0.49921490  -0.00010804  0.00417538  1
  O  O8  1  0.89940761  0.53402249  0.25806415  1
  O  O9  1  0.59847867  0.03989777  0.24288537  1
  O  O10  1  0.09681030  0.47669597  0.74259949  1
  O  O11  1  0.41377278  0.96770634  0.75590343  1
  O  O12  1  0.31626185  0.70772736  0.05161221  1
  O  O13  1  0.18098640  0.20299252  0.45143154  1
  O  O14  1  0.70961444  0.30676693  0.55301095  1
  O  O15  1  0.79372443  0.80485725  0.95553990  1
  O  O16  1  0.68920021  0.28780462  0.94523524  1
  O  O17  1  0.81014803  0.79142487  0.54655757  1
  O  O18  1  0.29422991  0.68974537  0.45046741  1
  O  O19  1  0.19968947  0.18766129  0.04568589  1
