# generated using pymatgen
data_BaSr3Zr4O12
_symmetry_space_group_name_H-M   'P 1'
_cell_length_a   5.91100323
_cell_length_b   5.93700976
_cell_length_c   8.35254720
_cell_angle_alpha   90.00000000
_cell_angle_beta   90.00000000
_cell_angle_gamma   90.00808654
_symmetry_Int_Tables_number   1
_chemical_formula_structural   BaSr3Zr4O12
_chemical_formula_sum   'Ba1 Sr3 Zr4 O12'
_cell_volume   293.12164800
_cell_formula_units_Z   1
loop_
 _symmetry_equiv_pos_site_id
 _symmetry_equiv_pos_as_xyz
  1  'x, y, z'
loop_
 _atom_site_type_symbol
 _atom_site_label
 _atom_site_symmetry_multiplicity
 _atom_site_fract_x
 _atom_site_fract_y
 _atom_site_fract_z
 _atom_site_occupancy
  Ba  Ba0  1  0.49635985  0.01255352  0.25000000  1
  Sr  Sr1  1  0.00880631  0.52625879  0.25000000  1
  Sr  Sr2  1  0.50635267  0.96977199  0.75000000  1
  Sr  Sr3  1  0.99797045  0.47865741  0.75000000  1
  Zr  Zr4  1  0.50000082  0.49716880  0.99751215  1
  Zr  Zr5  1  0.00126051  0.00118235  0.50309932  1
  Zr  Zr6  1  0.50000082  0.49716880  0.50248785  1
  Zr  Zr7  1  0.00126051  0.00118235  0.99690068  1
  O  O8  1  0.57446689  0.49718439  0.25000000  1
  O  O9  1  0.94714305  0.98078818  0.25000000  1
  O  O10  1  0.42667526  0.51178075  0.75000000  1
  O  O11  1  0.07883163  0.02325354  0.75000000  1
  O  O12  1  0.27069489  0.77164833  0.02693179  1
  O  O13  1  0.21636879  0.28360845  0.46277797  1
  O  O14  1  0.71995264  0.22036584  0.54027144  1
  O  O15  1  0.77341930  0.72590195  0.95893006  1
  O  O16  1  0.71995264  0.22036584  0.95972856  1
  O  O17  1  0.77341930  0.72590195  0.54106994  1
  O  O18  1  0.27069489  0.77164833  0.47306821  1
  O  O19  1  0.21636879  0.28360845  0.03722203  1
