# generated using pymatgen
data_Ca2LaMn3O9
_symmetry_space_group_name_H-M   'P 1'
_cell_length_a   5.43580120
_cell_length_b   7.73036321
_cell_length_c   16.36513860
_cell_angle_alpha   90.00000000
_cell_angle_beta   90.00000000
_cell_angle_gamma   90.00000000
_symmetry_Int_Tables_number   1
_chemical_formula_structural   Ca2LaMn3O9
_chemical_formula_sum   'Ca8 La4 Mn12 O36'
_cell_volume   687.67486781
_cell_formula_units_Z   4
loop_
 _symmetry_equiv_pos_site_id
 _symmetry_equiv_pos_as_xyz
  1  'x, y, z'
loop_
 _atom_site_type_symbol
 _atom_site_label
 _atom_site_symmetry_multiplicity
 _atom_site_fract_x
 _atom_site_fract_y
 _atom_site_fract_z
 _atom_site_occupancy
  Ca  Ca0  1  0.51082889  0.75000000  0.48649347  1
  Ca  Ca1  1  0.50503709  0.75000000  0.82210808  1
  Ca  Ca2  1  0.99496291  0.75000000  0.32210808  1
  Ca  Ca3  1  0.98917111  0.75000000  0.98649347  1
  Ca  Ca4  1  0.49496291  0.25000000  0.17789192  1
  Ca  Ca5  1  0.48917111  0.25000000  0.51350653  1
  Ca  Ca6  1  0.01082889  0.25000000  0.01350653  1
  Ca  Ca7  1  0.00503709  0.25000000  0.67789192  1
  La  La8  1  0.50425677  0.75000000  0.15928082  1
  La  La9  1  0.99574323  0.75000000  0.65928082  1
  La  La10  1  0.49574323  0.25000000  0.84071918  1
  La  La11  1  0.00425677  0.25000000  0.34071918  1
  Mn  Mn12  1  0.00076544  0.00118841  0.16480521  1
  Mn  Mn13  1  -0.00000000  0.00000000  0.50000000  1
  Mn  Mn14  1  0.99923456  0.99881159  0.83519479  1
  Mn  Mn15  1  0.50000000  0.50000000  -0.00000000  1
  Mn  Mn16  1  0.50076544  0.50118841  0.33519479  1
  Mn  Mn17  1  0.49923456  0.49881159  0.66480521  1
  Mn  Mn18  1  0.00076544  0.49881159  0.16480521  1
  Mn  Mn19  1  -0.00000000  0.50000000  0.50000000  1
  Mn  Mn20  1  0.99923456  0.50118841  0.83519479  1
  Mn  Mn21  1  0.50000000  0.00000000  -0.00000000  1
  Mn  Mn22  1  0.50076544  0.99881159  0.33519479  1
  Mn  Mn23  1  0.49923456  0.00118841  0.66480521  1
  O  O24  1  0.41798815  0.75000000  0.00636489  1
  O  O25  1  0.42713105  0.75000000  0.33643776  1
  O  O26  1  0.43775390  0.75000000  0.67172447  1
  O  O27  1  0.06224610  0.75000000  0.17172447  1
  O  O28  1  0.08201185  0.75000000  0.50636489  1
  O  O29  1  0.07286895  0.75000000  0.83643776  1
  O  O30  1  0.56224610  0.25000000  0.32827553  1
  O  O31  1  0.57286895  0.25000000  0.66356224  1
  O  O32  1  0.58201185  0.25000000  0.99363511  1
  O  O33  1  0.92713105  0.25000000  0.16356224  1
  O  O34  1  0.91798815  0.25000000  0.49363511  1
  O  O35  1  0.93775390  0.25000000  0.82827553  1
  O  O36  1  0.78471198  0.95621911  0.07142468  1
  O  O37  1  0.79174977  0.96050599  0.40407408  1
  O  O38  1  0.77704849  0.96738889  0.74011815  1
  O  O39  1  0.72295151  0.53261111  0.24011815  1
  O  O40  1  0.71528802  0.54378089  0.57142468  1
  O  O41  1  0.70825023  0.53949401  0.90407408  1
  O  O42  1  0.22295151  0.46738889  0.25988185  1
  O  O43  1  0.20825023  0.46050599  0.59592592  1
  O  O44  1  0.21528802  0.45621911  0.92857532  1
  O  O45  1  0.29174977  0.03949401  0.09592592  1
  O  O46  1  0.28471198  0.04378089  0.42857532  1
  O  O47  1  0.27704849  0.03261111  0.75988185  1
  O  O48  1  0.22295151  0.03261111  0.25988185  1
  O  O49  1  0.20825023  0.03949401  0.59592592  1
  O  O50  1  0.21528802  0.04378089  0.92857532  1
  O  O51  1  0.29174977  0.46050599  0.09592592  1
  O  O52  1  0.28471198  0.45621911  0.42857532  1
  O  O53  1  0.27704849  0.46738889  0.75988185  1
  O  O54  1  0.78471198  0.54378089  0.07142468  1
  O  O55  1  0.79174977  0.53949401  0.40407408  1
  O  O56  1  0.77704849  0.53261111  0.74011815  1
  O  O57  1  0.72295151  0.96738889  0.24011815  1
  O  O58  1  0.71528802  0.95621911  0.57142468  1
  O  O59  1  0.70825023  0.96050599  0.90407408  1
