# generated using pymatgen
data_Ba4Sr2Lu3(BiO6)3
_symmetry_space_group_name_H-M   'P 1'
_cell_length_a   6.04412263
_cell_length_b   6.04412263
_cell_length_c   14.81995414
_cell_angle_alpha   89.56544462
_cell_angle_beta   89.56544462
_cell_angle_gamma   59.99936157
_symmetry_Int_Tables_number   1
_chemical_formula_structural   Ba4Sr2Lu3(BiO6)3
_chemical_formula_sum   'Ba4 Sr2 Lu3 Bi3 O18'
_cell_volume   468.83991246
_cell_formula_units_Z   1
loop_
 _symmetry_equiv_pos_site_id
 _symmetry_equiv_pos_as_xyz
  1  'x, y, z'
loop_
 _atom_site_type_symbol
 _atom_site_label
 _atom_site_symmetry_multiplicity
 _atom_site_fract_x
 _atom_site_fract_y
 _atom_site_fract_z
 _atom_site_occupancy
  Ba  Ba0  1  0.00019099  0.00019099  0.75166671  1
  Ba  Ba1  1  0.99841462  0.99841462  0.24881926  1
  Ba  Ba2  1  0.33139560  0.33139560  0.58072086  1
  Ba  Ba3  1  0.66534811  0.66534811  0.91678429  1
  Sr  Sr4  1  0.33669000  0.33669000  0.08699672  1
  Sr  Sr5  1  0.67023186  0.67023186  0.42162525  1
  Lu  Lu6  1  0.66662672  0.66662672  0.16746757  1
  Lu  Lu7  1  0.99958383  0.99958383  0.49808835  1
  Lu  Lu8  1  0.33353763  0.33353763  0.83487354  1
  Bi  Bi9  1  -0.00023861  -0.00023861  0.00171595  1
  Bi  Bi10  1  0.33388704  0.33388704  0.33259250  1
  Bi  Bi11  1  0.66676309  0.66676309  0.66562291  1
  O  O12  1  0.52550727  0.52550727  0.27919227  1
  O  O13  1  0.85206350  0.85206350  0.60430710  1
  O  O14  1  0.18976223  0.18976223  0.94487882  1
  O  O15  1  0.81502868  0.81502868  0.06288422  1
  O  O16  1  0.14918121  0.14918121  0.39510756  1
  O  O17  1  0.48286661  0.48286661  0.72927525  1
  O  O18  1  0.30890633  0.79945614  0.09332283  1
  O  O19  1  0.64103698  0.13289403  0.42496385  1
  O  O20  1  0.97680331  0.47799479  0.75885374  1
  O  O21  1  0.51622834  0.03537506  0.23531172  1
  O  O22  1  0.84893702  0.36514475  0.56908008  1
  O  O23  1  0.18652563  0.69385726  0.90715821  1
  O  O24  1  0.03537506  0.51622834  0.23531172  1
  O  O25  1  0.36514475  0.84893702  0.56908008  1
  O  O26  1  0.69385726  0.18652563  0.90715821  1
  O  O27  1  0.79945614  0.30890633  0.09332283  1
  O  O28  1  0.13289403  0.64103698  0.42496385  1
  O  O29  1  0.47799479  0.97680331  0.75885374  1
