# generated using pymatgen
data_Bi19(S9Br)3
_symmetry_space_group_name_H-M   'P 1'
_cell_length_a   12.12849852
_cell_length_b   16.12345780
_cell_length_c   16.11830295
_cell_angle_alpha   113.83431611
_cell_angle_beta   75.52614622
_cell_angle_gamma   75.45225311
_symmetry_Int_Tables_number   1
_chemical_formula_structural   Bi19(S9Br)3
_chemical_formula_sum   'Bi38 S54 Br6'
_cell_volume   2561.47442628
_cell_formula_units_Z   2
loop_
 _symmetry_equiv_pos_site_id
 _symmetry_equiv_pos_as_xyz
  1  'x, y, z'
loop_
 _atom_site_type_symbol
 _atom_site_label
 _atom_site_symmetry_multiplicity
 _atom_site_fract_x
 _atom_site_fract_y
 _atom_site_fract_z
 _atom_site_occupancy
  Bi  Bi0  1  0.11577890  0.38992948  0.51483641  1
  Bi  Bi1  1  0.77837954  0.39090473  0.51722081  1
  Bi  Bi2  1  0.44357846  0.39155650  0.51690173  1
  Bi  Bi3  1  0.16965881  0.12629385  0.60918259  1
  Bi  Bi4  1  0.83547026  0.12529209  0.60860831  1
  Bi  Bi5  1  0.50580364  0.12496224  0.61004942  1
  Bi  Bi6  1  0.96071135  0.48340525  0.87457873  1
  Bi  Bi7  1  0.63048572  0.48522055  0.87507043  1
  Bi  Bi8  1  0.29553893  0.48302440  0.87373928  1
  Bi  Bi9  1  0.54742797  0.61031066  0.48447187  1
  Bi  Bi10  1  0.21809887  0.60871915  0.48428338  1
  Bi  Bi11  1  0.88617831  0.60876899  0.48247000  1
  Bi  Bi12  1  0.49472207  0.87378996  0.39101901  1
  Bi  Bi13  1  0.15737942  0.87423955  0.39017426  1
  Bi  Bi14  1  0.82638536  0.87563450  0.39105641  1
  Bi  Bi15  1  0.70226758  0.51531853  0.12442752  1
  Bi  Bi16  1  0.36880609  0.51708119  0.12619505  1
  Bi  Bi17  1  0.03210711  0.51569057  0.12566302  1
  Bi  Bi18  1  0.84573891  0.99965531  0.99951932  1
  Bi  Bi19  1  0.34971384  0.00131144  0.00132714  1
  Bi  Bi20  1  0.06245152  0.29501982  0.24354473  1
  Bi  Bi21  1  0.40852872  0.29098763  0.23462061  1
  Bi  Bi22  1  0.73821027  0.29500045  0.24642716  1
  Bi  Bi23  1  0.69983426  0.94343782  0.70784264  1
  Bi  Bi24  1  0.03337713  0.95136952  0.70551883  1
  Bi  Bi25  1  0.35762779  0.94870286  0.70596360  1
  Bi  Bi26  1  0.98477359  0.75401584  0.04882114  1
  Bi  Bi27  1  0.30681842  0.75732665  0.05137133  1
  Bi  Bi28  1  0.64351030  0.76459941  0.05670927  1
  Bi  Bi29  1  0.26030132  0.70915544  0.76576946  1
  Bi  Bi30  1  0.59889701  0.70557545  0.75451699  1
  Bi  Bi31  1  0.92327531  0.70531608  0.75595471  1
  Bi  Bi32  1  0.62854913  0.05098260  0.29397624  1
  Bi  Bi33  1  0.96849209  0.05642150  0.29204805  1
  Bi  Bi34  1  0.30454624  0.04858421  0.29396366  1
  Bi  Bi35  1  0.35294477  0.24503300  0.95106265  1
  Bi  Bi36  1  0.67928112  0.24332087  0.94893198  1
  Bi  Bi37  1  0.02457609  0.23526227  0.94323212  1
  S  S38  1  0.36369521  0.26205905  0.39697459  1
  S  S39  1  0.02675244  0.26463740  0.40079165  1
  S  S40  1  0.69250799  0.26398012  0.40185641  1
  S  S41  1  0.29149428  0.13615969  0.73532972  1
  S  S42  1  0.95708584  0.13780066  0.73625975  1
  S  S43  1  0.62572183  0.13472469  0.73791223  1
  S  S44  1  0.09428467  0.59880265  0.86243786  1
  S  S45  1  0.76002027  0.60338006  0.86554716  1
  S  S46  1  0.42699325  0.59958338  0.86409273  1
  S  S47  1  0.30291778  0.73789390  0.60322622  1
  S  S48  1  0.96946926  0.73601453  0.59931581  1
  S  S49  1  0.63649406  0.73569079  0.59811500  1
  S  S50  1  0.37212720  0.86236890  0.26437774  1
  S  S51  1  0.04101161  0.86534609  0.26198136  1
  S  S52  1  0.70488999  0.86357784  0.26376373  1
  S  S53  1  0.56901831  0.39990240  0.13630752  1
  S  S54  1  0.23521733  0.40147063  0.13721182  1
  S  S55  1  0.90689754  0.39628936  0.13434825  1
  S  S56  1  0.46661559  0.45251336  0.38761757  1
  S  S57  1  0.13592573  0.45360359  0.38779343  1
  S  S58  1  0.80117445  0.45263736  0.38828783  1
  S  S59  1  0.25368626  0.93609679  0.54768589  1
  S  S60  1  0.91887639  0.93529894  0.54807146  1
  S  S61  1  0.59108089  0.93452587  0.54686233  1
  S  S62  1  0.52530684  0.61194839  0.06547723  1
  S  S63  1  0.18981016  0.61125065  0.06386991  1
  S  S64  1  0.85411776  0.61236925  0.06461995  1
  S  S65  1  0.19543936  0.54804722  0.61355810  1
  S  S66  1  0.86351517  0.54684427  0.61137493  1
  S  S67  1  0.52861780  0.54659641  0.61149047  1
  S  S68  1  0.41058693  0.06410949  0.45272581  1
  S  S69  1  0.07380280  0.06461766  0.45292781  1
  S  S70  1  0.74409177  0.06532444  0.45120105  1
  S  S71  1  0.13866705  0.38856710  0.93533480  1
  S  S72  1  0.80957326  0.38627171  0.93473128  1
  S  S73  1  0.47474828  0.38890417  0.93585984  1
  S  S74  1  0.29511474  0.16544283  0.18881429  1
  S  S75  1  0.96414814  0.16373177  0.18440215  1
  S  S76  1  0.63855349  0.15950385  0.18057940  1
  S  S77  1  0.12783279  0.02103052  0.83689276  1
  S  S78  1  0.79744441  0.02182387  0.84007871  1
  S  S79  1  0.46151011  0.02306014  0.83480909  1
  S  S80  1  0.81899992  0.81821038  0.97833422  1
  S  S81  1  0.48472405  0.81130580  0.97642042  1
  S  S82  1  0.14834747  0.81611388  0.97925619  1
  S  S83  1  0.36581266  0.84111755  0.81924227  1
  S  S84  1  0.03153488  0.83523587  0.81295405  1
  S  S85  1  0.69628039  0.83654380  0.81569979  1
  S  S86  1  0.53264610  0.97886360  0.16282584  1
  S  S87  1  0.20602689  0.97808015  0.15852840  1
  S  S88  1  0.86726024  0.97703929  0.16511272  1
  S  S89  1  0.84430007  0.18816964  0.02310373  1
  S  S90  1  0.51213345  0.18376081  0.02074906  1
  S  S91  1  0.18415403  0.18074961  0.02204634  1
  Br  Br92  1  0.41492987  0.66630447  0.33296848  1
  Br  Br93  1  0.08115903  0.66670466  0.33342812  1
  Br  Br94  1  0.74816325  0.66671860  0.33310855  1
  Br  Br95  1  0.24656190  0.33321908  0.66665956  1
  Br  Br96  1  0.91326675  0.33348644  0.66667061  1
  Br  Br97  1  0.58009977  0.33335422  0.66690618  1
