# generated using pymatgen
data_Ca4Ga3FeO10
_symmetry_space_group_name_H-M   'P 1'
_cell_length_a   5.44405752
_cell_length_b   5.66796601
_cell_length_c   14.80692194
_cell_angle_alpha   90.00275505
_cell_angle_beta   90.00000000
_cell_angle_gamma   90.00000000
_symmetry_Int_Tables_number   1
_chemical_formula_structural   Ca4Ga3FeO10
_chemical_formula_sum   'Ca8 Ga6 Fe2 O20'
_cell_volume   456.89323629
_cell_formula_units_Z   2
loop_
 _symmetry_equiv_pos_site_id
 _symmetry_equiv_pos_as_xyz
  1  'x, y, z'
loop_
 _atom_site_type_symbol
 _atom_site_label
 _atom_site_symmetry_multiplicity
 _atom_site_fract_x
 _atom_site_fract_y
 _atom_site_fract_z
 _atom_site_occupancy
  Ca  Ca0  1  0.97904033  0.47323412  0.10840179  1
  Ca  Ca1  1  0.47904033  0.02676588  0.39159821  1
  Ca  Ca2  1  0.02019993  0.52715780  0.60853175  1
  Ca  Ca3  1  0.52019993  0.97284220  0.89146825  1
  Ca  Ca4  1  0.02095967  0.52676588  0.89159821  1
  Ca  Ca5  1  0.52095967  0.97323412  0.60840179  1
  Ca  Ca6  1  0.97980007  0.47284220  0.39146825  1
  Ca  Ca7  1  0.47980007  0.02715780  0.10853175  1
  Ga  Ga8  1  0.44791786  0.56936520  0.24980883  1
  Ga  Ga9  1  0.94791786  0.93063480  0.25019117  1
  Ga  Ga10  1  0.55208214  0.43063480  0.75019117  1
  Ga  Ga11  1  0.05208214  0.06936520  0.74980883  1
  Ga  Ga12  1  0.50000000  0.50000000  -0.00000000  1
  Ga  Ga13  1  -0.00000000  0.00000000  0.50000000  1
  Fe  Fe14  1  0.50000000  0.50000000  0.50000000  1
  Fe  Fe15  1  -0.00000000  0.00000000  -0.00000000  1
  O  O16  1  0.76643749  0.27085481  0.98429315  1
  O  O17  1  0.26643749  0.22914519  0.51570685  1
  O  O18  1  0.23038600  0.73361057  0.48438244  1
  O  O19  1  0.73038600  0.76638943  0.01561756  1
  O  O20  1  0.23356251  0.72914519  0.01570685  1
  O  O21  1  0.73356251  0.77085481  0.48429315  1
  O  O22  1  0.76961400  0.26638943  0.51561756  1
  O  O23  1  0.26961400  0.23361057  0.98438244  1
  O  O24  1  0.09945480  0.62543534  0.24995705  1
  O  O25  1  0.59945480  0.87456466  0.25004295  1
  O  O26  1  0.90054520  0.37456466  0.75004295  1
  O  O27  1  0.40054520  0.12543534  0.74995705  1
  O  O28  1  0.52787793  0.42506443  0.14226719  1
  O  O29  1  0.02787793  0.07493557  0.35773281  1
  O  O30  1  0.47289177  0.57353243  0.64192527  1
  O  O31  1  0.97289177  0.92646757  0.85807473  1
  O  O32  1  0.47212207  0.57493557  0.85773281  1
  O  O33  1  0.97212207  0.92506443  0.64226719  1
  O  O34  1  0.52710823  0.42646757  0.35807473  1
  O  O35  1  0.02710823  0.07353243  0.14192527  1
