# generated using pymatgen
data_Al2Zn(SeS)2
_symmetry_space_group_name_H-M   'P 1'
_cell_length_a   5.52439072
_cell_length_b   5.49223351
_cell_length_c   6.63993944
_cell_angle_alpha   64.88698863
_cell_angle_beta   64.73766036
_cell_angle_gamma   88.50828077
_symmetry_Int_Tables_number   1
_chemical_formula_structural   Al2Zn(SeS)2
_chemical_formula_sum   'Al2 Zn1 Se2 S2'
_cell_volume   161.98829750
_cell_formula_units_Z   1
loop_
 _symmetry_equiv_pos_site_id
 _symmetry_equiv_pos_as_xyz
  1  'x, y, z'
loop_
 _atom_site_type_symbol
 _atom_site_label
 _atom_site_symmetry_multiplicity
 _atom_site_fract_x
 _atom_site_fract_y
 _atom_site_fract_z
 _atom_site_occupancy
  Al  Al0  1  0.50490870  0.50490870  0.99018260  1
  Al  Al1  1  0.74458377  0.24458377  0.51083246  1
  Zn  Zn2  1  0.00417593  0.00417593  0.99164815  1
  Se  Se3  1  0.60024577  0.62470077  0.26322437  1
  Se  Se4  1  0.13652986  0.11207486  0.26322437  1
  S  S5  1  0.86606526  0.38131824  0.74044403  1
  S  S6  1  0.39349071  0.87823774  0.74044403  1
