# generated using pymatgen
data_Ba6La2Ga4O15
_symmetry_space_group_name_H-M   'P 1'
_cell_length_a   7.20463487
_cell_length_b   12.02282244
_cell_length_c   11.96754108
_cell_angle_alpha   120.15287394
_cell_angle_beta   89.69534162
_cell_angle_gamma   90.60645124
_symmetry_Int_Tables_number   1
_chemical_formula_structural   Ba6La2Ga4O15
_chemical_formula_sum   'Ba12 La4 Ga8 O30'
_cell_volume   896.31066241
_cell_formula_units_Z   2
loop_
 _symmetry_equiv_pos_site_id
 _symmetry_equiv_pos_as_xyz
  1  'x, y, z'
loop_
 _atom_site_type_symbol
 _atom_site_label
 _atom_site_symmetry_multiplicity
 _atom_site_fract_x
 _atom_site_fract_y
 _atom_site_fract_z
 _atom_site_occupancy
  Ba  Ba0  1  0.49334551  0.99952745  0.99940555  1
  Ba  Ba1  1  0.99333896  0.00013199  0.00059697  1
  Ba  Ba2  1  0.00751112  0.33077027  0.66520628  1
  Ba  Ba3  1  0.50750282  0.66559354  0.33479005  1
  Ba  Ba4  1  0.65526545  0.47885518  0.52230719  1
  Ba  Ba5  1  0.15526110  0.95654630  0.47769241  1
  Ba  Ba6  1  0.32357108  0.17178366  0.82497925  1
  Ba  Ba7  1  0.32352601  0.65418530  0.82500620  1
  Ba  Ba8  1  0.32367021  0.17480172  0.34792213  1
  Ba  Ba9  1  0.82352489  0.82918873  0.17499127  1
  Ba  Ba10  1  0.82356104  0.34682196  0.17503443  1
  Ba  Ba11  1  0.82366622  0.82687111  0.65207596  1
  La  La12  1  0.65227277  0.04208179  0.52093764  1
  La  La13  1  0.64739969  0.48002269  0.95993973  1
  La  La14  1  0.15228372  0.52114320  0.47903974  1
  La  La15  1  0.14740817  0.52009279  0.04006203  1
  Ga  Ga16  1  0.81833610  0.18167355  0.82586669  1
  Ga  Ga17  1  0.82723961  0.64209626  0.82288686  1
  Ga  Ga18  1  0.82179185  0.18014456  0.35642919  1
  Ga  Ga19  1  0.32723052  0.81920897  0.17711128  1
  Ga  Ga20  1  0.31834351  0.35580782  0.17413338  1
  Ga  Ga21  1  0.32179251  0.82371381  0.64357040  1
  Ga  Ga22  1  0.45874715  0.33855953  0.67007941  1
  Ga  Ga23  1  0.95874366  0.66848530  0.32992066  1
  O  O24  1  0.64438762  0.25245888  0.75712563  1
  O  O25  1  0.64537882  0.50277362  0.76266957  1
  O  O26  1  0.64652672  0.24099845  0.49820410  1
  O  O27  1  0.14537752  0.74010529  0.23733371  1
  O  O28  1  0.14438842  0.49532951  0.24287210  1
  O  O29  1  0.14652994  0.74279613  0.50179780  1
  O  O30  1  0.45587539  0.66831896  0.06551920  1
  O  O31  1  0.43993019  0.39304445  0.32416459  1
  O  O32  1  0.47190554  0.93354817  0.61025821  1
  O  O33  1  0.45294293  0.39625108  0.06360867  1
  O  O34  1  0.47250379  0.92992263  0.32112313  1
  O  O35  1  0.44251587  0.67515447  0.60865338  1
  O  O36  1  0.95293340  0.33264337  0.93638904  1
  O  O37  1  0.97250544  0.60880899  0.67887574  1
  O  O38  1  0.94252421  0.06650589  0.39134903  1
  O  O39  1  0.95588018  0.60280548  0.93448751  1
  O  O40  1  0.93993191  0.06889079  0.67583719  1
  O  O41  1  0.97190254  0.32328841  0.38973718  1
  O  O42  1  0.22290372  0.90091850  0.09786373  1
  O  O43  1  0.22097541  0.19196017  0.08992956  1
  O  O44  1  0.21906663  0.90873392  0.80635143  1
  O  O45  1  0.72096592  0.10202985  0.91006914  1
  O  O46  1  0.72290858  0.80305413  0.90213908  1
  O  O47  1  0.71906194  0.10237651  0.19364926  1
  O  O48  1  0.31057337  0.41653763  0.58922320  1
  O  O49  1  0.32990278  0.17707157  0.59082846  1
  O  O50  1  0.31964348  0.41870948  0.83543061  1
  O  O51  1  0.82990433  0.58625013  0.40917687  1
  O  O52  1  0.81057792  0.82731942  0.41077633  1
  O  O53  1  0.81964184  0.58328662  0.16457187  1
