# generated using pymatgen
data_Ba2SrV2O8
_symmetry_space_group_name_H-M   'P 1'
_cell_length_a   5.84797545
_cell_length_b   5.84797545
_cell_length_c   7.81954450
_cell_angle_alpha   89.99999848
_cell_angle_beta   111.95839762
_cell_angle_gamma   60.00000352
_symmetry_Int_Tables_number   1
_chemical_formula_structural   Ba2SrV2O8
_chemical_formula_sum   'Ba2 Sr1 V2 O8'
_cell_volume   208.89082720
_cell_formula_units_Z   1
loop_
 _symmetry_equiv_pos_site_id
 _symmetry_equiv_pos_as_xyz
  1  'x, y, z'
loop_
 _atom_site_type_symbol
 _atom_site_label
 _atom_site_symmetry_multiplicity
 _atom_site_fract_x
 _atom_site_fract_y
 _atom_site_fract_z
 _atom_site_occupancy
  Ba  Ba0  1  0.59216708  0.20391646  0.38825061  1
  Ba  Ba1  1  0.99953827  0.00023086  0.99930741  1
  Sr  Sr2  1  0.40996055  0.79501972  0.61494083  1
  V  V3  1  0.81450801  0.59274600  0.22176201  1
  V  V4  1  0.18385970  0.40807015  0.77578955  1
  O  O5  1  0.64938675  0.67530663  0.97408012  1
  O  O6  1  0.34676599  0.32661700  0.02014899  1
  O  O7  1  0.54757759  0.72621121  0.30781864  1
  O  O8  1  0.03402984  0.72621121  0.30781864  1
  O  O9  1  0.03402984  0.23975895  0.30781864  1
  O  O10  1  0.45523179  0.27238410  0.69408819  1
  O  O11  1  0.96647229  0.27238410  0.69408819  1
  O  O12  1  0.96647229  0.76114360  0.69408819  1
