# generated using pymatgen
data_Ba3ZrTa4O15
_symmetry_space_group_name_H-M   'P 1'
_cell_length_a   4.06111060
_cell_length_b   12.82905485
_cell_length_c   12.82905485
_cell_angle_alpha   90.00000000
_cell_angle_beta   90.00000000
_cell_angle_gamma   90.00000000
_symmetry_Int_Tables_number   1
_chemical_formula_structural   Ba3ZrTa4O15
_chemical_formula_sum   'Ba6 Zr2 Ta8 O30'
_cell_volume   668.39645999
_cell_formula_units_Z   2
loop_
 _symmetry_equiv_pos_site_id
 _symmetry_equiv_pos_as_xyz
  1  'x, y, z'
loop_
 _atom_site_type_symbol
 _atom_site_label
 _atom_site_symmetry_multiplicity
 _atom_site_fract_x
 _atom_site_fract_y
 _atom_site_fract_z
 _atom_site_occupancy
  Ba  Ba0  1  0.38510492  0.83082387  0.33082387  1
  Ba  Ba1  1  0.38510492  0.16917613  0.66917613  1
  Ba  Ba2  1  0.38510492  0.66917613  0.83082387  1
  Ba  Ba3  1  0.38510492  0.33082387  0.16917613  1
  Ba  Ba4  1  0.38611822  0.50000000  0.50000000  1
  Ba  Ba5  1  0.38611822  0.00000000  0.00000000  1
  Zr  Zr6  1  0.86728340  0.00000000  0.50000000  1
  Zr  Zr7  1  0.86728340  0.50000000  0.00000000  1
  Ta  Ta8  1  0.89756284  0.28706495  0.42508773  1
  Ta  Ta9  1  0.89756284  0.71293505  0.57491227  1
  Ta  Ta10  1  0.89756284  0.21293505  0.92508773  1
  Ta  Ta11  1  0.89756284  0.78706495  0.07491227  1
  Ta  Ta12  1  0.89756284  0.42508773  0.71293505  1
  Ta  Ta13  1  0.89756284  0.57491227  0.28706495  1
  Ta  Ta14  1  0.89756284  0.92508773  0.78706495  1
  Ta  Ta15  1  0.89756284  0.07491227  0.21293505  1
  O  O16  1  0.87386626  0.71620847  0.21620847  1
  O  O17  1  0.87386626  0.28379153  0.78379153  1
  O  O18  1  0.87386626  0.78379153  0.71620847  1
  O  O19  1  0.87386626  0.21620847  0.28379153  1
  O  O20  1  0.37308136  0.29519654  0.41970498  1
  O  O21  1  0.37308136  0.70480346  0.58029502  1
  O  O22  1  0.37308136  0.20480346  0.91970498  1
  O  O23  1  0.37308136  0.79519654  0.08029502  1
  O  O24  1  0.37308136  0.41970498  0.70480346  1
  O  O25  1  0.37308136  0.58029502  0.29519654  1
  O  O26  1  0.37308136  0.91970498  0.79519654  1
  O  O27  1  0.37308136  0.08029502  0.20480346  1
  O  O28  1  0.86764637  0.48944670  0.16493879  1
  O  O29  1  0.86764637  0.51055330  0.83506121  1
  O  O30  1  0.86764637  0.01055330  0.66493879  1
  O  O31  1  0.86764637  0.98944670  0.33506121  1
  O  O32  1  0.86764637  0.16493879  0.51055330  1
  O  O33  1  0.86764637  0.83506121  0.48944670  1
  O  O34  1  0.86764637  0.66493879  0.98944670  1
  O  O35  1  0.86764637  0.33506121  0.01055330  1
  O  O36  1  0.36674466  0.00000000  0.50000000  1
  O  O37  1  0.36674466  0.50000000  0.00000000  1
  O  O38  1  0.87443727  0.43353415  0.36223083  1
  O  O39  1  0.87443727  0.56646585  0.63776917  1
  O  O40  1  0.87443727  0.06646585  0.86223083  1
  O  O41  1  0.87443727  0.93353415  0.13776917  1
  O  O42  1  0.87443727  0.36223083  0.56646585  1
  O  O43  1  0.87443727  0.63776917  0.43353415  1
  O  O44  1  0.87443727  0.86223083  0.93353415  1
  O  O45  1  0.87443727  0.13776917  0.06646585  1
