# generated using pymatgen
data_Ba8Ge43Pd3
_symmetry_space_group_name_H-M   'P 1'
_cell_length_a   10.95691409
_cell_length_b   10.95691409
_cell_length_c   10.95691409
_cell_angle_alpha   90.25794458
_cell_angle_beta   89.74205542
_cell_angle_gamma   89.74205542
_symmetry_Int_Tables_number   1
_chemical_formula_structural   Ba8Ge43Pd3
_chemical_formula_sum   'Ba8 Ge43 Pd3'
_cell_volume   1315.38088566
_cell_formula_units_Z   1
loop_
 _symmetry_equiv_pos_site_id
 _symmetry_equiv_pos_as_xyz
  1  'x, y, z'
loop_
 _atom_site_type_symbol
 _atom_site_label
 _atom_site_symmetry_multiplicity
 _atom_site_fract_x
 _atom_site_fract_y
 _atom_site_fract_z
 _atom_site_occupancy
  Ba  Ba0  1  0.50170550  0.49829450  0.49829450  1
  Ba  Ba1  1  0.99829450  0.00170550  0.00170550  1
  Ba  Ba2  1  0.50423683  0.75000000  0.00423683  1
  Ba  Ba3  1  0.25000000  0.00423683  0.49576317  1
  Ba  Ba4  1  0.99576317  0.49576317  0.75000000  1
  Ba  Ba5  1  0.50421717  0.25000000  0.00421717  1
  Ba  Ba6  1  0.75000000  0.00421717  0.49578283  1
  Ba  Ba7  1  0.99578283  0.49578283  0.25000000  1
  Ge  Ge8  1  0.38478503  0.50038750  0.80695399  1
  Ge  Ge9  1  0.49961250  0.80695399  0.61521497  1
  Ge  Ge10  1  0.19304601  0.61521497  0.50038750  1
  Ge  Ge11  1  0.62378817  0.49983416  0.18455889  1
  Ge  Ge12  1  0.50016584  0.18455889  0.37621183  1
  Ge  Ge13  1  0.81544111  0.37621183  0.49983416  1
  Ge  Ge14  1  0.62211436  0.50016812  0.81720367  1
  Ge  Ge15  1  0.50017663  0.19350018  0.61547723  1
  Ge  Ge16  1  0.38452277  0.49982337  0.19350018  1
  Ge  Ge17  1  0.49983188  0.81720367  0.37788564  1
  Ge  Ge18  1  0.80649982  0.61547723  0.49982337  1
  Ge  Ge19  1  0.18279633  0.37788564  0.50016812  1
  Ge  Ge20  1  0.99982337  0.88452277  0.30649982  1
  Ge  Ge21  1  0.31720367  0.99983188  0.12211436  1
  Ge  Ge22  1  0.11521497  0.69304601  0.99961250  1
  Ge  Ge23  1  0.00016812  0.12211436  0.68279633  1
  Ge  Ge24  1  0.69350018  0.00017663  0.88452277  1
  Ge  Ge25  1  0.87621183  0.31544111  0.00016584  1
  Ge  Ge26  1  0.99983416  0.12378817  0.31544111  1
  Ge  Ge27  1  0.68455889  0.00016584  0.12378817  1
  Ge  Ge28  1  0.00038750  0.88478503  0.69304601  1
  Ge  Ge29  1  0.30695399  0.99961250  0.88478503  1
  Ge  Ge30  1  0.11547723  0.30649982  0.00017663  1
  Ge  Ge31  1  0.87788564  0.68279633  0.99983188  1
  Ge  Ge32  1  0.31562870  0.68437130  0.68437130  1
  Ge  Ge33  1  0.68278490  0.31721510  0.31721510  1
  Ge  Ge34  1  0.68312852  0.31642951  0.68419423  1
  Ge  Ge35  1  0.31563003  0.68517684  0.31685347  1
  Ge  Ge36  1  0.68357049  0.68419423  0.31687148  1
  Ge  Ge37  1  0.31482316  0.31685347  0.68436997  1
  Ge  Ge38  1  0.31580577  0.31687148  0.31642951  1
  Ge  Ge39  1  0.68314653  0.68436997  0.68517684  1
  Ge  Ge40  1  0.18517684  0.81563003  0.18314653  1
  Ge  Ge41  1  0.81642951  0.18312852  0.81580577  1
  Ge  Ge42  1  0.81721510  0.18278490  0.18278490  1
  Ge  Ge43  1  0.18437130  0.81562870  0.81562870  1
  Ge  Ge44  1  0.18436997  0.18314653  0.81482316  1
  Ge  Ge45  1  0.81687148  0.81580577  0.18357049  1
  Ge  Ge46  1  0.81685347  0.81482316  0.81563003  1
  Ge  Ge47  1  0.18419423  0.18357049  0.18312852  1
  Ge  Ge48  1  0.99939706  0.75000000  0.49939706  1
  Ge  Ge49  1  0.25000000  0.49939706  0.00060294  1
  Ge  Ge50  1  0.50060294  0.00060294  0.75000000  1
  Pd  Pd51  1  0.00039402  0.25000000  0.50039402  1
  Pd  Pd52  1  0.75000000  0.50039402  0.99960598  1
  Pd  Pd53  1  0.49960598  0.99960598  0.25000000  1
