# generated using pymatgen
data_Ba5Ce4ZrO15
_symmetry_space_group_name_H-M   'P 1'
_cell_length_a   6.23105592
_cell_length_b   25.63030321
_cell_length_c   6.22479423
_cell_angle_alpha   83.17214994
_cell_angle_beta   119.54825419
_cell_angle_gamma   96.87421032
_symmetry_Int_Tables_number   1
_chemical_formula_structural   Ba5Ce4ZrO15
_chemical_formula_sum   'Ba10 Ce8 Zr2 O30'
_cell_volume   856.54687318
_cell_formula_units_Z   2
loop_
 _symmetry_equiv_pos_site_id
 _symmetry_equiv_pos_as_xyz
  1  'x, y, z'
loop_
 _atom_site_type_symbol
 _atom_site_label
 _atom_site_symmetry_multiplicity
 _atom_site_fract_x
 _atom_site_fract_y
 _atom_site_fract_z
 _atom_site_occupancy
  Ba  Ba0  1  0.24310894  0.24925068  0.74365984  1
  Ba  Ba1  1  0.64326535  0.45010282  0.34326006  1
  Ba  Ba2  1  0.44451680  0.85084591  0.54448325  1
  Ba  Ba3  1  0.04470873  0.65247043  0.94318554  1
  Ba  Ba4  1  0.84304639  0.04763210  0.14510137  1
  Ba  Ba5  1  0.95673465  0.34989718  0.05673994  1
  Ba  Ba6  1  0.35689106  0.55074932  0.65634016  1
  Ba  Ba7  1  0.15548320  0.94915409  0.85551675  1
  Ba  Ba8  1  0.75695361  0.75236790  0.25489863  1
  Ba  Ba9  1  0.55529127  0.14752957  0.45681446  1
  Ce  Ce10  1  0.19873105  0.09696851  0.80107335  1
  Ce  Ce11  1  0.59995847  0.29965523  0.40029027  1
  Ce  Ce12  1  0.00004153  0.50034477  0.99970973  1
  Ce  Ce13  1  0.40126895  0.70303149  0.59892665  1
  Ce  Ce14  1  0.80000000  0.90000000  0.20000000  1
  Ce  Ce15  1  0.89942483  0.19895441  0.10042239  1
  Ce  Ce16  1  0.30000000  0.40000000  0.70000000  1
  Ce  Ce17  1  0.70057517  0.60104559  0.29957761  1
  Zr  Zr18  1  0.10063033  0.80074387  0.89992011  1
  Zr  Zr19  1  0.49936967  -0.00074387  0.50007989  1
  O  O20  1  0.77508770  0.24168981  0.72763079  1
  O  O21  1  0.17429414  0.44191515  0.32525191  1
  O  O22  1  0.97437317  0.84243395  0.54009920  1
  O  O23  1  0.57139435  0.64343204  0.92207888  1
  O  O24  1  0.37757450  0.04091067  0.14452405  1
  O  O25  1  0.22393522  0.25782821  0.27339459  1
  O  O26  1  0.62587879  0.45818585  0.87456909  1
  O  O27  1  0.42119509  0.85544641  0.06428687  1
  O  O28  1  0.03141184  0.65885512  0.47514826  1
  O  O29  1  0.81488816  0.05442821  0.66305169  1
  O  O30  1  0.97412121  0.34181415  0.52543091  1
  O  O31  1  0.37606478  0.54217179  0.12660541  1
  O  O32  1  0.17880491  0.94455359  0.33571313  1
  O  O33  1  0.78511184  0.74557179  0.73694831  1
  O  O34  1  0.56858816  0.14114488  0.92485174  1
  O  O35  1  0.42570586  0.35808485  0.07474809  1
  O  O36  1  0.82491230  0.55831019  0.67236921  1
  O  O37  1  0.62562683  0.95756605  0.85990080  1
  O  O38  1  0.22242550  0.75908933  0.25547595  1
  O  O39  1  0.02860565  0.15656796  0.47792112  1
  O  O40  1  0.12235699  0.14890899  0.01883898  1
  O  O41  1  0.52469136  0.34996753  0.62447168  1
  O  O42  1  0.92310835  0.55020016  0.22479408  1
  O  O43  1  0.30726112  0.75255600  0.81943809  1
  O  O44  1  0.70632673  0.95132375  0.41428856  1
  O  O45  1  0.07530864  0.45003247  0.77552832  1
  O  O46  1  0.47764301  0.65109101  0.38116102  1
  O  O47  1  0.89367327  0.84867625  0.98571144  1
  O  O48  1  0.29273888  0.04744400  0.58056191  1
  O  O49  1  0.67689165  0.24979984  0.17520592  1
