# generated using pymatgen
data_AlGaSb2
_symmetry_space_group_name_H-M   'P 1'
_cell_length_a   4.40366874
_cell_length_b   4.40366875
_cell_length_c   7.62215703
_cell_angle_alpha   73.20951692
_cell_angle_beta   90.00000000
_cell_angle_gamma   119.99999995
_symmetry_Int_Tables_number   1
_chemical_formula_structural   AlGaSb2
_chemical_formula_sum   'Al1 Ga1 Sb2'
_cell_volume   120.67696083
_cell_formula_units_Z   1
loop_
 _symmetry_equiv_pos_site_id
 _symmetry_equiv_pos_as_xyz
  1  'x, y, z'
loop_
 _atom_site_type_symbol
 _atom_site_label
 _atom_site_symmetry_multiplicity
 _atom_site_fract_x
 _atom_site_fract_y
 _atom_site_fract_z
 _atom_site_occupancy
  Al  Al0  1  0.00008641  0.00017282  0.99974077  1
  Ga  Ga1  1  0.50005098  0.00010196  0.49984706  1
  Sb  Sb2  1  0.87493984  0.74987967  0.37518049  1
  Sb  Sb3  1  0.37492277  0.74984555  0.87523168  1
