# generated using pymatgen
data_Te2Rh3
_symmetry_space_group_name_H-M   'P 1'
_cell_length_a   3.75467908
_cell_length_b   6.56673207
_cell_length_c   7.83282605
_cell_angle_alpha   90.00000000
_cell_angle_beta   90.00000000
_cell_angle_gamma   106.61184160
_symmetry_Int_Tables_number   1
_chemical_formula_structural   Te2Rh3
_chemical_formula_sum   'Te4 Rh6'
_cell_volume   185.06553729
_cell_formula_units_Z   2
loop_
 _symmetry_equiv_pos_site_id
 _symmetry_equiv_pos_as_xyz
  1  'x, y, z'
loop_
 _atom_site_type_symbol
 _atom_site_label
 _atom_site_symmetry_multiplicity
 _atom_site_fract_x
 _atom_site_fract_y
 _atom_site_fract_z
 _atom_site_occupancy
  Rh  Rh0  1  0.46394566  0.92789133  0.75000000  1
  Rh  Rh1  1  0.53605434  0.07210867  0.25000000  1
  Rh  Rh2  1  0.33874271  0.67748542  0.05983368  1
  Rh  Rh3  1  0.66125729  0.32251458  0.94016632  1
  Rh  Rh4  1  0.66125729  0.32251458  0.55983368  1
  Rh  Rh5  1  0.33874271  0.67748542  0.44016632  1
  Te  Te6  1  0.00000000  0.00000000  0.00000000  1
  Te  Te7  1  0.00000000  0.00000000  0.50000000  1
  Te  Te8  1  0.25298127  0.50596254  0.75000000  1
  Te  Te9  1  0.74701873  0.49403746  0.25000000  1
