# generated using pymatgen
data_SbS2NF6
_symmetry_space_group_name_H-M   'P 1'
_cell_length_a   5.51234519
_cell_length_b   6.00662545
_cell_length_c   6.00662545
_cell_angle_alpha   70.50110479
_cell_angle_beta   88.63127811
_cell_angle_gamma   88.63127811
_symmetry_Int_Tables_number   1
_chemical_formula_structural   SbS2NF6
_chemical_formula_sum   'Sb1 S2 N1 F6'
_cell_volume   187.39636662
_cell_formula_units_Z   1
loop_
 _symmetry_equiv_pos_site_id
 _symmetry_equiv_pos_as_xyz
  1  'x, y, z'
loop_
 _atom_site_type_symbol
 _atom_site_label
 _atom_site_symmetry_multiplicity
 _atom_site_fract_x
 _atom_site_fract_y
 _atom_site_fract_z
 _atom_site_occupancy
  N  N0  1  0.50000000  0.50000000  0.50000000  1
  F  F1  1  0.27807680  0.11324823  0.11324823  1
  F  F2  1  0.72192320  0.88675177  0.88675177  1
  F  F3  1  0.85109920  0.30943385  0.91804011  1
  F  F4  1  0.14890080  0.08195989  0.69056615  1
  F  F5  1  0.14890080  0.69056615  0.08195989  1
  F  F6  1  0.85109920  0.91804011  0.30943385  1
  S  S7  1  0.38659291  0.64017241  0.64017241  1
  S  S8  1  0.61340709  0.35982759  0.35982759  1
  Sb  Sb9  1  0.00000000  0.00000000  0.00000000  1
