# generated using pymatgen
data_Ba13B30(PbO30)2
_symmetry_space_group_name_H-M   'P 1'
_cell_length_a   7.27024995
_cell_length_b   7.87137523
_cell_length_c   30.12935905
_cell_angle_alpha   94.18991533
_cell_angle_beta   90.00112038
_cell_angle_gamma   117.50289646
_symmetry_Int_Tables_number   1
_chemical_formula_structural   Ba13B30(PbO30)2
_chemical_formula_sum   'Ba13 B30 Pb2 O60'
_cell_volume   1524.15309499
_cell_formula_units_Z   1
loop_
 _symmetry_equiv_pos_site_id
 _symmetry_equiv_pos_as_xyz
  1  'x, y, z'
loop_
 _atom_site_type_symbol
 _atom_site_label
 _atom_site_symmetry_multiplicity
 _atom_site_fract_x
 _atom_site_fract_y
 _atom_site_fract_z
 _atom_site_occupancy
  Ba  Ba0  1  0.12193494  0.24445650  0.16006240  1
  Ba  Ba1  1  0.52267554  0.04531542  0.36037484  1
  Ba  Ba2  1  0.92259840  0.84524636  0.56040471  1
  Ba  Ba3  1  0.32413079  0.64766947  0.76078861  1
  Ba  Ba4  1  0.72348094  0.44687314  0.96045798  1
  Ba  Ba5  1  0.07737652  0.15470597  0.43961740  1
  Ba  Ba6  1  0.47749955  0.95556828  0.63993541  1
  Ba  Ba7  1  0.87662934  0.75315732  0.83954113  1
  Ba  Ba8  1  0.27647703  0.55236475  0.03920758  1
  Ba  Ba9  1  0.67737071  0.35475939  0.23958980  1
  Ba  Ba10  1  0.40005769  0.79989256  0.19996321  1
  Ba  Ba11  1  0.80000996  0.60000548  0.39999920  1
  Ba  Ba12  1  0.20017331  0.40012010  0.60002993  1
  B  B13  1  0.04121526  0.93604666  0.32636586  1
  B  B14  1  0.44124977  0.73607779  0.52637966  1
  B  B15  1  0.83785022  0.53260828  0.72658595  1
  B  B16  1  0.23684312  0.33311553  0.92650550  1
  B  B17  1  0.64029332  0.13662831  0.12630103  1
  B  B18  1  0.12868535  0.01401996  0.24840834  1
  B  B19  1  0.52866371  0.81398064  0.44841932  1
  B  B20  1  0.92875547  0.61391833  0.64874300  1
  B  B21  1  0.32986064  0.41097617  0.84865819  1
  B  B22  1  0.72982014  0.21106280  0.04831473  1
  B  B23  1  0.79747070  0.98474146  0.27769444  1
  B  B24  1  0.19745388  0.78470447  0.47769979  1
  B  B25  1  0.59766463  0.58531802  0.67773177  1
  B  B26  1  0.99678949  0.38289078  0.87676837  1
  B  B27  1  0.39660249  0.18234243  0.07673456  1
  B  B28  1  0.01276145  0.41528753  0.32230010  1
  B  B29  1  0.41273281  0.21526364  0.52230122  1
  B  B30  1  0.81426089  0.01765858  0.72326222  1
  B  B31  1  0.21391841  0.81711794  0.92322876  1
  B  B32  1  0.61234728  0.61468341  0.12226282  1
  B  B33  1  0.30516768  0.46392724  0.27361949  1
  B  B34  1  0.70517828  0.26395267  0.47363300  1
  B  B35  1  0.10368090  0.06339096  0.67369566  1
  B  B36  1  0.50372096  0.86687021  0.87349230  1
  B  B37  1  0.90524762  0.66740185  0.07341189  1
  B  B38  1  0.31470282  0.38601346  0.35158006  1
  B  B39  1  0.71467981  0.18599074  0.55159154  1
  B  B40  1  0.11874877  0.98893386  0.75168050  1
  B  B41  1  0.51889901  0.78902851  0.95134326  1
  B  B42  1  0.91483169  0.58609139  0.15125456  1
  Pb  Pb43  1  0.59999178  0.20008517  0.80000104  1
  Pb  Pb44  1  0.99997146  0.99998398  0.99997732  1
  O  O45  1  0.17285579  0.96650978  0.29000502  1
  O  O46  1  0.57286798  0.76652580  0.49001394  1
  O  O47  1  0.97210779  0.56639662  0.69052137  1
  O  O48  1  0.37222278  0.36627826  0.89075357  1
  O  O49  1  0.77301014  0.16639584  0.09023369  1
  O  O50  1  0.93548919  0.01383416  0.24271947  1
  O  O51  1  0.33545221  0.81373928  0.44272506  1
  O  O52  1  0.73555120  0.61340391  0.64277616  1
  O  O53  1  0.13873506  0.41441238  0.84252075  1
  O  O54  1  0.53865308  0.21480257  0.04245998  1
  O  O55  1  0.85077166  0.93800471  0.31856844  1
  O  O56  1  0.25077951  0.73800407  0.51857805  1
  O  O57  1  0.64981787  0.53816098  0.71861078  1
  O  O58  1  0.04887314  0.33890537  0.91814682  1
  O  O59  1  0.44984192  0.13879616  0.11811179  1
  O  O60  1  0.11277612  0.46200428  0.28142355  1
  O  O61  1  0.51276541  0.26196981  0.48142435  1
  O  O62  1  0.91107180  0.06125166  0.68188994  1
  O  O63  1  0.30995822  0.86106831  0.88185069  1
  O  O64  1  0.71165585  0.66183931  0.08138582  1
  O  O65  1  0.40635385  0.43347265  0.30998485  1
  O  O66  1  0.80634626  0.23348401  0.50999549  1
  O  O67  1  0.20660800  0.03359685  0.70976259  1
  O  O68  1  0.60595352  0.83373838  0.90924921  1
  O  O69  1  0.00570854  0.63360363  0.10947933  1
  O  O70  1  0.12172169  0.38622197  0.35727156  1
  O  O71  1  0.52168241  0.18621000  0.55728091  1
  O  O72  1  0.92383108  0.98516957  0.75753822  1
  O  O73  1  0.32433460  0.78559598  0.95747879  1
  O  O74  1  0.72215649  0.58662679  0.15722256  1
  O  O75  1  0.09958522  0.91035608  0.36608082  1
  O  O76  1  0.49963357  0.71044679  0.56609856  1
  O  O77  1  0.89342683  0.50313864  0.76638314  1
  O  O78  1  0.29187894  0.30328094  0.96636225  1
  O  O79  1  0.69815066  0.11066768  0.16607417  1
  O  O80  1  0.26182144  0.06075351  0.21570145  1
  O  O81  1  0.66186239  0.86073979  0.41572209  1
  O  O82  1  0.06206633  0.66058193  0.61605689  1
  O  O83  1  0.46340366  0.45400290  0.81576562  1
  O  O84  1  0.86323250  0.25420659  0.01541626  1
  O  O85  1  0.62556398  0.00301397  0.27347956  1
  O  O86  1  0.02555897  0.80298076  0.47348507  1
  O  O87  1  0.42626097  0.60470118  0.67352988  1
  O  O88  1  0.82241656  0.39797951  0.87182459  1
  O  O89  1  0.22177397  0.19635586  0.07177976  1
  O  O90  1  0.82259015  0.39702107  0.32651288  1
  O  O91  1  0.22256233  0.19699549  0.52651423  1
  O  O92  1  0.62541153  0.00363778  0.72821293  1
  O  O93  1  0.02445922  0.80204600  0.92817041  1
  O  O94  1  0.42155674  0.59528216  0.12646427  1
  O  O95  1  0.38917024  0.48957466  0.23390086  1
  O  O96  1  0.78926232  0.28965781  0.43391962  1
  O  O97  1  0.18747504  0.08935069  0.63392185  1
  O  O98  1  0.58857158  0.89668006  0.83363508  1
  O  O99  1  0.99029977  0.69687021  0.03361759  1
  O  O100  1  0.40116533  0.33927428  0.38427701  1
  O  O101  1  0.80106538  0.13923136  0.58429817  1
  O  O102  1  0.20903050  0.94581625  0.78458227  1
  O  O103  1  0.60940425  0.74596338  0.98423348  1
  O  O104  1  0.00147694  0.53942213  0.18394305  1
