# generated using pymatgen
data_TaSe2
_symmetry_space_group_name_H-M   'P 1'
_cell_length_a   13.75292864
_cell_length_b   13.75292865
_cell_length_c   13.75292865
_cell_angle_alpha   14.59325406
_cell_angle_beta   14.59325402
_cell_angle_gamma   14.59325404
_symmetry_Int_Tables_number   1
_chemical_formula_structural   TaSe2
_chemical_formula_sum   'Ta2 Se4'
_cell_volume   143.78212901
_cell_formula_units_Z   2
loop_
 _symmetry_equiv_pos_site_id
 _symmetry_equiv_pos_as_xyz
  1  'x, y, z'
loop_
 _atom_site_type_symbol
 _atom_site_label
 _atom_site_symmetry_multiplicity
 _atom_site_fract_x
 _atom_site_fract_y
 _atom_site_fract_z
 _atom_site_occupancy
  Se  Se0  1  0.62415377  0.62415377  0.62415377  1
  Se  Se1  1  0.45737432  0.45737432  0.45737432  1
  Se  Se2  1  0.20949786  0.20949786  0.20949786  1
  Se  Se3  1  0.37561701  0.37561701  0.37561701  1
  Ta  Ta4  1  0.91682961  0.91682961  0.91682961  1
  Ta  Ta5  1  0.08312743  0.08312743  0.08312743  1
