# generated using pymatgen
data_Ce15Ni32
_symmetry_space_group_name_H-M   'P 1'
_cell_length_a   10.09239784
_cell_length_b   10.09239784
_cell_length_c   10.09239784
_cell_angle_alpha   60.00000000
_cell_angle_beta   120.00000000
_cell_angle_gamma   120.00000000
_symmetry_Int_Tables_number   1
_chemical_formula_structural   Ce15Ni32
_chemical_formula_sum   'Ce15 Ni32'
_cell_volume   726.88898518
_cell_formula_units_Z   1
loop_
 _symmetry_equiv_pos_site_id
 _symmetry_equiv_pos_as_xyz
  1  'x, y, z'
loop_
 _atom_site_type_symbol
 _atom_site_label
 _atom_site_symmetry_multiplicity
 _atom_site_fract_x
 _atom_site_fract_y
 _atom_site_fract_z
 _atom_site_occupancy
  Ce  Ce0  1  0.49219459  0.99219459  0.50780541  1
  Ce  Ce1  1  0.00780541  0.50780541  0.50780541  1
  Ce  Ce2  1  0.00780541  0.99219459  0.50780541  1
  Ce  Ce3  1  0.00780541  0.50780541  0.99219459  1
  Ce  Ce4  1  0.49219459  0.99219459  0.99219459  1
  Ce  Ce5  1  0.49219459  0.50780541  0.99219459  1
  Ce  Ce6  1  0.62574245  0.37425755  0.87722735  1
  Ce  Ce7  1  0.62574245  0.37425755  0.37425755  1
  Ce  Ce8  1  0.62574245  0.87722735  0.37425755  1
  Ce  Ce9  1  0.12277265  0.37425755  0.37425755  1
  Ce  Ce10  1  0.50000000  0.50000000  0.50000000  1
  Ce  Ce11  1  0.10555386  0.89444614  0.31666159  1
  Ce  Ce12  1  0.10555386  0.89444614  0.89444614  1
  Ce  Ce13  1  0.10555386  0.31666159  0.89444614  1
  Ce  Ce14  1  0.68333841  0.89444614  0.89444614  1
  Ni  Ni15  1  0.81139689  0.18860311  0.93864372  1
  Ni  Ni16  1  0.31584993  0.18860311  0.93864372  1
  Ni  Ni17  1  0.81139689  0.68415007  0.93864372  1
  Ni  Ni18  1  0.81139689  0.18860311  0.68415007  1
  Ni  Ni19  1  0.81139689  0.68415007  0.18860311  1
  Ni  Ni20  1  0.31584993  0.18860311  0.18860311  1
  Ni  Ni21  1  0.31584993  0.93864372  0.18860311  1
  Ni  Ni22  1  0.81139689  0.93864372  0.18860311  1
  Ni  Ni23  1  0.81139689  0.93864372  0.68415007  1
  Ni  Ni24  1  0.06135628  0.68415007  0.18860311  1
  Ni  Ni25  1  0.06135628  0.18860311  0.68415007  1
  Ni  Ni26  1  0.06135628  0.18860311  0.18860311  1
  Ni  Ni27  1  0.31174578  0.68825422  0.43802910  1
  Ni  Ni28  1  0.81453754  0.68825422  0.43802910  1
  Ni  Ni29  1  0.31174578  0.18546246  0.43802910  1
  Ni  Ni30  1  0.31174578  0.68825422  0.18546246  1
  Ni  Ni31  1  0.31174578  0.18546246  0.68825422  1
  Ni  Ni32  1  0.81453754  0.68825422  0.68825422  1
  Ni  Ni33  1  0.81453754  0.43802910  0.68825422  1
  Ni  Ni34  1  0.31174578  0.43802910  0.68825422  1
  Ni  Ni35  1  0.31174578  0.43802910  0.18546246  1
  Ni  Ni36  1  0.56197090  0.18546246  0.68825422  1
  Ni  Ni37  1  0.56197090  0.68825422  0.18546246  1
  Ni  Ni38  1  0.56197090  0.68825422  0.68825422  1
  Ni  Ni39  1  0.31175760  0.68824240  0.93527280  1
  Ni  Ni40  1  0.31175760  0.68824240  0.68824240  1
  Ni  Ni41  1  0.31175760  0.93527280  0.68824240  1
  Ni  Ni42  1  0.06472720  0.68824240  0.68824240  1
  Ni  Ni43  1  0.81213993  0.18786007  0.43641978  1
  Ni  Ni44  1  0.81213993  0.18786007  0.18786007  1
  Ni  Ni45  1  0.81213993  0.43641978  0.18786007  1
  Ni  Ni46  1  0.56358022  0.18786007  0.18786007  1
