# generated using pymatgen
data_Li4(MoO4)3
_symmetry_space_group_name_H-M   'P 1'
_cell_length_a   5.21483455
_cell_length_b   10.53361464
_cell_length_c   17.98078064
_cell_angle_alpha   90.00000000
_cell_angle_beta   90.00000000
_cell_angle_gamma   90.00000000
_symmetry_Int_Tables_number   1
_chemical_formula_structural   Li4(MoO4)3
_chemical_formula_sum   'Li16 Mo12 O48'
_cell_volume   987.70329633
_cell_formula_units_Z   4
loop_
 _symmetry_equiv_pos_site_id
 _symmetry_equiv_pos_as_xyz
  1  'x, y, z'
loop_
 _atom_site_type_symbol
 _atom_site_label
 _atom_site_symmetry_multiplicity
 _atom_site_fract_x
 _atom_site_fract_y
 _atom_site_fract_z
 _atom_site_occupancy
  Li  Li0  1  0.10100155  0.25000000  0.24935968  1
  Li  Li1  1  0.89899845  0.75000000  0.75064032  1
  Li  Li2  1  0.39899845  0.75000000  0.74935968  1
  Li  Li3  1  0.60100155  0.25000000  0.25064032  1
  Li  Li4  1  0.24723594  0.07569613  0.52663490  1
  Li  Li5  1  0.75276406  0.92430387  0.47336510  1
  Li  Li6  1  0.25276406  0.92430387  0.02663490  1
  Li  Li7  1  0.75276406  0.57569613  0.47336510  1
  Li  Li8  1  0.74723594  0.07569613  0.97336510  1
  Li  Li9  1  0.24723594  0.42430387  0.52663490  1
  Li  Li10  1  0.74723594  0.42430387  0.97336510  1
  Li  Li11  1  0.25276406  0.57569613  0.02663490  1
  Li  Li12  1  0.25779176  0.25000000  0.70042273  1
  Li  Li13  1  0.74220824  0.75000000  0.29957727  1
  Li  Li14  1  0.24220824  0.75000000  0.20042273  1
  Li  Li15  1  0.75779176  0.25000000  0.79957727  1
  Mo  Mo16  1  0.28159090  0.25000000  0.05596255  1
  Mo  Mo17  1  0.71840910  0.75000000  0.94403745  1
  Mo  Mo18  1  0.21840910  0.75000000  0.55596255  1
  Mo  Mo19  1  0.78159090  0.25000000  0.44403745  1
  Mo  Mo20  1  0.27528760  0.52765903  0.34434654  1
  Mo  Mo21  1  0.72471240  0.47234097  0.65565346  1
  Mo  Mo22  1  0.22471240  0.47234097  0.84434654  1
  Mo  Mo23  1  0.72471240  0.02765903  0.65565346  1
  Mo  Mo24  1  0.77528760  0.52765903  0.15565346  1
  Mo  Mo25  1  0.27528760  0.97234097  0.34434654  1
  Mo  Mo26  1  0.77528760  0.97234097  0.15565346  1
  Mo  Mo27  1  0.22471240  0.02765903  0.84434654  1
  O  O28  1  0.08384425  0.00978607  0.42439068  1
  O  O29  1  0.91615575  0.99021393  0.57560932  1
  O  O30  1  0.41615575  0.99021393  0.92439068  1
  O  O31  1  0.91615575  0.50978607  0.57560932  1
  O  O32  1  0.58384425  0.00978607  0.07560932  1
  O  O33  1  0.08384425  0.49021393  0.42439068  1
  O  O34  1  0.58384425  0.49021393  0.07560932  1
  O  O35  1  0.41615575  0.50978607  0.92439068  1
  O  O36  1  0.07757639  0.62916342  0.28580953  1
  O  O37  1  0.92242361  0.37083658  0.71419047  1
  O  O38  1  0.42242361  0.37083658  0.78580953  1
  O  O39  1  0.92242361  0.12916342  0.71419047  1
  O  O40  1  0.57757639  0.62916342  0.21419047  1
  O  O41  1  0.07757639  0.87083658  0.28580953  1
  O  O42  1  0.57757639  0.87083658  0.21419047  1
  O  O43  1  0.42242361  0.12916342  0.78580953  1
  O  O44  1  0.35225155  0.11491518  0.29486551  1
  O  O45  1  0.64774845  0.88508482  0.70513449  1
  O  O46  1  0.14774845  0.88508482  0.79486551  1
  O  O47  1  0.64774845  0.61491518  0.70513449  1
  O  O48  1  0.85225155  0.11491518  0.20513449  1
  O  O49  1  0.35225155  0.38508482  0.29486551  1
  O  O50  1  0.85225155  0.38508482  0.20513449  1
  O  O51  1  0.14774845  0.61491518  0.79486551  1
  O  O52  1  0.08377137  0.11396174  0.03613428  1
  O  O53  1  0.91622863  0.88603826  0.96386572  1
  O  O54  1  0.41622863  0.88603826  0.53613428  1
  O  O55  1  0.91622863  0.61396174  0.96386572  1
  O  O56  1  0.58377137  0.11396174  0.46386572  1
  O  O57  1  0.08377137  0.38603826  0.03613428  1
  O  O58  1  0.58377137  0.38603826  0.46386572  1
  O  O59  1  0.41622863  0.61396174  0.53613428  1
  O  O60  1  0.05539133  0.25000000  0.50476602  1
  O  O61  1  0.94460867  0.75000000  0.49523398  1
  O  O62  1  0.44460867  0.75000000  0.00476602  1
  O  O63  1  0.55539133  0.25000000  0.99523398  1
  O  O64  1  0.05818012  0.61435036  0.12736364  1
  O  O65  1  0.94181988  0.38564964  0.87263636  1
  O  O66  1  0.44181988  0.38564964  0.62736364  1
  O  O67  1  0.94181988  0.11435036  0.87263636  1
  O  O68  1  0.55818012  0.61435036  0.37263636  1
  O  O69  1  0.05818012  0.88564964  0.12736364  1
  O  O70  1  0.55818012  0.88564964  0.37263636  1
  O  O71  1  0.44181988  0.11435036  0.62736364  1
  O  O72  1  0.35762696  0.25000000  0.15468499  1
  O  O73  1  0.64237304  0.75000000  0.84531501  1
  O  O74  1  0.14237304  0.75000000  0.65468499  1
  O  O75  1  0.85762696  0.25000000  0.34531501  1
