# generated using pymatgen
data_Al(PO3)3
_symmetry_space_group_name_H-M   'P 1'
_cell_length_a   12.06083887
_cell_length_b   12.06083887
_cell_length_c   12.06083887
_cell_angle_alpha   109.47122062
_cell_angle_beta   109.47122061
_cell_angle_gamma   109.47122066
_symmetry_Int_Tables_number   1
_chemical_formula_structural   Al(PO3)3
_chemical_formula_sum   'Al8 P24 O72'
_cell_volume   1350.54996400
_cell_formula_units_Z   8
loop_
 _symmetry_equiv_pos_site_id
 _symmetry_equiv_pos_as_xyz
  1  'x, y, z'
loop_
 _atom_site_type_symbol
 _atom_site_label
 _atom_site_symmetry_multiplicity
 _atom_site_fract_x
 _atom_site_fract_y
 _atom_site_fract_z
 _atom_site_occupancy
  O  O0  1  0.95721477  0.57460524  0.15514692  1
  O  O1  1  0.92539476  0.88260953  0.58054168  1
  O  O2  1  0.34485308  0.91945832  0.80206785  1
  O  O3  1  0.54278523  0.69793215  0.61739047  1
  O  O4  1  0.69793215  0.61739047  0.54278523  1
  O  O5  1  0.61739047  0.54278523  0.69793215  1
  O  O6  1  0.45721477  0.65514692  0.07460524  1
  O  O7  1  0.08054168  0.38260953  0.42539476  1
  O  O8  1  0.41945832  0.84485308  0.30206785  1
  O  O9  1  0.11739047  0.19793215  0.04278523  1
  O  O10  1  0.19793215  0.04278523  0.11739047  1
  O  O11  1  0.07460524  0.45721477  0.65514692  1
  O  O12  1  0.38260953  0.42539476  0.08054168  1
  O  O13  1  0.30206785  0.41945832  0.84485308  1
  O  O14  1  0.65514692  0.07460524  0.45721477  1
  O  O15  1  0.42539476  0.08054168  0.38260953  1
  O  O16  1  0.84485308  0.30206785  0.41945832  1
  O  O17  1  0.58054168  0.92539476  0.88260953  1
  O  O18  1  0.91945832  0.80206785  0.34485308  1
  O  O19  1  0.80206785  0.34485308  0.91945832  1
  O  O20  1  0.57460524  0.15514692  0.95721477  1
  O  O21  1  0.15514692  0.95721477  0.57460524  1
  O  O22  1  0.88260953  0.58054168  0.92539476  1
  O  O23  1  0.04278523  0.11739047  0.19793215  1
  O  O24  1  0.62030129  0.42893829  0.84511368  1
  O  O25  1  0.58382460  0.15488632  0.27518760  1
  O  O26  1  0.07106171  0.69136300  0.41617540  1
  O  O27  1  0.87969871  0.72481240  0.80863700  1
  O  O28  1  0.72481240  0.80863700  0.87969871  1
  O  O29  1  0.80863700  0.87969871  0.72481240  1
  O  O30  1  0.12030129  0.34511368  0.92893829  1
  O  O31  1  0.91617540  0.19136300  0.57106171  1
  O  O32  1  0.91506702  0.90473540  0.19366363  1
  O  O33  1  0.09526460  0.78892824  0.01033162  1
  O  O34  1  0.27859661  0.08493298  0.48966838  1
  O  O35  1  0.48966838  0.27859661  0.08493298  1
  O  O36  1  0.80633637  0.22140339  0.71107176  1
  O  O37  1  0.71107176  0.80633637  0.22140339  1
  O  O38  1  0.78892824  0.01033162  0.09526460  1
  O  O39  1  0.72140339  0.30633637  0.21107176  1
  O  O40  1  0.51033162  0.28892824  0.59526460  1
  O  O41  1  0.77859661  0.98966838  0.58493298  1
  O  O42  1  0.30633637  0.21107176  0.72140339  1
  O  O43  1  0.59526460  0.51033162  0.28892824  1
  O  O44  1  0.98966838  0.58493298  0.77859661  1
  O  O45  1  0.19366363  0.91506702  0.90473540  1
  O  O46  1  0.90473540  0.19366363  0.91506702  1
  O  O47  1  0.21107176  0.72140339  0.30633637  1
  O  O48  1  0.28892824  0.59526460  0.51033162  1
  O  O49  1  0.58493298  0.77859661  0.98966838  1
  O  O50  1  0.40473540  0.41506702  0.69366363  1
  O  O51  1  0.69366363  0.40473540  0.41506702  1
  O  O52  1  0.41506702  0.69366363  0.40473540  1
  O  O53  1  0.22140339  0.71107176  0.80633637  1
  O  O54  1  0.01033162  0.09526460  0.78892824  1
  O  O55  1  0.08493298  0.48966838  0.27859661  1
  O  O56  1  0.37969871  0.30863700  0.22481240  1
  O  O57  1  0.69136300  0.41617540  0.07106171  1
  O  O58  1  0.84511368  0.62030129  0.42893829  1
  O  O59  1  0.42893829  0.84511368  0.62030129  1
  O  O60  1  0.77518760  0.65488632  0.08382460  1
  O  O61  1  0.08382460  0.77518760  0.65488632  1
  O  O62  1  0.41617540  0.07106171  0.69136300  1
  O  O63  1  0.15488632  0.27518760  0.58382460  1
  O  O64  1  0.57106171  0.91617540  0.19136300  1
  O  O65  1  0.34511368  0.92893829  0.12030129  1
  O  O66  1  0.27518760  0.58382460  0.15488632  1
  O  O67  1  0.19136300  0.57106171  0.91617540  1
  O  O68  1  0.92893829  0.12030129  0.34511368  1
  O  O69  1  0.22481240  0.37969871  0.30863700  1
  O  O70  1  0.30863700  0.22481240  0.37969871  1
  O  O71  1  0.65488632  0.08382460  0.77518760  1
  Al  Al72  1  0.21167425  0.21167425  0.21167425  1
  Al  Al73  1  0.78832575  0.50000000  0.00000000  1
  Al  Al74  1  0.00000000  0.78832575  0.50000000  1
  Al  Al75  1  0.50000000  0.00000000  0.78832575  1
  Al  Al76  1  0.00000000  0.28832575  0.50000000  1
  Al  Al77  1  0.50000000  0.00000000  0.28832575  1
  Al  Al78  1  0.28832575  0.50000000  0.00000000  1
  Al  Al79  1  0.71167425  0.71167425  0.71167425  1
  P  P80  1  0.57070989  0.78826601  0.11963604  1
  P  P81  1  0.45107385  0.38036396  0.16862997  1
  P  P82  1  0.38036396  0.16862997  0.45107385  1
  P  P83  1  0.28244388  0.33137003  0.71173399  1
  P  P84  1  0.04892615  0.21755612  0.92929011  1
  P  P85  1  0.11963604  0.57070989  0.78826601  1
  P  P86  1  0.71173399  0.28244388  0.33137003  1
  P  P87  1  0.21755612  0.92929011  0.04892615  1
  P  P88  1  0.78826601  0.11963604  0.57070989  1
  P  P89  1  0.42929011  0.71755612  0.54892615  1
  P  P90  1  0.07070989  0.61963604  0.28826601  1
  P  P91  1  0.61963604  0.28826601  0.07070989  1
  P  P92  1  0.78244388  0.21173399  0.83137003  1
  P  P93  1  0.21173399  0.83137003  0.78244388  1
  P  P94  1  0.54892615  0.42929011  0.71755612  1
  P  P95  1  0.16862997  0.45107385  0.38036396  1
  P  P96  1  0.92929011  0.04892615  0.21755612  1
  P  P97  1  0.33137003  0.71173399  0.28244388  1
  P  P98  1  0.95107385  0.66862997  0.88036396  1
  P  P99  1  0.88036396  0.95107385  0.66862997  1
  P  P100  1  0.66862997  0.88036396  0.95107385  1
  P  P101  1  0.28826601  0.07070989  0.61963604  1
  P  P102  1  0.71755612  0.54892615  0.42929011  1
  P  P103  1  0.83137003  0.78244388  0.21173399  1
