# generated using pymatgen
data_Sr2Cu(SeO3)3
_symmetry_space_group_name_H-M   'P 1'
_cell_length_a   7.32926877
_cell_length_b   7.89418941
_cell_length_c   8.77806832
_cell_angle_alpha   102.26333231
_cell_angle_beta   105.34951644
_cell_angle_gamma   96.66863587
_symmetry_Int_Tables_number   1
_chemical_formula_structural   Sr2Cu(SeO3)3
_chemical_formula_sum   'Sr4 Cu2 Se6 O18'
_cell_volume   470.52126188
_cell_formula_units_Z   2
loop_
 _symmetry_equiv_pos_site_id
 _symmetry_equiv_pos_as_xyz
  1  'x, y, z'
loop_
 _atom_site_type_symbol
 _atom_site_label
 _atom_site_symmetry_multiplicity
 _atom_site_fract_x
 _atom_site_fract_y
 _atom_site_fract_z
 _atom_site_occupancy
  O  O0  1  0.17100330  0.62296801  0.37943948  1
  O  O1  1  0.82899670  0.37703199  0.62056052  1
  O  O2  1  0.22330429  0.40655835  0.59019421  1
  O  O3  1  0.77669571  0.59344165  0.40980579  1
  O  O4  1  0.47092759  0.70144406  0.64856954  1
  O  O5  1  0.52907241  0.29855594  0.35143046  1
  O  O6  1  0.05754193  0.81846710  0.15867779  1
  O  O7  1  0.94245807  0.18153290  0.84132221  1
  O  O8  1  0.18450412  0.60268568  0.94230439  1
  O  O9  1  0.81549588  0.39731432  0.05769561  1
  O  O10  1  0.87467327  0.75166142  0.83341867  1
  O  O11  1  0.12532673  0.24833858  0.16658133  1
  O  O12  1  0.48459739  0.87070071  0.31800568  1
  O  O13  1  0.51540261  0.12929929  0.68199432  1
  O  O14  1  0.84741068  0.99823140  0.35816843  1
  O  O15  1  0.15258932  0.00176860  0.64183157  1
  O  O16  1  0.66155584  0.70173082  0.11911286  1
  O  O17  1  0.33844416  0.29826918  0.88088714  1
  Cu  Cu18  1  0.08561615  0.34106674  0.74757752  1
  Cu  Cu19  1  0.91438385  0.65893326  0.25242248  1
  Se  Se20  1  0.89992417  0.20210241  0.03001836  1
  Se  Se21  1  0.22679774  0.63129263  0.58675582  1
  Se  Se22  1  0.36516674  0.08175344  0.79535964  1
  Se  Se23  1  0.63483326  0.91824656  0.20464036  1
  Se  Se24  1  0.77320226  0.36870737  0.41324418  1
  Se  Se25  1  0.10007583  0.79789759  0.96998164  1
  Sr  Sr26  1  0.62437176  0.48444704  0.80737602  1
  Sr  Sr27  1  0.37562824  0.51555296  0.19262398  1
  Sr  Sr28  1  0.75886320  0.90989521  0.60921048  1
  Sr  Sr29  1  0.24113680  0.09010479  0.39078952  1
