# generated using pymatgen
data_La2Si2O7
_symmetry_space_group_name_H-M   'P 1'
_cell_length_a   6.87726814
_cell_length_b   6.95480122
_cell_length_c   12.64244135
_cell_angle_alpha   83.97708181
_cell_angle_beta   88.89607332
_cell_angle_gamma   88.52785433
_symmetry_Int_Tables_number   1
_chemical_formula_structural   La2Si2O7
_chemical_formula_sum   'La8 Si8 O28'
_cell_volume   601.06851213
_cell_formula_units_Z   4
loop_
 _symmetry_equiv_pos_site_id
 _symmetry_equiv_pos_as_xyz
  1  'x, y, z'
loop_
 _atom_site_type_symbol
 _atom_site_label
 _atom_site_symmetry_multiplicity
 _atom_site_fract_x
 _atom_site_fract_y
 _atom_site_fract_z
 _atom_site_occupancy
  O  O0  1  0.07173821  0.91099049  0.70865115  1
  O  O1  1  0.92826179  0.08900951  0.29134885  1
  O  O2  1  0.40306612  0.74868834  0.65465233  1
  O  O3  1  0.59693388  0.25131166  0.34534767  1
  O  O4  1  0.69483710  0.90764791  0.45260252  1
  O  O5  1  0.30516290  0.09235209  0.54739748  1
  O  O6  1  0.09318568  0.78242281  0.52316497  1
  O  O7  1  0.90681432  0.21757719  0.47683503  1
  O  O8  1  0.69627147  0.50126263  0.55471058  1
  O  O9  1  0.30372853  0.49873737  0.44528942  1
  O  O10  1  0.70385563  0.15762589  0.66355532  1
  O  O11  1  0.29614437  0.84237411  0.33644468  1
  O  O12  1  0.97336995  0.63635295  0.34466663  1
  O  O13  1  0.02663005  0.36364705  0.65533337  1
  O  O14  1  0.00395096  0.82696305  0.94807950  1
  O  O15  1  0.99604904  0.17303695  0.05192050  1
  O  O16  1  0.37678356  0.81335696  0.04761148  1
  O  O17  1  0.62321644  0.18664304  0.95238852  1
  O  O18  1  0.46842924  0.45741397  0.80574205  1
  O  O19  1  0.53157076  0.54258603  0.19425795  1
  O  O20  1  0.29098009  0.12686825  0.84268813  1
  O  O21  1  0.70901991  0.87313175  0.15731187  1
  O  O22  1  0.30113635  0.39641874  0.98737554  1
  O  O23  1  0.69886365  0.60358126  0.01262446  1
  O  O24  1  0.06122485  0.49240828  0.14706241  1
  O  O25  1  0.93877515  0.50759172  0.85293759  1
  O  O26  1  0.30916189  0.17653804  0.17128216  1
  O  O27  1  0.69083811  0.82346196  0.82871784  1
  Si  Si28  1  0.22524391  0.89262434  0.60904250  1
  Si  Si29  1  0.77475609  0.10737566  0.39095750  1
  Si  Si30  1  0.83985074  0.31148308  0.58933642  1
  Si  Si31  1  0.16014926  0.68851692  0.41066358  1
  Si  Si32  1  0.83761868  0.68449941  0.90801591  1
  Si  Si33  1  0.16238132  0.31550059  0.09198409  1
  Si  Si34  1  0.57436945  0.72078359  0.10236353  1
  Si  Si35  1  0.42563055  0.27921641  0.89763647  1
  La  La36  1  0.92368885  0.16665544  0.84566914  1
  La  La37  1  0.07631115  0.83334456  0.15433086  1
  La  La38  1  0.32367189  0.76046554  0.86376061  1
  La  La39  1  0.67632811  0.23953446  0.13623939  1
  La  La40  1  0.62866238  0.62872777  0.36172055  1
  La  La41  1  0.37133762  0.37127223  0.63827945  1
  La  La42  1  0.75658354  0.80376310  0.64211607  1
  La  La43  1  0.24341646  0.19623690  0.35788393  1
