# generated using pymatgen
data_Mn3Al10
_symmetry_space_group_name_H-M   'P 1'
_cell_length_a   7.52067200
_cell_length_b   7.52067200
_cell_length_c   7.78897129
_cell_angle_alpha   90.00000000
_cell_angle_beta   90.00000000
_cell_angle_gamma   119.99999998
_symmetry_Int_Tables_number   1
_chemical_formula_structural   Mn3Al10
_chemical_formula_sum   'Mn6 Al20'
_cell_volume   381.52590513
_cell_formula_units_Z   2
loop_
 _symmetry_equiv_pos_site_id
 _symmetry_equiv_pos_as_xyz
  1  'x, y, z'
loop_
 _atom_site_type_symbol
 _atom_site_label
 _atom_site_symmetry_multiplicity
 _atom_site_fract_x
 _atom_site_fract_y
 _atom_site_fract_z
 _atom_site_occupancy
  Al  Al0  1  0.00000000  0.00000000  0.00000000  1
  Al  Al1  1  0.00000000  0.00000000  0.50000000  1
  Al  Al2  1  0.45688955  0.91377910  0.25000000  1
  Al  Al3  1  0.54311045  0.45688955  0.75000000  1
  Al  Al4  1  0.91377910  0.45688955  0.75000000  1
  Al  Al5  1  0.08622090  0.54311045  0.25000000  1
  Al  Al6  1  0.45688955  0.54311045  0.25000000  1
  Al  Al7  1  0.54311045  0.08622090  0.75000000  1
  Al  Al8  1  0.20016789  0.40033579  0.93508352  1
  Al  Al9  1  0.79983211  0.20016789  0.43508352  1
  Al  Al10  1  0.40033579  0.20016789  0.43508352  1
  Al  Al11  1  0.59966421  0.79983211  0.93508352  1
  Al  Al12  1  0.20016789  0.79983211  0.93508352  1
  Al  Al13  1  0.79983211  0.59966421  0.06491648  1
  Al  Al14  1  0.79983211  0.20016789  0.06491648  1
  Al  Al15  1  0.79983211  0.59966421  0.43508352  1
  Al  Al16  1  0.40033579  0.20016789  0.06491648  1
  Al  Al17  1  0.59966421  0.79983211  0.56491648  1
  Al  Al18  1  0.20016789  0.40033579  0.56491648  1
  Al  Al19  1  0.20016789  0.79983211  0.56491648  1
  Mn  Mn20  1  0.12104523  0.24209046  0.25000000  1
  Mn  Mn21  1  0.87895477  0.12104523  0.75000000  1
  Mn  Mn22  1  0.24209046  0.12104523  0.75000000  1
  Mn  Mn23  1  0.75790954  0.87895477  0.25000000  1
  Mn  Mn24  1  0.12104523  0.87895477  0.25000000  1
  Mn  Mn25  1  0.87895477  0.75790954  0.75000000  1
