# generated using pymatgen
data_Ge9Pd25
_symmetry_space_group_name_H-M   'P 1'
_cell_length_a   7.49113087
_cell_length_b   7.49113087
_cell_length_c   10.74609819
_cell_angle_alpha   90.00000000
_cell_angle_beta   90.00000000
_cell_angle_gamma   120.00000006
_symmetry_Int_Tables_number   1
_chemical_formula_structural   Ge9Pd25
_chemical_formula_sum   'Ge9 Pd25'
_cell_volume   522.24730151
_cell_formula_units_Z   1
loop_
 _symmetry_equiv_pos_site_id
 _symmetry_equiv_pos_as_xyz
  1  'x, y, z'
loop_
 _atom_site_type_symbol
 _atom_site_label
 _atom_site_symmetry_multiplicity
 _atom_site_fract_x
 _atom_site_fract_y
 _atom_site_fract_z
 _atom_site_occupancy
  Ge  Ge0  1  0.00000000  0.00000000  0.00000000  1
  Ge  Ge1  1  0.66666667  0.33333333  0.01986013  1
  Ge  Ge2  1  0.33333333  0.66666667  0.98013987  1
  Ge  Ge3  1  0.34265055  0.33479203  0.32189846  1
  Ge  Ge4  1  0.99214148  0.65734945  0.32189846  1
  Ge  Ge5  1  0.66520797  0.00785852  0.32189846  1
  Ge  Ge6  1  0.65734945  0.66520797  0.67810154  1
  Ge  Ge7  1  0.00785852  0.34265055  0.67810154  1
  Ge  Ge8  1  0.33479203  0.99214148  0.67810154  1
  Pd  Pd9  1  0.65653506  0.93020762  0.08013901  1
  Pd  Pd10  1  0.06979238  0.72632744  0.08013901  1
  Pd  Pd11  1  0.27367256  0.34346494  0.08013901  1
  Pd  Pd12  1  0.41770512  0.09141015  0.18570731  1
  Pd  Pd13  1  0.90858985  0.32629497  0.18570731  1
  Pd  Pd14  1  0.67370503  0.58229488  0.18570731  1
  Pd  Pd15  1  0.58229488  0.90858985  0.81429269  1
  Pd  Pd16  1  0.09141015  0.67370503  0.81429269  1
  Pd  Pd17  1  0.32629497  0.41770512  0.81429269  1
  Pd  Pd18  1  0.33333333  0.66666667  0.60766789  1
  Pd  Pd19  1  0.66666667  0.33333333  0.39233211  1
  Pd  Pd20  1  0.33333333  0.66666667  0.24312093  1
  Pd  Pd21  1  0.66666667  0.33333333  0.75687907  1
  Pd  Pd22  1  0.00000000  0.00000000  0.24876923  1
  Pd  Pd23  1  0.00000000  0.00000000  0.75123077  1
  Pd  Pd24  1  0.00000000  0.00000000  0.50000000  1
  Pd  Pd25  1  0.72632744  0.65653506  0.91986099  1
  Pd  Pd26  1  0.93020762  0.27367256  0.91986099  1
  Pd  Pd27  1  0.34346494  0.06979238  0.91986099  1
  Pd  Pd28  1  0.37992721  0.30730297  0.56882648  1
  Pd  Pd29  1  0.92737575  0.62007279  0.56882648  1
  Pd  Pd30  1  0.69269703  0.07262425  0.56882648  1
  Pd  Pd31  1  0.62007279  0.69269703  0.43117352  1
  Pd  Pd32  1  0.07262425  0.37992721  0.43117352  1
  Pd  Pd33  1  0.30730297  0.92737575  0.43117352  1
