# generated using pymatgen
data_Hf6Cr5Si7
_symmetry_space_group_name_H-M   'P 1'
_cell_length_a   5.09018740
_cell_length_b   13.20907003
_cell_length_c   16.29706312
_cell_angle_alpha   90.00000000
_cell_angle_beta   90.00000000
_cell_angle_gamma   90.00000000
_symmetry_Int_Tables_number   1
_chemical_formula_structural   Hf6Cr5Si7
_chemical_formula_sum   'Hf24 Cr20 Si28'
_cell_volume   1095.75979592
_cell_formula_units_Z   4
loop_
 _symmetry_equiv_pos_site_id
 _symmetry_equiv_pos_as_xyz
  1  'x, y, z'
loop_
 _atom_site_type_symbol
 _atom_site_label
 _atom_site_symmetry_multiplicity
 _atom_site_fract_x
 _atom_site_fract_y
 _atom_site_fract_z
 _atom_site_occupancy
  Si  Si0  1  0.49595830  0.84099947  0.56170766  1
  Si  Si1  1  0.99595830  0.15900053  0.43829234  1
  Si  Si2  1  0.50404170  0.34099947  0.93829234  1
  Si  Si3  1  0.00404170  0.65900053  0.06170766  1
  Si  Si4  1  0.50404170  0.15900053  0.43829234  1
  Si  Si5  1  0.00404170  0.84099947  0.56170766  1
  Si  Si6  1  0.49595830  0.65900053  0.06170766  1
  Si  Si7  1  0.99595830  0.34099947  0.93829234  1
  Si  Si8  1  0.25000000  0.98008256  0.25807065  1
  Si  Si9  1  0.75000000  0.01991744  0.74192935  1
  Si  Si10  1  0.75000000  0.48008256  0.24192935  1
  Si  Si11  1  0.25000000  0.51991744  0.75807065  1
  Si  Si12  1  0.25000000  0.81895731  0.78525583  1
  Si  Si13  1  0.75000000  0.18104269  0.21474417  1
  Si  Si14  1  0.75000000  0.31895731  0.71474417  1
  Si  Si15  1  0.25000000  0.68104269  0.28525583  1
  Si  Si16  1  0.25000000  0.19409218  0.12562566  1
  Si  Si17  1  0.75000000  0.80590782  0.87437434  1
  Si  Si18  1  0.75000000  0.69409218  0.37437434  1
  Si  Si19  1  0.25000000  0.30590782  0.62562566  1
  Si  Si20  1  0.25000000  0.10707201  0.80494592  1
  Si  Si21  1  0.75000000  0.89292799  0.19505408  1
  Si  Si22  1  0.75000000  0.60707201  0.69505408  1
  Si  Si23  1  0.25000000  0.39292799  0.30494592  1
  Si  Si24  1  0.25000000  0.95177794  0.01537077  1
  Si  Si25  1  0.75000000  0.04822206  0.98462923  1
  Si  Si26  1  0.75000000  0.45177794  0.48462923  1
  Si  Si27  1  0.25000000  0.54822206  0.51537077  1
  Cr  Cr28  1  0.25000000  0.14426172  0.56322602  1
  Cr  Cr29  1  0.75000000  0.85573828  0.43677398  1
  Cr  Cr30  1  0.75000000  0.64426172  0.93677398  1
  Cr  Cr31  1  0.25000000  0.35573828  0.06322602  1
  Cr  Cr32  1  0.50143515  0.16121718  0.68536398  1
  Cr  Cr33  1  0.00143515  0.83878282  0.31463602  1
  Cr  Cr34  1  0.49856485  0.66121718  0.81463602  1
  Cr  Cr35  1  0.99856485  0.33878282  0.18536398  1
  Cr  Cr36  1  0.49856485  0.83878282  0.31463602  1
  Cr  Cr37  1  0.99856485  0.16121718  0.68536398  1
  Cr  Cr38  1  0.50143515  0.33878282  0.18536398  1
  Cr  Cr39  1  0.00143515  0.66121718  0.81463602  1
  Cr  Cr40  1  0.51187789  0.03948432  0.12990860  1
  Cr  Cr41  1  0.01187789  0.96051568  0.87009140  1
  Cr  Cr42  1  0.48812211  0.53948432  0.37009140  1
  Cr  Cr43  1  0.98812211  0.46051568  0.62990860  1
  Cr  Cr44  1  0.48812211  0.96051568  0.87009140  1
  Cr  Cr45  1  0.98812211  0.03948432  0.12990860  1
  Cr  Cr46  1  0.51187789  0.46051568  0.62990860  1
  Cr  Cr47  1  0.01187789  0.53948432  0.37009140  1
  Hf  Hf48  1  0.25000000  0.18181032  0.29018582  1
  Hf  Hf49  1  0.75000000  0.81818968  0.70981418  1
  Hf  Hf50  1  0.75000000  0.68181032  0.20981418  1
  Hf  Hf51  1  0.25000000  0.31818968  0.79018582  1
  Hf  Hf52  1  0.25000000  0.81755071  0.14970568  1
  Hf  Hf53  1  0.75000000  0.18244929  0.85029432  1
  Hf  Hf54  1  0.75000000  0.31755071  0.35029432  1
  Hf  Hf55  1  0.25000000  0.68244929  0.64970568  1
  Hf  Hf56  1  0.25000000  0.96839303  0.67612552  1
  Hf  Hf57  1  0.75000000  0.03160697  0.32387448  1
  Hf  Hf58  1  0.75000000  0.46839303  0.82387448  1
  Hf  Hf59  1  0.25000000  0.53160697  0.17612552  1
  Hf  Hf60  1  0.25000000  0.73128713  0.44340393  1
  Hf  Hf61  1  0.75000000  0.26871287  0.55659607  1
  Hf  Hf62  1  0.75000000  0.23128713  0.05659607  1
  Hf  Hf63  1  0.25000000  0.76871287  0.94340393  1
  Hf  Hf64  1  0.25000000  0.97180513  0.43686242  1
  Hf  Hf65  1  0.75000000  0.02819487  0.56313758  1
  Hf  Hf66  1  0.75000000  0.47180513  0.06313758  1
  Hf  Hf67  1  0.25000000  0.52819487  0.93686242  1
  Hf  Hf68  1  0.25000000  0.35044170  0.46506205  1
  Hf  Hf69  1  0.75000000  0.64955830  0.53493795  1
  Hf  Hf70  1  0.75000000  0.85044170  0.03493795  1
  Hf  Hf71  1  0.25000000  0.14955830  0.96506205  1
