# generated using pymatgen
data_Cu4O3
_symmetry_space_group_name_H-M   'P 1'
_cell_length_a   5.90960526
_cell_length_b   5.90960526
_cell_length_c   6.45384478
_cell_angle_alpha   117.24755796
_cell_angle_beta   117.24755793
_cell_angle_gamma   90.00000001
_symmetry_Int_Tables_number   1
_chemical_formula_structural   Cu4O3
_chemical_formula_sum   'Cu8 O6'
_cell_volume   171.76648474
_cell_formula_units_Z   2
loop_
 _symmetry_equiv_pos_site_id
 _symmetry_equiv_pos_as_xyz
  1  'x, y, z'
loop_
 _atom_site_type_symbol
 _atom_site_label
 _atom_site_symmetry_multiplicity
 _atom_site_fract_x
 _atom_site_fract_y
 _atom_site_fract_z
 _atom_site_occupancy
  O  O0  1  0.62500000  0.37500000  0.25000000  1
  O  O1  1  0.37500000  0.62500000  0.75000000  1
  O  O2  1  0.63795285  0.88795285  0.27590570  1
  O  O3  1  0.88795285  0.63795285  0.77590570  1
  O  O4  1  0.36204715  0.11204715  0.72409430  1
  O  O5  1  0.11204715  0.36204715  0.22409430  1
  Cu  Cu6  1  0.50000000  0.50000000  0.50000000  1
  Cu  Cu7  1  0.50000000  0.00000000  0.00000000  1
  Cu  Cu8  1  0.00000000  0.50000000  0.50000000  1
  Cu  Cu9  1  0.50000000  0.50000000  0.00000000  1
  Cu  Cu10  1  0.00000000  0.50000000  0.00000000  1
  Cu  Cu11  1  0.00000000  0.00000000  0.50000000  1
  Cu  Cu12  1  0.50000000  0.00000000  0.50000000  1
  Cu  Cu13  1  0.00000000  0.00000000  0.00000000  1
