# generated using pymatgen
data_La7Mo7O30
_symmetry_space_group_name_H-M   'P 1'
_cell_length_a   10.22988664
_cell_length_b   10.22988664
_cell_length_c   10.22988664
_cell_angle_alpha   115.04563219
_cell_angle_beta   115.04563217
_cell_angle_gamma   115.04563220
_symmetry_Int_Tables_number   1
_chemical_formula_structural   La7Mo7O30
_chemical_formula_sum   'La7 Mo7 O30'
_cell_volume   596.65141511
_cell_formula_units_Z   1
loop_
 _symmetry_equiv_pos_site_id
 _symmetry_equiv_pos_as_xyz
  1  'x, y, z'
loop_
 _atom_site_type_symbol
 _atom_site_label
 _atom_site_symmetry_multiplicity
 _atom_site_fract_x
 _atom_site_fract_y
 _atom_site_fract_z
 _atom_site_occupancy
  O  O0  1  0.62879641  0.80888786  0.65924815  1
  O  O1  1  0.80888786  0.65924815  0.62879641  1
  O  O2  1  0.65924815  0.62879641  0.80888786  1
  O  O3  1  0.37120359  0.19111214  0.34075185  1
  O  O4  1  0.19111214  0.34075185  0.37120359  1
  O  O5  1  0.34075185  0.37120359  0.19111214  1
  O  O6  1  0.97525572  0.62199794  0.48437119  1
  O  O7  1  0.62199794  0.48437119  0.97525572  1
  O  O8  1  0.48437119  0.97525572  0.62199794  1
  O  O9  1  0.02474428  0.37800206  0.51562881  1
  O  O10  1  0.37800206  0.51562881  0.02474428  1
  O  O11  1  0.51562881  0.02474428  0.37800206  1
  O  O12  1  0.01016109  0.07040117  0.78131293  1
  O  O13  1  0.07040117  0.78131293  0.01016109  1
  O  O14  1  0.60541417  0.22507716  0.27305669  1
  O  O15  1  0.27305669  0.60541417  0.22507716  1
  O  O16  1  0.22507716  0.27305669  0.60541417  1
  O  O17  1  0.39458583  0.77492284  0.72694331  1
  O  O18  1  0.72694331  0.39458583  0.77492284  1
  O  O19  1  0.77492284  0.72694331  0.39458583  1
  O  O20  1  0.29546549  0.76137348  0.95644855  1
  O  O21  1  0.95644855  0.29546549  0.76137348  1
  O  O22  1  0.76137348  0.95644855  0.29546549  1
  O  O23  1  0.70453451  0.23862652  0.04355145  1
  O  O24  1  0.04355145  0.70453451  0.23862652  1
  O  O25  1  0.23862652  0.04355145  0.70453451  1
  O  O26  1  0.21868707  0.98983891  0.92959883  1
  O  O27  1  0.92959883  0.21868707  0.98983891  1
  O  O28  1  0.98983891  0.92959883  0.21868707  1
  O  O29  1  0.78131293  0.01016109  0.07040117  1
  Mo  Mo30  1  0.01259169  0.83757623  0.63303087  1
  Mo  Mo31  1  0.83757623  0.63303087  0.01259169  1
  Mo  Mo32  1  0.63303087  0.01259169  0.83757623  1
  Mo  Mo33  1  0.98740831  0.16242377  0.36696913  1
  Mo  Mo34  1  0.16242377  0.36696913  0.98740831  1
  Mo  Mo35  1  0.36696913  0.98740831  0.16242377  1
  Mo  Mo36  1  0.50000000  0.50000000  0.50000000  1
  La  La37  1  0.66043411  0.89110093  0.46675188  1
  La  La38  1  0.89110093  0.46675188  0.66043411  1
  La  La39  1  0.53324812  0.33956589  0.10889907  1
  La  La40  1  0.33956589  0.10889907  0.53324812  1
  La  La41  1  0.10889907  0.53324812  0.33956589  1
  La  La42  1  0.46675188  0.66043411  0.89110093  1
  La  La43  1  0.00000000  0.00000000  0.00000000  1
