# generated using pymatgen
data_SmTl(MoO4)2
_symmetry_space_group_name_H-M   'P 1'
_cell_length_a   6.37213612
_cell_length_b   6.37213612
_cell_length_c   9.63692178
_cell_angle_alpha   90.00000000
_cell_angle_beta   90.00000000
_cell_angle_gamma   90.00000000
_symmetry_Int_Tables_number   1
_chemical_formula_structural   SmTl(MoO4)2
_chemical_formula_sum   'Sm2 Tl2 Mo4 O16'
_cell_volume   391.29871616
_cell_formula_units_Z   2
loop_
 _symmetry_equiv_pos_site_id
 _symmetry_equiv_pos_as_xyz
  1  'x, y, z'
loop_
 _atom_site_type_symbol
 _atom_site_label
 _atom_site_symmetry_multiplicity
 _atom_site_fract_x
 _atom_site_fract_y
 _atom_site_fract_z
 _atom_site_occupancy
  O  O0  1  0.05171131  0.64019605  0.38847168  1
  O  O1  1  0.44828869  0.85980395  0.38847168  1
  O  O2  1  0.64019605  0.05171131  0.11152832  1
  O  O3  1  0.64019605  0.44828869  0.38847168  1
  O  O4  1  0.85980395  0.05171131  0.38847168  1
  O  O5  1  0.44828869  0.64019605  0.11152832  1
  O  O6  1  0.05171131  0.85980395  0.11152832  1
  O  O7  1  0.85980395  0.44828869  0.11152832  1
  O  O8  1  0.14019605  0.55171131  0.88847168  1
  O  O9  1  0.94828869  0.14019605  0.88847168  1
  O  O10  1  0.55171131  0.35980395  0.88847168  1
  O  O11  1  0.14019605  0.94828869  0.61152832  1
  O  O12  1  0.35980395  0.55171131  0.61152832  1
  O  O13  1  0.35980395  0.94828869  0.88847168  1
  O  O14  1  0.55171131  0.14019605  0.61152832  1
  O  O15  1  0.94828869  0.35980395  0.61152832  1
  Mo  Mo16  1  0.75000000  0.25000000  0.50000000  1
  Mo  Mo17  1  0.25000000  0.75000000  0.50000000  1
  Mo  Mo18  1  0.75000000  0.25000000  0.00000000  1
  Mo  Mo19  1  0.25000000  0.75000000  0.00000000  1
  Sm  Sm20  1  0.75000000  0.75000000  0.25000000  1
  Sm  Sm21  1  0.25000000  0.25000000  0.75000000  1
  Tl  Tl22  1  0.75000000  0.75000000  0.75000000  1
  Tl  Tl23  1  0.25000000  0.25000000  0.25000000  1
