# generated using pymatgen
data_K3Mo3C3(Se2N)2
_symmetry_space_group_name_H-M   'P 1'
_cell_length_a   9.59133163
_cell_length_b   9.59133163
_cell_length_c   9.59133163
_cell_angle_alpha   104.58281372
_cell_angle_beta   104.58281372
_cell_angle_gamma   119.76487250
_symmetry_Int_Tables_number   1
_chemical_formula_structural   K3Mo3C3(Se2N)2
_chemical_formula_sum   'K6 Mo6 C6 Se8 N4'
_cell_volume   662.53127640
_cell_formula_units_Z   2
loop_
 _symmetry_equiv_pos_site_id
 _symmetry_equiv_pos_as_xyz
  1  'x, y, z'
loop_
 _atom_site_type_symbol
 _atom_site_label
 _atom_site_symmetry_multiplicity
 _atom_site_fract_x
 _atom_site_fract_y
 _atom_site_fract_z
 _atom_site_occupancy
  K  K0  1  0.77864835  0.87007664  0.64872499  1
  K  K1  1  0.22135165  0.12992336  0.35127501  1
  K  K2  1  0.12992336  0.77864835  0.90857170  1
  K  K3  1  0.87007664  0.22135165  0.09142830  1
  K  K4  1  0.75000000  0.25000000  0.50000000  1
  K  K5  1  0.25000000  0.75000000  0.50000000  1
  Mo  Mo6  1  0.70351245  0.70351245  0.00000000  1
  Mo  Mo7  1  0.29648755  0.29648755  -0.00000000  1
  Mo  Mo8  1  0.65486609  0.55361817  0.20848427  1
  Mo  Mo9  1  0.34513391  0.44638183  0.79151573  1
  Mo  Mo10  1  0.44638183  0.65486609  0.10124792  1
  Mo  Mo11  1  0.55361817  0.34513391  0.89875208  1
  C  C12  1  0.93436909  0.93436909  -0.00000000  1
  C  C13  1  0.06563091  0.06563091  0.00000000  1
  C  C14  1  0.83227530  0.60574680  0.43802210  1
  C  C15  1  0.16772470  0.39425320  0.56197790  1
  C  C16  1  0.39425320  0.83227530  0.22652850  1
  C  C17  1  0.60574680  0.16772470  0.77347150  1
  Se  Se18  1  0.59379137  0.48974505  0.70414476  1
  Se  Se19  1  0.40620863  0.51025495  0.29585524  1
  Se  Se20  1  0.78560028  0.88964660  0.29585524  1
  Se  Se21  1  0.88964660  0.59379137  0.10404632  1
  Se  Se22  1  0.21439972  0.11035340  0.70414476  1
  Se  Se23  1  0.11035340  0.40620863  0.89595368  1
  Se  Se24  1  0.48974505  0.78560028  0.89595368  1
  Se  Se25  1  0.51025495  0.21439972  0.10404632  1
  N  N26  1  0.92984017  0.63105133  0.56089151  1
  N  N27  1  0.07015983  0.36894867  0.43910849  1
  N  N28  1  0.36894867  0.92984017  0.29878884  1
  N  N29  1  0.63105133  0.07015983  0.70121116  1
