# generated using pymatgen
data_Na7Fe3O8
_symmetry_space_group_name_H-M   'P 1'
_cell_length_a   6.00494743
_cell_length_b   8.44498729
_cell_length_c   11.51874329
_cell_angle_alpha   68.42186936
_cell_angle_beta   78.54496997
_cell_angle_gamma   70.50087245
_symmetry_Int_Tables_number   1
_chemical_formula_structural   Na7Fe3O8
_chemical_formula_sum   'Na14 Fe6 O16'
_cell_volume   510.12290591
_cell_formula_units_Z   2
loop_
 _symmetry_equiv_pos_site_id
 _symmetry_equiv_pos_as_xyz
  1  'x, y, z'
loop_
 _atom_site_type_symbol
 _atom_site_label
 _atom_site_symmetry_multiplicity
 _atom_site_fract_x
 _atom_site_fract_y
 _atom_site_fract_z
 _atom_site_occupancy
  O  O0  1  0.06163850  0.53050846  0.22428554  1
  O  O1  1  0.67981693  0.78103766  0.55547517  1
  O  O2  1  0.79378681  0.79542452  0.97013116  1
  O  O3  1  0.20621334  0.20457557  0.02986867  1
  O  O4  1  0.09728410  0.06548198  0.84214751  1
  O  O5  1  0.90271606  0.93451809  0.15785320  1
  O  O6  1  0.76024235  0.34399073  0.46356920  1
  O  O7  1  0.23975781  0.65600934  0.53643150  1
  O  O8  1  0.51143769  0.74920093  0.22734224  1
  O  O9  1  0.48856246  0.25079915  0.77265759  1
  O  O10  1  0.64644376  0.31329188  0.11630721  1
  O  O11  1  0.32018322  0.21896242  0.44452466  1
  O  O12  1  0.35355639  0.68670821  0.88369262  1
  O  O13  1  0.05293606  0.10729968  0.31100875  1
  O  O14  1  0.94706409  0.89270041  0.68899108  1
  O  O15  1  0.93835994  0.46949163  0.77571446  1
  Na  Na16  1  0.49995802  0.43913109  0.28096041  1
  Na  Na17  1  0.50004264  0.56086767  0.71903972  1
  Na  Na18  1  0.87356489  0.21818357  0.66389893  1
  Na  Na19  1  0.12643356  0.78181651  0.33610195  1
  Na  Na20  1  0.37550006  0.36023486  0.56615521  1
  Na  Na21  1  0.62450009  0.63976522  0.43384462  1
  Na  Na22  1  0.72104574  0.06842659  0.47224236  1
  Na  Na23  1  0.27895441  0.93157349  0.52775747  1
  Na  Na24  1  0.30414194  0.86579509  0.04770830  1
  Na  Na25  1  0.69585650  0.13420500  0.95229171  1
  Na  Na26  1  0.27095921  0.45268255  0.05012319  1
  Na  Na27  1  0.72903923  0.54731753  0.94987769  1
  Na  Na28  1  0.54165485  0.93719500  0.78034569  1
  Na  Na29  1  0.45834530  0.06280508  0.21965414  1
  Fe  Fe30  1  0.81561405  0.73928597  0.14862535  1
  Fe  Fe31  1  0.04374260  0.31145642  0.36244675  1
  Fe  Fe32  1  0.95625755  0.68854367  0.63755308  1
  Fe  Fe33  1  0.05846183  0.84479036  0.84675408  1
  Fe  Fe34  1  0.94153832  0.15520973  0.15324575  1
  Fe  Fe35  1  0.18438611  0.26071410  0.85137535  1
