# generated using pymatgen
data_Ni2P2O7
_symmetry_space_group_name_H-M   'P 1'
_cell_length_a   4.51647072
_cell_length_b   5.28464443
_cell_length_c   5.28464443
_cell_angle_alpha   104.16707018
_cell_angle_beta   98.01303498
_cell_angle_gamma   98.01303499
_symmetry_Int_Tables_number   1
_chemical_formula_structural   Ni2P2O7
_chemical_formula_sum   'Ni2 P2 O7'
_cell_volume   119.10922206
_cell_formula_units_Z   1
loop_
 _symmetry_equiv_pos_site_id
 _symmetry_equiv_pos_as_xyz
  1  'x, y, z'
loop_
 _atom_site_type_symbol
 _atom_site_label
 _atom_site_symmetry_multiplicity
 _atom_site_fract_x
 _atom_site_fract_y
 _atom_site_fract_z
 _atom_site_occupancy
  O  O0  1  0.27704728  0.92559582  0.61807636  1
  O  O1  1  0.72295228  0.38192444  0.07440490  1
  O  O2  1  0.72295255  0.07440475  0.38192462  1
  O  O3  1  0.27704713  0.61807470  0.92559500  1
  O  O4  1  0.99999973  0.00000002  0.00000002  1
  O  O5  1  0.21616570  0.37984500  0.37984423  1
  O  O6  1  0.78383443  0.62015564  0.62015467  1
  P  P7  1  0.90727933  0.21966354  0.21966249  1
  P  P8  1  0.09272055  0.78033769  0.78033671  1
  Ni  Ni9  1  0.50000003  0.31361524  0.68638408  1
  Ni  Ni10  1  0.50000081  0.68638428  0.31361517  1
