# generated using pymatgen
data_Y2(WO4)3
_symmetry_space_group_name_H-M   'P 1'
_cell_length_a   10.20508566
_cell_length_b   10.28585181
_cell_length_c   14.32335760
_cell_angle_alpha   90.00000000
_cell_angle_beta   90.00000000
_cell_angle_gamma   90.00000000
_symmetry_Int_Tables_number   1
_chemical_formula_structural   Y2(WO4)3
_chemical_formula_sum   'Y8 W12 O48'
_cell_volume   1503.49418347
_cell_formula_units_Z   4
loop_
 _symmetry_equiv_pos_site_id
 _symmetry_equiv_pos_as_xyz
  1  'x, y, z'
loop_
 _atom_site_type_symbol
 _atom_site_label
 _atom_site_symmetry_multiplicity
 _atom_site_fract_x
 _atom_site_fract_y
 _atom_site_fract_z
 _atom_site_occupancy
  O  O0  1  0.85661059  0.28348881  0.15862361  1
  O  O1  1  0.85661059  0.21651178  0.84137629  1
  O  O2  1  0.64338925  0.78348844  0.34137634  1
  O  O3  1  0.64338925  0.71651141  0.65862356  1
  O  O4  1  0.14338963  0.71651141  0.84137629  1
  O  O5  1  0.14338963  0.78348844  0.15862361  1
  O  O6  1  0.35661097  0.21651178  0.65862356  1
  O  O7  1  0.35661097  0.28348881  0.34137634  1
  O  O8  1  0.81875141  0.05978138  0.03322280  1
  O  O9  1  0.81875141  0.44021922  0.96677710  1
  O  O10  1  0.68124844  0.55978100  0.46677715  1
  O  O11  1  0.68124844  0.94021884  0.53322275  1
  O  O12  1  0.18124882  0.94021884  0.96677710  1
  O  O13  1  0.18124882  0.55978100  0.03322280  1
  O  O14  1  0.31875179  0.44021922  0.53322275  1
  O  O15  1  0.31875179  0.05978138  0.46677715  1
  O  O16  1  0.42427925  0.66072575  0.91935682  1
  O  O17  1  0.57572097  0.16072612  0.91935682  1
  O  O18  1  0.92427887  0.83927410  0.41935687  1
  O  O19  1  0.92427887  0.66072575  0.58064303  1
  O  O20  1  0.06487439  0.08486494  0.14035923  1
  O  O21  1  0.06487439  0.41513468  0.85964068  1
  O  O22  1  0.43512523  0.58486554  0.35964073  1
  O  O23  1  0.43512523  0.91513430  0.64035918  1
  O  O24  1  0.93512583  0.91513430  0.85964068  1
  O  O25  1  0.93512583  0.58486554  0.14035923  1
  O  O26  1  0.56487401  0.41513468  0.64035918  1
  O  O27  1  0.56487401  0.08486494  0.35964073  1
  O  O28  1  0.37022022  0.13857132  0.06534501  1
  O  O29  1  0.37022022  0.36142928  0.93465489  1
  O  O30  1  0.12977940  0.63857094  0.43465494  1
  O  O31  1  0.12977940  0.86142890  0.56534496  1
  O  O32  1  0.62978000  0.86142890  0.93465489  1
  O  O33  1  0.62978000  0.63857094  0.06534501  1
  O  O34  1  0.87022083  0.36142928  0.56534496  1
  O  O35  1  0.87022083  0.13857132  0.43465494  1
  O  O36  1  0.31696568  0.01848614  0.26263548  1
  O  O37  1  0.31696568  0.48151445  0.73736442  1
  O  O38  1  0.18303394  0.51848577  0.23736447  1
  O  O39  1  0.18303394  0.98151407  0.76263543  1
  O  O40  1  0.68303356  0.98151407  0.73736442  1
  O  O41  1  0.68303356  0.51848577  0.26263548  1
  O  O42  1  0.81696628  0.48151445  0.76263543  1
  O  O43  1  0.81696628  0.01848614  0.23736447  1
  O  O44  1  0.07572135  0.33927447  0.41935687  1
  O  O45  1  0.07572135  0.16072612  0.58064303  1
  O  O46  1  0.42427925  0.83927410  0.08064308  1
  O  O47  1  0.57572097  0.33927447  0.08064308  1
  Y  Y48  1  0.24959959  0.46883409  0.38280549  1
  Y  Y49  1  0.24959959  0.03116651  0.61719511  1
  Y  Y50  1  0.25040003  0.96883371  0.11719516  1
  Y  Y51  1  0.25040003  0.53116613  0.88280544  1
  Y  Y52  1  0.75040063  0.53116613  0.61719511  1
  Y  Y53  1  0.75040063  0.96883371  0.38280549  1
  Y  Y54  1  0.74960019  0.03116651  0.88280544  1
  Y  Y55  1  0.74960019  0.46883409  0.11719516  1
  W  W56  1  0.02742630  0.75000041  0.49999995  1
  W  W57  1  0.52742592  0.75000041  0.00000000  1
  W  W58  1  0.97257393  0.24999981  0.49999995  1
  W  W59  1  0.47257431  0.24999981  0.00000000  1
  W  W60  1  0.38933524  0.11157233  0.35707630  1
  W  W61  1  0.38933524  0.38842730  0.64292360  1
  W  W62  1  0.11066537  0.61157195  0.14292365  1
  W  W63  1  0.11066537  0.88842789  0.85707625  1
  W  W64  1  0.61066499  0.88842789  0.64292360  1
  W  W65  1  0.61066499  0.61157195  0.35707630  1
  W  W66  1  0.88933486  0.38842730  0.85707625  1
  W  W67  1  0.88933486  0.11157233  0.14292365  1
