# generated using pymatgen
data_MnTe2O5
_symmetry_space_group_name_H-M   'P 1'
_cell_length_a   6.21880198
_cell_length_b   7.47973462
_cell_length_c   11.11663052
_cell_angle_alpha   90.00000000
_cell_angle_beta   90.00000000
_cell_angle_gamma   90.00000000
_symmetry_Int_Tables_number   1
_chemical_formula_structural   MnTe2O5
_chemical_formula_sum   'Mn4 Te8 O20'
_cell_volume   517.08994040
_cell_formula_units_Z   4
loop_
 _symmetry_equiv_pos_site_id
 _symmetry_equiv_pos_as_xyz
  1  'x, y, z'
loop_
 _atom_site_type_symbol
 _atom_site_label
 _atom_site_symmetry_multiplicity
 _atom_site_fract_x
 _atom_site_fract_y
 _atom_site_fract_z
 _atom_site_occupancy
  O  O0  1  0.94954891  0.34708317  0.56513583  1
  O  O1  1  0.44954891  0.15291683  0.93486417  1
  O  O2  1  0.05045109  0.84708317  0.93486417  1
  O  O3  1  0.55045109  0.65291683  0.56513583  1
  O  O4  1  0.05045109  0.65291683  0.43486417  1
  O  O5  1  0.55045109  0.84708317  0.06513583  1
  O  O6  1  0.94954891  0.15291683  0.06513583  1
  O  O7  1  0.44954891  0.34708317  0.43486417  1
  O  O8  1  0.80926212  0.19534384  0.78928279  1
  O  O9  1  0.30926212  0.30465616  0.71071721  1
  O  O10  1  0.19073788  0.69534384  0.71071721  1
  O  O11  1  0.69073788  0.80465616  0.78928279  1
  O  O12  1  0.25000000  0.00000000  0.43641753  1
  O  O13  1  0.75000000  0.50000000  0.06358247  1
  O  O14  1  0.75000000  0.00000000  0.56358247  1
  O  O15  1  0.25000000  0.50000000  0.93641753  1
  O  O16  1  0.30926212  0.19534384  0.21071721  1
  O  O17  1  0.80926212  0.30465616  0.28928279  1
  O  O18  1  0.69073788  0.69534384  0.28928279  1
  O  O19  1  0.19073788  0.80465616  0.21071721  1
  Mn  Mn20  1  0.25000000  0.00000000  0.05952416  1
  Mn  Mn21  1  0.75000000  0.50000000  0.44047584  1
  Mn  Mn22  1  0.75000000  0.00000000  0.94047584  1
  Mn  Mn23  1  0.25000000  0.50000000  0.55952416  1
  Te  Te24  1  0.01850290  0.86520632  0.34533455  1
  Te  Te25  1  0.51850290  0.63479368  0.15466545  1
  Te  Te26  1  0.98149710  0.36520632  0.15466545  1
  Te  Te27  1  0.48149710  0.13479368  0.34533455  1
  Te  Te28  1  0.51850290  0.86520632  0.65466545  1
  Te  Te29  1  0.01850290  0.63479368  0.84533455  1
  Te  Te30  1  0.48149710  0.36520632  0.84533455  1
  Te  Te31  1  0.98149710  0.13479368  0.65466545  1
