# generated using pymatgen
data_BaTeW2O9
_symmetry_space_group_name_H-M   'P 1'
_cell_length_a   5.61084532
_cell_length_b   7.60675343
_cell_length_c   9.06798905
_cell_angle_alpha   90.00000000
_cell_angle_beta   89.97608588
_cell_angle_gamma   90.00000000
_symmetry_Int_Tables_number   1
_chemical_formula_structural   BaTeW2O9
_chemical_formula_sum   'Ba2 Te2 W4 O18'
_cell_volume   387.02461224
_cell_formula_units_Z   2
loop_
 _symmetry_equiv_pos_site_id
 _symmetry_equiv_pos_as_xyz
  1  'x, y, z'
loop_
 _atom_site_type_symbol
 _atom_site_label
 _atom_site_symmetry_multiplicity
 _atom_site_fract_x
 _atom_site_fract_y
 _atom_site_fract_z
 _atom_site_occupancy
  O  O0  1  0.70733282  0.32904686  0.62884896  1
  O  O1  1  0.29266718  0.82904686  0.37115104  1
  O  O2  1  0.00226494  0.15000668  0.82852748  1
  O  O3  1  0.99773506  0.65000668  0.17147252  1
  O  O4  1  0.52852417  0.08412977  0.82146901  1
  O  O5  1  0.47147583  0.58412977  0.17853099  1
  O  O6  1  0.22461309  0.47582534  0.58791962  1
  O  O7  1  0.77538691  0.97582534  0.41208038  1
  O  O8  1  0.55900803  0.94136313  0.12223794  1
  O  O9  1  0.44099197  0.44136313  0.87776206  1
  O  O10  1  0.04461495  0.00847023  0.14330267  1
  O  O11  1  0.95538505  0.50847023  0.85669733  1
  O  O12  1  0.97154377  0.29047928  0.32549115  1
  O  O13  1  0.02845623  0.79047928  0.67450885  1
  O  O14  1  0.30326591  0.77831829  0.94415493  1
  O  O15  1  0.69673409  0.27831829  0.05584507  1
  O  O16  1  0.48131958  0.24167285  0.29483996  1
  O  O17  1  0.51868042  0.74167285  0.70516004  1
  Te  Te18  1  0.37159696  0.36287731  0.10035763  1
  Te  Te19  1  0.62840304  0.86287731  0.89964237  1
  Ba  Ba20  1  0.24177827  0.10799480  0.56034754  1
  Ba  Ba21  1  0.75822173  0.60799480  0.43965246  1
  W  W22  1  0.24094311  0.80228340  0.17638578  1
  W  W23  1  0.78092506  0.11889204  0.25486027  1
  W  W24  1  0.75905689  0.30228340  0.82361422  1
  W  W25  1  0.21907494  0.61889204  0.74513973  1
