# generated using pymatgen
data_FeTe3O8
_symmetry_space_group_name_H-M   'P 1'
_cell_length_a   9.65687716
_cell_length_b   9.65687716
_cell_length_c   9.65687716
_cell_angle_alpha   109.47122063
_cell_angle_beta   109.47122063
_cell_angle_gamma   109.47122063
_symmetry_Int_Tables_number   1
_chemical_formula_structural   FeTe3O8
_chemical_formula_sum   'Fe4 Te12 O32'
_cell_volume   693.24737021
_cell_formula_units_Z   4
loop_
 _symmetry_equiv_pos_site_id
 _symmetry_equiv_pos_as_xyz
  1  'x, y, z'
loop_
 _atom_site_type_symbol
 _atom_site_label
 _atom_site_symmetry_multiplicity
 _atom_site_fract_x
 _atom_site_fract_y
 _atom_site_fract_z
 _atom_site_occupancy
  Fe  Fe0  1  0.00000000  0.00000000  0.00000000  1
  Fe  Fe1  1  0.50000000  0.00000000  0.50000000  1
  Fe  Fe2  1  0.50000000  0.50000000  0.00000000  1
  Fe  Fe3  1  0.00000000  0.50000000  0.50000000  1
  Te  Te4  1  0.79226237  0.54226237  0.75000000  1
  Te  Te5  1  0.20773763  0.45773763  0.25000000  1
  Te  Te6  1  0.70773763  0.95773763  0.25000000  1
  Te  Te7  1  0.54226237  0.75000000  0.79226237  1
  Te  Te8  1  0.29226237  0.04226237  0.75000000  1
  Te  Te9  1  0.45773763  0.25000000  0.20773763  1
  Te  Te10  1  0.95773763  0.25000000  0.70773763  1
  Te  Te11  1  0.04226237  0.75000000  0.29226237  1
  Te  Te12  1  0.75000000  0.79226237  0.54226237  1
  Te  Te13  1  0.25000000  0.20773763  0.45773763  1
  Te  Te14  1  0.25000000  0.70773763  0.95773763  1
  Te  Te15  1  0.75000000  0.29226237  0.04226237  1
  O  O16  1  0.56509451  0.82895512  0.52749535  1
  O  O17  1  0.43490549  0.17104488  0.47250465  1
  O  O18  1  0.93490549  0.96240084  0.76386061  1
  O  O19  1  0.19854023  0.67104488  0.73613939  1
  O  O20  1  0.82895512  0.52749535  0.56509451  1
  O  O21  1  0.06509451  0.03759916  0.23613939  1
  O  O22  1  0.80145977  0.32895512  0.26386061  1
  O  O23  1  0.17104488  0.47250465  0.43490549  1
  O  O24  1  0.30145977  0.53759916  0.97250465  1
  O  O25  1  0.96240084  0.76386061  0.93490549  1
  O  O26  1  0.69854023  0.46240084  0.02749535  1
  O  O27  1  0.03759916  0.23613939  0.06509451  1
  O  O28  1  0.67104488  0.73613939  0.19854023  1
  O  O29  1  0.32895512  0.26386061  0.80145977  1
  O  O30  1  0.53759916  0.97250465  0.30145977  1
  O  O31  1  0.46240084  0.02749535  0.69854023  1
  O  O32  1  0.52749535  0.56509451  0.82895512  1
  O  O33  1  0.47250465  0.43490549  0.17104488  1
  O  O34  1  0.73613939  0.19854023  0.67104488  1
  O  O35  1  0.26386061  0.80145977  0.32895512  1
  O  O36  1  0.97250465  0.30145977  0.53759916  1
  O  O37  1  0.02749535  0.69854023  0.46240084  1
  O  O38  1  0.76386061  0.93490549  0.96240084  1
  O  O39  1  0.23613939  0.06509451  0.03759916  1
  O  O40  1  0.65478922  0.65478922  0.65478922  1
  O  O41  1  0.34521078  0.34521078  0.34521078  1
  O  O42  1  0.84521078  0.00000000  0.50000000  1
  O  O43  1  0.50000000  0.84521078  0.00000000  1
  O  O44  1  0.15478922  -0.00000000  0.50000000  1
  O  O45  1  0.50000000  0.15478922  -0.00000000  1
  O  O46  1  -0.00000000  0.50000000  0.84521078  1
  O  O47  1  0.00000000  0.50000000  0.15478922  1
