# generated using pymatgen
data_U2F9
_symmetry_space_group_name_H-M   'P 1'
_cell_length_a   7.38829244
_cell_length_b   7.38829244
_cell_length_c   7.38829244
_cell_angle_alpha   109.47122067
_cell_angle_beta   109.47122067
_cell_angle_gamma   109.47122064
_symmetry_Int_Tables_number   1
_chemical_formula_structural   U2F9
_chemical_formula_sum   'U4 F18'
_cell_volume   310.46335046
_cell_formula_units_Z   2
loop_
 _symmetry_equiv_pos_site_id
 _symmetry_equiv_pos_as_xyz
  1  'x, y, z'
loop_
 _atom_site_type_symbol
 _atom_site_label
 _atom_site_symmetry_multiplicity
 _atom_site_fract_x
 _atom_site_fract_y
 _atom_site_fract_z
 _atom_site_occupancy
  F  F0  1  0.77230652  0.00000000  0.77230652  1
  F  F1  1  0.22769348  0.00000000  0.22769348  1
  F  F2  1  0.00000000  0.22769348  0.22769348  1
  F  F3  1  0.00000000  0.77230652  0.77230652  1
  F  F4  1  0.64448009  0.64448009  0.41129996  1
  F  F5  1  0.35551991  0.76681987  0.00000000  1
  F  F6  1  0.76681987  0.35551991  0.00000000  1
  F  F7  1  0.00000000  0.76681987  0.35551991  1
  F  F8  1  0.58870004  0.23318013  0.23318013  1
  F  F9  1  0.23318013  0.58870004  0.23318013  1
  F  F10  1  0.76681987  0.00000000  0.35551991  1
  F  F11  1  0.35551991  0.00000000  0.76681987  1
  F  F12  1  0.00000000  0.35551991  0.76681987  1
  F  F13  1  0.41129996  0.64448009  0.64448009  1
  F  F14  1  0.64448009  0.41129996  0.64448009  1
  F  F15  1  0.23318013  0.23318013  0.58870004  1
  F  F16  1  0.22769348  0.22769348  0.00000000  1
  F  F17  1  0.77230652  0.77230652  0.00000000  1
  U  U18  1  0.00000000  0.00000000  0.62568645  1
  U  U19  1  0.00000000  0.62568645  0.00000000  1
  U  U20  1  0.62568645  0.00000000  0.00000000  1
  U  U21  1  0.37431355  0.37431355  0.37431355  1
