# generated using pymatgen
data_EuWO5
_symmetry_space_group_name_H-M   'P 1'
_cell_length_a   5.39752869
_cell_length_b   6.74365026
_cell_length_c   13.04386555
_cell_angle_alpha   90.00000000
_cell_angle_beta   90.00000000
_cell_angle_gamma   110.41865914
_symmetry_Int_Tables_number   1
_chemical_formula_structural   EuWO5
_chemical_formula_sum   'Eu4 W4 O20'
_cell_volume   444.95281467
_cell_formula_units_Z   4
loop_
 _symmetry_equiv_pos_site_id
 _symmetry_equiv_pos_as_xyz
  1  'x, y, z'
loop_
 _atom_site_type_symbol
 _atom_site_label
 _atom_site_symmetry_multiplicity
 _atom_site_fract_x
 _atom_site_fract_y
 _atom_site_fract_z
 _atom_site_occupancy
  Eu  Eu0  1  0.15510884  0.78918064  0.44178377  1
  Eu  Eu1  1  0.84489116  0.21081936  0.55821623  1
  Eu  Eu2  1  0.34489116  0.71081936  0.94178377  1
  Eu  Eu3  1  0.65510884  0.28918064  0.05821623  1
  W  W4  1  0.95359318  0.84633230  0.13920114  1
  W  W5  1  0.04640682  0.15366770  0.86079886  1
  W  W6  1  0.54640682  0.65366770  0.63920114  1
  W  W7  1  0.45359318  0.34633230  0.36079886  1
  O  O8  1  0.04748191  0.57787778  0.09129097  1
  O  O9  1  0.95251809  0.42212222  0.90870903  1
  O  O10  1  0.45251809  0.92212222  0.59129097  1
  O  O11  1  0.54748191  0.07787778  0.40870903  1
  O  O12  1  0.85401872  0.83984559  0.57344608  1
  O  O13  1  0.14598128  0.16015441  0.42655392  1
  O  O14  1  0.64598128  0.66015441  0.07344608  1
  O  O15  1  0.35401872  0.33984559  0.92655392  1
  O  O16  1  0.26612285  0.97422726  0.06475527  1
  O  O17  1  0.73387715  0.02577274  0.93524473  1
  O  O18  1  0.23387715  0.52577274  0.56475527  1
  O  O19  1  0.76612285  0.47422726  0.43524473  1
  O  O20  1  0.99576053  0.78863165  0.27181233  1
  O  O21  1  0.00423947  0.21136835  0.72818767  1
  O  O22  1  0.50423947  0.71136835  0.77181233  1
  O  O23  1  0.49576053  0.28863165  0.22818767  1
  O  O24  1  0.14986101  0.92581152  0.85110625  1
  O  O25  1  0.85013899  0.07418848  0.14889375  1
  O  O26  1  0.35013899  0.57418848  0.35110625  1
  O  O27  1  0.64986101  0.42581152  0.64889375  1
