# generated using pymatgen
data_In6TeO12
_symmetry_space_group_name_H-M   'P 1'
_cell_length_a   6.32853557
_cell_length_b   6.32853570
_cell_length_c   6.32853563
_cell_angle_alpha   98.72077430
_cell_angle_beta   98.72077447
_cell_angle_gamma   98.72077629
_symmetry_Int_Tables_number   1
_chemical_formula_structural   In6TeO12
_chemical_formula_sum   'In6 Te1 O12'
_cell_volume   243.64678372
_cell_formula_units_Z   1
loop_
 _symmetry_equiv_pos_site_id
 _symmetry_equiv_pos_as_xyz
  1  'x, y, z'
loop_
 _atom_site_type_symbol
 _atom_site_label
 _atom_site_symmetry_multiplicity
 _atom_site_fract_x
 _atom_site_fract_y
 _atom_site_fract_z
 _atom_site_occupancy
  In  In0  1  0.31889735  0.14042853  0.60691529  1
  In  In1  1  0.68110265  0.85957147  0.39308471  1
  In  In2  1  0.85957147  0.39308471  0.68110265  1
  In  In3  1  0.14042853  0.60691529  0.31889735  1
  In  In4  1  0.60691529  0.31889735  0.14042853  1
  In  In5  1  0.39308471  0.68110265  0.85957147  1
  Te  Te6  1  0.00000000  0.00000000  0.00000000  1
  O  O7  1  0.04067010  0.69935779  0.91375210  1
  O  O8  1  0.08624790  0.95932990  0.30064221  1
  O  O9  1  0.69935779  0.91375210  0.04067010  1
  O  O10  1  0.59546927  0.17573205  0.41890359  1
  O  O11  1  0.58109641  0.40453073  0.82426795  1
  O  O12  1  0.17573205  0.41890359  0.59546927  1
  O  O13  1  0.41890359  0.59546927  0.17573205  1
  O  O14  1  0.91375210  0.04067010  0.69935779  1
  O  O15  1  0.30064221  0.08624790  0.95932990  1
  O  O16  1  0.82426795  0.58109641  0.40453073  1
  O  O17  1  0.95932990  0.30064221  0.08624790  1
  O  O18  1  0.40453073  0.82426795  0.58109641  1
