# generated using pymatgen
data_Mn7C3
_symmetry_space_group_name_H-M   'P 1'
_cell_length_a   4.44854465
_cell_length_b   6.80861932
_cell_length_c   11.74363750
_cell_angle_alpha   90.00000000
_cell_angle_beta   90.00000000
_cell_angle_gamma   90.00000000
_symmetry_Int_Tables_number   1
_chemical_formula_structural   Mn7C3
_chemical_formula_sum   'Mn28 C12'
_cell_volume   355.69654259
_cell_formula_units_Z   4
loop_
 _symmetry_equiv_pos_site_id
 _symmetry_equiv_pos_as_xyz
  1  'x, y, z'
loop_
 _atom_site_type_symbol
 _atom_site_label
 _atom_site_symmetry_multiplicity
 _atom_site_fract_x
 _atom_site_fract_y
 _atom_site_fract_z
 _atom_site_occupancy
  C  C0  1  0.03267008  0.75000000  0.06200985  1
  C  C1  1  0.53267008  0.75000000  0.43799015  1
  C  C2  1  0.96732992  0.25000000  0.93799015  1
  C  C3  1  0.46732992  0.25000000  0.56200985  1
  C  C4  1  0.53777720  0.02899348  0.14933667  1
  C  C5  1  0.03777720  0.47100652  0.35066333  1
  C  C6  1  0.46222280  0.52899348  0.85066333  1
  C  C7  1  0.96222280  0.97100652  0.64933667  1
  C  C8  1  0.46222280  0.97100652  0.85066333  1
  C  C9  1  0.96222280  0.52899348  0.64933667  1
  C  C10  1  0.53777720  0.47100652  0.14933667  1
  C  C11  1  0.03777720  0.02899348  0.35066333  1
  Mn  Mn12  1  0.94260807  0.93494947  0.19171939  1
  Mn  Mn13  1  0.44260807  0.56505053  0.30828061  1
  Mn  Mn14  1  0.05739193  0.43494947  0.80828061  1
  Mn  Mn15  1  0.55739193  0.06505053  0.69171939  1
  Mn  Mn16  1  0.27229877  0.25000000  0.20054998  1
  Mn  Mn17  1  0.77229877  0.25000000  0.29945002  1
  Mn  Mn18  1  0.72770123  0.75000000  0.79945002  1
  Mn  Mn19  1  0.22770123  0.75000000  0.70054998  1
  Mn  Mn20  1  0.27061449  0.25000000  0.41196175  1
  Mn  Mn21  1  0.77061449  0.25000000  0.08803825  1
  Mn  Mn22  1  0.72938551  0.75000000  0.58803825  1
  Mn  Mn23  1  0.22938551  0.75000000  0.91196175  1
  Mn  Mn24  1  0.07064812  0.25000000  0.62793017  1
  Mn  Mn25  1  0.57064812  0.25000000  0.87206983  1
  Mn  Mn26  1  0.92935188  0.75000000  0.37206983  1
  Mn  Mn27  1  0.42935188  0.75000000  0.12793017  1
  Mn  Mn28  1  0.44260807  0.93494947  0.30828061  1
  Mn  Mn29  1  0.94260807  0.56505053  0.19171939  1
  Mn  Mn30  1  0.55739193  0.43494947  0.69171939  1
  Mn  Mn31  1  0.05739193  0.06505053  0.80828061  1
  Mn  Mn32  1  0.74917329  0.06804913  0.48229393  1
  Mn  Mn33  1  0.24917329  0.43195087  0.01770607  1
  Mn  Mn34  1  0.25082671  0.56804913  0.51770607  1
  Mn  Mn35  1  0.75082671  0.93195087  0.98229393  1
  Mn  Mn36  1  0.25082671  0.93195087  0.51770607  1
  Mn  Mn37  1  0.75082671  0.56804913  0.98229393  1
  Mn  Mn38  1  0.74917329  0.43195087  0.48229393  1
  Mn  Mn39  1  0.24917329  0.06804913  0.01770607  1
