# generated using pymatgen
data_YbCoB4
_symmetry_space_group_name_H-M   'P 1'
_cell_length_a   3.30178949
_cell_length_b   5.90176313
_cell_length_c   11.42225261
_cell_angle_alpha   90.00000000
_cell_angle_beta   90.00000000
_cell_angle_gamma   90.00000000
_symmetry_Int_Tables_number   1
_chemical_formula_structural   YbCoB4
_chemical_formula_sum   'Yb4 Co4 B16'
_cell_volume   222.57834882
_cell_formula_units_Z   4
loop_
 _symmetry_equiv_pos_site_id
 _symmetry_equiv_pos_as_xyz
  1  'x, y, z'
loop_
 _atom_site_type_symbol
 _atom_site_label
 _atom_site_symmetry_multiplicity
 _atom_site_fract_x
 _atom_site_fract_y
 _atom_site_fract_z
 _atom_site_occupancy
  B  B0  1  0.50000000  0.02474230  0.68984955  1
  B  B1  1  0.50000000  0.97525770  0.31015045  1
  B  B2  1  0.50000000  0.52474230  0.81015045  1
  B  B3  1  0.50000000  0.47525770  0.18984955  1
  B  B4  1  0.50000000  0.11145698  0.54607987  1
  B  B5  1  0.50000000  0.88854302  0.45392013  1
  B  B6  1  0.50000000  0.61145698  0.95392013  1
  B  B7  1  0.50000000  0.38854302  0.04607987  1
  B  B8  1  0.50000000  0.28140886  0.31714353  1
  B  B9  1  0.50000000  0.71859114  0.68285647  1
  B  B10  1  0.50000000  0.78140886  0.18285647  1
  B  B11  1  0.50000000  0.21859114  0.81714353  1
  B  B12  1  0.50000000  0.36023359  0.46854874  1
  B  B13  1  0.50000000  0.63976641  0.53145126  1
  B  B14  1  0.50000000  0.86023359  0.03145126  1
  B  B15  1  0.50000000  0.13976641  0.96854874  1
  Co  Co16  1  0.00000000  0.36598992  0.91164674  1
  Co  Co17  1  0.00000000  0.63401008  0.08835326  1
  Co  Co18  1  0.00000000  0.86598992  0.58835326  1
  Co  Co19  1  0.00000000  0.13401008  0.41164674  1
  Yb  Yb20  1  0.00000000  0.37289703  0.65072720  1
  Yb  Yb21  1  0.00000000  0.62710297  0.34927280  1
  Yb  Yb22  1  0.00000000  0.87289703  0.84927280  1
  Yb  Yb23  1  0.00000000  0.12710297  0.15072720  1
