# generated using pymatgen
data_Sc3As2
_symmetry_space_group_name_H-M   'P 1'
_cell_length_a   10.44814546
_cell_length_b   3.87712798
_cell_length_c   10.32638118
_cell_angle_alpha   90.00000000
_cell_angle_beta   90.00000000
_cell_angle_gamma   90.00000000
_symmetry_Int_Tables_number   1
_chemical_formula_structural   Sc3As2
_chemical_formula_sum   'Sc12 As8'
_cell_volume   418.30928002
_cell_formula_units_Z   4
loop_
 _symmetry_equiv_pos_site_id
 _symmetry_equiv_pos_as_xyz
  1  'x, y, z'
loop_
 _atom_site_type_symbol
 _atom_site_label
 _atom_site_symmetry_multiplicity
 _atom_site_fract_x
 _atom_site_fract_y
 _atom_site_fract_z
 _atom_site_occupancy
  Sc  Sc0  1  0.94985834  0.25000000  0.13114224  1
  Sc  Sc1  1  0.44985834  0.25000000  0.36885776  1
  Sc  Sc2  1  0.05014166  0.75000000  0.86885776  1
  Sc  Sc3  1  0.55014166  0.75000000  0.63114224  1
  Sc  Sc4  1  0.62571679  0.25000000  0.06564637  1
  Sc  Sc5  1  0.12571679  0.25000000  0.43435363  1
  Sc  Sc6  1  0.37428321  0.75000000  0.93435363  1
  Sc  Sc7  1  0.87428321  0.75000000  0.56564637  1
  Sc  Sc8  1  0.77629327  0.25000000  0.79769373  1
  Sc  Sc9  1  0.27629327  0.25000000  0.70230627  1
  Sc  Sc10  1  0.22370673  0.75000000  0.20230627  1
  Sc  Sc11  1  0.72370673  0.75000000  0.29769373  1
  As  As12  1  0.68884926  0.25000000  0.49638003  1
  As  As13  1  0.18884926  0.25000000  0.00361997  1
  As  As14  1  0.31115074  0.75000000  0.50361997  1
  As  As15  1  0.81115074  0.75000000  0.99638003  1
  As  As16  1  0.51288285  0.25000000  0.81838190  1
  As  As17  1  0.01288285  0.25000000  0.68161810  1
  As  As18  1  0.48711715  0.75000000  0.18161810  1
  As  As19  1  0.98711715  0.75000000  0.31838190  1
