# generated using pymatgen
data_USbAs
_symmetry_space_group_name_H-M   'P 1'
_cell_length_a   4.13758931
_cell_length_b   4.13758931
_cell_length_c   8.37903672
_cell_angle_alpha   90.00000000
_cell_angle_beta   90.00000000
_cell_angle_gamma   90.00000000
_symmetry_Int_Tables_number   1
_chemical_formula_structural   USbAs
_chemical_formula_sum   'U2 Sb2 As2'
_cell_volume   143.44613659
_cell_formula_units_Z   2
loop_
 _symmetry_equiv_pos_site_id
 _symmetry_equiv_pos_as_xyz
  1  'x, y, z'
loop_
 _atom_site_type_symbol
 _atom_site_label
 _atom_site_symmetry_multiplicity
 _atom_site_fract_x
 _atom_site_fract_y
 _atom_site_fract_z
 _atom_site_occupancy
  As  As0  1  0.75000000  0.75000000  0.35555960  1
  As  As1  1  0.25000000  0.25000000  0.64444040  1
  Sb  Sb2  1  0.25000000  0.75000000  0.00000000  1
  Sb  Sb3  1  0.75000000  0.25000000  0.00000000  1
  U  U4  1  0.75000000  0.75000000  0.69740359  1
  U  U5  1  0.25000000  0.25000000  0.30259641  1
