# generated using pymatgen
data_RbCuCl3
_symmetry_space_group_name_H-M   'P 1'
_cell_length_a   6.41335957
_cell_length_b   7.15319559
_cell_length_c   11.94679410
_cell_angle_alpha   90.00000000
_cell_angle_beta   90.00000000
_cell_angle_gamma   90.00000000
_symmetry_Int_Tables_number   1
_chemical_formula_structural   RbCuCl3
_chemical_formula_sum   'Rb4 Cu4 Cl12'
_cell_volume   548.07131003
_cell_formula_units_Z   4
loop_
 _symmetry_equiv_pos_site_id
 _symmetry_equiv_pos_as_xyz
  1  'x, y, z'
loop_
 _atom_site_type_symbol
 _atom_site_label
 _atom_site_symmetry_multiplicity
 _atom_site_fract_x
 _atom_site_fract_y
 _atom_site_fract_z
 _atom_site_occupancy
  Cl  Cl0  1  0.75000000  0.50000000  0.64422746  1
  Cl  Cl1  1  0.25000000  0.00000000  0.85577254  1
  Cl  Cl2  1  0.25000000  0.50000000  0.35577254  1
  Cl  Cl3  1  0.75000000  0.00000000  0.14422746  1
  Cl  Cl4  1  0.67489878  0.75927745  0.91404876  1
  Cl  Cl5  1  0.17489878  0.74072255  0.58595124  1
  Cl  Cl6  1  0.32510122  0.25927745  0.58595124  1
  Cl  Cl7  1  0.82510122  0.24072255  0.91404876  1
  Cl  Cl8  1  0.17489878  0.75927745  0.08595124  1
  Cl  Cl9  1  0.67489878  0.74072255  0.41404876  1
  Cl  Cl10  1  0.82510122  0.25927745  0.41404876  1
  Cl  Cl11  1  0.32510122  0.24072255  0.08595124  1
  Cu  Cu12  1  0.50000000  0.00000000  0.00000000  1
  Cu  Cu13  1  0.00000000  0.50000000  0.50000000  1
  Cu  Cu14  1  0.50000000  0.50000000  0.50000000  1
  Cu  Cu15  1  0.00000000  0.00000000  0.00000000  1
  Rb  Rb16  1  0.25000000  0.50000000  0.83823758  1
  Rb  Rb17  1  0.75000000  0.00000000  0.66176242  1
  Rb  Rb18  1  0.75000000  0.50000000  0.16176242  1
  Rb  Rb19  1  0.25000000  0.00000000  0.33823758  1
