# generated using pymatgen
data_Cd5P3ClO12
_symmetry_space_group_name_H-M   'P 1'
_cell_length_a   9.92485465
_cell_length_b   9.92485465
_cell_length_c   6.57008848
_cell_angle_alpha   90.00000000
_cell_angle_beta   90.00000000
_cell_angle_gamma   119.99999996
_symmetry_Int_Tables_number   1
_chemical_formula_structural   Cd5P3ClO12
_chemical_formula_sum   'Cd10 P6 Cl2 O24'
_cell_volume   560.46714676
_cell_formula_units_Z   2
loop_
 _symmetry_equiv_pos_site_id
 _symmetry_equiv_pos_as_xyz
  1  'x, y, z'
loop_
 _atom_site_type_symbol
 _atom_site_label
 _atom_site_symmetry_multiplicity
 _atom_site_fract_x
 _atom_site_fract_y
 _atom_site_fract_z
 _atom_site_occupancy
  O  O0  1  0.49400180  0.64311074  0.75000000  1
  O  O1  1  0.92708250  0.27114810  0.56035943  1
  O  O2  1  0.27114810  0.34406560  0.43964057  1
  O  O3  1  0.92708250  0.27114810  0.93964057  1
  O  O4  1  0.34406560  0.07291750  0.93964057  1
  O  O5  1  0.65593440  0.92708250  0.43964057  1
  O  O6  1  0.07291750  0.72885190  0.43964057  1
  O  O7  1  0.72885190  0.65593440  0.93964057  1
  O  O8  1  0.72885190  0.65593440  0.56035943  1
  O  O9  1  0.07291750  0.72885190  0.06035943  1
  O  O10  1  0.27114810  0.34406560  0.06035943  1
  O  O11  1  0.54444088  0.41189686  0.75000000  1
  O  O12  1  0.13254402  0.54444088  0.25000000  1
  O  O13  1  0.41189686  0.86745598  0.25000000  1
  O  O14  1  0.58810314  0.13254402  0.75000000  1
  O  O15  1  0.86745598  0.45555912  0.75000000  1
  O  O16  1  0.50599820  0.35688926  0.25000000  1
  O  O17  1  0.14910894  0.50599820  0.75000000  1
  O  O18  1  0.35688926  0.85089106  0.75000000  1
  O  O19  1  0.64311074  0.14910894  0.25000000  1
  O  O20  1  0.85089106  0.49400180  0.25000000  1
  O  O21  1  0.34406560  0.07291750  0.56035943  1
  O  O22  1  0.45555912  0.58810314  0.25000000  1
  O  O23  1  0.65593440  0.92708250  0.06035943  1
  P  P24  1  0.02483738  0.62065016  0.25000000  1
  P  P25  1  0.59581278  0.97516262  0.25000000  1
  P  P26  1  0.40418722  0.02483738  0.75000000  1
  P  P27  1  0.62065016  0.59581278  0.75000000  1
  P  P28  1  0.97516262  0.37934984  0.75000000  1
  P  P29  1  0.37934984  0.40418722  0.25000000  1
  Cl  Cl30  1  0.00000000  0.00000000  0.25000000  1
  Cl  Cl31  1  0.00000000  0.00000000  0.75000000  1
  Cd  Cd32  1  0.66666667  0.33333333  0.00429460  1
  Cd  Cd33  1  0.33333333  0.66666667  0.50429460  1
  Cd  Cd34  1  0.66666667  0.33333333  0.49570540  1
  Cd  Cd35  1  0.33333333  0.66666667  0.99570540  1
  Cd  Cd36  1  0.75245526  0.02853959  0.75000000  1
  Cd  Cd37  1  0.72391567  0.75245526  0.25000000  1
  Cd  Cd38  1  0.02853959  0.27608433  0.25000000  1
  Cd  Cd39  1  0.97146041  0.72391567  0.75000000  1
  Cd  Cd40  1  0.27608433  0.24754474  0.75000000  1
  Cd  Cd41  1  0.24754474  0.97146041  0.25000000  1
