# generated using pymatgen
data_YbCl2
_symmetry_space_group_name_H-M   'P 1'
_cell_length_a   6.63542191
_cell_length_b   6.85063816
_cell_length_c   13.04745305
_cell_angle_alpha   90.00000000
_cell_angle_beta   90.00000000
_cell_angle_gamma   90.00000000
_symmetry_Int_Tables_number   1
_chemical_formula_structural   YbCl2
_chemical_formula_sum   'Yb8 Cl16'
_cell_volume   593.09643642
_cell_formula_units_Z   8
loop_
 _symmetry_equiv_pos_site_id
 _symmetry_equiv_pos_as_xyz
  1  'x, y, z'
loop_
 _atom_site_type_symbol
 _atom_site_label
 _atom_site_symmetry_multiplicity
 _atom_site_fract_x
 _atom_site_fract_y
 _atom_site_fract_z
 _atom_site_occupancy
  Cl  Cl0  1  0.99987924  0.23781553  0.47235022  1
  Cl  Cl1  1  0.49987924  0.76218447  0.02764978  1
  Cl  Cl2  1  0.50012076  0.73781553  0.52764978  1
  Cl  Cl3  1  0.00012076  0.26218447  0.97235022  1
  Cl  Cl4  1  0.00012076  0.76218447  0.52764978  1
  Cl  Cl5  1  0.50012076  0.23781553  0.97235022  1
  Cl  Cl6  1  0.49987924  0.26218447  0.47235022  1
  Cl  Cl7  1  0.99987924  0.73781553  0.02764978  1
  Cl  Cl8  1  0.86284055  0.87904154  0.79142247  1
  Cl  Cl9  1  0.36284055  0.12095846  0.70857753  1
  Cl  Cl10  1  0.63715945  0.37904154  0.20857753  1
  Cl  Cl11  1  0.13715945  0.62095846  0.29142247  1
  Cl  Cl12  1  0.13715945  0.12095846  0.20857753  1
  Cl  Cl13  1  0.63715945  0.87904154  0.29142247  1
  Cl  Cl14  1  0.36284055  0.62095846  0.79142247  1
  Cl  Cl15  1  0.86284055  0.37904154  0.70857753  1
  Yb  Yb16  1  0.73233445  0.04462984  0.61232280  1
  Yb  Yb17  1  0.23233445  0.95537016  0.88767720  1
  Yb  Yb18  1  0.76766555  0.54462984  0.38767720  1
  Yb  Yb19  1  0.26766555  0.45537016  0.11232280  1
  Yb  Yb20  1  0.26766555  0.95537016  0.38767720  1
  Yb  Yb21  1  0.76766555  0.04462984  0.11232280  1
  Yb  Yb22  1  0.23233445  0.45537016  0.61232280  1
  Yb  Yb23  1  0.73233445  0.54462984  0.88767720  1
