# generated using pymatgen
data_Ca3Cu2(ClO2)2
_symmetry_space_group_name_H-M   'P 1'
_cell_length_a   3.87747957
_cell_length_b   3.87747958
_cell_length_c   11.17940644
_cell_angle_alpha   99.98676196
_cell_angle_beta   99.98676197
_cell_angle_gamma   89.99999995
_symmetry_Int_Tables_number   1
_chemical_formula_structural   Ca3Cu2(ClO2)2
_chemical_formula_sum   'Ca3 Cu2 Cl2 O4'
_cell_volume   162.94730692
_cell_formula_units_Z   1
loop_
 _symmetry_equiv_pos_site_id
 _symmetry_equiv_pos_as_xyz
  1  'x, y, z'
loop_
 _atom_site_type_symbol
 _atom_site_label
 _atom_site_symmetry_multiplicity
 _atom_site_fract_x
 _atom_site_fract_y
 _atom_site_fract_z
 _atom_site_occupancy
  O  O0  1  0.92506634  0.42506634  0.85013269  1
  O  O1  1  0.42506634  0.92506634  0.85013269  1
  O  O2  1  0.57493366  0.07493366  0.14986731  1
  O  O3  1  0.07493366  0.57493366  0.14986731  1
  Cl  Cl4  1  0.29851907  0.29851907  0.59703815  1
  Cl  Cl5  1  0.70148093  0.70148093  0.40296185  1
  Ca  Ca6  1  0.00000000  0.00000000  0.00000000  1
  Ca  Ca7  1  0.14707712  0.14707712  0.29415424  1
  Ca  Ca8  1  0.85292288  0.85292288  0.70584576  1
  Cu  Cu9  1  0.42912959  0.42912959  0.85825918  1
  Cu  Cu10  1  0.57087041  0.57087041  0.14174082  1
