# generated using pymatgen
data_Na3AsH18Se4O9
_symmetry_space_group_name_H-M   'P 1'
_cell_length_a   12.22436262
_cell_length_b   12.22436262
_cell_length_c   12.22436262
_cell_angle_alpha   90.00000000
_cell_angle_beta   90.00000000
_cell_angle_gamma   90.00000000
_symmetry_Int_Tables_number   1
_chemical_formula_structural   Na3AsH18Se4O9
_chemical_formula_sum   'Na12 As4 H72 Se16 O36'
_cell_volume   1826.74813501
_cell_formula_units_Z   4
loop_
 _symmetry_equiv_pos_site_id
 _symmetry_equiv_pos_as_xyz
  1  'x, y, z'
loop_
 _atom_site_type_symbol
 _atom_site_label
 _atom_site_symmetry_multiplicity
 _atom_site_fract_x
 _atom_site_fract_y
 _atom_site_fract_z
 _atom_site_occupancy
  H  H0  1  0.43578395  0.69324070  0.87769340  1
  H  H1  1  0.93578395  0.80675930  0.12230660  1
  H  H2  1  0.56421605  0.19324070  0.62230660  1
  H  H3  1  0.80675930  0.12230660  0.93578395  1
  H  H4  1  0.62230660  0.56421605  0.19324070  1
  H  H5  1  0.12230660  0.93578395  0.80675930  1
  H  H6  1  0.69324070  0.87769340  0.43578395  1
  H  H7  1  0.87769340  0.43578395  0.69324070  1
  H  H8  1  0.19324070  0.62230660  0.56421605  1
  H  H9  1  0.30675930  0.37769340  0.06421605  1
  H  H10  1  0.37769340  0.06421605  0.30675930  1
  H  H11  1  0.06421605  0.30675930  0.37769340  1
  H  H12  1  0.44874067  0.77327514  0.77750883  1
  H  H13  1  0.94874067  0.72672486  0.22249117  1
  H  H14  1  0.55125933  0.27327514  0.72249117  1
  H  H15  1  0.72672486  0.22249117  0.94874067  1
  H  H16  1  0.72249117  0.55125933  0.27327514  1
  H  H17  1  0.22249117  0.94874067  0.72672486  1
  H  H18  1  0.77327514  0.77750883  0.44874067  1
  H  H19  1  0.77750883  0.44874067  0.77327514  1
  H  H20  1  0.27327514  0.72249117  0.55125933  1
  H  H21  1  0.22672486  0.27750883  0.05125933  1
  H  H22  1  0.27750883  0.05125933  0.22672486  1
  H  H23  1  0.05125933  0.22672486  0.27750883  1
  H  H24  1  0.32877931  0.24026115  0.53596770  1
  H  H25  1  0.82877931  0.25973885  0.46403230  1
  H  H26  1  0.67122069  0.74026115  0.96403230  1
  H  H27  1  0.25973885  0.46403230  0.82877931  1
  H  H28  1  0.96403230  0.67122069  0.74026115  1
  H  H29  1  0.46403230  0.82877931  0.25973885  1
  H  H30  1  0.24026115  0.53596770  0.32877931  1
  H  H31  1  0.53596770  0.32877931  0.24026115  1
  H  H32  1  0.74026115  0.96403230  0.67122069  1
  H  H33  1  0.75973885  0.03596770  0.17122069  1
  H  H34  1  0.19456227  0.08262535  0.51675635  1
  H  H35  1  0.03596770  0.17122069  0.75973885  1
  H  H36  1  0.24839251  0.33942560  0.51699931  1
  H  H37  1  0.74839251  0.16057440  0.48300069  1
  H  H38  1  0.75160749  0.83942560  0.98300069  1
  H  H39  1  0.16057440  0.48300069  0.74839251  1
  H  H40  1  0.98300069  0.75160749  0.83942560  1
  H  H41  1  0.48300069  0.74839251  0.16057440  1
  H  H42  1  0.33942560  0.51699931  0.24839251  1
  H  H43  1  0.51699931  0.24839251  0.33942560  1
  H  H44  1  0.83942560  0.98300069  0.75160749  1
  H  H45  1  0.66057440  0.01699931  0.25160749  1
  H  H46  1  0.01699931  0.25160749  0.66057440  1
  H  H47  1  0.25160749  0.66057440  0.01699931  1
  H  H48  1  0.57810045  0.62777235  0.35801605  1
  H  H49  1  0.07810045  0.87222765  0.64198395  1
  H  H50  1  0.42189955  0.12777235  0.14198395  1
  H  H51  1  0.87222765  0.64198395  0.07810045  1
  H  H52  1  0.14198395  0.42189955  0.12777235  1
  H  H53  1  0.64198395  0.07810045  0.87222765  1
  H  H54  1  0.62777235  0.35801605  0.57810045  1
  H  H55  1  0.35801605  0.57810045  0.62777235  1
  H  H56  1  0.12777235  0.14198395  0.42189955  1
  H  H57  1  0.37222765  0.85801605  0.92189955  1
  H  H58  1  0.85801605  0.92189955  0.37222765  1
  H  H59  1  0.92189955  0.37222765  0.85801605  1
  H  H60  1  0.48324365  0.69456227  0.41737465  1
  H  H61  1  0.98324365  0.80543773  0.58262535  1
  H  H62  1  0.51675635  0.19456227  0.08262535  1
  H  H63  1  0.80543773  0.58262535  0.98324365  1
  H  H64  1  0.08262535  0.51675635  0.19456227  1
  H  H65  1  0.58262535  0.98324365  0.80543773  1
  H  H66  1  0.69456227  0.41737465  0.48324365  1
  H  H67  1  0.41737465  0.48324365  0.69456227  1
  H  H68  1  0.01675635  0.30543773  0.91737465  1
  H  H69  1  0.91737465  0.01675635  0.30543773  1
  H  H70  1  0.30543773  0.91737465  0.01675635  1
  H  H71  1  0.17122069  0.75973885  0.03596770  1
  O  O72  1  0.39596500  0.74742528  0.83371815  1
  O  O73  1  0.89596500  0.75257472  0.16628185  1
  O  O74  1  0.60403500  0.24742528  0.66628185  1
  O  O75  1  0.75257472  0.16628185  0.89596500  1
  O  O76  1  0.66628185  0.60403500  0.24742528  1
  O  O77  1  0.16628185  0.89596500  0.75257472  1
  O  O78  1  0.74742528  0.83371815  0.39596500  1
  O  O79  1  0.83371815  0.39596500  0.74742528  1
  O  O80  1  0.24742528  0.66628185  0.60403500  1
  O  O81  1  0.25257472  0.33371815  0.10403500  1
  O  O82  1  0.33371815  0.10403500  0.25257472  1
  O  O83  1  0.10403500  0.25257472  0.33371815  1
  O  O84  1  0.31650990  0.30576899  0.49004007  1
  O  O85  1  0.81650990  0.19423101  0.50995993  1
  O  O86  1  0.68349010  0.80576899  0.00995993  1
  O  O87  1  0.19423101  0.50995993  0.81650990  1
  O  O88  1  0.00995993  0.68349010  0.80576899  1
  O  O89  1  0.50995993  0.81650990  0.19423101  1
  O  O90  1  0.30576899  0.49004007  0.31650990  1
  O  O91  1  0.49004007  0.31650990  0.30576899  1
  O  O92  1  0.80576899  0.00995993  0.68349010  1
  O  O93  1  0.69423101  0.99004007  0.18349010  1
  O  O94  1  0.99004007  0.18349010  0.69423101  1
  O  O95  1  0.18349010  0.69423101  0.99004007  1
  O  O96  1  0.52921483  0.62846605  0.42300397  1
  O  O97  1  0.02921483  0.87153395  0.57699603  1
  O  O98  1  0.47078517  0.12846605  0.07699603  1
  O  O99  1  0.87153395  0.57699603  0.02921483  1
  O  O100  1  0.07699603  0.47078517  0.12846605  1
  O  O101  1  0.57699603  0.02921483  0.87153395  1
  O  O102  1  0.62846605  0.42300397  0.52921483  1
  O  O103  1  0.42300397  0.52921483  0.62846605  1
  O  O104  1  0.12846605  0.07699603  0.47078517  1
  O  O105  1  0.37153395  0.92300397  0.97078517  1
  O  O106  1  0.92300397  0.97078517  0.37153395  1
  O  O107  1  0.97078517  0.37153395  0.92300397  1
  Na  Na108  1  0.39980730  0.10019270  0.89980730  1
  Na  Na109  1  0.10019270  0.89980730  0.39980730  1
  Na  Na110  1  0.89980730  0.39980730  0.10019270  1
  Na  Na111  1  0.60019270  0.60019270  0.60019270  1
  Na  Na112  1  0.55061216  0.94938784  0.05061216  1
  Na  Na113  1  0.94938784  0.05061216  0.55061216  1
  Na  Na114  1  0.05061216  0.55061216  0.94938784  1
  Na  Na115  1  0.29177411  0.29177411  0.29177411  1
  Na  Na116  1  0.44938784  0.44938784  0.44938784  1
  Na  Na117  1  0.79177411  0.20822589  0.70822589  1
  Na  Na118  1  0.20822589  0.70822589  0.79177411  1
  Na  Na119  1  0.70822589  0.79177411  0.20822589  1
  As  As120  1  0.46072279  0.96072279  0.53927721  1
  As  As121  1  0.53927721  0.46072279  0.96072279  1
  As  As122  1  0.96072279  0.53927721  0.46072279  1
  As  As123  1  0.03927721  0.03927721  0.03927721  1
  Se  Se124  1  0.65319982  0.57481767  0.85463044  1
  Se  Se125  1  0.57481767  0.85463044  0.65319982  1
  Se  Se126  1  0.84680018  0.42518233  0.35463044  1
  Se  Se127  1  0.42518233  0.35463044  0.84680018  1
  Se  Se128  1  0.34680018  0.07481767  0.64536956  1
  Se  Se129  1  0.15319982  0.92518233  0.14536956  1
  Se  Se130  1  0.92518233  0.14536956  0.15319982  1
  Se  Se131  1  0.14536956  0.15319982  0.92518233  1
  Se  Se132  1  0.07224830  0.42775170  0.57224830  1
  Se  Se133  1  0.42775170  0.57224830  0.07224830  1
  Se  Se134  1  0.57224830  0.07224830  0.42775170  1
  Se  Se135  1  0.92775170  0.92775170  0.92775170  1
  Se  Se136  1  0.64536956  0.34680018  0.07481767  1
  Se  Se137  1  0.85463044  0.65319982  0.57481767  1
  Se  Se138  1  0.35463044  0.84680018  0.42518233  1
  Se  Se139  1  0.07481767  0.64536956  0.34680018  1
