# generated using pymatgen
data_PbBrCl
_symmetry_space_group_name_H-M   'P 1'
_cell_length_a   4.64926437
_cell_length_b   7.93529857
_cell_length_c   9.47312827
_cell_angle_alpha   90.00000000
_cell_angle_beta   90.00000000
_cell_angle_gamma   90.00000000
_symmetry_Int_Tables_number   1
_chemical_formula_structural   PbBrCl
_chemical_formula_sum   'Pb4 Br4 Cl4'
_cell_volume   349.49497179
_cell_formula_units_Z   4
loop_
 _symmetry_equiv_pos_site_id
 _symmetry_equiv_pos_as_xyz
  1  'x, y, z'
loop_
 _atom_site_type_symbol
 _atom_site_label
 _atom_site_symmetry_multiplicity
 _atom_site_fract_x
 _atom_site_fract_y
 _atom_site_fract_z
 _atom_site_occupancy
  Cl  Cl0  1  0.75000000  0.85932540  0.92901740  1
  Cl  Cl1  1  0.25000000  0.64067460  0.42901740  1
  Cl  Cl2  1  0.75000000  0.35932540  0.57098260  1
  Cl  Cl3  1  0.25000000  0.14067460  0.07098260  1
  Br  Br4  1  0.75000000  0.97738028  0.33651470  1
  Br  Br5  1  0.25000000  0.52261972  0.83651470  1
  Br  Br6  1  0.75000000  0.47738028  0.16348530  1
  Br  Br7  1  0.25000000  0.02261972  0.66348530  1
  Pb  Pb8  1  0.25000000  0.24799609  0.40780343  1
  Pb  Pb9  1  0.75000000  0.75200391  0.59219657  1
  Pb  Pb10  1  0.25000000  0.74799609  0.09219657  1
  Pb  Pb11  1  0.75000000  0.25200391  0.90780343  1
