# generated using pymatgen
data_Rb2CuCl4
_symmetry_space_group_name_H-M   'P 1'
_cell_length_a   7.19260412
_cell_length_b   7.18692384
_cell_length_c   8.71632443
_cell_angle_alpha   114.34738858
_cell_angle_beta   90.00000000
_cell_angle_gamma   90.00000000
_symmetry_Int_Tables_number   1
_chemical_formula_structural   Rb2CuCl4
_chemical_formula_sum   'Rb4 Cu2 Cl8'
_cell_volume   410.49777623
_cell_formula_units_Z   2
loop_
 _symmetry_equiv_pos_site_id
 _symmetry_equiv_pos_as_xyz
  1  'x, y, z'
loop_
 _atom_site_type_symbol
 _atom_site_label
 _atom_site_symmetry_multiplicity
 _atom_site_fract_x
 _atom_site_fract_y
 _atom_site_fract_z
 _atom_site_occupancy
  Rb  Rb0  1  0.50000000  0.13930834  0.27861668  1
  Rb  Rb1  1  0.00000000  0.63930834  0.27861668  1
  Rb  Rb2  1  -0.00000000  0.36069166  0.72138332  1
  Rb  Rb3  1  0.50000000  0.86069166  0.72138332  1
  Cu  Cu4  1  0.00000000  0.00000000  -0.00000000  1
  Cu  Cu5  1  0.50000000  0.50000000  -0.00000000  1
  Cl  Cl6  1  -0.00000000  0.84974932  0.69949864  1
  Cl  Cl7  1  0.50000000  0.65025068  0.30050136  1
  Cl  Cl8  1  0.00000000  0.15025068  0.30050136  1
  Cl  Cl9  1  0.22519373  0.77343810  1.00000000  1
  Cl  Cl10  1  0.50000000  0.34974932  0.69949864  1
  Cl  Cl11  1  0.72519373  0.72656190  0.00000000  1
  Cl  Cl12  1  0.27480627  0.27343810  1.00000000  1
  Cl  Cl13  1  0.77480627  0.22656190  0.00000000  1
