# generated using pymatgen
data_CaH12(BrO3)2
_symmetry_space_group_name_H-M   'P 1'
_cell_length_a   8.14929011
_cell_length_b   8.14929011
_cell_length_c   4.07543343
_cell_angle_alpha   90.00000000
_cell_angle_beta   90.00000000
_cell_angle_gamma   120.00000002
_symmetry_Int_Tables_number   1
_chemical_formula_structural   CaH12(BrO3)2
_chemical_formula_sum   'Ca1 H12 Br2 O6'
_cell_volume   234.39265199
_cell_formula_units_Z   1
loop_
 _symmetry_equiv_pos_site_id
 _symmetry_equiv_pos_as_xyz
  1  'x, y, z'
loop_
 _atom_site_type_symbol
 _atom_site_label
 _atom_site_symmetry_multiplicity
 _atom_site_fract_x
 _atom_site_fract_y
 _atom_site_fract_z
 _atom_site_occupancy
  H  H0  1  0.09881616  0.42265865  0.09058823  1
  H  H1  1  0.57734135  0.67615751  0.09058823  1
  H  H2  1  0.32384249  0.90118384  0.09058823  1
  H  H3  1  0.67615751  0.57734135  0.90941177  1
  H  H4  1  0.90118384  0.32384249  0.90941177  1
  H  H5  1  0.42265865  0.09881616  0.90941177  1
  H  H6  1  0.11007435  0.77457576  0.51767076  1
  H  H7  1  0.22542424  0.33549859  0.51767076  1
  H  H8  1  0.66450141  0.88992565  0.51767076  1
  H  H9  1  0.77457576  0.11007435  0.48232924  1
  H  H10  1  0.88992565  0.66450141  0.48232924  1
  H  H11  1  0.33549859  0.22542424  0.48232924  1
  O  O12  1  0.69938762  0.69938762  0.00000000  1
  O  O13  1  0.00000000  0.30061238  0.00000000  1
  O  O14  1  0.30061238  0.00000000  0.00000000  1
  O  O15  1  0.20632405  0.20632405  0.50000000  1
  O  O16  1  0.00000000  0.79367595  0.50000000  1
  O  O17  1  0.79367595  0.00000000  0.50000000  1
  Ca  Ca18  1  0.00000000  0.00000000  0.00000000  1
  Br  Br19  1  0.33333333  0.66666667  0.41045011  1
  Br  Br20  1  0.66666667  0.33333333  0.58954989  1
