# generated using pymatgen
data_Sr2NiMoO6
_symmetry_space_group_name_H-M   'P 1'
_cell_length_a   5.64232960
_cell_length_b   5.64232960
_cell_length_c   5.64232959
_cell_angle_alpha   59.99999997
_cell_angle_beta   60.00000000
_cell_angle_gamma   59.99999994
_symmetry_Int_Tables_number   1
_chemical_formula_structural   Sr2NiMoO6
_chemical_formula_sum   'Sr2 Ni1 Mo1 O6'
_cell_volume   127.01656310
_cell_formula_units_Z   1
loop_
 _symmetry_equiv_pos_site_id
 _symmetry_equiv_pos_as_xyz
  1  'x, y, z'
loop_
 _atom_site_type_symbol
 _atom_site_label
 _atom_site_symmetry_multiplicity
 _atom_site_fract_x
 _atom_site_fract_y
 _atom_site_fract_z
 _atom_site_occupancy
  O  O0  1  0.24285604  0.75714365  0.75714424  1
  O  O1  1  0.24285604  0.75714365  0.24285683  1
  O  O2  1  0.75714331  0.24285541  0.75714473  1
  O  O3  1  0.24285652  0.24285541  0.75714442  1
  O  O4  1  0.75714331  0.24285541  0.24285731  1
  O  O5  1  0.75714283  0.75714365  0.24285714  1
  Ni  Ni6  1  0.49999968  0.49999953  0.50000078  1
  Sr  Sr7  1  0.74999915  0.75000038  0.75000080  1
  Sr  Sr8  1  0.24999947  0.25000086  0.25000003  1
  Mo  Mo9  1  0.00000000  0.00000000  0.00000000  1
