# generated using pymatgen
data_TbCoO3
_symmetry_space_group_name_H-M   'P 1'
_cell_length_a   5.20259280
_cell_length_b   5.46816311
_cell_length_c   7.44666870
_cell_angle_alpha   90.00000000
_cell_angle_beta   90.00000000
_cell_angle_gamma   90.00000000
_symmetry_Int_Tables_number   1
_chemical_formula_structural   TbCoO3
_chemical_formula_sum   'Tb4 Co4 O12'
_cell_volume   211.84749298
_cell_formula_units_Z   4
loop_
 _symmetry_equiv_pos_site_id
 _symmetry_equiv_pos_as_xyz
  1  'x, y, z'
loop_
 _atom_site_type_symbol
 _atom_site_label
 _atom_site_symmetry_multiplicity
 _atom_site_fract_x
 _atom_site_fract_y
 _atom_site_fract_z
 _atom_site_occupancy
  Tb  Tb0  1  0.51759236  0.56850265  0.25000000  1
  Tb  Tb1  1  0.98240764  0.06850265  0.25000000  1
  Tb  Tb2  1  0.48240764  0.43149735  0.75000000  1
  Tb  Tb3  1  0.01759236  0.93149735  0.75000000  1
  Co  Co4  1  0.00000000  0.50000000  0.00000000  1
  Co  Co5  1  0.50000000  -0.00000000  0.50000000  1
  Co  Co6  1  0.00000000  0.50000000  0.50000000  1
  Co  Co7  1  0.50000000  0.00000000  -0.00000000  1
  O  O8  1  0.40253085  0.97344417  0.25000000  1
  O  O9  1  0.09746915  0.47344417  0.25000000  1
  O  O10  1  0.59746915  0.02655583  0.75000000  1
  O  O11  1  0.90253085  0.52655583  0.75000000  1
  O  O12  1  0.80376673  0.79913184  0.04996113  1
  O  O13  1  0.69623327  0.29913184  0.45003887  1
  O  O14  1  0.19623327  0.20086816  0.54996113  1
  O  O15  1  0.30376673  0.70086816  0.95003887  1
  O  O16  1  0.19623327  0.20086816  0.95003887  1
  O  O17  1  0.30376673  0.70086816  0.54996113  1
  O  O18  1  0.80376673  0.79913184  0.45003887  1
  O  O19  1  0.69623327  0.29913184  0.04996113  1
