# generated using pymatgen
data_GaH4NF4
_symmetry_space_group_name_H-M   'P 1'
_cell_length_a   5.36884562
_cell_length_b   5.36884562
_cell_length_c   7.52432466
_cell_angle_alpha   110.90171410
_cell_angle_beta   110.90171403
_cell_angle_gamma   89.99999996
_symmetry_Int_Tables_number   1
_chemical_formula_structural   GaH4NF4
_chemical_formula_sum   'Ga2 H8 N2 F8'
_cell_volume   187.25549675
_cell_formula_units_Z   2
loop_
 _symmetry_equiv_pos_site_id
 _symmetry_equiv_pos_as_xyz
  1  'x, y, z'
loop_
 _atom_site_type_symbol
 _atom_site_label
 _atom_site_symmetry_multiplicity
 _atom_site_fract_x
 _atom_site_fract_y
 _atom_site_fract_z
 _atom_site_occupancy
  H  H0  1  0.09375859  0.81314527  0.40690386  1
  H  H1  1  0.90624141  0.18685473  0.59309614  1
  H  H2  1  0.68685473  0.40624141  0.59309614  1
  H  H3  1  0.18685473  0.68685473  0.59309614  1
  H  H4  1  0.40624141  0.90624141  0.59309614  1
  H  H5  1  0.59375859  0.09375859  0.40690386  1
  H  H6  1  0.81314527  0.31314527  0.40690386  1
  H  H7  1  0.31314527  0.59375859  0.40690386  1
  N  N8  1  0.25000000  0.75000000  0.50000000  1
  N  N9  1  0.75000000  0.25000000  0.50000000  1
  F  F10  1  0.69039046  0.19039046  0.00000000  1
  F  F11  1  0.85641434  0.85641434  0.71282869  1
  F  F12  1  0.35641434  0.35641434  0.71282869  1
  F  F13  1  0.14358566  0.14358566  0.28717131  1
  F  F14  1  0.19039046  0.30960954  0.00000000  1
  F  F15  1  0.80960954  0.69039046  0.00000000  1
  F  F16  1  0.30960954  0.80960954  0.00000000  1
  F  F17  1  0.64358566  0.64358566  0.28717131  1
  Ga  Ga18  1  0.50000000  0.50000000  0.00000000  1
  Ga  Ga19  1  0.00000000  0.00000000  0.00000000  1
