# generated using pymatgen
data_CsC(OF)2
_symmetry_space_group_name_H-M   'P 1'
_cell_length_a   5.90963109
_cell_length_b   9.63013353
_cell_length_c   7.95132984
_cell_angle_alpha   90.00000000
_cell_angle_beta   90.00000000
_cell_angle_gamma   90.00000000
_symmetry_Int_Tables_number   1
_chemical_formula_structural   CsC(OF)2
_chemical_formula_sum   'Cs4 C4 O8 F8'
_cell_volume   452.51444716
_cell_formula_units_Z   4
loop_
 _symmetry_equiv_pos_site_id
 _symmetry_equiv_pos_as_xyz
  1  'x, y, z'
loop_
 _atom_site_type_symbol
 _atom_site_label
 _atom_site_symmetry_multiplicity
 _atom_site_fract_x
 _atom_site_fract_y
 _atom_site_fract_z
 _atom_site_occupancy
  Cs  Cs0  1  0.75000000  0.81799379  0.33669421  1
  Cs  Cs1  1  0.25000000  0.18200621  0.66330579  1
  Cs  Cs2  1  0.25000000  0.68200621  0.83669421  1
  Cs  Cs3  1  0.75000000  0.31799379  0.16330579  1
  C  C4  1  0.75000000  0.93498963  0.79812354  1
  C  C5  1  0.25000000  0.06501037  0.20187646  1
  C  C6  1  0.25000000  0.56501037  0.29812354  1
  C  C7  1  0.75000000  0.43498963  0.70187646  1
  O  O8  1  0.92914225  0.92063368  0.70261591  1
  O  O9  1  0.07085775  0.07936632  0.29738409  1
  O  O10  1  0.07085775  0.57936632  0.20261591  1
  O  O11  1  0.42914225  0.07936632  0.29738409  1
  O  O12  1  0.92914225  0.42063368  0.79738409  1
  O  O13  1  0.57085775  0.92063368  0.70261591  1
  O  O14  1  0.57085775  0.42063368  0.79738409  1
  O  O15  1  0.42914225  0.57936632  0.20261591  1
  F  F16  1  0.75000000  0.56517870  0.60964141  1
  F  F17  1  0.25000000  0.43482130  0.39035859  1
  F  F18  1  0.25000000  0.93482130  0.10964141  1
  F  F19  1  0.75000000  0.06517870  0.89035859  1
  F  F20  1  0.75000000  0.83602705  0.93881321  1
  F  F21  1  0.25000000  0.16397295  0.06118679  1
  F  F22  1  0.25000000  0.66397295  0.43881321  1
  F  F23  1  0.75000000  0.33602705  0.56118679  1
