# generated using pymatgen
data_BaLu2CoO5
_symmetry_space_group_name_H-M   'P 1'
_cell_length_a   5.67057317
_cell_length_b   7.00706263
_cell_length_c   12.16111186
_cell_angle_alpha   90.00000000
_cell_angle_beta   90.00000000
_cell_angle_gamma   90.00000000
_symmetry_Int_Tables_number   1
_chemical_formula_structural   BaLu2CoO5
_chemical_formula_sum   'Ba4 Lu8 Co4 O20'
_cell_volume   483.21036473
_cell_formula_units_Z   4
loop_
 _symmetry_equiv_pos_site_id
 _symmetry_equiv_pos_as_xyz
  1  'x, y, z'
loop_
 _atom_site_type_symbol
 _atom_site_label
 _atom_site_symmetry_multiplicity
 _atom_site_fract_x
 _atom_site_fract_y
 _atom_site_fract_z
 _atom_site_occupancy
  O  O0  1  0.24999913  0.41809020  0.60388868  1
  O  O1  1  0.74999916  0.58190991  0.39611157  1
  O  O2  1  0.74999916  0.91808954  0.89611169  1
  O  O3  1  0.24999913  0.08191057  0.10388855  1
  O  O4  1  0.99860824  0.86505500  0.27523640  1
  O  O5  1  0.49860821  0.13494510  0.72476302  1
  O  O6  1  0.00139181  0.36505423  0.22476289  1
  O  O7  1  0.50139184  0.63494587  0.77523653  1
  O  O8  1  0.00139181  0.13494510  0.72476302  1
  O  O9  1  0.50139184  0.86505500  0.27523640  1
  O  O10  1  0.99860824  0.63494587  0.77523653  1
  O  O11  1  0.49860821  0.36505423  0.22476289  1
  O  O12  1  0.49939323  0.66321493  0.06585580  1
  O  O13  1  0.99939325  0.33678518  0.93414444  1
  O  O14  1  0.50060682  0.16321559  0.43414432  1
  O  O15  1  0.00060680  0.83678451  0.56585592  1
  O  O16  1  0.99939325  0.16321559  0.43414432  1
  O  O17  1  0.49939323  0.83678451  0.56585592  1
  O  O18  1  0.50060682  0.33678518  0.93414444  1
  O  O19  1  0.00060680  0.66321493  0.06585580  1
  Co  Co20  1  0.24999913  0.80856736  0.15217076  1
  Co  Co21  1  0.74999916  0.19143275  0.84782866  1
  Co  Co22  1  0.74999916  0.30856802  0.34782936  1
  Co  Co23  1  0.24999913  0.69143209  0.65217088  1
  Ba  Ba24  1  0.74999916  0.08047212  0.10104602  1
  Ba  Ba25  1  0.74999916  0.41952722  0.60104614  1
  Ba  Ba26  1  0.24999913  0.58047289  0.39895410  1
  Ba  Ba27  1  0.24999913  0.91952798  0.89895422  1
  Lu  Lu28  1  0.24999913  0.40237554  0.07434895  1
  Lu  Lu29  1  0.74999916  0.62050728  0.20848539  1
  Lu  Lu30  1  0.74999916  0.87949360  0.70848551  1
  Lu  Lu31  1  0.24999913  0.12050651  0.29151473  1
  Lu  Lu32  1  0.74999916  0.59762457  0.92565047  1
  Lu  Lu33  1  0.74999916  0.90237631  0.42565117  1
  Lu  Lu34  1  0.24999913  0.09762380  0.57434908  1
  Lu  Lu35  1  0.24999913  0.37949283  0.79151485  1
