# generated using pymatgen
data_MgAlH4O2F5
_symmetry_space_group_name_H-M   'P 1'
_cell_length_a   6.62701911
_cell_length_b   7.14467221
_cell_length_c   7.14467221
_cell_angle_alpha   60.48266588
_cell_angle_beta   62.36912683
_cell_angle_gamma   62.36912682
_symmetry_Int_Tables_number   1
_chemical_formula_structural   MgAlH4O2F5
_chemical_formula_sum   'Mg2 Al2 H8 O4 F10'
_cell_volume   248.36389706
_cell_formula_units_Z   2
loop_
 _symmetry_equiv_pos_site_id
 _symmetry_equiv_pos_as_xyz
  1  'x, y, z'
loop_
 _atom_site_type_symbol
 _atom_site_label
 _atom_site_symmetry_multiplicity
 _atom_site_fract_x
 _atom_site_fract_y
 _atom_site_fract_z
 _atom_site_occupancy
  H  H0  1  0.72088632  0.01177068  0.79551538  1
  H  H1  1  0.02817239  0.48822932  0.70448462  1
  H  H2  1  0.27911368  0.20448462  0.98822932  1
  H  H3  1  0.97182761  0.29551538  0.51177068  1
  H  H4  1  0.72088632  0.79551538  0.01177068  1
  H  H5  1  0.97182761  0.51177068  0.29551538  1
  H  H6  1  0.27911368  0.98822932  0.20448462  1
  H  H7  1  0.02817239  0.70448462  0.48822932  1
  O  O8  1  0.13261422  0.57686794  0.57686794  1
  O  O9  1  0.21364990  0.07686794  0.07686794  1
  O  O10  1  0.78635010  0.92313206  0.92313206  1
  O  O11  1  0.86738578  0.42313206  0.42313206  1
  F  F12  1  0.18819510  0.08018711  0.66771881  1
  F  F13  1  0.57091791  0.75000000  0.75000000  1
  F  F14  1  0.42908209  0.25000000  0.25000000  1
  F  F15  1  0.56389899  0.16771881  0.58018711  1
  F  F16  1  0.43610101  0.83228119  0.41981289  1
  F  F17  1  0.43610101  0.41981289  0.83228119  1
  F  F18  1  0.56389899  0.58018711  0.16771881  1
  F  F19  1  0.81180490  0.91981289  0.33228119  1
  F  F20  1  0.81180490  0.33228119  0.91981289  1
  F  F21  1  0.18819510  0.66771881  0.08018711  1
  Mg  Mg22  1  0.50000000  0.50000000  0.50000000  1
  Mg  Mg23  1  0.00000000  0.00000000  0.00000000  1
  Al  Al24  1  0.50000000  0.50000000  0.00000000  1
  Al  Al25  1  0.50000000  0.00000000  0.50000000  1
