# generated using pymatgen
data_LiMo3P3O16
_symmetry_space_group_name_H-M   'P 1'
_cell_length_a   6.46572359
_cell_length_b   7.93133925
_cell_length_c   12.70976054
_cell_angle_alpha   79.64448205
_cell_angle_beta   77.88179291
_cell_angle_gamma   81.01570586
_symmetry_Int_Tables_number   1
_chemical_formula_structural   LiMo3P3O16
_chemical_formula_sum   'Li2 Mo6 P6 O32'
_cell_volume   622.10566822
_cell_formula_units_Z   2
loop_
 _symmetry_equiv_pos_site_id
 _symmetry_equiv_pos_as_xyz
  1  'x, y, z'
loop_
 _atom_site_type_symbol
 _atom_site_label
 _atom_site_symmetry_multiplicity
 _atom_site_fract_x
 _atom_site_fract_y
 _atom_site_fract_z
 _atom_site_occupancy
  Li  Li0  1  0.58067874  0.35006035  0.31894781  1
  Li  Li1  1  0.41932126  0.64993965  0.68105219  1
  O  O2  1  0.62487797  0.21415513  0.67975702  1
  O  O3  1  0.37512203  0.78584487  0.32024298  1
  O  O4  1  0.85732536  0.38282765  0.78879837  1
  O  O5  1  0.14267464  0.61717235  0.21120163  1
  O  O6  1  0.43426865  0.04036784  0.88259739  1
  O  O7  1  0.56573135  0.95963216  0.11740261  1
  O  O8  1  0.62847552  0.24172171  0.99285007  1
  O  O9  1  0.37152448  0.75827829  0.00714993  1
  O  O10  1  0.40928731  0.42314557  0.82580439  1
  O  O11  1  0.59071269  0.57685443  0.17419561  1
  O  O12  1  0.66413467  0.76098096  0.83771495  1
  O  O13  1  0.33586533  0.23901904  0.16228505  1
  O  O14  1  0.20706630  0.05286499  0.63668422  1
  O  O15  1  0.79293370  0.94713501  0.36331578  1
  O  O16  1  0.90399490  0.22598830  0.50714365  1
  O  O17  1  0.09600510  0.77401170  0.49285635  1
  O  O18  1  0.52853431  0.24894637  0.49358695  1
  O  O19  1  0.47146569  0.75105363  0.50641305  1
  O  O20  1  0.29222626  0.03850137  0.41715848  1
  O  O21  1  0.70777374  0.96149863  0.58284152  1
  O  O22  1  0.13205983  0.41869861  0.61219753  1
  O  O23  1  0.86794017  0.58130139  0.38780247  1
  O  O24  1  0.23508161  0.39798455  0.37218911  1
  O  O25  1  0.76491839  0.60201545  0.62781089  1
  O  O26  1  0.06071477  0.28575228  0.01812932  1
  O  O27  1  0.93928523  0.71424772  0.98187068  1
  O  O28  1  0.94910098  0.35597613  0.26891531  1
  O  O29  1  0.05089902  0.64402387  0.73108469  1
  O  O30  1  0.71589684  0.19564645  0.17982697  1
  O  O31  1  0.28410316  0.80435355  0.82017303  1
  O  O32  1  0.12244649  0.97828599  0.15809123  1
  O  O33  1  0.87755351  0.02171401  0.84190877  1
  P  P34  1  0.94558793  0.50932949  0.68745157  1
  P  P35  1  0.05441207  0.49067051  0.31254843  1
  P  P36  1  0.69266632  0.15990729  0.56685315  1
  P  P37  1  0.30733368  0.84009271  0.43314685  1
  P  P38  1  0.43994912  0.84448706  0.88950895  1
  P  P39  1  0.56005088  0.15551294  0.11049105  1
  Mo  Mo40  1  0.96196138  0.79867748  0.84787845  1
  Mo  Mo41  1  0.03803862  0.20132252  0.15212155  1
  Mo  Mo42  1  0.60196177  0.24972378  0.83447964  1
  Mo  Mo43  1  0.39803823  0.75027622  0.16552036  1
  Mo  Mo44  1  0.79294901  0.78770285  0.47293309  1
  Mo  Mo45  1  0.20705099  0.21229715  0.52706691  1
