# generated using pymatgen
data_BaU2O7
_symmetry_space_group_name_H-M   'P 1'
_cell_length_a   7.20311049
_cell_length_b   7.20311049
_cell_length_c   7.96600141
_cell_angle_alpha   116.87951387
_cell_angle_beta   116.87951388
_cell_angle_gamma   90.00000003
_symmetry_Int_Tables_number   1
_chemical_formula_structural   BaU2O7
_chemical_formula_sum   'Ba2 U4 O14'
_cell_volume   317.79081772
_cell_formula_units_Z   2
loop_
 _symmetry_equiv_pos_site_id
 _symmetry_equiv_pos_as_xyz
  1  'x, y, z'
loop_
 _atom_site_type_symbol
 _atom_site_label
 _atom_site_symmetry_multiplicity
 _atom_site_fract_x
 _atom_site_fract_y
 _atom_site_fract_z
 _atom_site_occupancy
  O  O0  1  0.62500000  0.37500000  0.25000000  1
  O  O1  1  0.37500000  0.62500000  0.75000000  1
  O  O2  1  0.59290537  0.84290537  0.18581075  1
  O  O3  1  0.84290537  0.59290537  0.68581075  1
  O  O4  1  0.40709463  0.15709463  0.81418925  1
  O  O5  1  0.15709463  0.40709463  0.31418925  1
  O  O6  1  0.23641491  0.00000000  0.00000000  1
  O  O7  1  0.50000000  0.23641491  0.50000000  1
  O  O8  1  0.00000000  0.76358509  0.50000000  1
  O  O9  1  0.76358509  0.50000000  0.00000000  1
  O  O10  1  0.76358509  0.00000000  0.00000000  1
  O  O11  1  0.50000000  0.76358509  0.50000000  1
  O  O12  1  0.00000000  0.23641491  0.50000000  1
  O  O13  1  0.23641491  0.50000000  0.00000000  1
  Ba  Ba14  1  0.87500000  0.12500000  0.75000000  1
  Ba  Ba15  1  0.12500000  0.87500000  0.25000000  1
  U  U16  1  0.50000000  0.00000000  0.00000000  1
  U  U17  1  0.50000000  0.50000000  0.50000000  1
  U  U18  1  0.00000000  0.50000000  0.50000000  1
  U  U19  1  0.50000000  0.50000000  0.00000000  1
