# generated using pymatgen
data_BaHoFe4O7
_symmetry_space_group_name_H-M   'P 1'
_cell_length_a   6.48947019
_cell_length_b   6.48947019
_cell_length_c   6.48947019
_cell_angle_alpha   60.00000000
_cell_angle_beta   60.00000000
_cell_angle_gamma   60.00000000
_symmetry_Int_Tables_number   1
_chemical_formula_structural   BaHoFe4O7
_chemical_formula_sum   'Ba1 Ho1 Fe4 O7'
_cell_volume   193.24698561
_cell_formula_units_Z   1
loop_
 _symmetry_equiv_pos_site_id
 _symmetry_equiv_pos_as_xyz
  1  'x, y, z'
loop_
 _atom_site_type_symbol
 _atom_site_label
 _atom_site_symmetry_multiplicity
 _atom_site_fract_x
 _atom_site_fract_y
 _atom_site_fract_z
 _atom_site_occupancy
  Ba  Ba0  1  0.25000000  0.25000000  0.25000000  1
  Ho  Ho1  1  0.00000000  0.00000000  0.00000000  1
  Fe  Fe2  1  0.61807445  0.61807445  0.61807445  1
  Fe  Fe3  1  0.14577664  0.61807445  0.61807445  1
  Fe  Fe4  1  0.61807445  0.14577664  0.61807445  1
  Fe  Fe5  1  0.61807445  0.61807445  0.14577664  1
  O  O6  1  0.75397921  0.75397921  0.24602079  1
  O  O7  1  0.24602079  0.24602079  0.75397921  1
  O  O8  1  0.75397921  0.24602079  0.75397921  1
  O  O9  1  0.24602079  0.75397921  0.24602079  1
  O  O10  1  0.24602079  0.75397921  0.75397921  1
  O  O11  1  0.75397921  0.24602079  0.24602079  1
  O  O12  1  0.75000000  0.75000000  0.75000000  1
