# generated using pymatgen
data_Tl4HgBr6
_symmetry_space_group_name_H-M   'P 1'
_cell_length_a   9.13436889
_cell_length_b   9.11194414
_cell_length_c   9.11194414
_cell_angle_alpha   90.00000000
_cell_angle_beta   90.00000000
_cell_angle_gamma   90.00000000
_symmetry_Int_Tables_number   1
_chemical_formula_structural   Tl4HgBr6
_chemical_formula_sum   'Tl8 Hg2 Br12'
_cell_volume   758.40405060
_cell_formula_units_Z   2
loop_
 _symmetry_equiv_pos_site_id
 _symmetry_equiv_pos_as_xyz
  1  'x, y, z'
loop_
 _atom_site_type_symbol
 _atom_site_label
 _atom_site_symmetry_multiplicity
 _atom_site_fract_x
 _atom_site_fract_y
 _atom_site_fract_z
 _atom_site_occupancy
  Br  Br0  1  0.50000000  0.36304938  0.18593792  1
  Br  Br1  1  0.50000000  0.63695062  0.81406208  1
  Br  Br2  1  0.50000000  0.18593792  0.63695062  1
  Br  Br3  1  0.50000000  0.81406208  0.36304938  1
  Br  Br4  1  0.00000000  0.68593792  0.86304938  1
  Br  Br5  1  0.00000000  0.13695062  0.68593792  1
  Br  Br6  1  0.00000000  0.86304938  0.31406208  1
  Br  Br7  1  0.00000000  0.31406208  0.13695062  1
  Br  Br8  1  0.78422140  0.50000000  0.50000000  1
  Br  Br9  1  0.71577860  0.00000000  0.00000000  1
  Br  Br10  1  0.28422140  0.00000000  0.00000000  1
  Br  Br11  1  0.21577860  0.50000000  0.50000000  1
  Hg  Hg12  1  0.00000000  0.00000000  0.00000000  1
  Hg  Hg13  1  0.50000000  0.50000000  0.50000000  1
  Tl  Tl14  1  0.75000000  0.34698297  0.84698297  1
  Tl  Tl15  1  0.75000000  0.84698297  0.65301703  1
  Tl  Tl16  1  0.25000000  0.84698297  0.65301703  1
  Tl  Tl17  1  0.25000000  0.34698297  0.84698297  1
  Tl  Tl18  1  0.25000000  0.65301703  0.15301703  1
  Tl  Tl19  1  0.25000000  0.15301703  0.34698297  1
  Tl  Tl20  1  0.75000000  0.65301703  0.15301703  1
  Tl  Tl21  1  0.75000000  0.15301703  0.34698297  1
