# generated using pymatgen
data_Ho3Ni19B10
_symmetry_space_group_name_H-M   'P 1'
_cell_length_a   5.75822781
_cell_length_b   7.88377616
_cell_length_c   7.88377617
_cell_angle_alpha   66.90997188
_cell_angle_beta   88.84982880
_cell_angle_gamma   88.84982882
_symmetry_Int_Tables_number   1
_chemical_formula_structural   Ho3Ni19B10
_chemical_formula_sum   'Ho3 Ni19 B10'
_cell_volume   329.13000125
_cell_formula_units_Z   1
loop_
 _symmetry_equiv_pos_site_id
 _symmetry_equiv_pos_as_xyz
  1  'x, y, z'
loop_
 _atom_site_type_symbol
 _atom_site_label
 _atom_site_symmetry_multiplicity
 _atom_site_fract_x
 _atom_site_fract_y
 _atom_site_fract_z
 _atom_site_occupancy
  B  B0  1  0.56908136  0.93473849  0.30108788  1
  B  B1  1  0.43091864  0.69891212  0.06526151  1
  B  B2  1  0.43091864  0.06526151  0.69891212  1
  B  B3  1  0.02517094  0.14257019  0.34951438  1
  B  B4  1  0.02517094  0.34951438  0.14257019  1
  B  B5  1  0.97482906  0.85742981  0.65048562  1
  B  B6  1  0.00000000  0.38470866  0.61529134  1
  B  B7  1  0.00000000  0.61529134  0.38470866  1
  B  B8  1  0.56908136  0.30108788  0.93473849  1
  B  B9  1  0.97482906  0.65048562  0.85742981  1
  Ni  Ni10  1  0.27089964  0.81821429  0.81821429  1
  Ni  Ni11  1  0.69769909  0.51734966  0.04512230  1
  Ni  Ni12  1  0.69769909  0.04512230  0.51734966  1
  Ni  Ni13  1  0.30230091  0.48265034  0.95487770  1
  Ni  Ni14  1  0.30230091  0.95487770  0.48265034  1
  Ni  Ni15  1  0.92628676  0.87812544  0.37720419  1
  Ni  Ni16  1  0.92628676  0.37720419  0.87812544  1
  Ni  Ni17  1  0.07371324  0.12187456  0.62279581  1
  Ni  Ni18  1  0.30098293  0.28893372  0.77022285  1
  Ni  Ni19  1  0.69901707  0.22977715  0.71106628  1
  Ni  Ni20  1  0.69901707  0.71106628  0.22977715  1
  Ni  Ni21  1  0.30098293  0.77022285  0.28893372  1
  Ni  Ni22  1  0.70376466  0.83776735  0.83776735  1
  Ni  Ni23  1  0.29623534  0.16223265  0.16223265  1
  Ni  Ni24  1  0.87329738  0.37791519  0.37791519  1
  Ni  Ni25  1  0.12670262  0.62208481  0.62208481  1
  Ni  Ni26  1  0.50000000  0.00000000  0.00000000  1
  Ni  Ni27  1  0.07371324  0.62279581  0.12187456  1
  Ni  Ni28  1  0.72910036  0.18178571  0.18178571  1
  Ho  Ho29  1  0.38575915  0.37426825  0.37426825  1
  Ho  Ho30  1  0.61424085  0.62573175  0.62573175  1
  Ho  Ho31  1  0.00000000  0.00000000  0.00000000  1
