# generated using pymatgen
data_ThI2
_symmetry_space_group_name_H-M   'P 1'
_cell_length_a   3.96975738
_cell_length_b   3.96975738
_cell_length_c   37.95277868
_cell_angle_alpha   90.00000000
_cell_angle_beta   90.00000000
_cell_angle_gamma   119.99999999
_symmetry_Int_Tables_number   1
_chemical_formula_structural   ThI2
_chemical_formula_sum   'Th4 I8'
_cell_volume   517.96705715
_cell_formula_units_Z   4
loop_
 _symmetry_equiv_pos_site_id
 _symmetry_equiv_pos_as_xyz
  1  'x, y, z'
loop_
 _atom_site_type_symbol
 _atom_site_label
 _atom_site_symmetry_multiplicity
 _atom_site_fract_x
 _atom_site_fract_y
 _atom_site_fract_z
 _atom_site_occupancy
  I  I0  1  0.33333333  0.66666667  0.43989303  1
  I  I1  1  0.66666667  0.33333333  0.93989303  1
  I  I2  1  0.66666667  0.33333333  0.56010697  1
  I  I3  1  0.33333333  0.66666667  0.06010697  1
  I  I4  1  0.00000000  0.00000000  0.19033068  1
  I  I5  1  0.00000000  0.00000000  0.69033068  1
  I  I6  1  0.00000000  0.00000000  0.80966932  1
  I  I7  1  0.00000000  0.00000000  0.30966932  1
  Th  Th8  1  0.66666667  0.33333333  0.75000000  1
  Th  Th9  1  0.33333333  0.66666667  0.25000000  1
  Th  Th10  1  0.00000000  0.00000000  0.50000000  1
  Th  Th11  1  0.00000000  0.00000000  0.00000000  1
