# generated using pymatgen
data_Al2Fe3Si4
_symmetry_space_group_name_H-M   'P 1'
_cell_length_a   3.64971203
_cell_length_b   6.37445594
_cell_length_c   10.08008829
_cell_angle_alpha   90.00000000
_cell_angle_beta   90.00000000
_cell_angle_gamma   106.63515755
_symmetry_Int_Tables_number   1
_chemical_formula_structural   Al2Fe3Si4
_chemical_formula_sum   'Al4 Fe6 Si8'
_cell_volume   224.69750206
_cell_formula_units_Z   2
loop_
 _symmetry_equiv_pos_site_id
 _symmetry_equiv_pos_as_xyz
  1  'x, y, z'
loop_
 _atom_site_type_symbol
 _atom_site_label
 _atom_site_symmetry_multiplicity
 _atom_site_fract_x
 _atom_site_fract_y
 _atom_site_fract_z
 _atom_site_occupancy
  Al  Al0  1  0.05751807  0.11503615  0.89088219  1
  Al  Al1  1  0.94248193  0.88496385  0.10911781  1
  Al  Al2  1  0.05751807  0.11503615  0.60911781  1
  Al  Al3  1  0.94248193  0.88496385  0.39088219  1
  Fe  Fe4  1  0.14934986  0.29869972  0.37476341  1
  Fe  Fe5  1  0.85065014  0.70130028  0.62523659  1
  Fe  Fe6  1  0.14934986  0.29869972  0.12523659  1
  Fe  Fe7  1  0.85065014  0.70130028  0.87476341  1
  Fe  Fe8  1  0.35228610  0.70457220  0.25000000  1
  Fe  Fe9  1  0.64771390  0.29542780  0.75000000  1
  Si  Si10  1  0.31943996  0.63887991  0.48643828  1
  Si  Si11  1  0.68056004  0.36112009  0.51356172  1
  Si  Si12  1  0.31943996  0.63887991  0.01356172  1
  Si  Si13  1  0.68056004  0.36112009  0.98643828  1
  Si  Si14  1  0.54509139  0.09018277  0.25000000  1
  Si  Si15  1  0.45490861  0.90981723  0.75000000  1
  Si  Si16  1  0.74003116  0.48006232  0.25000000  1
  Si  Si17  1  0.25996884  0.51993768  0.75000000  1
