# generated using pymatgen
data_Li2Ta3N5
_symmetry_space_group_name_H-M   'P 1'
_cell_length_a   4.22610712
_cell_length_b   5.36660628
_cell_length_c   9.69119662
_cell_angle_alpha   90.87743049
_cell_angle_beta   90.00000000
_cell_angle_gamma   113.18748398
_symmetry_Int_Tables_number   1
_chemical_formula_structural   Li2Ta3N5
_chemical_formula_sum   'Li4 Ta6 N10'
_cell_volume   202.01214515
_cell_formula_units_Z   2
loop_
 _symmetry_equiv_pos_site_id
 _symmetry_equiv_pos_as_xyz
  1  'x, y, z'
loop_
 _atom_site_type_symbol
 _atom_site_label
 _atom_site_symmetry_multiplicity
 _atom_site_fract_x
 _atom_site_fract_y
 _atom_site_fract_z
 _atom_site_occupancy
  Li  Li0  1  0.35330548  0.70661096  0.45164649  1
  Li  Li1  1  0.54371549  0.08743098  0.84703307  1
  Li  Li2  1  0.45628451  0.91256902  0.15296693  1
  Li  Li3  1  0.64669452  0.29338904  0.54835351  1
  N  N4  1  0.43254304  0.86508608  0.65597108  1
  N  N5  1  0.56745696  0.13491392  0.34402892  1
  N  N6  1  0.13917334  0.27834667  0.55333580  1
  N  N7  1  0.95364540  0.90729080  0.15279328  1
  N  N8  1  0.04635460  0.09270920  0.84720672  1
  N  N9  1  0.86082666  0.72165333  0.44666420  1
  N  N10  1  0.65393179  0.30786358  0.04945681  1
  N  N11  1  0.34606821  0.69213642  0.95054319  1
  N  N12  1  0.25054220  0.50108440  0.25050519  1
  N  N13  1  0.74945780  0.49891560  0.74949481  1
  Ta  Ta14  1  0.94509886  0.89019772  0.64373492  1
  Ta  Ta15  1  0.05490114  0.10980228  0.35626508  1
  Ta  Ta16  1  0.23742016  0.47484032  0.74410873  1
  Ta  Ta17  1  0.76257984  0.52515968  0.25589127  1
  Ta  Ta18  1  0.85675081  0.71350161  0.95250849  1
  Ta  Ta19  1  0.14324919  0.28649839  0.04749151  1
