# generated using pymatgen
data_In7Br9
_symmetry_space_group_name_H-M   'P 1'
_cell_length_a   12.92131120
_cell_length_b   12.92131120
_cell_length_c   12.92131120
_cell_angle_alpha   90.00000000
_cell_angle_beta   90.00000000
_cell_angle_gamma   90.00000000
_symmetry_Int_Tables_number   1
_chemical_formula_structural   In7Br9
_chemical_formula_sum   'In28 Br36'
_cell_volume   2157.34577633
_cell_formula_units_Z   4
loop_
 _symmetry_equiv_pos_site_id
 _symmetry_equiv_pos_as_xyz
  1  'x, y, z'
loop_
 _atom_site_type_symbol
 _atom_site_label
 _atom_site_symmetry_multiplicity
 _atom_site_fract_x
 _atom_site_fract_y
 _atom_site_fract_z
 _atom_site_occupancy
  Br  Br0  1  0.94765014  0.19994292  0.45482828  1
  Br  Br1  1  0.44765014  0.30005708  0.54517172  1
  Br  Br2  1  0.05234986  0.69994292  0.04517172  1
  Br  Br3  1  0.30005708  0.54517172  0.44765014  1
  Br  Br4  1  0.04517172  0.05234986  0.69994292  1
  Br  Br5  1  0.54517172  0.44765014  0.30005708  1
  Br  Br6  1  0.19994292  0.45482828  0.94765014  1
  Br  Br7  1  0.45482828  0.94765014  0.19994292  1
  Br  Br8  1  0.69994292  0.04517172  0.05234986  1
  Br  Br9  1  0.80005708  0.95482828  0.55234986  1
  Br  Br10  1  0.95482828  0.55234986  0.80005708  1
  Br  Br11  1  0.55234986  0.80005708  0.95482828  1
  Br  Br12  1  0.05234986  0.80005708  0.54517172  1
  Br  Br13  1  0.55234986  0.69994292  0.45482828  1
  Br  Br14  1  0.94765014  0.30005708  0.95482828  1
  Br  Br15  1  0.82904038  0.67095962  0.32904038  1
  Br  Br16  1  0.69994292  0.45482828  0.55234986  1
  Br  Br17  1  0.45482828  0.55234986  0.69994292  1
  Br  Br18  1  0.80005708  0.54517172  0.05234986  1
  Br  Br19  1  0.54517172  0.05234986  0.80005708  1
  Br  Br20  1  0.30005708  0.95482828  0.94765014  1
  Br  Br21  1  0.19994292  0.04517172  0.44765014  1
  Br  Br22  1  0.04517172  0.44765014  0.19994292  1
  Br  Br23  1  0.44765014  0.19994292  0.04517172  1
  Br  Br24  1  0.17095962  0.32904038  0.67095962  1
  Br  Br25  1  0.32904038  0.67095962  0.17095962  1
  Br  Br26  1  0.67095962  0.17095962  0.32904038  1
  Br  Br27  1  0.82904038  0.82904038  0.82904038  1
  Br  Br28  1  0.00000000  0.00000000  0.00000000  1
  Br  Br29  1  0.50000000  0.00000000  0.50000000  1
  Br  Br30  1  0.50000000  0.50000000  0.00000000  1
  Br  Br31  1  0.00000000  0.50000000  0.50000000  1
  Br  Br32  1  0.17095962  0.17095962  0.17095962  1
  Br  Br33  1  0.32904038  0.82904038  0.67095962  1
  Br  Br34  1  0.67095962  0.32904038  0.82904038  1
  Br  Br35  1  0.95482828  0.94765014  0.30005708  1
  In  In36  1  0.81766698  0.43311047  0.32849350  1
  In  In37  1  0.31766698  0.06688953  0.67150650  1
  In  In38  1  0.18233302  0.93311047  0.17150650  1
  In  In39  1  0.06688953  0.67150650  0.31766698  1
  In  In40  1  0.17150650  0.18233302  0.93311047  1
  In  In41  1  0.67150650  0.31766698  0.06688953  1
  In  In42  1  0.43311047  0.32849350  0.81766698  1
  In  In43  1  0.32849350  0.81766698  0.43311047  1
  In  In44  1  0.93311047  0.17150650  0.18233302  1
  In  In45  1  0.56688953  0.82849350  0.68233302  1
  In  In46  1  0.82849350  0.68233302  0.56688953  1
  In  In47  1  0.68233302  0.56688953  0.82849350  1
  In  In48  1  0.18233302  0.56688953  0.67150650  1
  In  In49  1  0.68233302  0.93311047  0.32849350  1
  In  In50  1  0.81766698  0.06688953  0.82849350  1
  In  In51  1  0.93311047  0.32849350  0.68233302  1
  In  In52  1  0.82849350  0.81766698  0.06688953  1
  In  In53  1  0.32849350  0.68233302  0.93311047  1
  In  In54  1  0.56688953  0.67150650  0.18233302  1
  In  In55  1  0.67150650  0.18233302  0.56688953  1
  In  In56  1  0.06688953  0.82849350  0.81766698  1
  In  In57  1  0.43311047  0.17150650  0.31766698  1
  In  In58  1  0.17150650  0.31766698  0.43311047  1
  In  In59  1  0.31766698  0.43311047  0.17150650  1
  In  In60  1  0.50000000  0.50000000  0.50000000  1
  In  In61  1  0.50000000  0.00000000  0.00000000  1
  In  In62  1  0.00000000  0.00000000  0.50000000  1
  In  In63  1  0.00000000  0.50000000  0.00000000  1
