# generated using pymatgen
data_Te3SeO8
_symmetry_space_group_name_H-M   'P 1'
_cell_length_a   5.02602878
_cell_length_b   7.01487522
_cell_length_c   11.81086544
_cell_angle_alpha   77.62404750
_cell_angle_beta   78.60706958
_cell_angle_gamma   69.40145798
_symmetry_Int_Tables_number   1
_chemical_formula_structural   Te3SeO8
_chemical_formula_sum   'Te6 Se2 O16'
_cell_volume   377.32326530
_cell_formula_units_Z   2
loop_
 _symmetry_equiv_pos_site_id
 _symmetry_equiv_pos_as_xyz
  1  'x, y, z'
loop_
 _atom_site_type_symbol
 _atom_site_label
 _atom_site_symmetry_multiplicity
 _atom_site_fract_x
 _atom_site_fract_y
 _atom_site_fract_z
 _atom_site_occupancy
  O  O0  1  0.50797018  0.29791009  0.80293908  1
  O  O1  1  0.49202982  0.70208991  0.19706092  1
  O  O2  1  0.17839525  0.63841344  0.92774004  1
  O  O3  1  0.82160475  0.36158656  0.07225996  1
  O  O4  1  0.58884779  0.77507734  0.78052697  1
  O  O5  1  0.41115221  0.22492266  0.21947303  1
  O  O6  1  0.64678364  0.30777156  0.55716924  1
  O  O7  1  0.35321636  0.69222844  0.44283076  1
  O  O8  1  0.74558304  0.96895689  0.43500878  1
  O  O9  1  0.25441696  0.03104311  0.56499122  1
  O  O10  1  0.99315703  0.63666976  0.32821940  1
  O  O11  1  0.00684297  0.36333024  0.67178060  1
  O  O12  1  0.84138917  0.31635984  0.32081862  1
  O  O13  1  0.15861083  0.68364016  0.67918138  1
  O  O14  1  0.92245136  0.94845234  0.14360892  1
  O  O15  1  0.07754864  0.05154766  0.85639108  1
  Se  Se16  1  0.34793509  0.82526422  0.90460563  1
  Se  Se17  1  0.65206491  0.17473578  0.09539437  1
  Te  Te18  1  0.48807226  0.74540859  0.57154461  1
  Te  Te19  1  0.51192774  0.25459141  0.42845539  1
  Te  Te20  1  0.11060169  0.46488102  0.80591738  1
  Te  Te21  1  0.88939831  0.53511898  0.19408262  1
  Te  Te22  1  0.85795241  0.13792564  0.69640238  1
  Te  Te23  1  0.14204759  0.86207436  0.30359762  1
