# generated using pymatgen
data_Th6Cd7
_symmetry_space_group_name_H-M   'P 1'
_cell_length_a   6.04096883
_cell_length_b   9.93921739
_cell_length_c   11.69000410
_cell_angle_alpha   90.00000000
_cell_angle_beta   90.00000000
_cell_angle_gamma   90.00000000
_symmetry_Int_Tables_number   1
_chemical_formula_structural   Th6Cd7
_chemical_formula_sum   'Th12 Cd14'
_cell_volume   701.89709979
_cell_formula_units_Z   2
loop_
 _symmetry_equiv_pos_site_id
 _symmetry_equiv_pos_as_xyz
  1  'x, y, z'
loop_
 _atom_site_type_symbol
 _atom_site_label
 _atom_site_symmetry_multiplicity
 _atom_site_fract_x
 _atom_site_fract_y
 _atom_site_fract_z
 _atom_site_occupancy
  Cd  Cd0  1  0.00000000  0.00000000  0.00000000  1
  Cd  Cd1  1  0.00000000  0.50000000  0.50000000  1
  Cd  Cd2  1  0.00000000  0.90332550  0.75251958  1
  Cd  Cd3  1  0.00000000  0.09667450  0.24748042  1
  Cd  Cd4  1  0.00000000  0.40332550  0.74748042  1
  Cd  Cd5  1  0.00000000  0.59667450  0.25251958  1
  Cd  Cd6  1  0.74394448  0.15484097  0.81920924  1
  Cd  Cd7  1  0.74394448  0.84515903  0.18079076  1
  Cd  Cd8  1  0.25605552  0.65484097  0.68079076  1
  Cd  Cd9  1  0.25605552  0.34515903  0.31920924  1
  Cd  Cd10  1  0.25605552  0.84515903  0.18079076  1
  Cd  Cd11  1  0.25605552  0.15484097  0.81920924  1
  Cd  Cd12  1  0.74394448  0.34515903  0.31920924  1
  Cd  Cd13  1  0.74394448  0.65484097  0.68079076  1
  Th  Th14  1  0.00000000  0.65652678  0.95658386  1
  Th  Th15  1  0.00000000  0.34347322  0.04341614  1
  Th  Th16  1  0.00000000  0.15652678  0.54341614  1
  Th  Th17  1  0.00000000  0.84347322  0.45658386  1
  Th  Th18  1  0.50000000  0.83207485  0.91399001  1
  Th  Th19  1  0.50000000  0.16792515  0.08600999  1
  Th  Th20  1  0.50000000  0.33207485  0.58600999  1
  Th  Th21  1  0.50000000  0.66792515  0.41399001  1
  Th  Th22  1  0.50000000  0.45040677  0.87370325  1
  Th  Th23  1  0.50000000  0.54959323  0.12629675  1
  Th  Th24  1  0.50000000  0.95040677  0.62629675  1
  Th  Th25  1  0.50000000  0.04959323  0.37370325  1
