# generated using pymatgen
data_Ba2Y2Co4O11
_symmetry_space_group_name_H-M   'P 1'
_cell_length_a   3.91431627
_cell_length_b   7.59728404
_cell_length_c   7.89986227
_cell_angle_alpha   90.00000000
_cell_angle_beta   90.00000000
_cell_angle_gamma   90.00000000
_symmetry_Int_Tables_number   1
_chemical_formula_structural   Ba2Y2Co4O11
_chemical_formula_sum   'Ba2 Y2 Co4 O11'
_cell_volume   234.92746711
_cell_formula_units_Z   1
loop_
 _symmetry_equiv_pos_site_id
 _symmetry_equiv_pos_as_xyz
  1  'x, y, z'
loop_
 _atom_site_type_symbol
 _atom_site_label
 _atom_site_symmetry_multiplicity
 _atom_site_fract_x
 _atom_site_fract_y
 _atom_site_fract_z
 _atom_site_occupancy
  Ba  Ba0  1  0.50000000  -0.00000000  0.25552367  1
  Ba  Ba1  1  0.50000000  -0.00000000  0.74447633  1
  Y  Y2  1  0.50000000  0.50000000  0.22977738  1
  Y  Y3  1  0.50000000  0.50000000  0.77022262  1
  Co  Co4  1  0.00000000  0.25256888  0.00000000  1
  Co  Co5  1  -0.00000000  0.74743112  0.00000000  1
  Co  Co6  1  -0.00000000  0.26186477  0.50000000  1
  Co  Co7  1  0.00000000  0.73813523  0.50000000  1
  O  O8  1  -0.00000000  0.00000000  0.00000000  1
  O  O9  1  0.50000000  0.31404727  0.50000000  1
  O  O10  1  0.50000000  0.68595273  0.50000000  1
  O  O11  1  0.50000000  0.27700202  0.00000000  1
  O  O12  1  0.50000000  0.72299798  0.00000000  1
  O  O13  1  0.00000000  0.30206506  0.26829175  1
  O  O14  1  -0.00000000  0.69793494  0.73170825  1
  O  O15  1  -0.00000000  0.69793494  0.26829175  1
  O  O16  1  0.00000000  0.30206506  0.73170825  1
  O  O17  1  -0.00000000  0.00000000  0.50000000  1
  O  O18  1  -0.00000000  0.50000000  0.00000000  1
