# generated using pymatgen
data_Hf27P16
_symmetry_space_group_name_H-M   'P 1'
_cell_length_a   3.54380910
_cell_length_b   14.93891896
_cell_length_c   14.93891896
_cell_angle_alpha   77.22219722
_cell_angle_beta   83.18811385
_cell_angle_gamma   83.18811389
_symmetry_Int_Tables_number   1
_chemical_formula_structural   Hf27P16
_chemical_formula_sum   'Hf27 P16'
_cell_volume   762.35319299
_cell_formula_units_Z   1
loop_
 _symmetry_equiv_pos_site_id
 _symmetry_equiv_pos_as_xyz
  1  'x, y, z'
loop_
 _atom_site_type_symbol
 _atom_site_label
 _atom_site_symmetry_multiplicity
 _atom_site_fract_x
 _atom_site_fract_y
 _atom_site_fract_z
 _atom_site_occupancy
  P  P0  1  0.00000000  0.13851943  0.86148057  1
  P  P1  1  0.00000000  0.86148057  0.13851943  1
  P  P2  1  0.50000000  0.69129942  0.30870058  1
  P  P3  1  0.50000000  0.30870058  0.69129942  1
  P  P4  1  0.43988139  0.56011861  0.56011861  1
  P  P5  1  0.56011861  0.43988139  0.43988139  1
  P  P6  1  0.12468983  0.87531017  0.87531017  1
  P  P7  1  0.87531017  0.12468983  0.12468983  1
  P  P8  1  0.65678154  0.61174816  0.07468876  1
  P  P9  1  0.34321846  0.38825184  0.92531124  1
  P  P10  1  0.34321846  0.92531124  0.38825184  1
  P  P11  1  0.65678154  0.07468876  0.61174816  1
  P  P12  1  0.71451657  0.36121265  0.20975421  1
  P  P13  1  0.28548343  0.63878735  0.79024579  1
  P  P14  1  0.28548343  0.79024579  0.63878735  1
  P  P15  1  0.71451657  0.20975421  0.36121265  1
  Hf  Hf16  1  0.57996697  0.01302439  0.82704167  1
  Hf  Hf17  1  0.42003303  0.98697561  0.17295833  1
  Hf  Hf18  1  0.42003303  0.17295833  0.98697561  1
  Hf  Hf19  1  0.57996697  0.82704167  0.01302439  1
  Hf  Hf20  1  0.28470231  0.21529769  0.21529769  1
  Hf  Hf21  1  0.71529769  0.78470231  0.78470231  1
  Hf  Hf22  1  0.14673184  0.35326816  0.35326816  1
  Hf  Hf23  1  0.85326816  0.64673184  0.64673184  1
  Hf  Hf24  1  0.00000000  0.58384421  0.41615579  1
  Hf  Hf25  1  0.00000000  0.41615579  0.58384421  1
  Hf  Hf26  1  0.00000000  0.00000000  0.00000000  1
  Hf  Hf27  1  0.78459531  0.52946125  0.90134813  1
  Hf  Hf28  1  0.21540469  0.47053875  0.09865187  1
  Hf  Hf29  1  0.21540469  0.09865187  0.47053875  1
  Hf  Hf30  1  0.78459531  0.90134813  0.52946125  1
  Hf  Hf31  1  0.92882180  0.31682801  0.82552840  1
  Hf  Hf32  1  0.07117820  0.68317199  0.17447160  1
  Hf  Hf33  1  0.07117820  0.17447160  0.68317199  1
  Hf  Hf34  1  0.92882180  0.82552840  0.31682801  1
  Hf  Hf35  1  0.81743041  0.31583077  0.04930842  1
  Hf  Hf36  1  0.18256959  0.68416923  0.95069158  1
  Hf  Hf37  1  0.18256959  0.95069158  0.68416923  1
  Hf  Hf38  1  0.81743041  0.04930842  0.31583077  1
  Hf  Hf39  1  0.60856990  0.52282986  0.26003035  1
  Hf  Hf40  1  0.39143010  0.47717014  0.73996965  1
  Hf  Hf41  1  0.39143010  0.73996965  0.47717014  1
  Hf  Hf42  1  0.60856990  0.26003035  0.52282986  1
