# generated using pymatgen
data_CsPdCl3
_symmetry_space_group_name_H-M   'P 1'
_cell_length_a   9.21949146
_cell_length_b   9.94113891
_cell_length_c   9.94113891
_cell_angle_alpha   64.92847856
_cell_angle_beta   62.37362159
_cell_angle_gamma   62.37362159
_symmetry_Int_Tables_number   1
_chemical_formula_structural   CsPdCl3
_chemical_formula_sum   'Cs4 Pd4 Cl12'
_cell_volume   689.46791642
_cell_formula_units_Z   4
loop_
 _symmetry_equiv_pos_site_id
 _symmetry_equiv_pos_as_xyz
  1  'x, y, z'
loop_
 _atom_site_type_symbol
 _atom_site_label
 _atom_site_symmetry_multiplicity
 _atom_site_fract_x
 _atom_site_fract_y
 _atom_site_fract_z
 _atom_site_occupancy
  Cl  Cl0  1  0.89621753  0.54107141  0.66649353  1
  Cl  Cl1  1  0.10378247  0.45892859  0.33350647  1
  Cl  Cl2  1  0.60378247  0.33350647  0.45892859  1
  Cl  Cl3  1  0.39621753  0.66649353  0.54107141  1
  Cl  Cl4  1  0.99600232  0.15472805  0.85326730  1
  Cl  Cl5  1  0.00399768  0.84527195  0.14673270  1
  Cl  Cl6  1  0.50399768  0.14673270  0.84527195  1
  Cl  Cl7  1  0.49600232  0.85326730  0.15472805  1
  Cl  Cl8  1  0.70705528  0.51061812  0.07527133  1
  Cl  Cl9  1  0.29294472  0.48938188  0.92472867  1
  Cl  Cl10  1  0.79294472  0.92472867  0.48938188  1
  Cl  Cl11  1  0.20705528  0.07527133  0.51061812  1
  Pd  Pd12  1  0.05159627  0.30211136  0.59469610  1
  Pd  Pd13  1  0.94840373  0.69788864  0.40530390  1
  Pd  Pd14  1  0.44840373  0.40530390  0.69788864  1
  Pd  Pd15  1  0.55159627  0.59469610  0.30211136  1
  Cs  Cs16  1  0.57446259  0.17553741  0.17553741  1
  Cs  Cs17  1  0.92553741  0.82446259  0.82446259  1
  Cs  Cs18  1  0.42553741  0.82446259  0.82446259  1
  Cs  Cs19  1  0.07446259  0.17553741  0.17553741  1
