# generated using pymatgen
data_SrLaI4
_symmetry_space_group_name_H-M   'P 1'
_cell_length_a   7.56849240
_cell_length_b   8.65109948
_cell_length_c   9.14081558
_cell_angle_alpha   113.26387222
_cell_angle_beta   108.93864951
_cell_angle_gamma   100.89463332
_symmetry_Int_Tables_number   1
_chemical_formula_structural   SrLaI4
_chemical_formula_sum   'Sr2 La2 I8'
_cell_volume   484.19032068
_cell_formula_units_Z   2
loop_
 _symmetry_equiv_pos_site_id
 _symmetry_equiv_pos_as_xyz
  1  'x, y, z'
loop_
 _atom_site_type_symbol
 _atom_site_label
 _atom_site_symmetry_multiplicity
 _atom_site_fract_x
 _atom_site_fract_y
 _atom_site_fract_z
 _atom_site_occupancy
  Sr  Sr0  1  0.38484072  0.63484072  0.26968144  1
  Sr  Sr1  1  0.61515928  0.36515928  0.73031856  1
  I  I2  1  0.35853543  0.94626454  0.64651611  1
  I  I3  1  0.78798068  0.70025158  0.64651611  1
  I  I4  1  0.64146457  0.05373546  0.35348389  1
  I  I5  1  0.21201932  0.29974842  0.35348389  1
  I  I6  1  0.62829780  0.36573850  0.12298065  1
  I  I7  1  0.99468285  0.75724215  0.12298065  1
  I  I8  1  0.37170220  0.63426150  0.87701935  1
  I  I9  1  0.00531715  0.24275785  0.87701935  1
  La  La10  1  0.24964628  0.99964628  0.99929256  1
  La  La11  1  0.75035372  0.00035372  0.00070744  1
