# generated using pymatgen
data_BaGdCl5
_symmetry_space_group_name_H-M   'P 1'
_cell_length_a   5.57540653
_cell_length_b   6.93225321
_cell_length_c   10.12929800
_cell_angle_alpha   89.10018276
_cell_angle_beta   74.02535806
_cell_angle_gamma   86.72881402
_symmetry_Int_Tables_number   1
_chemical_formula_structural   BaGdCl5
_chemical_formula_sum   'Ba2 Gd2 Cl10'
_cell_volume   375.76715156
_cell_formula_units_Z   2
loop_
 _symmetry_equiv_pos_site_id
 _symmetry_equiv_pos_as_xyz
  1  'x, y, z'
loop_
 _atom_site_type_symbol
 _atom_site_label
 _atom_site_symmetry_multiplicity
 _atom_site_fract_x
 _atom_site_fract_y
 _atom_site_fract_z
 _atom_site_occupancy
  Cl  Cl0  1  0.62675875  0.25000000  0.74648249  1
  Cl  Cl1  1  0.37324125  0.75000000  0.25351751  1
  Cl  Cl2  1  0.27402712  0.90328591  0.93531901  1
  Cl  Cl3  1  0.79065387  0.59671409  0.93531901  1
  Cl  Cl4  1  0.81919176  0.00111582  0.37602642  1
  Cl  Cl5  1  0.80478182  0.49888418  0.37602642  1
  Cl  Cl6  1  0.18080824  0.99888418  0.62397358  1
  Cl  Cl7  1  0.19521818  0.50111582  0.62397358  1
  Cl  Cl8  1  0.20934613  0.40328591  0.06468099  1
  Cl  Cl9  1  0.72597288  0.09671409  0.06468099  1
  Ba  Ba10  1  0.32776837  0.25000000  0.34446327  1
  Ba  Ba11  1  0.67223163  0.75000000  0.65553673  1
  Gd  Gd12  1  0.07656861  0.25000000  0.84686278  1
  Gd  Gd13  1  0.92343139  0.75000000  0.15313722  1
