# generated using pymatgen
data_TlBrO3
_symmetry_space_group_name_H-M   'P 1'
_cell_length_a   4.63004051
_cell_length_b   4.63004051
_cell_length_c   4.63004052
_cell_angle_alpha   84.61645973
_cell_angle_beta   84.61645983
_cell_angle_gamma   84.61645981
_symmetry_Int_Tables_number   1
_chemical_formula_structural   TlBrO3
_chemical_formula_sum   'Tl1 Br1 O3'
_cell_volume   98.01916379
_cell_formula_units_Z   1
loop_
 _symmetry_equiv_pos_site_id
 _symmetry_equiv_pos_as_xyz
  1  'x, y, z'
loop_
 _atom_site_type_symbol
 _atom_site_label
 _atom_site_symmetry_multiplicity
 _atom_site_fract_x
 _atom_site_fract_y
 _atom_site_fract_z
 _atom_site_occupancy
  O  O0  1  0.13287259  0.56369702  0.56369702  1
  O  O1  1  0.56369702  0.56369702  0.13287259  1
  O  O2  1  0.56369702  0.13287259  0.56369702  1
  Br  Br3  1  0.49818389  0.49818389  0.49818389  1
  Tl  Tl4  1  -0.00445053  -0.00445053  -0.00445053  1
