# generated using pymatgen
data_La3(AlI)2
_symmetry_space_group_name_H-M   'P 1'
_cell_length_a   4.35223713
_cell_length_b   10.19195015
_cell_length_c   11.37922728
_cell_angle_alpha   70.43825784
_cell_angle_beta   78.97507206
_cell_angle_gamma   77.67166993
_symmetry_Int_Tables_number   1
_chemical_formula_structural   La3(AlI)2
_chemical_formula_sum   'La6 Al4 I4'
_cell_volume   460.70747432
_cell_formula_units_Z   2
loop_
 _symmetry_equiv_pos_site_id
 _symmetry_equiv_pos_as_xyz
  1  'x, y, z'
loop_
 _atom_site_type_symbol
 _atom_site_label
 _atom_site_symmetry_multiplicity
 _atom_site_fract_x
 _atom_site_fract_y
 _atom_site_fract_z
 _atom_site_occupancy
  Al  Al0  1  0.07302252  0.38733212  0.46662285  1
  Al  Al1  1  0.92697748  0.61266788  0.53337715  1
  Al  Al2  1  0.65910755  0.26648701  0.41529790  1
  Al  Al3  1  0.34089245  0.73351299  0.58470210  1
  I  I4  1  0.57667122  0.01690000  0.82975756  1
  I  I5  1  0.42332878  0.98310000  0.17024244  1
  I  I6  1  0.14154830  0.65746066  0.05944274  1
  I  I7  1  0.85845170  0.34253934  0.94055726  1
  La  La8  1  0.16925159  0.05344194  0.60805488  1
  La  La9  1  0.83074841  0.94655806  0.39194512  1
  La  La10  1  0.24518990  0.31144671  0.19817348  1
  La  La11  1  0.75481010  0.68855329  0.80182652  1
  La  La12  1  0.46541638  0.37831912  0.69084812  1
  La  La13  1  0.53458362  0.62168088  0.30915188  1
