# generated using pymatgen
data_LiVPO4
_symmetry_space_group_name_H-M   'P 1'
_cell_length_a   5.07128224
_cell_length_b   5.07128225
_cell_length_c   6.30154924
_cell_angle_alpha   90.00000000
_cell_angle_beta   90.00000000
_cell_angle_gamma   66.50206673
_symmetry_Int_Tables_number   1
_chemical_formula_structural   LiVPO4
_chemical_formula_sum   'Li2 V2 P2 O8'
_cell_volume   148.62350369
_cell_formula_units_Z   2
loop_
 _symmetry_equiv_pos_site_id
 _symmetry_equiv_pos_as_xyz
  1  'x, y, z'
loop_
 _atom_site_type_symbol
 _atom_site_label
 _atom_site_symmetry_multiplicity
 _atom_site_fract_x
 _atom_site_fract_y
 _atom_site_fract_z
 _atom_site_occupancy
  Li  Li0  1  0.33357570  0.33357444  0.75000053  1
  Li  Li1  1  0.66642412  0.66642551  0.25000071  1
  O  O2  1  0.24245594  0.69195487  0.25000071  1
  O  O3  1  0.25199925  0.25199870  0.45205916  1
  O  O4  1  0.25199925  0.25199870  0.04794227  1
  O  O5  1  0.30804511  0.75754369  0.75000053  1
  O  O6  1  0.69195471  0.24245627  0.25000071  1
  O  O7  1  0.74800058  0.74800126  0.95205898  1
  O  O8  1  0.74800058  0.74800126  0.54794209  1
  O  O9  1  0.75754388  0.30804509  0.75000053  1
  P  P10  1  0.35272501  0.35272344  0.25000071  1
  P  P11  1  0.64727482  0.64727651  0.75000053  1
  V  V12  1  0.00000000  0.00000000  0.00000000  1
  V  V13  1  0.00000000  0.00000000  0.49999982  1
