# generated using pymatgen
data_LiMo2P3O13
_symmetry_space_group_name_H-M   'P 1'
_cell_length_a   6.48928023
_cell_length_b   22.62171212
_cell_length_c   7.15596048
_cell_angle_alpha   90.00000000
_cell_angle_beta   81.10122169
_cell_angle_gamma   90.00000000
_symmetry_Int_Tables_number   1
_chemical_formula_structural   LiMo2P3O13
_chemical_formula_sum   'Li4 Mo8 P12 O52'
_cell_volume   1037.84067201
_cell_formula_units_Z   4
loop_
 _symmetry_equiv_pos_site_id
 _symmetry_equiv_pos_as_xyz
  1  'x, y, z'
loop_
 _atom_site_type_symbol
 _atom_site_label
 _atom_site_symmetry_multiplicity
 _atom_site_fract_x
 _atom_site_fract_y
 _atom_site_fract_z
 _atom_site_occupancy
  Li  Li0  1  0.27131496  0.34992915  0.78719605  1
  Li  Li1  1  0.22868492  0.84992913  0.71280266  1
  Li  Li2  1  0.77131435  0.15007084  0.28719720  1
  Li  Li3  1  0.72868588  0.65007082  0.21280358  1
  O  O4  1  0.22923651  0.65987016  0.70514154  1
  O  O5  1  0.85820747  0.87614771  0.82322393  1
  O  O6  1  0.98511923  0.43421823  0.20501092  1
  O  O7  1  0.89725926  0.08534101  0.45673807  1
  O  O8  1  0.77651553  0.38660875  0.98124991  1
  O  O9  1  0.90367850  0.94106597  0.22956711  1
  O  O10  1  0.78961717  0.97765860  0.69757305  1
  O  O11  1  0.77980989  0.15458803  0.76850266  1
  O  O12  1  0.02741778  0.30953803  0.56087105  1
  O  O13  1  0.14179338  0.12385226  0.17677710  1
  O  O14  1  0.01488005  0.56578174  0.79499034  1
  O  O15  1  0.10274157  0.91465896  0.54326156  1
  O  O16  1  0.22348531  0.61339122  0.01874972  1
  O  O17  1  0.09632076  0.05893400  0.77043275  1
  O  O18  1  0.20563031  0.23757190  0.31675596  1
  O  O19  1  0.22018938  0.84541194  0.23149720  1
  O  O20  1  0.21038366  0.02234137  0.30242659  1
  O  O21  1  0.10272913  0.79534328  0.94797804  1
  O  O22  1  0.21721280  0.43981540  0.51449353  1
  O  O23  1  0.28961675  0.52234136  0.19757253  1
  O  O24  1  0.27981104  0.34541196  0.26850332  1
  O  O25  1  0.29437011  0.73757189  0.18324456  1
  O  O26  1  0.27651511  0.11339123  0.48124940  1
  O  O27  1  0.97258151  0.69046194  0.43913021  1
  O  O28  1  0.26219482  0.77613708  0.55751003  1
  O  O29  1  0.23780506  0.27613710  0.94248869  1
  O  O30  1  0.27076339  0.15987018  0.79485858  1
  O  O31  1  0.35820704  0.62385225  0.32322341  1
  O  O32  1  0.28278866  0.93981539  0.98550636  1
  O  O33  1  0.39727076  0.29534329  0.55202208  1
  O  O34  1  0.52741872  0.19046196  0.06087057  1
  O  O35  1  0.40367913  0.55893399  0.72956736  1
  O  O36  1  0.51488099  0.93421821  0.29498985  1
  O  O37  1  0.39725832  0.41465898  0.95673855  1
  O  O38  1  0.60274094  0.58534099  0.04326131  1
  O  O39  1  0.48511985  0.06578176  0.70500978  1
  O  O40  1  0.59632170  0.44106598  0.27043227  1
  O  O41  1  0.47258212  0.80953802  0.93912907  1
  O  O42  1  0.60272851  0.70465668  0.44797778  1
  O  O43  1  0.71721217  0.06018458  0.01449328  1
  O  O44  1  0.64179379  0.37614772  0.67677622  1
  O  O45  1  0.72923588  0.84012979  0.20514128  1
  O  O46  1  0.76219421  0.72386288  0.05751117  1
  O  O47  1  0.73780601  0.22386289  0.44248961  1
  O  O48  1  0.77076433  0.34012981  0.29485810  1
  O  O49  1  0.72348416  0.88660918  0.51875047  1
  O  O50  1  0.70562917  0.26242808  0.81675670  1
  O  O51  1  0.72018981  0.65458801  0.73149771  1
  O  O52  1  0.71038252  0.47765861  0.80242733  1
  O  O53  1  0.78278804  0.56018457  0.48550611  1
  O  O54  1  0.89727170  0.20465669  0.05202160  1
  O  O55  1  0.79437052  0.76242807  0.68324367  1
  P  P56  1  0.87878000  0.91622072  0.65003477  1
  P  P57  1  0.73030208  0.20359521  0.91834756  1
  P  P58  1  0.76969918  0.70359520  0.58165259  1
  P  P59  1  0.78198099  0.40083457  0.20073072  1
  P  P60  1  0.71801922  0.90083455  0.29926866  1
  P  P61  1  0.62121969  0.41622073  0.84996561  1
  P  P62  1  0.37878115  0.58377924  0.15003542  1
  P  P63  1  0.28198161  0.09916542  0.70073097  1
  P  P64  1  0.12121927  0.08377926  0.34996510  1
  P  P65  1  0.26969876  0.79640476  0.08165207  1
  P  P66  1  0.21801828  0.59916540  0.79926914  1
  P  P67  1  0.23030167  0.29640477  0.41834844  1
  Mo  Mo68  1  0.22274895  0.20698373  0.04269791  1
  Mo  Mo69  1  0.22133355  0.93574508  0.22541378  1
  Mo  Mo70  1  0.27866530  0.43574509  0.27458697  1
  Mo  Mo71  1  0.27725148  0.70698372  0.45730261  1
  Mo  Mo72  1  0.72274779  0.29301625  0.54269726  1
  Mo  Mo73  1  0.72133398  0.56425488  0.72541429  1
  Mo  Mo74  1  0.77866571  0.06425490  0.77458608  1
  Mo  Mo75  1  0.77725190  0.79301624  0.95730312  1
