# generated using pymatgen
data_Mo2PO8
_symmetry_space_group_name_H-M   'P 1'
_cell_length_a   6.71764636
_cell_length_b   5.38255553
_cell_length_c   17.72264155
_cell_angle_alpha   90.00000000
_cell_angle_beta   90.11777828
_cell_angle_gamma   90.00000000
_symmetry_Int_Tables_number   1
_chemical_formula_structural   Mo2PO8
_chemical_formula_sum   'Mo8 P4 O32'
_cell_volume   640.81577278
_cell_formula_units_Z   4
loop_
 _symmetry_equiv_pos_site_id
 _symmetry_equiv_pos_as_xyz
  1  'x, y, z'
loop_
 _atom_site_type_symbol
 _atom_site_label
 _atom_site_symmetry_multiplicity
 _atom_site_fract_x
 _atom_site_fract_y
 _atom_site_fract_z
 _atom_site_occupancy
  O  O0  1  0.48587112  0.54452796  0.99603445  1
  O  O1  1  0.81734988  0.50100635  0.08794758  1
  O  O2  1  0.84121702  0.77374934  0.95917105  1
  O  O3  1  0.80290476  0.53363567  0.82440495  1
  O  O4  1  0.99345138  0.26715641  0.35787036  1
  O  O5  1  0.99007071  0.52652191  0.50218920  1
  O  O6  1  0.86148698  0.28159579  0.22644988  1
  O  O7  1  0.84618930  0.00803954  0.09596989  1
  O  O8  1  0.00654938  0.76715680  0.64212978  1
  O  O9  1  0.00992854  0.02652151  0.49781094  1
  O  O10  1  0.13851377  0.78159618  0.77355026  1
  O  O11  1  0.15380995  0.50803914  0.90403025  1
  O  O12  1  0.16454612  0.56447528  0.16633218  1
  O  O13  1  0.18264938  1.00100488  0.91205256  1
  O  O14  1  0.15878223  0.27374894  0.04082908  1
  O  O15  1  0.19709600  0.03363527  0.17559463  1
  O  O16  1  0.32655398  0.99368286  0.67115910  1
  O  O17  1  0.67344678  0.49368139  0.32884047  1
  O  O18  1  0.32563683  0.52669626  0.40884542  1
  O  O19  1  0.34304420  0.27395766  0.54320847  1
  O  O20  1  0.33898952  0.01952479  0.40269072  1
  O  O21  1  0.36202624  0.75682419  0.27051454  1
  O  O22  1  0.83545314  0.06447489  0.83366796  1
  O  O23  1  0.50792192  0.27301228  0.86190765  1
  O  O24  1  0.49207883  0.77301267  0.13809249  1
  O  O25  1  0.51412813  0.04452942  0.00396569  1
  O  O26  1  0.63797301  0.25682379  0.72948560  1
  O  O27  1  0.66100974  0.51952519  0.59730885  1
  O  O28  1  0.65695506  0.77395806  0.45679167  1
  O  O29  1  0.67436393  0.02669586  0.59115415  1
  O  O30  1  0.68678101  0.02244885  0.32200804  1
  O  O31  1  0.31321975  0.52244925  0.67799211  1
  P  P32  1  0.19791629  0.76627747  0.68967538  1
  P  P33  1  0.30268587  0.78195050  0.18753855  1
  P  P34  1  0.69731489  0.28195196  0.81246102  1
  P  P35  1  0.80208297  0.26627708  0.31032476  1
  Mo  Mo36  1  0.00022101  0.77404034  0.87275814  1
  Mo  Mo37  1  0.84078867  0.76897929  0.54716131  1
  Mo  Mo38  1  0.66149927  0.77513172  0.04495963  1
  Mo  Mo39  1  0.50207341  0.77140046  0.37248865  1
  Mo  Mo40  1  0.49792735  0.27140193  0.62751149  1
  Mo  Mo41  1  0.33849999  0.27513132  0.95504051  1
  Mo  Mo42  1  0.15921059  0.26897890  0.45283826  1
  Mo  Mo43  1  0.99977824  0.27403994  0.12724200  1
