# generated using pymatgen
data_Ba2YCu3O6F
_symmetry_space_group_name_H-M   'P 1'
_cell_length_a   3.82592821
_cell_length_b   3.99600556
_cell_length_c   11.97934842
_cell_angle_alpha   90.00000000
_cell_angle_beta   90.00000000
_cell_angle_gamma   90.00000000
_symmetry_Int_Tables_number   1
_chemical_formula_structural   Ba2YCu3O6F
_chemical_formula_sum   'Ba2 Y1 Cu3 O6 F1'
_cell_volume   183.14543455
_cell_formula_units_Z   1
loop_
 _symmetry_equiv_pos_site_id
 _symmetry_equiv_pos_as_xyz
  1  'x, y, z'
loop_
 _atom_site_type_symbol
 _atom_site_label
 _atom_site_symmetry_multiplicity
 _atom_site_fract_x
 _atom_site_fract_y
 _atom_site_fract_z
 _atom_site_occupancy
  Ba  Ba0  1  0.50000000  0.50000000  0.19334085  1
  Ba  Ba1  1  0.50000000  0.50000000  0.80665915  1
  Y  Y2  1  0.50000000  0.50000000  0.50000000  1
  Cu  Cu3  1  -0.00000000  0.00000000  0.35765189  1
  Cu  Cu4  1  0.00000000  -0.00000000  0.64234811  1
  Cu  Cu5  1  -0.00000000  0.00000000  -0.00000000  1
  O  O6  1  0.50000000  -0.00000000  0.38181797  1
  O  O7  1  0.50000000  -0.00000000  0.61818203  1
  O  O8  1  -0.00000000  0.50000000  0.37724061  1
  O  O9  1  0.00000000  0.50000000  0.62275939  1
  O  O10  1  0.00000000  0.00000000  0.15685251  1
  O  O11  1  -0.00000000  0.00000000  0.84314749  1
  F  F12  1  -0.00000000  0.50000000  -0.00000000  1
