# generated using pymatgen
data_TlMo6O17
_symmetry_space_group_name_H-M   'P 1'
_cell_length_a   5.67256856
_cell_length_b   5.67256856
_cell_length_c   14.45328837
_cell_angle_alpha   90.00000000
_cell_angle_beta   90.00000000
_cell_angle_gamma   119.99999999
_symmetry_Int_Tables_number   1
_chemical_formula_structural   TlMo6O17
_chemical_formula_sum   'Tl1 Mo6 O17'
_cell_volume   402.76971416
_cell_formula_units_Z   1
loop_
 _symmetry_equiv_pos_site_id
 _symmetry_equiv_pos_as_xyz
  1  'x, y, z'
loop_
 _atom_site_type_symbol
 _atom_site_label
 _atom_site_symmetry_multiplicity
 _atom_site_fract_x
 _atom_site_fract_y
 _atom_site_fract_z
 _atom_site_occupancy
  O  O0  1  0.50000066  0.49999984  0.00000000  1
  O  O1  1  0.99999918  0.49999984  0.00000000  1
  O  O2  1  0.49999970  0.00000000  0.00000000  1
  O  O3  1  0.66666666  0.33333391  0.52385766  1
  O  O4  1  0.33333288  0.66666577  0.47614246  1
  O  O5  1  0.83731055  0.16268753  0.15593237  1
  O  O6  1  0.83731098  0.67462257  0.15593237  1
  O  O7  1  0.15835850  0.84163979  0.31606909  1
  O  O8  1  0.15835887  0.31671773  0.31606909  1
  O  O9  1  0.68328129  0.84163979  0.31606909  1
  O  O10  1  0.31671825  0.15835990  0.68393033  1
  O  O11  1  0.84164068  0.68328195  0.68393033  1
  O  O12  1  0.32537638  0.16268753  0.15593237  1
  O  O13  1  0.16268899  0.83731216  0.84406776  1
  O  O14  1  0.16268856  0.32537712  0.84406776  1
  O  O15  1  0.67462316  0.83731216  0.84406776  1
  O  O16  1  0.84164104  0.15835990  0.68393033  1
  Mo  Mo17  1  0.00000000  0.00000000  0.78697842  1
  Mo  Mo18  1  0.00000000  0.00000000  0.21302170  1
  Mo  Mo19  1  0.66666666  0.33333391  0.06789376  1
  Mo  Mo20  1  0.33333288  0.66666577  0.35484448  1
  Mo  Mo21  1  0.66666666  0.33333391  0.64515565  1
  Mo  Mo22  1  0.33333288  0.66666577  0.93210636  1
  Tl  Tl23  1  0.00000000  0.00000000  0.50000006  1
