# generated using pymatgen
data_LiNiPO4
_symmetry_space_group_name_H-M   'P 1'
_cell_length_a   4.92542030
_cell_length_b   4.92542030
_cell_length_c   6.19880152
_cell_angle_alpha   90.00000000
_cell_angle_beta   90.00000000
_cell_angle_gamma   66.75067790
_symmetry_Int_Tables_number   1
_chemical_formula_structural   LiNiPO4
_chemical_formula_sum   'Li2 Ni2 P2 O8'
_cell_volume   138.16987429
_cell_formula_units_Z   2
loop_
 _symmetry_equiv_pos_site_id
 _symmetry_equiv_pos_as_xyz
  1  'x, y, z'
loop_
 _atom_site_type_symbol
 _atom_site_label
 _atom_site_symmetry_multiplicity
 _atom_site_fract_x
 _atom_site_fract_y
 _atom_site_fract_z
 _atom_site_occupancy
  Li  Li0  1  0.32886503  0.32886557  0.75000028  1
  Li  Li1  1  0.67113448  0.67113422  0.25000063  1
  O  O2  1  0.23676941  0.69879287  0.25000063  1
  O  O3  1  0.69879341  0.23676812  0.25000063  1
  O  O4  1  0.76323214  0.30120692  0.75000028  1
  O  O5  1  0.30120610  0.76323166  0.75000028  1
  O  O6  1  0.24538575  0.24538483  0.04568272  1
  O  O7  1  0.75461377  0.75461496  0.95431819  1
  O  O8  1  0.75461377  0.75461496  0.54568237  1
  O  O9  1  0.24538575  0.24538483  0.45431854  1
  P  P10  1  0.65016754  0.65016623  0.75000028  1
  P  P11  1  0.34983198  0.34983356  0.25000063  1
  Ni  Ni12  1  0.00000000  0.00000000  0.00000000  1
  Ni  Ni13  1  0.00000000  0.00000000  0.49999965  1
