# generated using pymatgen
data_ThMn12
_symmetry_space_group_name_H-M   'P 1'
_cell_length_a   4.71634003
_cell_length_b   6.38208824
_cell_length_c   6.38208824
_cell_angle_alpha   82.15296151
_cell_angle_beta   68.31532767
_cell_angle_gamma   68.31532768
_symmetry_Int_Tables_number   1
_chemical_formula_structural   ThMn12
_chemical_formula_sum   'Th1 Mn12'
_cell_volume   165.87407704
_cell_formula_units_Z   1
loop_
 _symmetry_equiv_pos_site_id
 _symmetry_equiv_pos_as_xyz
  1  'x, y, z'
loop_
 _atom_site_type_symbol
 _atom_site_label
 _atom_site_symmetry_multiplicity
 _atom_site_fract_x
 _atom_site_fract_y
 _atom_site_fract_z
 _atom_site_occupancy
  Mn  Mn0  1  0.50000000  0.00000000  0.50000000  1
  Mn  Mn1  1  0.00000000  0.50000000  0.00000000  1
  Mn  Mn2  1  0.50000000  0.50000000  0.00000000  1
  Mn  Mn3  1  0.00000000  0.00000000  0.50000000  1
  Mn  Mn4  1  0.36754710  0.63245290  0.63245290  1
  Mn  Mn5  1  0.00000000  0.36754710  0.63245290  1
  Mn  Mn6  1  0.00000000  0.63245290  0.36754710  1
  Mn  Mn7  1  0.63245290  0.36754710  0.36754710  1
  Mn  Mn8  1  0.26751627  0.23248373  0.23248373  1
  Mn  Mn9  1  0.50000000  0.76751627  0.23248373  1
  Mn  Mn10  1  0.50000000  0.23248373  0.76751627  1
  Mn  Mn11  1  0.73248373  0.76751627  0.76751627  1
  Th  Th12  1  0.00000000  0.00000000  0.00000000  1
