# generated using pymatgen
data_Li7RuO6
_symmetry_space_group_name_H-M   'P 1'
_cell_length_a   5.35636637
_cell_length_b   5.43397953
_cell_length_c   5.94701837
_cell_angle_alpha   117.14512181
_cell_angle_beta   91.23421951
_cell_angle_gamma   119.46456508
_symmetry_Int_Tables_number   1
_chemical_formula_structural   Li7RuO6
_chemical_formula_sum   'Li7 Ru1 O6'
_cell_volume   127.17058364
_cell_formula_units_Z   1
loop_
 _symmetry_equiv_pos_site_id
 _symmetry_equiv_pos_as_xyz
  1  'x, y, z'
loop_
 _atom_site_type_symbol
 _atom_site_label
 _atom_site_symmetry_multiplicity
 _atom_site_fract_x
 _atom_site_fract_y
 _atom_site_fract_z
 _atom_site_occupancy
  Li  Li0  1  0.23396505  0.76810236  0.62582681  1
  Li  Li1  1  0.30247618  0.68054360  0.03623547  1
  Li  Li2  1  0.49190092  0.58500739  0.34662412  1
  Li  Li3  1  0.48130931  0.37772509  0.63192908  1
  Li  Li4  1  0.70497192  0.36259636  0.99820612  1
  Li  Li5  1  0.76206228  0.25272170  0.35763127  1
  Li  Li6  1  0.91592753  0.11271355  0.62079675  1
  O  O7  1  0.07746634  0.44863122  0.23074049  1
  O  O8  1  0.24844669  0.16942928  0.80246280  1
  O  O9  1  0.62573841  0.84498118  0.74689162  1
  O  O10  1  0.37799642  0.14589058  0.23666723  1
  O  O11  1  0.75667435  0.85208496  0.22304401  1
  O  O12  1  0.91729798  0.52801559  0.75980139  1
  Ru  Ru13  1  0.99876662  0.99555714  0.00514283  1
