# generated using pymatgen
data_ErP5O14
_symmetry_space_group_name_H-M   'P 1'
_cell_length_a   8.79497641
_cell_length_b   9.15260219
_cell_length_c   12.76523301
_cell_angle_alpha   90.00000000
_cell_angle_beta   90.00000000
_cell_angle_gamma   90.00000000
_symmetry_Int_Tables_number   1
_chemical_formula_structural   ErP5O14
_chemical_formula_sum   'Er4 P20 O56'
_cell_volume   1027.56194487
_cell_formula_units_Z   4
loop_
 _symmetry_equiv_pos_site_id
 _symmetry_equiv_pos_as_xyz
  1  'x, y, z'
loop_
 _atom_site_type_symbol
 _atom_site_label
 _atom_site_symmetry_multiplicity
 _atom_site_fract_x
 _atom_site_fract_y
 _atom_site_fract_z
 _atom_site_occupancy
  O  O0  1  0.82956575  0.60591884  0.13021051  1
  O  O1  1  0.32956575  0.89408116  0.36978949  1
  O  O2  1  0.67043425  0.10591884  0.86978949  1
  O  O3  1  0.17043425  0.39408116  0.63021051  1
  O  O4  1  0.17043425  0.39408116  0.86978949  1
  O  O5  1  0.67043425  0.10591884  0.63021051  1
  O  O6  1  0.32956575  0.89408116  0.13021051  1
  O  O7  1  0.82956575  0.60591884  0.36978949  1
  O  O8  1  0.26894547  0.44052799  0.25000000  1
  O  O9  1  0.76894547  0.05947201  0.25000000  1
  O  O10  1  0.23105453  0.94052799  0.75000000  1
  O  O11  1  0.73105453  0.55947201  0.75000000  1
  O  O12  1  0.97620820  0.93089248  0.84688963  1
  O  O13  1  0.47620820  0.56910752  0.65311037  1
  O  O14  1  0.52379180  0.43089248  0.15311037  1
  O  O15  1  0.02379180  0.06910752  0.34688963  1
  O  O16  1  0.02379180  0.06910752  0.15311037  1
  O  O17  1  0.52379180  0.43089248  0.34688963  1
  O  O18  1  0.47620820  0.56910752  0.84688963  1
  O  O19  1  0.88531608  0.81893522  0.00628672  1
  O  O20  1  0.97620820  0.93089248  0.65311037  1
  O  O21  1  0.46127127  0.66122918  0.25000000  1
  O  O22  1  0.53872873  0.33877082  0.75000000  1
  O  O23  1  0.03872873  0.16122918  0.75000000  1
  O  O24  1  0.84198614  0.33882013  0.62166796  1
  O  O25  1  0.34198614  0.16117987  0.87833204  1
  O  O26  1  0.65801386  0.83882013  0.37833204  1
  O  O27  1  0.15801386  0.66117987  0.12166796  1
  O  O28  1  0.15801386  0.66117987  0.37833204  1
  O  O29  1  0.65801386  0.83882013  0.12166796  1
  O  O30  1  0.34198614  0.16117987  0.62166796  1
  O  O31  1  0.84198614  0.33882013  0.87833204  1
  O  O32  1  0.16342889  0.84304106  0.52647581  1
  O  O33  1  0.66342889  0.65695894  0.97352419  1
  O  O34  1  0.33657111  0.34304106  0.47352419  1
  O  O35  1  0.83657111  0.15695894  0.02647581  1
  O  O36  1  0.83657111  0.15695894  0.47352419  1
  O  O37  1  0.33657111  0.34304106  0.02647581  1
  O  O38  1  0.66342889  0.65695894  0.52647581  1
  O  O39  1  0.16342889  0.84304106  0.97352419  1
  O  O40  1  0.00907863  0.65167441  0.63430217  1
  O  O41  1  0.50907863  0.84832559  0.86569783  1
  O  O42  1  0.49092137  0.15167441  0.36569783  1
  O  O43  1  0.99092137  0.34832559  0.13430217  1
  O  O44  1  0.99092137  0.34832559  0.36569783  1
  O  O45  1  0.49092137  0.15167441  0.13430217  1
  O  O46  1  0.50907863  0.84832559  0.63430217  1
  O  O47  1  0.00907863  0.65167441  0.86569783  1
  O  O48  1  0.88531608  0.81893522  0.49371328  1
  O  O49  1  0.38531608  0.68106478  0.00628672  1
  O  O50  1  0.61468392  0.31893522  0.50628672  1
  O  O51  1  0.11468392  0.18106478  0.99371328  1
  O  O52  1  0.11468392  0.18106478  0.50628672  1
  O  O53  1  0.61468392  0.31893522  0.99371328  1
  O  O54  1  0.38531608  0.68106478  0.49371328  1
  O  O55  1  0.96127127  0.83877082  0.25000000  1
  P  P56  1  0.42616596  0.50312473  0.25000000  1
  P  P57  1  0.92616596  0.99687527  0.25000000  1
  P  P58  1  0.07383404  0.00312473  0.75000000  1
  P  P59  1  0.57383404  0.49687527  0.75000000  1
  P  P60  1  0.00925441  0.79499081  0.91877948  1
  P  P61  1  0.50925441  0.70500919  0.58122052  1
  P  P62  1  0.49074559  0.29499081  0.08122052  1
  P  P63  1  0.99074559  0.20500919  0.41877948  1
  P  P64  1  0.99074559  0.20500919  0.08122052  1
  P  P65  1  0.49074559  0.29499081  0.41877948  1
  P  P66  1  0.50925441  0.70500919  0.91877948  1
  P  P67  1  0.00925441  0.79499081  0.58122052  1
  P  P68  1  0.75744221  0.72750099  0.07114645  1
  P  P69  1  0.25744221  0.77249901  0.42885355  1
  P  P70  1  0.74255779  0.22750099  0.92885355  1
  P  P71  1  0.24255779  0.27249901  0.57114645  1
  P  P72  1  0.24255779  0.27249901  0.92885355  1
  P  P73  1  0.74255779  0.22750099  0.57114645  1
  P  P74  1  0.25744221  0.77249901  0.07114645  1
  P  P75  1  0.75744221  0.72750099  0.42885355  1
  Er  Er76  1  0.02119213  0.55483066  0.25000000  1
  Er  Er77  1  0.52119213  0.94516934  0.25000000  1
  Er  Er78  1  0.47880787  0.05483066  0.75000000  1
  Er  Er79  1  0.97880787  0.44516934  0.75000000  1
