# generated using pymatgen
data_MgAl2O4
_symmetry_space_group_name_H-M   'P 1'
_cell_length_a   5.77439104
_cell_length_b   5.77426438
_cell_length_c   17.33633026
_cell_angle_alpha   60.01884281
_cell_angle_beta   60.01773508
_cell_angle_gamma   59.98526131
_symmetry_Int_Tables_number   1
_chemical_formula_structural   MgAl2O4
_chemical_formula_sum   'Mg6 Al12 O24'
_cell_volume   408.80538164
_cell_formula_units_Z   6
loop_
 _symmetry_equiv_pos_site_id
 _symmetry_equiv_pos_as_xyz
  1  'x, y, z'
loop_
 _atom_site_type_symbol
 _atom_site_label
 _atom_site_symmetry_multiplicity
 _atom_site_fract_x
 _atom_site_fract_y
 _atom_site_fract_z
 _atom_site_occupancy
  Al  Al0  1  0.24750992  0.24752845  0.08584643  1
  Al  Al1  1  0.11933242  0.62655763  0.20917842  1
  Al  Al2  1  0.62655587  0.11933958  0.20917699  1
  Al  Al3  1  0.12364827  0.62445472  0.54249455  1
  Al  Al4  1  0.62653359  0.62653506  0.20920021  1
  Al  Al5  1  0.62310469  0.62310262  0.37691687  1
  Al  Al6  1  0.62445552  0.12364566  0.54249661  1
  Al  Al7  1  0.12015453  0.62870804  0.87420696  1
  Al  Al8  1  0.62446809  0.62446035  0.54248926  1
  Al  Al9  1  0.62870504  0.12015588  0.87420986  1
  Al  Al10  1  0.62417498  0.62416587  0.70910729  1
  Al  Al11  1  0.62862222  0.62861965  0.87414674  1
  Mg  Mg12  1  0.00387397  0.00383891  0.99603731  1
  Mg  Mg13  1  0.99979358  0.99976807  0.33354520  1
  Mg  Mg14  1  0.62827585  0.62829438  0.03848174  1
  Mg  Mg15  1  0.25098764  0.25100894  0.41567112  1
  Mg  Mg16  1  1.00118729  1.00116737  0.66546638  1
  Mg  Mg17  1  0.24633833  0.24635835  0.75367495  1
  O  O18  1  0.37035144  0.37036389  0.13310563  1
  O  O19  1  0.37030171  0.86000426  0.13313879  1
  O  O20  1  0.39272071  0.39273393  0.27393847  1
  O  O21  1  0.85998492  0.37032689  0.13313241  1
  O  O22  1  0.38831198  0.38830068  0.46290119  1
  O  O23  1  0.41646205  0.85913548  0.28843542  1
  O  O24  1  0.38829107  0.83471426  0.46290509  1
  O  O25  1  0.85913973  0.41645056  0.28843312  1
  O  O26  1  0.38759399  0.38760882  0.61241601  1
  O  O27  1  0.86216168  0.86216019  0.13782850  1
  O  O28  1  0.83470477  0.38829401  0.46290278  1
  O  O29  1  0.85910809  0.85911842  0.28843675  1
  O  O30  1  0.39046929  0.39045652  0.79691497  1
  O  O31  1  0.41657106  0.86164080  0.62005363  1
  O  O32  1  0.39043377  0.82824529  0.79693346  1
  O  O33  1  0.86165643  0.41655531  0.62004776  1
  O  O34  1  0.37639665  0.37640753  0.95692629  1
  O  O35  1  0.86167013  0.86165747  0.47167912  1
  O  O36  1  0.82824180  0.39043331  0.79693115  1
  O  O37  1  0.86159193  0.86159319  0.62007241  1
  O  O38  1  0.41279234  0.87436867  0.94615218  1
  O  O39  1  0.87437637  0.41278203  0.94614726  1
  O  O40  1  0.86462108  0.86460667  0.80202031  1
  O  O41  1  0.87432521  0.87433226  0.94620040  1
