# generated using pymatgen
data_Ta2MnO6
_symmetry_space_group_name_H-M   'P 1'
_cell_length_a   4.79382678
_cell_length_b   5.20069692
_cell_length_c   17.41658900
_cell_angle_alpha   90.00000000
_cell_angle_beta   90.00200497
_cell_angle_gamma   90.00000000
_symmetry_Int_Tables_number   1
_chemical_formula_structural   Ta2MnO6
_chemical_formula_sum   'Ta8 Mn4 O24'
_cell_volume   434.21716286
_cell_formula_units_Z   4
loop_
 _symmetry_equiv_pos_site_id
 _symmetry_equiv_pos_as_xyz
  1  'x, y, z'
loop_
 _atom_site_type_symbol
 _atom_site_label
 _atom_site_symmetry_multiplicity
 _atom_site_fract_x
 _atom_site_fract_y
 _atom_site_fract_z
 _atom_site_occupancy
  Ta  Ta0  1  0.99962277  0.24735021  0.78140424  1
  Ta  Ta1  1  0.99926794  0.25024538  0.44601572  1
  Ta  Ta2  1  0.50037723  0.74735021  0.71859576  1
  Ta  Ta3  1  0.50073206  0.75024538  0.05398428  1
  Ta  Ta4  1  0.49926794  0.24975462  0.94601572  1
  Ta  Ta5  1  0.49962277  0.25264979  0.28140424  1
  Ta  Ta6  1  0.00073206  0.74975462  0.55398428  1
  Ta  Ta7  1  0.00037723  0.75264979  0.21859576  1
  Mn  Mn8  1  0.00108286  0.25198288  0.10720713  1
  Mn  Mn9  1  0.49891714  0.75198288  0.39279287  1
  Mn  Mn10  1  0.50108286  0.24801712  0.60720713  1
  Mn  Mn11  1  0.99891714  0.74801712  0.89279287  1
  O  O12  1  0.23058555  0.11037483  0.87160641  1
  O  O13  1  0.21463344  0.06919671  0.53456583  1
  O  O14  1  0.23807154  0.07486414  0.21265272  1
  O  O15  1  0.26219564  0.06905547  0.71320705  1
  O  O16  1  0.26604999  0.11223049  0.37092884  1
  O  O17  1  0.28641149  0.06950337  0.03494288  1
  O  O18  1  0.23780436  0.56905547  0.78679295  1
  O  O19  1  0.21358851  0.56950337  0.46505712  1
  O  O20  1  0.23395001  0.61223049  0.12907116  1
  O  O21  1  0.28536656  0.56919671  0.96543417  1
  O  O22  1  0.26941445  0.61037483  0.62839359  1
  O  O23  1  0.26192846  0.57486414  0.28734728  1
  O  O24  1  0.73807154  0.42513586  0.71265272  1
  O  O25  1  0.73058555  0.38962517  0.37160641  1
  O  O26  1  0.71463344  0.43080329  0.03456583  1
  O  O27  1  0.76604999  0.38776951  0.87092884  1
  O  O28  1  0.78641149  0.43049663  0.53494288  1
  O  O29  1  0.76219564  0.43094453  0.21320705  1
  O  O30  1  0.71358851  0.93049663  0.96505712  1
  O  O31  1  0.73395001  0.88776951  0.62907116  1
  O  O32  1  0.73780436  0.93094453  0.28679295  1
  O  O33  1  0.76192846  0.92513586  0.78734728  1
  O  O34  1  0.78536656  0.93080329  0.46543417  1
  O  O35  1  0.76941445  0.88962517  0.12839359  1
