# generated using pymatgen
data_Li3V3(PO4)4
_symmetry_space_group_name_H-M   'P 1'
_cell_length_a   13.20251335
_cell_length_b   8.12627349
_cell_length_c   8.88819117
_cell_angle_alpha   90.25154250
_cell_angle_beta   85.27444325
_cell_angle_gamma   90.21922189
_symmetry_Int_Tables_number   1
_chemical_formula_structural   Li3V3(PO4)4
_chemical_formula_sum   'Li9 V9 P12 O48'
_cell_volume   950.33304748
_cell_formula_units_Z   3
loop_
 _symmetry_equiv_pos_site_id
 _symmetry_equiv_pos_as_xyz
  1  'x, y, z'
loop_
 _atom_site_type_symbol
 _atom_site_label
 _atom_site_symmetry_multiplicity
 _atom_site_fract_x
 _atom_site_fract_y
 _atom_site_fract_z
 _atom_site_occupancy
  Li  Li0  1  0.16401062  0.86143787  0.22644924  1
  Li  Li1  1  0.50099572  0.13833165  0.10560568  1
  Li  Li2  1  0.16281805  0.63757070  0.74221638  1
  Li  Li3  1  0.49457757  0.63173667  0.40633647  1
  Li  Li4  1  0.83190066  0.64053260  0.05790365  1
  Li  Li5  1  0.17368373  0.36759923  0.92437060  1
  Li  Li6  1  0.50069665  0.36557063  0.59421542  1
  Li  Li7  1  0.83283700  0.86769698  0.57344368  1
  Li  Li8  1  0.83633461  0.13246664  0.76214730  1
  O  O9  1  0.23550051  0.87273348  0.00683161  1
  O  O10  1  0.10202376  0.37705814  0.16284603  1
  O  O11  1  0.10076680  0.08147866  0.26058399  1
  O  O12  1  0.06401979  0.69775326  0.32082600  1
  O  O13  1  0.25773739  0.64756832  0.18650933  1
  O  O14  1  0.08203133  0.35647566  0.47578589  1
  O  O15  1  0.40838357  0.35596063  0.14677716  1
  O  O16  1  0.26635854  0.30572364  0.34686625  1
  O  O17  1  0.23189272  0.92613855  0.41251770  1
  O  O18  1  0.60304981  0.30355845  0.01250706  1
  O  O19  1  0.56486915  0.92006387  0.07392575  1
  O  O20  1  0.10238164  0.13655874  0.64999828  1
  O  O21  1  0.23175731  0.63279229  0.50344061  1
  O  O22  1  0.56300139  0.62636970  0.17327644  1
  O  O23  1  0.42961142  0.12844871  0.32465963  1
  O  O24  1  0.09771630  0.42962117  0.75599936  1
  O  O25  1  0.06623870  0.81069570  0.83125425  1
  O  O26  1  0.42908245  0.42631232  0.42404539  1
  O  O27  1  0.39636257  0.80850685  0.49108487  1
  O  O28  1  0.76675922  0.42157944  0.09566545  1
  O  O29  1  0.25262323  0.85998076  0.68782506  1
  O  O30  1  0.72788820  0.80027102  0.15556543  1
  O  O31  1  0.58343874  0.86229170  0.35000629  1
  O  O32  1  0.91716947  0.85843440  0.02059259  1
  O  O33  1  0.08021529  0.14156232  0.98533641  1
  O  O34  1  0.41388859  0.13849418  0.64450795  1
  O  O35  1  0.26942079  0.18907345  0.84130064  1
  O  O36  1  0.75262131  0.14039259  0.30965048  1
  O  O37  1  0.23669892  0.57415600  0.91002454  1
  O  O38  1  0.60039070  0.19165011  0.49796563  1
  O  O39  1  0.57174543  0.56880430  0.57591806  1
  O  O40  1  0.93750540  0.20034186  0.18392949  1
  O  O41  1  0.90052157  0.57551796  0.24322276  1
  O  O42  1  0.43454854  0.36548577  0.82888750  1
  O  O43  1  0.56396390  0.86202965  0.68371947  1
  O  O44  1  0.76844655  0.36333618  0.48264419  1
  O  O45  1  0.89906821  0.86861502  0.33920613  1
  O  O46  1  0.43395692  0.07270645  0.92041775  1
  O  O47  1  0.39957061  0.69545851  0.98522675  1
  O  O48  1  0.76068007  0.07052826  0.59110598  1
  O  O49  1  0.73317666  0.69363969  0.66345549  1
  O  O50  1  0.58476433  0.64149850  0.85694766  1
  O  O51  1  0.92072869  0.63827659  0.51920065  1
  O  O52  1  0.74878029  0.36546240  0.81857319  1
  O  O53  1  0.93430822  0.30914077  0.66976756  1
  O  O54  1  0.90552089  0.93084945  0.74268109  1
  O  O55  1  0.90219239  0.63401734  0.83974487  1
  O  O56  1  0.76708221  0.12901477  0.99346487  1
  P  P57  1  0.05728395  0.20319174  0.14722320  1
  P  P58  1  0.27731686  0.69449753  0.01831258  1
  P  P59  1  0.05129946  0.31664695  0.64802888  1
  P  P60  1  0.38873607  0.30686518  0.31459953  1
  P  P61  1  0.27925010  0.80581650  0.52276559  1
  P  P62  1  0.61113389  0.79946306  0.18749854  1
  P  P63  1  0.38662931  0.19264030  0.81044797  1
  P  P64  1  0.71702967  0.18299943  0.48096063  1
  P  P65  1  0.61631016  0.68294220  0.68538722  1
  P  P66  1  0.94654849  0.69671740  0.35537358  1
  P  P67  1  0.72046878  0.30188872  0.97981923  1
  P  P68  1  0.94749475  0.81184269  0.85106271  1
  V  V69  1  0.16716309  0.51392425  0.33168618  1
  V  V70  1  0.49955674  0.48839926  0.00294246  1
  V  V71  1  0.17000539  0.14204651  0.43880009  1
  V  V72  1  0.16743699  0.99591261  0.83906673  1
  V  V73  1  0.49616565  0.00119164  0.49362996  1
  V  V74  1  0.83203382  0.98851700  0.16204582  1
  V  V75  1  0.83526414  0.36147932  0.27144186  1
  V  V76  1  0.49806739  0.85730465  0.89591568  1
  V  V77  1  0.83648894  0.50634534  0.67401290  1
