# generated using pymatgen
data_Ba3N2
_symmetry_space_group_name_H-M   'P 1'
_cell_length_a   11.41616641
_cell_length_b   11.41616641
_cell_length_c   11.41616641
_cell_angle_alpha   109.47122063
_cell_angle_beta   109.47122063
_cell_angle_gamma   109.47122063
_symmetry_Int_Tables_number   1
_chemical_formula_structural   Ba3N2
_chemical_formula_sum   'Ba24 N16'
_cell_volume   1145.35200774
_cell_formula_units_Z   8
loop_
 _symmetry_equiv_pos_site_id
 _symmetry_equiv_pos_as_xyz
  1  'x, y, z'
loop_
 _atom_site_type_symbol
 _atom_site_label
 _atom_site_symmetry_multiplicity
 _atom_site_fract_x
 _atom_site_fract_y
 _atom_site_fract_z
 _atom_site_occupancy
  Ba  Ba0  1  0.54633765  0.77294080  0.50274496  1
  Ba  Ba1  1  0.45366235  0.22705920  0.49725504  1
  Ba  Ba2  1  0.95366235  0.95640731  0.72660314  1
  Ba  Ba3  1  0.22980417  0.72705920  0.77339686  1
  Ba  Ba4  1  0.77294080  0.50274496  0.54633765  1
  Ba  Ba5  1  0.04633765  0.04359269  0.27339686  1
  Ba  Ba6  1  0.77019583  0.27294080  0.22660314  1
  Ba  Ba7  1  0.22705920  0.49725504  0.45366235  1
  Ba  Ba8  1  0.27019583  0.54359269  0.99725504  1
  Ba  Ba9  1  0.95640731  0.72660314  0.95366235  1
  Ba  Ba10  1  0.72980417  0.45640731  0.00274496  1
  Ba  Ba11  1  0.04359269  0.27339686  0.04633765  1
  Ba  Ba12  1  0.72705920  0.77339686  0.22980417  1
  Ba  Ba13  1  0.27294080  0.22660314  0.77019583  1
  Ba  Ba14  1  0.54359269  0.99725504  0.27019583  1
  Ba  Ba15  1  0.45640731  0.00274496  0.72980417  1
  Ba  Ba16  1  0.50274496  0.54633765  0.77294080  1
  Ba  Ba17  1  0.49725504  0.45366235  0.22705920  1
  Ba  Ba18  1  0.77339686  0.22980417  0.72705920  1
  Ba  Ba19  1  0.22660314  0.77019583  0.27294080  1
  Ba  Ba20  1  0.99725504  0.27019583  0.54359269  1
  Ba  Ba21  1  0.00274496  0.72980417  0.45640731  1
  Ba  Ba22  1  0.72660314  0.95366235  0.95640731  1
  Ba  Ba23  1  0.27339686  0.04633765  0.04359269  1
  N  N24  1  0.69299997  0.44299997  0.75000000  1
  N  N25  1  0.30700003  0.55700003  0.25000000  1
  N  N26  1  0.80700003  0.05700003  0.25000000  1
  N  N27  1  0.44299997  0.75000000  0.69299997  1
  N  N28  1  0.19299997  0.94299997  0.75000000  1
  N  N29  1  0.55700003  0.25000000  0.30700003  1
  N  N30  1  0.05700003  0.25000000  0.80700003  1
  N  N31  1  0.94299997  0.75000000  0.19299997  1
  N  N32  1  0.75000000  0.69299997  0.44299997  1
  N  N33  1  0.25000000  0.30700003  0.55700003  1
  N  N34  1  0.25000000  0.80700003  0.05700003  1
  N  N35  1  0.75000000  0.19299997  0.94299997  1
  N  N36  1  -0.00000000  -0.00000000  -0.00000000  1
  N  N37  1  0.50000000  -0.00000000  0.50000000  1
  N  N38  1  0.50000000  0.50000000  -0.00000000  1
  N  N39  1  -0.00000000  0.50000000  0.50000000  1
