# generated using pymatgen
data_Ca4Fe9O17
_symmetry_space_group_name_H-M   'P 1'
_cell_length_a   6.09026834
_cell_length_b   6.09472222
_cell_length_c   11.57264173
_cell_angle_alpha   97.48184816
_cell_angle_beta   90.00000000
_cell_angle_gamma   119.97582902
_symmetry_Int_Tables_number   1
_chemical_formula_structural   Ca4Fe9O17
_chemical_formula_sum   'Ca4 Fe9 O17'
_cell_volume   367.87162178
_cell_formula_units_Z   1
loop_
 _symmetry_equiv_pos_site_id
 _symmetry_equiv_pos_as_xyz
  1  'x, y, z'
loop_
 _atom_site_type_symbol
 _atom_site_label
 _atom_site_symmetry_multiplicity
 _atom_site_fract_x
 _atom_site_fract_y
 _atom_site_fract_z
 _atom_site_occupancy
  O  O0  1  0.83605874  0.66138615  0.97957373  1
  O  O1  1  0.17467259  0.33861385  0.02042627  1
  O  O2  1  0.14377751  0.98281480  0.82284160  1
  O  O3  1  0.16096271  0.01718520  0.17715840  1
  O  O4  1  0.42932811  0.57574952  0.82191421  1
  O  O5  1  0.85357859  0.42425048  0.17808579  1
  O  O6  1  0.83669533  0.26613066  0.82241919  1
  O  O7  1  0.57056467  0.73386934  0.17758081  1
  O  O8  1  0.48933895  0.00000000  0.00000000  1
  O  O9  1  0.09742068  0.69301833  0.59469016  1
  O  O10  1  0.40440235  0.30698167  0.40530984  1
  O  O11  1  0.60888663  0.70486823  0.59430497  1
  O  O12  1  0.90401839  0.29513177  0.40569503  1
  O  O13  1  0.90344484  0.80324337  0.40117220  1
  O  O14  1  0.10020147  0.19675663  0.59882780  1
  O  O15  1  0.39642469  0.80135285  0.40672703  1
  O  O16  1  0.59507185  0.19864715  0.59327297  1
  Ca  Ca17  1  0.45872390  0.91958240  0.75071642  1
  Ca  Ca18  1  0.53914149  0.08041760  0.24928358  1
  Ca  Ca19  1  0.20621622  0.41249921  0.24035758  1
  Ca  Ca20  1  0.79371701  0.58750079  0.75964242  1
  Fe  Fe21  1  0.83228238  0.32844501  0.00030205  1
  Fe  Fe22  1  0.50383737  0.67155499  0.99969795  1
  Fe  Fe23  1  0.15847972  0.00000000  0.00000000  1
  Fe  Fe24  1  0.12941067  0.25972743  0.77543978  1
  Fe  Fe25  1  0.86968324  0.74027257  0.22456022  1
  Fe  Fe26  1  0.75175821  0.49698290  0.49213331  1
  Fe  Fe27  1  0.25477531  0.50301710  0.50786669  1
  Fe  Fe28  1  0.74844201  0.00000000  0.50000000  1
  Fe  Fe29  1  0.25168435  0.00000000  0.50000000  1
