# generated using pymatgen
data_K3(Cu4Se3)2
_symmetry_space_group_name_H-M   'P 1'
_cell_length_a   3.98645083
_cell_length_b   9.22750905
_cell_length_c   10.12313252
_cell_angle_alpha   104.86953299
_cell_angle_beta   90.00000000
_cell_angle_gamma   102.47473243
_symmetry_Int_Tables_number   1
_chemical_formula_structural   K3(Cu4Se3)2
_chemical_formula_sum   'K3 Cu8 Se6'
_cell_volume   350.80580770
_cell_formula_units_Z   1
loop_
 _symmetry_equiv_pos_site_id
 _symmetry_equiv_pos_as_xyz
  1  'x, y, z'
loop_
 _atom_site_type_symbol
 _atom_site_label
 _atom_site_symmetry_multiplicity
 _atom_site_fract_x
 _atom_site_fract_y
 _atom_site_fract_z
 _atom_site_occupancy
  K  K0  1  0.30934345  0.61868691  0.69904370  1
  K  K1  1  0.50000000  0.00000000  0.00000000  1
  K  K2  1  0.69065655  0.38131309  0.30095630  1
  Cu  Cu3  1  0.89544785  0.79089571  0.21731557  1
  Cu  Cu4  1  0.48297626  0.96595251  0.36265370  1
  Cu  Cu5  1  0.10455215  0.20910429  0.78268443  1
  Cu  Cu6  1  0.92096953  0.84193906  0.47227547  1
  Cu  Cu7  1  0.07903047  0.15806094  0.52772453  1
  Cu  Cu8  1  0.30225827  0.60451655  0.08872387  1
  Cu  Cu9  1  0.51702374  0.03404749  0.63734630  1
  Cu  Cu10  1  0.69774173  0.39548345  0.91127613  1
  Se  Se11  1  0.96083847  0.92167694  0.71559697  1
  Se  Se12  1  0.34312798  0.68625596  0.35339456  1
  Se  Se13  1  0.65687202  0.31374404  0.64660544  1
  Se  Se14  1  0.03916153  0.07832306  0.28440303  1
  Se  Se15  1  0.15872883  0.31745766  0.02426290  1
  Se  Se16  1  0.84127117  0.68254234  0.97573710  1
