# generated using pymatgen
data_LiNi6P7O24
_symmetry_space_group_name_H-M   'P 1'
_cell_length_a   5.31977500
_cell_length_b   26.60071538
_cell_length_c   6.38708928
_cell_angle_alpha   90.00000000
_cell_angle_beta   107.35517376
_cell_angle_gamma   90.00000000
_symmetry_Int_Tables_number   1
_chemical_formula_structural   LiNi6P7O24
_chemical_formula_sum   'Li2 Ni12 P14 O48'
_cell_volume   862.68782350
_cell_formula_units_Z   2
loop_
 _symmetry_equiv_pos_site_id
 _symmetry_equiv_pos_as_xyz
  1  'x, y, z'
loop_
 _atom_site_type_symbol
 _atom_site_label
 _atom_site_symmetry_multiplicity
 _atom_site_fract_x
 _atom_site_fract_y
 _atom_site_fract_z
 _atom_site_occupancy
  Li  Li0  1  0.09587796  0.25000000  0.45626303  1
  Li  Li1  1  0.90412204  0.75000000  0.54373797  1
  O  O2  1  0.12472127  0.40599037  0.39482075  1
  O  O3  1  0.92842929  0.16420604  0.05844436  1
  O  O4  1  0.86500188  0.45153290  0.01413656  1
  O  O5  1  0.86500188  0.04846710  0.01413656  1
  O  O6  1  0.82749731  0.02858045  0.61591530  1
  O  O7  1  0.87119330  0.62277588  0.22444038  1
  O  O8  1  0.83213347  0.75000000  0.22955258  1
  O  O9  1  0.86551846  0.30657321  0.41532968  1
  O  O10  1  0.86551846  0.19342679  0.41532968  1
  O  O11  1  0.87527773  0.90599037  0.60517925  1
  O  O12  1  0.87527773  0.59400963  0.60517925  1
  O  O13  1  0.82749731  0.47141955  0.61591530  1
  O  O14  1  0.07156971  0.66420604  0.94155564  1
  O  O15  1  0.07156971  0.83579396  0.94155564  1
  O  O16  1  0.13499912  0.54846710  0.98586344  1
  O  O17  1  0.13499912  0.95153290  0.98586344  1
  O  O18  1  0.12880670  0.12277588  0.77555862  1
  O  O19  1  0.12880670  0.37722412  0.77555862  1
  O  O20  1  0.16786453  0.25000000  0.77044742  1
  O  O21  1  0.13448254  0.69342679  0.58467032  1
  O  O22  1  0.13448254  0.80657321  0.58467032  1
  O  O23  1  0.12472127  0.09400963  0.39482075  1
  O  O24  1  0.92842929  0.33579396  0.05844436  1
  O  O25  1  0.17250369  0.52858045  0.38408570  1
  O  O26  1  0.17250369  0.97141955  0.38408570  1
  O  O27  1  0.41388733  0.61913102  0.78906459  1
  O  O28  1  0.41388733  0.88086898  0.78906459  1
  O  O29  1  0.50540892  0.70341062  0.93754841  1
  O  O30  1  0.50540892  0.79658938  0.93754841  1
  O  O31  1  0.42375177  0.05572937  0.72970114  1
  O  O32  1  0.42375177  0.44427063  0.72970114  1
  O  O33  1  0.34262872  0.75000000  0.22461336  1
  O  O34  1  0.59717757  0.52783195  0.82920107  1
  O  O35  1  0.59717757  0.97216805  0.82920107  1
  O  O36  1  0.50741243  0.14654077  0.62626921  1
  O  O37  1  0.50741243  0.35345923  0.62626921  1
  O  O38  1  0.49258857  0.64654077  0.37373079  1
  O  O39  1  0.49258857  0.85345923  0.37373079  1
  O  O40  1  0.40282143  0.02783195  0.17079693  1
  O  O41  1  0.40282143  0.47216805  0.17079693  1
  O  O42  1  0.65737128  0.25000000  0.77538764  1
  O  O43  1  0.57624623  0.55572937  0.27029686  1
  O  O44  1  0.57624623  0.94427063  0.27029686  1
  O  O45  1  0.49459208  0.20341062  0.06245059  1
  O  O46  1  0.49459208  0.29658938  0.06245059  1
  O  O47  1  0.58611267  0.11913102  0.21093641  1
  O  O48  1  0.58611267  0.38086898  0.21093641  1
  O  O49  1  0.87119330  0.87722412  0.22444038  1
  P  P50  1  0.73689738  0.33266509  0.19689516  1
  P  P51  1  0.73689738  0.16733491  0.19689516  1
  P  P52  1  0.70019883  0.89168259  0.37284657  1
  P  P53  1  0.70019883  0.60831741  0.37284657  1
  P  P54  1  0.54361208  0.75000000  0.09699322  1
  P  P55  1  0.69583451  0.47482724  0.79569054  1
  P  P56  1  0.69583451  0.02517276  0.79569054  1
  P  P57  1  0.30416549  0.97482724  0.20431046  1
  P  P58  1  0.30416549  0.52517276  0.20431046  1
  P  P59  1  0.45638792  0.25000000  0.90300778  1
  P  P60  1  0.29980017  0.39168259  0.62715143  1
  P  P61  1  0.29980017  0.10831741  0.62715143  1
  P  P62  1  0.26310262  0.66733491  0.80310584  1
  P  P63  1  0.26310262  0.83266509  0.80310584  1
  Ni  Ni64  1  0.21795869  0.55185111  0.69166447  1
  Ni  Ni65  1  0.21795869  0.94814889  0.69166447  1
  Ni  Ni66  1  0.14079524  0.68077256  0.26871571  1
  Ni  Ni67  1  0.14079524  0.81922744  0.26871571  1
  Ni  Ni68  1  0.18651933  0.09635336  0.09337583  1
  Ni  Ni69  1  0.18651933  0.40364664  0.09337583  1
  Ni  Ni70  1  0.81348067  0.59635336  0.90662517  1
  Ni  Ni71  1  0.81348067  0.90364664  0.90662517  1
  Ni  Ni72  1  0.85920576  0.18077256  0.73128329  1
  Ni  Ni73  1  0.85920576  0.31922744  0.73128329  1
  Ni  Ni74  1  0.78204131  0.05185111  0.30833553  1
  Ni  Ni75  1  0.78204131  0.44814889  0.30833553  1
