# generated using pymatgen
data_Li(NiO2)2
_symmetry_space_group_name_H-M   'P 1'
_cell_length_a   5.74116356
_cell_length_b   5.74839665
_cell_length_c   5.74808056
_cell_angle_alpha   59.81520678
_cell_angle_beta   60.19112689
_cell_angle_gamma   59.87742977
_symmetry_Int_Tables_number   1
_chemical_formula_structural   Li(NiO2)2
_chemical_formula_sum   'Li2 Ni4 O8'
_cell_volume   134.01763475
_cell_formula_units_Z   2
loop_
 _symmetry_equiv_pos_site_id
 _symmetry_equiv_pos_as_xyz
  1  'x, y, z'
loop_
 _atom_site_type_symbol
 _atom_site_label
 _atom_site_symmetry_multiplicity
 _atom_site_fract_x
 _atom_site_fract_y
 _atom_site_fract_z
 _atom_site_occupancy
  Li  Li0  1  0.12819156  0.11232561  0.12848573  1
  Li  Li1  1  0.87176214  0.88796727  0.87143602  1
  O  O2  1  0.28792496  0.24811387  0.71181877  1
  O  O3  1  0.75065781  0.74952953  0.71279068  1
  O  O4  1  0.71228404  0.75149349  0.28810401  1
  O  O5  1  0.26695426  0.69983846  0.26623121  1
  O  O6  1  0.24948846  0.25040981  0.28708397  1
  O  O7  1  0.28715590  0.75270119  0.74892249  1
  O  O8  1  0.73273989  0.30022122  0.73408848  1
  O  O9  1  0.71285525  0.24745189  0.25099814  1
  Ni  Ni10  1  0.49996745  0.49996134  0.50010893  1
  Ni  Ni11  1  0.50009209  0.99998475  0.49988037  1
  Ni  Ni12  1  1.00000136  0.49989641  0.50003475  1
  Ni  Ni13  1  0.49993384  0.50010615  1.00001445  1
