# generated using pymatgen
data_AsC2S3NF8
_symmetry_space_group_name_H-M   'P 1'
_cell_length_a   6.71939982
_cell_length_b   7.88848270
_cell_length_c   9.81597326
_cell_angle_alpha   101.04581688
_cell_angle_beta   96.14483601
_cell_angle_gamma   106.94504283
_symmetry_Int_Tables_number   1
_chemical_formula_structural   AsC2S3NF8
_chemical_formula_sum   'As2 C4 S6 N2 F16'
_cell_volume   481.08685890
_cell_formula_units_Z   2
loop_
 _symmetry_equiv_pos_site_id
 _symmetry_equiv_pos_as_xyz
  1  'x, y, z'
loop_
 _atom_site_type_symbol
 _atom_site_label
 _atom_site_symmetry_multiplicity
 _atom_site_fract_x
 _atom_site_fract_y
 _atom_site_fract_z
 _atom_site_occupancy
  As  As0  1  0.55628318  0.30408071  0.22314958  1
  As  As1  1  0.44371682  0.69591929  0.77685042  1
  C  C2  1  0.05092929  0.10565773  0.53221755  1
  C  C3  1  0.94907071  0.89434227  0.46778245  1
  C  C4  1  0.02265011  0.82911269  0.33117563  1
  C  C5  1  0.97734989  0.17088731  0.66882437  1
  S  S6  1  0.20407832  0.70786676  0.34197994  1
  S  S7  1  0.79592168  0.29213324  0.65802006  1
  S  S8  1  0.25101691  0.67843041  0.13895796  1
  S  S9  1  0.74898309  0.32156959  0.86104204  1
  S  S10  1  0.02323744  0.79583648  0.06957244  1
  S  S11  1  0.97676256  0.20416352  0.93042756  1
  N  N12  1  0.05054855  0.14210706  0.78511637  1
  N  N13  1  0.94945145  0.85789294  0.21488363  1
  F  F14  1  0.51263032  0.10828803  0.29326971  1
  F  F15  1  0.48736968  0.89171197  0.70673029  1
  F  F16  1  0.40188789  0.16663183  0.05899116  1
  F  F17  1  0.59811211  0.83336817  0.94100884  1
  F  F18  1  0.60336027  0.50090189  0.15172615  1
  F  F19  1  0.39663973  0.49909811  0.84827385  1
  F  F20  1  0.99701311  0.19482738  0.43536697  1
  F  F21  1  0.00298689  0.80517262  0.56463303  1
  F  F22  1  0.32790448  0.34331022  0.27835763  1
  F  F23  1  0.67209552  0.65668978  0.72164237  1
  F  F24  1  0.26485738  0.14340596  0.55716562  1
  F  F25  1  0.73514262  0.85659404  0.44283438  1
  F  F26  1  0.28534695  0.55898023  0.61507928  1
  F  F27  1  0.71465305  0.44101977  0.38492072  1
  F  F28  1  0.78706266  0.26987829  0.16183241  1
  F  F29  1  0.21293734  0.73012171  0.83816759  1
