# generated using pymatgen
data_CuH20S2(NO7)2
_symmetry_space_group_name_H-M   'P 1'
_cell_length_a   6.46160410
_cell_length_b   9.19760534
_cell_length_c   12.34138967
_cell_angle_alpha   90.00000000
_cell_angle_beta   90.00000000
_cell_angle_gamma   105.38803047
_symmetry_Int_Tables_number   1
_chemical_formula_structural   CuH20S2(NO7)2
_chemical_formula_sum   'Cu2 H40 S4 N4 O28'
_cell_volume   707.17056247
_cell_formula_units_Z   2
loop_
 _symmetry_equiv_pos_site_id
 _symmetry_equiv_pos_as_xyz
  1  'x, y, z'
loop_
 _atom_site_type_symbol
 _atom_site_label
 _atom_site_symmetry_multiplicity
 _atom_site_fract_x
 _atom_site_fract_y
 _atom_site_fract_z
 _atom_site_occupancy
  Cu  Cu0  1  0.00000000  0.00000000  0.00000000  1
  Cu  Cu1  1  0.00000000  0.50000000  0.50000000  1
  S  S2  1  0.74744143  0.41611969  0.13815686  1
  S  S3  1  0.25255857  0.08388031  0.63815686  1
  S  S4  1  0.25255857  0.58388031  0.86184314  1
  S  S5  1  0.74744143  0.91611969  0.36184314  1
  O  O6  1  0.60067203  0.42061104  0.23183025  1
  O  O7  1  0.39932797  0.07938896  0.73183025  1
  O  O8  1  0.39932797  0.57938896  0.76816975  1
  O  O9  1  0.60067203  0.92061104  0.26816975  1
  O  O10  1  0.78439446  0.55664782  0.07436768  1
  O  O11  1  0.21560554  0.94335218  0.57436768  1
  O  O12  1  0.21560554  0.44335218  0.92563232  1
  O  O13  1  0.78439446  0.05664782  0.42563232  1
  O  O14  1  0.64018639  0.28516185  0.06706454  1
  O  O15  1  0.35981361  0.21483815  0.56706454  1
  O  O16  1  0.35981361  0.71483815  0.93293546  1
  O  O17  1  0.64018639  0.78516185  0.43293546  1
  O  O18  1  0.95503188  0.39504128  0.18102431  1
  O  O19  1  0.04496812  0.10495872  0.68102431  1
  O  O20  1  0.04496812  0.60495872  0.81897569  1
  O  O21  1  0.95503188  0.89504128  0.31897569  1
  O  O22  1  0.19057115  0.18540694  0.12407805  1
  O  O23  1  0.80942885  0.31459306  0.62407805  1
  O  O24  1  0.80942885  0.81459306  0.87592195  1
  O  O25  1  0.19057115  0.68540694  0.37592195  1
  O  O26  1  0.02549360  0.83843550  0.10790794  1
  O  O27  1  0.97450640  0.66156450  0.60790794  1
  O  O28  1  0.97450640  0.16156450  0.89209206  1
  O  O29  1  0.02549360  0.33843550  0.39209206  1
  O  O30  1  0.27735204  0.98971819  0.93526672  1
  O  O31  1  0.72264796  0.51028181  0.43526672  1
  O  O32  1  0.72264796  0.01028181  0.06473328  1
  O  O33  1  0.27735204  0.48971819  0.56473328  1
  N  N34  1  0.35104112  0.12863148  0.34364662  1
  N  N35  1  0.64895888  0.37136852  0.84364662  1
  N  N36  1  0.64895888  0.87136852  0.65635338  1
  N  N37  1  0.35104112  0.62863148  0.15635338  1
  H  H38  1  0.19677969  0.06210834  0.32867062  1
  H  H39  1  0.80322031  0.43789166  0.82867062  1
  H  H40  1  0.80322031  0.93789166  0.67132938  1
  H  H41  1  0.19677969  0.56210834  0.17132938  1
  H  H42  1  0.38511865  0.22158971  0.29342204  1
  H  H43  1  0.61488135  0.27841029  0.79342204  1
  H  H44  1  0.61488135  0.77841029  0.70657796  1
  H  H45  1  0.38511865  0.72158971  0.20657796  1
  H  H46  1  0.45689415  0.06445632  0.32626944  1
  H  H47  1  0.54310585  0.43554368  0.82626944  1
  H  H48  1  0.54310585  0.93554368  0.67373056  1
  H  H49  1  0.45689415  0.56445632  0.17373056  1
  H  H50  1  0.36289691  0.16146747  0.42481035  1
  H  H51  1  0.63710309  0.33853253  0.92481035  1
  H  H52  1  0.63710309  0.83853253  0.57518965  1
  H  H53  1  0.36289691  0.66146747  0.07518965  1
  H  H54  1  0.33568883  0.22942732  0.09513739  1
  H  H55  1  0.66431117  0.27057268  0.59513739  1
  H  H56  1  0.66431117  0.77057268  0.90486261  1
  H  H57  1  0.33568883  0.72942732  0.40486261  1
  H  H58  1  0.11950598  0.26726851  0.13095223  1
  H  H59  1  0.88049402  0.23273149  0.63095223  1
  H  H60  1  0.88049402  0.73273149  0.86904777  1
  H  H61  1  0.11950598  0.76726851  0.36904777  1
  H  H62  1  0.93142713  0.73466993  0.09379011  1
  H  H63  1  0.06857287  0.76533007  0.59379011  1
  H  H64  1  0.06857287  0.26533007  0.90620989  1
  H  H65  1  0.93142713  0.23466993  0.40620989  1
  H  H66  1  0.99414440  0.86343922  0.18375871  1
  H  H67  1  0.00585560  0.63656078  0.68375871  1
  H  H68  1  0.00585560  0.13656078  0.81624129  1
  H  H69  1  0.99414440  0.36343922  0.31624129  1
  H  H70  1  0.30305002  0.88767440  0.93957618  1
  H  H71  1  0.69694998  0.61232560  0.43957618  1
  H  H72  1  0.69694998  0.11232560  0.06042382  1
  H  H73  1  0.30305002  0.38767440  0.56042382  1
  H  H74  1  0.30592571  0.02218447  0.85823176  1
  H  H75  1  0.69407429  0.47781553  0.35823176  1
  H  H76  1  0.69407429  0.97781553  0.14176824  1
  H  H77  1  0.30592571  0.52218447  0.64176824  1
