# generated using pymatgen
data_Na2H16O9
_symmetry_space_group_name_H-M   'P 1'
_cell_length_a   6.52652826
_cell_length_b   11.80044075
_cell_length_c   12.43770851
_cell_angle_alpha   90.00000000
_cell_angle_beta   90.00000000
_cell_angle_gamma   103.67401006
_symmetry_Int_Tables_number   1
_chemical_formula_structural   Na2H16O9
_chemical_formula_sum   'Na8 H64 O36'
_cell_volume   930.75111390
_cell_formula_units_Z   4
loop_
 _symmetry_equiv_pos_site_id
 _symmetry_equiv_pos_as_xyz
  1  'x, y, z'
loop_
 _atom_site_type_symbol
 _atom_site_label
 _atom_site_symmetry_multiplicity
 _atom_site_fract_x
 _atom_site_fract_y
 _atom_site_fract_z
 _atom_site_occupancy
  Na  Na0  1  0.41941777  0.89959206  0.68335130  1
  Na  Na1  1  0.58058223  0.60040794  0.18335130  1
  Na  Na2  1  0.58058223  0.10040794  0.31664870  1
  Na  Na3  1  0.41941777  0.39959206  0.81664870  1
  Na  Na4  1  0.59283385  0.66707549  0.70866845  1
  Na  Na5  1  0.40716615  0.83292451  0.20866845  1
  Na  Na6  1  0.40716615  0.33292451  0.29133155  1
  Na  Na7  1  0.59283385  0.16707549  0.79133155  1
  O  O8  1  0.75182176  0.92631816  0.96823619  1
  O  O9  1  0.24817824  0.57368184  0.46823619  1
  O  O10  1  0.24817824  0.07368184  0.03176381  1
  O  O11  1  0.75182176  0.42631816  0.53176381  1
  O  O12  1  0.91738808  0.82236974  0.44861693  1
  O  O13  1  0.08261192  0.67763026  0.94861693  1
  O  O14  1  0.08261192  0.17763026  0.55138307  1
  O  O15  1  0.91738808  0.32236974  0.05138307  1
  O  O16  1  0.63230699  0.08127596  0.62011828  1
  O  O17  1  0.36769301  0.41872404  0.12011828  1
  O  O18  1  0.36769301  0.91872404  0.37988172  1
  O  O19  1  0.63230699  0.58127596  0.87988172  1
  O  O20  1  0.51826743  0.78208343  0.52444958  1
  O  O21  1  0.48173257  0.71791657  0.02444958  1
  O  O22  1  0.48173257  0.21791657  0.47555042  1
  O  O23  1  0.51826743  0.28208343  0.97555042  1
  O  O24  1  0.75681195  0.85856117  0.75758732  1
  O  O25  1  0.24318805  0.64143883  0.25758732  1
  O  O26  1  0.24318805  0.14143883  0.24241268  1
  O  O27  1  0.75681195  0.35856117  0.74241268  1
  O  O28  1  0.09478964  0.94526554  0.62005498  1
  O  O29  1  0.90521036  0.55473446  0.12005498  1
  O  O30  1  0.90521036  0.05473446  0.37994502  1
  O  O31  1  0.09478964  0.44526554  0.87994502  1
  O  O32  1  0.41223438  0.97906524  0.86330099  1
  O  O33  1  0.58776562  0.52093476  0.36330099  1
  O  O34  1  0.58776562  0.02093476  0.13669901  1
  O  O35  1  0.41223438  0.47906524  0.63669901  1
  O  O36  1  0.25506455  0.70478314  0.74125528  1
  O  O37  1  0.74493545  0.79521686  0.24125528  1
  O  O38  1  0.74493545  0.29521686  0.25874472  1
  O  O39  1  0.25506455  0.20478314  0.75874472  1
  O  O40  1  0.90495420  0.63959152  0.60639425  1
  O  O41  1  0.09504580  0.86040848  0.10639425  1
  O  O42  1  0.09504580  0.36040848  0.39360575  1
  O  O43  1  0.90495420  0.13959152  0.89360575  1
  H  H44  1  0.86652851  0.90330555  0.00658463  1
  H  H45  1  0.13347149  0.59669445  0.50658463  1
  H  H46  1  0.13347149  0.09669445  0.99341537  1
  H  H47  1  0.86652851  0.40330555  0.49341537  1
  H  H48  1  0.98516671  0.76658584  0.41414686  1
  H  H49  1  0.01483329  0.73341416  0.91414686  1
  H  H50  1  0.01483329  0.23341416  0.58585314  1
  H  H51  1  0.98516671  0.26658584  0.08585314  1
  H  H52  1  0.57528652  0.12599781  0.56382607  1
  H  H53  1  0.42471348  0.37400219  0.06382607  1
  H  H54  1  0.42471348  0.87400219  0.43617393  1
  H  H55  1  0.57528652  0.62599781  0.93617393  1
  H  H56  1  0.78061277  0.08968958  0.59974013  1
  H  H57  1  0.21938723  0.41031042  0.09974013  1
  H  H58  1  0.21938723  0.91031042  0.40025987  1
  H  H59  1  0.78061277  0.58968958  0.90025987  1
  H  H60  1  0.42898774  0.70523913  0.49948935  1
  H  H61  1  0.57101226  0.79476087  -0.00051065  1
  H  H62  1  0.57101226  0.29476087  0.50051065  1
  H  H63  1  0.42898774  0.20523913  1.00051065  1
  H  H64  1  0.66356919  0.78971438  0.49343016  1
  H  H65  1  0.33643081  0.71028562  -0.00656984  1
  H  H66  1  0.33643081  0.21028562  0.50656984  1
  H  H67  1  0.66356919  0.28971438  1.00656984  1
  H  H68  1  0.77583745  0.88499598  0.83397635  1
  H  H69  1  0.22416255  0.61500402  0.33397635  1
  H  H70  1  0.22416255  0.11500402  0.16602365  1
  H  H71  1  0.77583745  0.38499598  0.66602365  1
  H  H72  1  0.88713661  0.89525404  0.71735601  1
  H  H73  1  0.11286339  0.60474596  0.21735601  1
  H  H74  1  0.11286339  0.10474596  0.28264399  1
  H  H75  1  0.88713661  0.39525404  0.78264399  1
  H  H76  1  0.03413572  0.89818158  0.55480137  1
  H  H77  1  0.96586428  0.60181842  0.05480137  1
  H  H78  1  0.96586428  0.10181842  0.44519863  1
  H  H79  1  0.03413572  0.39818158  0.94519863  1
  H  H80  1  0.09642137  0.02702486  0.60148477  1
  H  H81  1  0.90357863  0.47297514  0.10148477  1
  H  H82  1  0.90357863  0.97297514  0.39851523  1
  H  H83  1  0.09642137  0.52702486  0.89851523  1
  H  H84  1  0.52009073  0.94867436  0.90135118  1
  H  H85  1  0.47990927  0.55132564  0.40135118  1
  H  H86  1  0.47990927  0.05132564  0.09864882  1
  H  H87  1  0.52009073  0.44867436  0.59864882  1
  H  H88  1  0.33645297  0.01016635  0.92269110  1
  H  H89  1  0.66354703  0.48983365  0.42269110  1
  H  H90  1  0.66354703  0.98983365  0.07730890  1
  H  H91  1  0.33645297  0.51016635  0.57730890  1
  H  H92  1  0.20356885  0.69321692  0.81662881  1
  H  H93  1  0.79643115  0.80678308  0.31662881  1
  H  H94  1  0.79643115  0.30678308  0.18337119  1
  H  H95  1  0.20356885  0.19321692  0.68337119  1
  H  H96  1  0.12933098  0.67484722  0.69569872  1
  H  H97  1  0.87066902  0.82515278  0.19569872  1
  H  H98  1  0.87066902  0.32515278  0.30430128  1
  H  H99  1  0.12933098  0.17484722  0.80430128  1
  H  H100  1  0.89670481  0.69980330  0.55197776  1
  H  H101  1  0.10329519  0.80019670  0.05197776  1
  H  H102  1  0.10329519  0.30019670  0.44802224  1
  H  H103  1  0.89670481  0.19980330  0.94802224  1
  H  H104  1  0.84440664  0.55902469  0.57410964  1
  H  H105  1  0.15559336  0.94097531  0.07410964  1
  H  H106  1  0.15559336  0.44097531  0.42589036  1
  H  H107  1  0.84440664  0.05902469  0.92589036  1
