# generated using pymatgen
data_TiSO5
_symmetry_space_group_name_H-M   'P 1'
_cell_length_a   5.20218812
_cell_length_b   7.44236860
_cell_length_c   9.60813444
_cell_angle_alpha   90.07672558
_cell_angle_beta   90.22950699
_cell_angle_gamma   69.53838258
_symmetry_Int_Tables_number   1
_chemical_formula_structural   TiSO5
_chemical_formula_sum   'Ti4 S4 O20'
_cell_volume   348.52112315
_cell_formula_units_Z   4
loop_
 _symmetry_equiv_pos_site_id
 _symmetry_equiv_pos_as_xyz
  1  'x, y, z'
loop_
 _atom_site_type_symbol
 _atom_site_label
 _atom_site_symmetry_multiplicity
 _atom_site_fract_x
 _atom_site_fract_y
 _atom_site_fract_z
 _atom_site_occupancy
  Ti  Ti0  1  0.58860845  0.82277765  0.25000566  1
  Ti  Ti1  1  0.41139155  0.17722235  0.74999434  1
  Ti  Ti2  1  0.50000000  0.50000000  0.00000000  1
  Ti  Ti3  1  0.00000000  0.50000000  0.50000000  1
  S  S4  1  0.14351616  0.21656582  0.06566723  1
  S  S5  1  0.63990315  0.21656543  0.43433256  1
  S  S6  1  0.85648384  0.78343418  0.93433277  1
  S  S7  1  0.36009685  0.78343457  0.56566744  1
  O  O8  1  0.85336552  0.30474323  0.41698979  1
  O  O9  1  0.84187661  0.30473633  0.08306035  1
  O  O10  1  0.14663448  0.69525677  0.58301021  1
  O  O11  1  0.15812339  0.69526367  0.91693965  1
  O  O12  1  0.79518824  0.85958560  0.07885292  1
  O  O13  1  0.34533613  0.85961418  0.42115175  1
  O  O14  1  0.20481176  0.14041440  0.92114708  1
  O  O15  1  0.65466387  0.14038582  0.57884825  1
  O  O16  1  0.24653033  0.06417097  0.16824515  1
  O  O17  1  0.68945348  0.06414262  0.33176339  1
  O  O18  1  0.75346967  0.93582903  0.83175485  1
  O  O19  1  0.31054652  0.93585738  0.66823661  1
  O  O20  1  0.86952930  0.65805338  0.34381000  1
  O  O21  1  0.47253766  0.65805909  0.15617699  1
  O  O22  1  0.13047070  0.34194662  0.65619000  1
  O  O23  1  0.52746234  0.34194091  0.84382301  1
  O  O24  1  0.26602604  0.36940769  0.09037689  1
  O  O25  1  0.36455905  0.36937152  0.40959724  1
  O  O26  1  0.73397396  0.63059231  0.90962311  1
  O  O27  1  0.63544095  0.63062848  0.59040276  1
