# generated using pymatgen
data_ZnCuAsHO5
_symmetry_space_group_name_H-M   'P 1'
_cell_length_a   6.01506374
_cell_length_b   8.68327074
_cell_length_c   8.75111220
_cell_angle_alpha   90.00000000
_cell_angle_beta   90.00000000
_cell_angle_gamma   90.00000000
_symmetry_Int_Tables_number   1
_chemical_formula_structural   ZnCuAsHO5
_chemical_formula_sum   'Zn4 Cu4 As4 H4 O20'
_cell_volume   457.07432669
_cell_formula_units_Z   4
loop_
 _symmetry_equiv_pos_site_id
 _symmetry_equiv_pos_as_xyz
  1  'x, y, z'
loop_
 _atom_site_type_symbol
 _atom_site_label
 _atom_site_symmetry_multiplicity
 _atom_site_fract_x
 _atom_site_fract_y
 _atom_site_fract_z
 _atom_site_occupancy
  As  As0  1  0.50000000  0.76465369  0.75375585  1
  As  As1  1  0.50000000  0.23534631  0.24624415  1
  As  As2  1  0.00000000  0.26465369  0.74624415  1
  As  As3  1  0.00000000  0.73534631  0.25375585  1
  Cu  Cu4  1  0.74976116  0.00000000  0.00000000  1
  Cu  Cu5  1  0.75023884  0.50000000  0.50000000  1
  Cu  Cu6  1  0.25023884  0.00000000  0.00000000  1
  Cu  Cu7  1  0.24976116  0.50000000  0.50000000  1
  Zn  Zn8  1  0.00000000  0.63926635  0.87548131  1
  Zn  Zn9  1  0.00000000  0.36073365  0.12451869  1
  Zn  Zn10  1  0.50000000  0.13926635  0.62451869  1
  Zn  Zn11  1  0.50000000  0.86073365  0.37548131  1
  O  O12  1  0.50000000  0.87054308  0.92409123  1
  O  O13  1  0.50000000  0.12945692  0.07590877  1
  O  O14  1  0.00000000  0.37054308  0.57590877  1
  O  O15  1  0.00000000  0.62945692  0.42409123  1
  O  O16  1  0.00000000  0.88398750  0.90166170  1
  O  O17  1  0.00000000  0.11601250  0.09833830  1
  O  O18  1  0.50000000  0.38398750  0.59833830  1
  O  O19  1  0.50000000  0.61601250  0.40166170  1
  O  O20  1  0.50000000  0.89555126  0.60486710  1
  O  O21  1  0.50000000  0.10444874  0.39513290  1
  O  O22  1  0.00000000  0.39555126  0.89513290  1
  O  O23  1  0.00000000  0.60444874  0.10486710  1
  O  O24  1  0.72795533  0.64678218  0.74342934  1
  O  O25  1  0.72795533  0.35321782  0.25657066  1
  O  O26  1  0.77204467  0.14678218  0.75657066  1
  O  O27  1  0.77204467  0.85321782  0.24342934  1
  O  O28  1  0.27204467  0.35321782  0.25657066  1
  O  O29  1  0.27204467  0.64678218  0.74342934  1
  O  O30  1  0.22795533  0.85321782  0.24342934  1
  O  O31  1  0.22795533  0.14678218  0.75657066  1
  H  H32  1  0.00000000  0.92980786  0.79893310  1
  H  H33  1  0.00000000  0.07019214  0.20106690  1
  H  H34  1  0.50000000  0.42980786  0.70106690  1
  H  H35  1  0.50000000  0.57019214  0.29893310  1
