# generated using pymatgen
data_Li4TbF8
_symmetry_space_group_name_H-M   'P 1'
_cell_length_a   5.83209598
_cell_length_b   10.07472167
_cell_length_c   9.91203334
_cell_angle_alpha   90.00000000
_cell_angle_beta   90.00000000
_cell_angle_gamma   90.00000000
_symmetry_Int_Tables_number   1
_chemical_formula_structural   Li4TbF8
_chemical_formula_sum   'Li16 Tb4 F32'
_cell_volume   582.39880301
_cell_formula_units_Z   4
loop_
 _symmetry_equiv_pos_site_id
 _symmetry_equiv_pos_as_xyz
  1  'x, y, z'
loop_
 _atom_site_type_symbol
 _atom_site_label
 _atom_site_symmetry_multiplicity
 _atom_site_fract_x
 _atom_site_fract_y
 _atom_site_fract_z
 _atom_site_occupancy
  Li  Li0  1  0.11667071  0.36844638  0.06094115  1
  Li  Li1  1  0.61667071  0.13155362  0.93905885  1
  Li  Li2  1  0.38332929  0.86844638  0.43905885  1
  Li  Li3  1  0.88332929  0.63155362  0.56094115  1
  Li  Li4  1  0.88332929  0.63155362  0.93905885  1
  Li  Li5  1  0.38332929  0.86844638  0.06094115  1
  Li  Li6  1  0.61667071  0.13155362  0.56094115  1
  Li  Li7  1  0.11667071  0.36844638  0.43905885  1
  Li  Li8  1  0.62822299  0.39805192  0.07855271  1
  Li  Li9  1  0.12822299  0.10194808  0.92144729  1
  Li  Li10  1  0.87177701  0.89805192  0.42144729  1
  Li  Li11  1  0.37177701  0.60194808  0.57855271  1
  Li  Li12  1  0.37177701  0.60194808  0.92144729  1
  Li  Li13  1  0.87177701  0.89805192  0.07855271  1
  Li  Li14  1  0.12822299  0.10194808  0.57855271  1
  Li  Li15  1  0.62822299  0.39805192  0.42144729  1
  Tb  Tb16  1  0.36581762  0.13529228  0.25000000  1
  Tb  Tb17  1  0.86581762  0.36470772  0.75000000  1
  Tb  Tb18  1  0.13418238  0.63529228  0.25000000  1
  Tb  Tb19  1  0.63418238  0.86470772  0.75000000  1
  F  F20  1  0.14045484  0.01252909  0.11080480  1
  F  F21  1  0.64045484  0.48747091  0.88919520  1
  F  F22  1  0.35954516  0.51252909  0.38919520  1
  F  F23  1  0.85954516  0.98747091  0.61080480  1
  F  F24  1  0.85954516  0.98747091  0.88919520  1
  F  F25  1  0.35954516  0.51252909  0.11080480  1
  F  F26  1  0.64045484  0.48747091  0.61080480  1
  F  F27  1  0.14045484  0.01252909  0.38919520  1
  F  F28  1  0.61178657  0.01854128  0.11528067  1
  F  F29  1  0.11178657  0.48145872  0.88471933  1
  F  F30  1  0.88821343  0.51854128  0.38471933  1
  F  F31  1  0.38821343  0.98145872  0.61528067  1
  F  F32  1  0.38821343  0.98145872  0.88471933  1
  F  F33  1  0.88821343  0.51854128  0.11528067  1
  F  F34  1  0.11178657  0.48145872  0.61528067  1
  F  F35  1  0.61178657  0.01854128  0.38471933  1
  F  F36  1  0.36631805  0.23338181  0.46858160  1
  F  F37  1  0.86631805  0.26661819  0.53141840  1
  F  F38  1  0.13368195  0.73338181  0.03141840  1
  F  F39  1  0.63368195  0.76661819  0.96858160  1
  F  F40  1  0.63368195  0.76661819  0.53141840  1
  F  F41  1  0.13368195  0.73338181  0.46858160  1
  F  F42  1  0.86631805  0.26661819  0.96858160  1
  F  F43  1  0.36631805  0.23338181  0.03141840  1
  F  F44  1  0.11046715  0.30134934  0.25000000  1
  F  F45  1  0.61046715  0.19865066  0.75000000  1
  F  F46  1  0.38953285  0.80134934  0.25000000  1
  F  F47  1  0.88953285  0.69865066  0.75000000  1
  F  F48  1  0.62432406  0.30127002  0.25000000  1
  F  F49  1  0.12432406  0.19872998  0.75000000  1
  F  F50  1  0.87567594  0.80127002  0.25000000  1
  F  F51  1  0.37567594  0.69872998  0.75000000  1
