# generated using pymatgen
data_Ba2C4O9
_symmetry_space_group_name_H-M   'P 1'
_cell_length_a   6.50431362
_cell_length_b   9.34365259
_cell_length_c   9.18123662
_cell_angle_alpha   66.91657373
_cell_angle_beta   88.18308379
_cell_angle_gamma   81.04642441
_symmetry_Int_Tables_number   1
_chemical_formula_structural   Ba2C4O9
_chemical_formula_sum   'Ba4 C8 O18'
_cell_volume   506.78749600
_cell_formula_units_Z   2
loop_
 _symmetry_equiv_pos_site_id
 _symmetry_equiv_pos_as_xyz
  1  'x, y, z'
loop_
 _atom_site_type_symbol
 _atom_site_label
 _atom_site_symmetry_multiplicity
 _atom_site_fract_x
 _atom_site_fract_y
 _atom_site_fract_z
 _atom_site_occupancy
  Ba  Ba0  1  0.25886176  0.16587680  0.55551121  1
  Ba  Ba1  1  0.74113824  0.83412320  0.44448879  1
  Ba  Ba2  1  0.65423535  0.51246488  0.18712327  1
  Ba  Ba3  1  0.34576465  0.48753512  0.81287673  1
  C  C4  1  0.28548687  0.66943010  0.39787909  1
  C  C5  1  0.71451313  0.33056990  0.60212091  1
  C  C6  1  0.55823801  0.15245809  0.18048720  1
  C  C7  1  0.44176199  0.84754191  0.81951280  1
  C  C8  1  0.15405246  0.58256017  0.32936334  1
  C  C9  1  0.84594754  0.41743983  0.67063666  1
  C  C10  1  0.01510559  0.17694972  0.16770145  1
  C  C11  1  0.98489441  0.82305028  0.83229855  1
  O  O12  1  0.02255949  0.08710676  0.30063705  1
  O  O13  1  0.97744051  0.91289324  0.69936295  1
  O  O14  1  0.25446605  0.47028094  0.29777644  1
  O  O15  1  0.74553395  0.52971906  0.70222356  1
  O  O16  1  0.01507869  0.27544725  0.03942837  1
  O  O17  1  0.98492131  0.72455275  0.96057163  1
  O  O18  1  0.04124814  0.37493268  0.68478985  1
  O  O19  1  0.95875186  0.62506732  0.31521015  1
  O  O20  1  0.52778527  0.32286801  0.64728646  1
  O  O21  1  0.47221473  0.67713199  0.35271354  1
  O  O22  1  0.52394091  0.30318079  0.08501251  1
  O  O23  1  0.47605909  0.69681921  0.91498749  1
  O  O24  1  0.68650468  0.05331877  0.14449834  1
  O  O25  1  0.31349532  0.94668123  0.85550166  1
  O  O26  1  0.46632278  0.10681335  0.31654228  1
  O  O27  1  0.53367722  0.89318665  0.68345772  1
  O  O28  1  0.20175010  0.71972506  0.49892815  1
  O  O29  1  0.79824990  0.28027494  0.50107185  1
