# generated using pymatgen
data_Li7Ti16O32
_symmetry_space_group_name_H-M   'P 1'
_cell_length_a   11.96990368
_cell_length_b   15.83480814
_cell_length_c   10.36623830
_cell_angle_alpha   29.20366939
_cell_angle_beta   54.73462769
_cell_angle_gamma   40.89251293
_symmetry_Int_Tables_number   1
_chemical_formula_structural   Li7Ti16O32
_chemical_formula_sum   'Li7 Ti16 O32'
_cell_volume   606.29688232
_cell_formula_units_Z   1
loop_
 _symmetry_equiv_pos_site_id
 _symmetry_equiv_pos_as_xyz
  1  'x, y, z'
loop_
 _atom_site_type_symbol
 _atom_site_label
 _atom_site_symmetry_multiplicity
 _atom_site_fract_x
 _atom_site_fract_y
 _atom_site_fract_z
 _atom_site_occupancy
  Li  Li0  1  0.31252086  0.49998156  0.12502604  1
  Li  Li1  1  0.43625673  -0.00000075  0.87595949  1
  Li  Li2  1  0.18722899  0.50150504  0.87252246  1
  Li  Li3  1  0.81250891  0.49998923  0.12502929  1
  Li  Li4  1  0.93774353  0.00002035  0.87593914  1
  Li  Li5  1  0.56251972  0.99999433  0.12500822  1
  Li  Li6  1  0.68872017  0.49850205  0.87552150  1
  O  O7  1  0.01900560  0.22506488  0.26267754  1
  O  O8  1  0.14438326  0.99994643  0.73672201  1
  O  O9  1  0.25644749  0.22451875  0.28813473  1
  O  O10  1  0.10600403  0.50081953  0.26142156  1
  O  O11  1  0.36893602  0.00005352  0.73662008  1
  O  O12  1  0.51827651  0.22500726  0.26273363  1
  O  O13  1  0.23089625  0.27588597  0.73679867  1
  O  O14  1  0.00641096  0.72412050  0.28856594  1
  O  O15  1  0.11858465  0.49963069  0.73768132  1
  O  O16  1  0.38175294  0.49917767  0.26308100  1
  O  O17  1  0.64410708  0.99993019  0.73740275  1
  O  O18  1  0.27444339  0.71749119  0.26620842  1
  O  O19  1  0.75606418  0.22460480  0.28872117  1
  O  O20  1  0.49408477  0.27439149  0.71297703  1
  O  O21  1  0.60672369  0.49931492  0.26292902  1
  O  O22  1  0.86855999  0.00006751  0.73727597  1
  O  O23  1  0.13314851  0.99992695  0.26639085  1
  O  O24  1  0.39454761  0.49949427  0.73782897  1
  O  O25  1  0.73043872  0.27592016  0.73675885  1
  O  O26  1  0.50685962  0.72410242  0.28858089  1
  O  O27  1  0.24398117  0.77498117  0.71277236  1
  O  O28  1  0.35644945  0.00007325  0.26257226  1
  O  O29  1  0.61812948  0.50051052  0.73680407  1
  O  O30  1  0.88102276  0.50069161  0.26156037  1
  O  O31  1  0.76855317  0.72561238  0.26175950  1
  O  O32  1  0.99185981  0.28251374  0.70118421  1
  O  O33  1  0.48089810  0.77547479  0.73718855  1
  O  O34  1  0.89410262  0.50036438  0.73695515  1
  O  O35  1  0.63091124  0.99992564  0.26271086  1
  O  O36  1  0.74324609  0.77493244  0.71281243  1
  O  O37  1  0.85054679  0.00007130  0.26623306  1
  O  O38  1  0.98061997  0.77538844  0.73794037  1
  Ti  Ti39  1  0.12405558  0.24963041  0.50266305  1
  Ti  Ti40  1  0.00057589  0.49618721  0.50460362  1
  Ti  Ti41  1  0.12443059  0.24813664  0.00104768  1
  Ti  Ti42  1  0.24863127  0.50381579  0.49697905  1
  Ti  Ti43  1  0.62490411  0.24935761  0.50146443  1
  Ti  Ti44  1  0.49669457  0.50385394  0.49695998  1
  Ti  Ti45  1  0.62831580  0.24806264  0.00109391  1
  Ti  Ti46  1  0.37252715  0.75193738  0.49722459  1
  Ti  Ti47  1  0.75248461  0.49616326  0.50465305  1
  Ti  Ti48  1  0.25070709  0.00001261  0.49919246  1
  Ti  Ti49  1  0.37363431  0.75038145  0.00192295  1
  Ti  Ti50  1  0.50008688  0.99998533  0.49921480  1
  Ti  Ti51  1  0.87638056  0.75186305  0.49731939  1
  Ti  Ti52  1  0.75136593  0.99994935  0.49776865  1
  Ti  Ti53  1  0.87428571  0.75063094  1.00018825  1
  Ti  Ti54  1  0.00092509  0.00003181  0.49769440  1
