# generated using pymatgen
data_MgAl2O4
_symmetry_space_group_name_H-M   'P 1'
_cell_length_a   5.77624110
_cell_length_b   5.77018175
_cell_length_c   40.44812453
_cell_angle_alpha   60.04023156
_cell_angle_beta   60.07244542
_cell_angle_gamma   60.02976588
_symmetry_Int_Tables_number   1
_chemical_formula_structural   MgAl2O4
_chemical_formula_sum   'Mg14 Al28 O56'
_cell_volume   954.30060172
_cell_formula_units_Z   14
loop_
 _symmetry_equiv_pos_site_id
 _symmetry_equiv_pos_as_xyz
  1  'x, y, z'
loop_
 _atom_site_type_symbol
 _atom_site_label
 _atom_site_symmetry_multiplicity
 _atom_site_fract_x
 _atom_site_fract_y
 _atom_site_fract_z
 _atom_site_occupancy
  Al  Al0  1  0.13498224  0.11934686  0.16090084  1
  Al  Al1  1  0.49853979  0.49776895  0.07185010  1
  Al  Al2  1  0.50646281  0.50110893  0.14161594  1
  Al  Al3  1  0.49848672  0.00072068  0.07185991  1
  Al  Al4  1  0.00292024  0.49755526  0.07170744  1
  Al  Al5  1  0.50206987  0.50376322  0.21482039  1
  Al  Al6  1  0.49646908  0.49998680  0.28618775  1
  Al  Al7  1  0.50199992  0.99036477  0.21480226  1
  Al  Al8  1  0.49912438  0.49947530  0.35735308  1
  Al  Al9  1  0.00042051  0.50006225  0.49992937  1
  Al  Al10  1  0.49962675  0.50030376  0.42856661  1
  Al  Al11  1  0.49910547  0.99991492  0.35735705  1
  Al  Al12  1  -0.00159807  0.49954514  0.35750196  1
  Al  Al13  1  0.50008257  0.50007487  0.49991203  1
  Al  Al14  1  0.50072656  0.50072546  0.57111618  1
  Al  Al15  1  0.50007575  0.00050585  0.49991393  1
  Al  Al16  1  0.50038992  0.00089874  0.64262650  1
  Al  Al17  1  0.00134078  0.50025898  0.78544527  1
  Al  Al18  1  0.50038533  0.50039253  0.64262579  1
  Al  Al19  1  0.50099190  0.50096926  0.71386974  1
  Al  Al20  1  0.00090587  0.50038241  0.64262678  1
  Al  Al21  1  0.50025269  0.50024062  0.78544911  1
  Al  Al22  1  0.00558814  0.49816502  0.92829765  1
  Al  Al23  1  0.50193194  0.50184437  0.85633953  1
  Al  Al24  1  0.49810592  0.00547761  0.92831702  1
  Al  Al25  1  0.50026124  0.00131440  0.78544647  1
  Al  Al26  1  0.49814715  0.49826487  0.92830725  1
  Al  Al27  1  0.87834353  0.87812952  0.98075589  1
  Mg  Mg28  1  0.11875326  0.11864605  0.02057178  1
  Mg  Mg29  1  0.49699551  0.49597578  0.00157456  1
  Mg  Mg30  1  0.99627563  0.50282630  0.21400073  1
  Mg  Mg31  1  0.13197906  0.12782121  0.30177494  1
  Mg  Mg32  1  0.12524620  0.12558693  0.44623691  1
  Mg  Mg33  1  0.87480863  0.87753328  0.12429146  1
  Mg  Mg34  1  0.86235660  0.87680797  0.26916756  1
  Mg  Mg35  1  0.12553845  0.12598447  0.58893569  1
  Mg  Mg36  1  0.87525533  0.87518734  0.41062514  1
  Mg  Mg37  1  0.12544856  0.12590832  0.73181687  1
  Mg  Mg38  1  0.12495078  0.12543947  0.87489015  1
  Mg  Mg39  1  0.87603899  0.87554259  0.55326798  1
  Mg  Mg40  1  0.87604508  0.87556461  0.69611865  1
  Mg  Mg41  1  0.87443064  0.87395719  0.83966445  1
  O  O42  1  0.25115330  0.24952142  0.04171416  1
  O  O43  1  0.25426214  0.25214572  0.10591198  1
  O  O44  1  0.25114823  0.70731596  0.04171103  1
  O  O45  1  0.70794479  0.24982382  0.04176452  1
  O  O46  1  0.29821635  0.73603281  0.10423399  1
  O  O47  1  0.27967443  0.25323081  0.17596743  1
  O  O48  1  0.28977899  0.26036606  0.24134078  1
  O  O49  1  0.27966590  0.73525231  0.17596743  1
  O  O50  1  0.73965265  0.29889684  0.10364662  1
  O  O51  1  0.74966871  0.74988234  0.03578136  1
  O  O52  1  0.74415521  0.25769353  0.17720236  1
  O  O53  1  0.73964484  0.73588037  0.10364562  1
  O  O54  1  0.27920092  0.74365360  0.24762811  1
  O  O55  1  0.25919698  0.26391550  0.32382892  1
  O  O56  1  0.26418388  0.26290327  0.38715286  1
  O  O57  1  0.25918391  0.70988977  0.32384478  1
  O  O58  1  0.71493193  0.28859220  0.24988524  1
  O  O59  1  0.72029614  0.74932238  0.18300121  1
  O  O60  1  0.71102367  0.26316300  0.32322078  1
  O  O61  1  0.71476363  0.74740515  0.24991264  1
  O  O62  1  0.26218416  0.26233324  0.46667856  1
  O  O63  1  0.28962513  0.73518306  0.39144510  1
  O  O64  1  0.26215551  0.70883980  0.46668158  1
  O  O65  1  0.73451616  0.28990952  0.39149139  1
  O  O66  1  0.73343892  0.73505430  0.32805538  1
  O  O67  1  0.26327136  0.26322705  0.53004551  1
  O  O68  1  0.70864113  0.26242014  0.46665504  1
  O  O69  1  0.73452022  0.73523874  0.39150610  1
  O  O70  1  0.29046198  0.73525248  0.53415050  1
  O  O71  1  0.26260867  0.26259070  0.60941168  1
  O  O72  1  0.26334781  0.26335590  0.67285547  1
  O  O73  1  0.73531576  0.29024326  0.53416049  1
  O  O74  1  0.26261432  0.70897084  0.60941082  1
  O  O75  1  0.73570117  0.73573841  0.47040802  1
  O  O76  1  0.70878879  0.26268241  0.60941521  1
  O  O77  1  0.73530509  0.73531884  0.53415987  1
  O  O78  1  0.29065806  0.73546703  0.67692081  1
  O  O79  1  0.26283498  0.26280760  0.75221056  1
  O  O80  1  0.26316968  0.26316708  0.81577672  1
  O  O81  1  0.26285148  0.70886803  0.75220825  1
  O  O82  1  0.73553686  0.29045840  0.67692822  1
  O  O83  1  0.73609023  0.73605648  0.61312447  1
  O  O84  1  0.70868599  0.26290227  0.75221422  1
  O  O85  1  0.73553365  0.73553946  0.67692904  1
  O  O86  1  0.26529997  0.26528459  0.89448438  1
  O  O87  1  0.28988864  0.73604535  0.81970919  1
  O  O88  1  0.73614190  0.28967307  0.81971589  1
  O  O89  1  0.73596910  0.73592075  0.75602558  1
  O  O90  1  0.26172679  0.26151848  0.95931800  1
  O  O91  1  0.26530981  0.70806750  0.89448046  1
  O  O92  1  0.70786582  0.26537229  0.89449025  1
  O  O93  1  0.73617236  0.73615515  0.81971153  1
  O  O94  1  0.26525023  0.75387201  0.96099253  1
  O  O95  1  0.75425688  0.26521515  0.96093963  1
  O  O96  1  0.73198176  0.73211258  0.90054875  1
  O  O97  1  0.75427132  0.75390834  0.96094025  1
