# generated using pymatgen
data_Nb2P4O15
_symmetry_space_group_name_H-M   'P 1'
_cell_length_a   6.79034665
_cell_length_b   8.53782905
_cell_length_c   11.18089519
_cell_angle_alpha   74.33982562
_cell_angle_beta   89.82732300
_cell_angle_gamma   89.93563190
_symmetry_Int_Tables_number   1
_chemical_formula_structural   Nb2P4O15
_chemical_formula_sum   'Nb4 P8 O30'
_cell_volume   624.14568171
_cell_formula_units_Z   2
loop_
 _symmetry_equiv_pos_site_id
 _symmetry_equiv_pos_as_xyz
  1  'x, y, z'
loop_
 _atom_site_type_symbol
 _atom_site_label
 _atom_site_symmetry_multiplicity
 _atom_site_fract_x
 _atom_site_fract_y
 _atom_site_fract_z
 _atom_site_occupancy
  Nb  Nb0  1  0.78439844  0.68953696  0.11510313  1
  Nb  Nb1  1  0.80761775  0.68549904  0.60781324  1
  Nb  Nb2  1  0.28060340  0.27199559  0.90525685  1
  Nb  Nb3  1  0.30598083  0.27968192  0.40931428  1
  P  P4  1  0.60567830  0.29510125  0.66290360  1
  P  P5  1  0.92708645  0.06777885  0.62963118  1
  P  P6  1  0.15648240  0.89597031  0.87461789  1
  P  P7  1  0.48229784  0.66121058  0.86488852  1
  P  P8  1  0.10386842  0.66754817  0.35489221  1
  P  P9  1  0.42512342  0.89651079  0.38929227  1
  P  P10  1  0.65646877  0.06602406  0.14302386  1
  P  P11  1  0.97978837  0.30012783  0.15706524  1
  O  O12  1  0.61431267  0.64642148  0.23504445  1
  O  O13  1  0.01956056  0.64697125  0.69640963  1
  O  O14  1  0.10162812  0.31634232  0.79127437  1
  O  O15  1  0.50751285  0.32010004  0.31045345  1
  O  O16  1  0.71865690  0.45280093  0.61356257  1
  O  O17  1  0.51554424  0.27954399  0.79040063  1
  O  O18  1  0.45566353  0.26509602  0.57013633  1
  O  O19  1  0.75540435  0.14452336  0.69304784  1
  O  O20  1  0.03869279  0.19321457  0.53659250  1
  O  O21  1  0.83089687  0.93390003  0.58323030  1
  O  O22  1  0.05936703  0.98784029  0.74610245  1
  O  O23  1  0.24993315  0.02358771  0.92977014  1
  O  O24  1  0.02020271  0.77848636  0.95667733  1
  O  O25  1  0.33384288  0.81166702  0.82108836  1
  O  O26  1  0.61199255  0.67281481  0.75185774  1
  O  O27  1  0.59619120  0.69159956  0.97399466  1
  O  O28  1  0.36321959  0.50514155  0.90399218  1
  O  O29  1  0.21746321  0.51109829  0.40861312  1
  O  O30  1  0.02647680  0.68098213  0.22449709  1
  O  O31  1  0.94317107  0.69824349  0.44175318  1
  O  O32  1  0.25129767  0.81908390  0.32928799  1
  O  O33  1  0.53901526  0.77307585  0.48226439  1
  O  O34  1  0.33063347  0.03152674  0.43540328  1
  O  O35  1  0.55161516  0.97557032  0.26930306  1
  O  O36  1  0.75392354  0.93792561  0.08974936  1
  O  O37  1  0.52479033  0.18358993  0.05770943  1
  O  O38  1  0.83031260  0.15027459  0.19891537  1
  O  O39  1  0.09903424  0.29065992  0.27342442  1
  O  O40  1  0.10439543  0.26646964  0.05292630  1
  O  O41  1  0.86285483  0.45656295  0.11271575  1
