# generated using pymatgen
data_LiMoPO5
_symmetry_space_group_name_H-M   'P 1'
_cell_length_a   7.17117736
_cell_length_b   7.44146903
_cell_length_c   8.08739887
_cell_angle_alpha   89.90053965
_cell_angle_beta   92.09473828
_cell_angle_gamma   116.40260033
_symmetry_Int_Tables_number   1
_chemical_formula_structural   LiMoPO5
_chemical_formula_sum   'Li4 Mo4 P4 O20'
_cell_volume   386.25049847
_cell_formula_units_Z   4
loop_
 _symmetry_equiv_pos_site_id
 _symmetry_equiv_pos_as_xyz
  1  'x, y, z'
loop_
 _atom_site_type_symbol
 _atom_site_label
 _atom_site_symmetry_multiplicity
 _atom_site_fract_x
 _atom_site_fract_y
 _atom_site_fract_z
 _atom_site_occupancy
  Li  Li0  1  0.31284624  0.81523981  0.42929933  1
  Li  Li1  1  0.19821993  0.28536777  0.07491904  1
  Li  Li2  1  0.80178007  0.71463223  0.92508096  1
  Li  Li3  1  0.68715376  0.18476019  0.57070067  1
  Mo  Mo4  1  0.24688400  0.49686793  0.74570445  1
  Mo  Mo5  1  0.24785884  0.00019814  0.75614507  1
  Mo  Mo6  1  0.75311600  0.50313207  0.25429555  1
  Mo  Mo7  1  0.75214116  0.99980186  0.24385493  1
  O  O8  1  0.12735614  0.85069000  0.98282357  1
  O  O9  1  0.07968910  0.64698124  0.24454797  1
  O  O10  1  0.23814430  0.73013587  0.67129038  1
  O  O11  1  0.25723134  0.58285214  0.99830206  1
  O  O12  1  0.22834830  0.38731356  0.51138219  1
  O  O13  1  0.42826661  0.89763563  0.18503078  1
  O  O14  1  0.07378663  0.09722304  0.30574170  1
  O  O15  1  0.26481727  0.27468184  0.83715632  1
  O  O16  1  0.63879458  0.88009566  0.48755650  1
  O  O17  1  0.42574916  0.35679257  0.26669163  1
  O  O18  1  0.57425084  0.64320743  0.73330837  1
  O  O19  1  0.36120542  0.11990434  0.51244350  1
  O  O20  1  0.73518273  0.72531816  0.16284368  1
  O  O21  1  0.92621337  0.90277696  0.69425830  1
  O  O22  1  0.57173339  0.10236437  0.81496922  1
  O  O23  1  0.77165170  0.61268644  0.48861781  1
  O  O24  1  0.74276866  0.41714786  0.00169794  1
  O  O25  1  0.76185570  0.26986413  0.32870962  1
  O  O26  1  0.92031090  0.35301876  0.75545203  1
  O  O27  1  0.87264386  0.14931000  0.01717643  1
  P  P28  1  0.22520303  0.74598181  0.09736668  1
  P  P29  1  0.27197638  0.23940762  0.40333445  1
  P  P30  1  0.72802362  0.76059238  0.59666555  1
  P  P31  1  0.77479697  0.25401819  0.90263332  1
