# generated using pymatgen
data_Ca4Ti3AlSi4O19F
_symmetry_space_group_name_H-M   'P 1'
_cell_length_a   5.47523696
_cell_length_b   21.93029522
_cell_length_c   7.10805123
_cell_angle_alpha   104.49858757
_cell_angle_beta   104.41397985
_cell_angle_gamma   105.57131498
_symmetry_Int_Tables_number   1
_chemical_formula_structural   Ca4Ti3AlSi4O19F
_chemical_formula_sum   'Ca8 Ti6 Al2 Si8 O38 F2'
_cell_volume   748.85608695
_cell_formula_units_Z   2
loop_
 _symmetry_equiv_pos_site_id
 _symmetry_equiv_pos_as_xyz
  1  'x, y, z'
loop_
 _atom_site_type_symbol
 _atom_site_label
 _atom_site_symmetry_multiplicity
 _atom_site_fract_x
 _atom_site_fract_y
 _atom_site_fract_z
 _atom_site_occupancy
  Al  Al0  1  0.50000000  0.87500000  0.50000000  1
  Al  Al1  1  0.50000000  0.87500000  0.00000000  1
  Ca  Ca2  1  0.16215082  0.95674200  0.74712735  1
  Ca  Ca3  1  0.17446984  0.71030583  0.75326437  1
  Ca  Ca4  1  0.17184783  0.45779660  0.75206817  1
  Ca  Ca5  1  0.16871229  0.20560429  0.74868872  1
  Ca  Ca6  1  0.83784918  0.79325800  0.25287265  1
  Ca  Ca7  1  0.83128771  0.54439571  0.25131128  1
  Ca  Ca8  1  0.82815217  0.29220340  0.24793183  1
  Ca  Ca9  1  0.82553016  0.03969417  0.24673563  1
  F  F10  1  0.43670119  0.89291215  0.75136220  1
  F  F11  1  0.56329881  0.85708785  0.24863780  1
  O  O12  1  0.13409193  0.81685483  0.90357988  1
  O  O13  1  0.19855047  0.90121696  0.38746337  1
  O  O14  1  0.12437246  0.56370571  0.91325437  1
  O  O15  1  0.26054904  0.78560433  0.41148555  1
  O  O16  1  0.38578704  0.94842501  0.10917219  1
  O  O17  1  0.19052693  0.65657403  0.38947634  1
  O  O18  1  0.61421296  0.80157499  0.89082781  1
  O  O19  1  0.73945096  0.96439567  0.58851445  1
  O  O20  1  0.43043423  0.64384200  0.75401184  1
  O  O21  1  0.12185203  0.31197389  0.90917893  1
  O  O22  1  0.25086710  0.53193317  0.41038438  1
  O  O23  1  0.39465651  0.70643676  0.12185224  1
  O  O24  1  0.18677250  0.40367103  0.38409970  1
  O  O25  1  0.80144953  0.84878304  0.61253663  1
  O  O26  1  0.61425983  0.54795049  0.88629454  1
  O  O27  1  0.74982562  0.72227577  0.59940077  1
  O  O28  1  0.42927604  0.39225158  0.74962053  1
  O  O29  1  0.11608093  0.05979293  0.90365721  1
  O  O30  1  0.86590807  0.93314517  0.09642012  1
  O  O31  1  0.57310687  0.60988175  0.25466561  1
  O  O32  1  0.24893268  0.27976917  0.40701549  1
  O  O33  1  0.38903485  0.45410489  0.11762117  1
  O  O34  1  0.18353660  0.15146694  0.38009103  1
  O  O35  1  0.81646340  0.59853306  0.61990897  1
  O  O36  1  0.61096515  0.29589511  0.88237883  1
  O  O37  1  0.75106732  0.47023083  0.59298451  1
  O  O38  1  0.42689313  0.14011825  0.74533439  1
  O  O39  1  0.88391907  0.69020707  0.09634279  1
  O  O40  1  0.57072396  0.35774842  0.25037947  1
  O  O41  1  0.25017438  0.02772423  0.40059923  1
  O  O42  1  0.38574017  0.20204951  0.11370546  1
  O  O43  1  0.81322750  0.34632897  0.61590030  1
  O  O44  1  0.60534349  0.04356324  0.87814776  1
  O  O45  1  0.74913290  0.21806683  0.58961562  1
  O  O46  1  0.87814797  0.43802611  0.09082107  1
  O  O47  1  0.56956577  0.10615800  0.24598816  1
  O  O48  1  0.80947307  0.09342597  0.61052366  1
  O  O49  1  0.87562754  0.18629429  0.08674563  1
  Si  Si50  1  0.17795600  0.95032408  0.24402272  1
  Si  Si51  1  0.18972922  0.70878079  0.25724664  1
  Si  Si52  1  0.18228700  0.45579978  0.25163161  1
  Si  Si53  1  0.82204400  0.79967592  0.75597728  1
  Si  Si54  1  0.17906040  0.20349820  0.24786713  1
  Si  Si55  1  0.82093960  0.54650180  0.75213287  1
  Si  Si56  1  0.81771300  0.29420022  0.74836839  1
  Si  Si57  1  0.81027078  0.04121921  0.74275336  1
  Ti  Ti58  1  0.50453538  0.62779153  0.50339011  1
  Ti  Ti59  1  0.50194051  0.62668536  0.00149178  1
  Ti  Ti60  1  0.50000000  0.37500000  0.50000000  1
  Ti  Ti61  1  0.50000000  0.37500000  0.00000000  1
  Ti  Ti62  1  0.49546462  0.12220847  0.49660989  1
  Ti  Ti63  1  0.49805949  0.12331464  0.99850822  1
