# generated using pymatgen
data_TaTeCl9
_symmetry_space_group_name_H-M   'P 1'
_cell_length_a   6.67381819
_cell_length_b   9.69504221
_cell_length_c   11.84825647
_cell_angle_alpha   73.28696382
_cell_angle_beta   72.93067596
_cell_angle_gamma   88.99233159
_symmetry_Int_Tables_number   1
_chemical_formula_structural   TaTeCl9
_chemical_formula_sum   'Ta2 Te2 Cl18'
_cell_volume   700.01814427
_cell_formula_units_Z   2
loop_
 _symmetry_equiv_pos_site_id
 _symmetry_equiv_pos_as_xyz
  1  'x, y, z'
loop_
 _atom_site_type_symbol
 _atom_site_label
 _atom_site_symmetry_multiplicity
 _atom_site_fract_x
 _atom_site_fract_y
 _atom_site_fract_z
 _atom_site_occupancy
  Te  Te0  1  0.13110414  0.66315336  0.16526270  1
  Te  Te1  1  0.86889586  0.33684664  0.83473730  1
  Ta  Ta2  1  0.42801783  0.73490833  0.71022395  1
  Ta  Ta3  1  0.57198217  0.26509167  0.28977605  1
  Cl  Cl4  1  0.35770734  0.74329118  0.52957581  1
  Cl  Cl5  1  0.64229266  0.25670882  0.47042419  1
  Cl  Cl6  1  0.56579890  0.49680242  0.71191976  1
  Cl  Cl7  1  0.43420110  0.50319758  0.28808024  1
  Cl  Cl8  1  0.27383821  0.94528334  0.72596572  1
  Cl  Cl9  1  0.72616179  0.05471666  0.27403428  1
  Cl  Cl10  1  0.08160401  0.60108382  0.82917927  1
  Cl  Cl11  1  0.91839599  0.39891618  0.17082073  1
  Cl  Cl12  1  0.48007391  0.69259551  0.91278160  1
  Cl  Cl13  1  0.51992609  0.30740449  0.08721840  1
  Cl  Cl14  1  0.76159124  0.84437378  0.61646641  1
  Cl  Cl15  1  0.23840876  0.15562622  0.38353359  1
  Cl  Cl16  1  0.90110982  0.79423348  0.06597143  1
  Cl  Cl17  1  0.09889018  0.20576652  0.93402857  1
  Cl  Cl18  1  0.91202754  0.63451322  0.36540576  1
  Cl  Cl19  1  0.08797246  0.36548678  0.63459424  1
  Cl  Cl20  1  0.31455535  0.87164402  0.15951543  1
  Cl  Cl21  1  0.68544465  0.12835598  0.84048457  1
