# generated using pymatgen
data_AgAsS2
_symmetry_space_group_name_H-M   'P 1'
_cell_length_a   7.92177083
_cell_length_b   8.65879867
_cell_length_c   17.58374695
_cell_angle_alpha   99.99281497
_cell_angle_beta   90.00000000
_cell_angle_gamma   117.22207224
_symmetry_Int_Tables_number   1
_chemical_formula_structural   AgAsS2
_chemical_formula_sum   'Ag12 As12 S24'
_cell_volume   1051.91383099
_cell_formula_units_Z   12
loop_
 _symmetry_equiv_pos_site_id
 _symmetry_equiv_pos_as_xyz
  1  'x, y, z'
loop_
 _atom_site_type_symbol
 _atom_site_label
 _atom_site_symmetry_multiplicity
 _atom_site_fract_x
 _atom_site_fract_y
 _atom_site_fract_z
 _atom_site_occupancy
  Ag  Ag0  1  0.12197442  0.00000000  0.25000000  1
  Ag  Ag1  1  0.87802558  0.00000000  0.75000000  1
  Ag  Ag2  1  0.63352769  0.00000000  0.25000000  1
  Ag  Ag3  1  0.36647231  0.00000000  0.75000000  1
  Ag  Ag4  1  0.23788196  0.71201289  0.08776170  1
  Ag  Ag5  1  0.52586907  0.28798711  0.41223830  1
  Ag  Ag6  1  0.76211804  0.28798711  0.91223830  1
  Ag  Ag7  1  0.47413093  0.71201289  0.58776170  1
  Ag  Ag8  1  0.81356970  0.86567792  0.41919664  1
  Ag  Ag9  1  0.94789177  0.13432208  0.08080336  1
  Ag  Ag10  1  0.18643030  0.13432208  0.58080336  1
  Ag  Ag11  1  0.05210823  0.86567792  0.91919664  1
  As  As12  1  0.88563447  0.50766702  0.26874271  1
  As  As13  1  0.37796745  0.49233298  0.23125729  1
  As  As14  1  0.11436553  0.49233298  0.73125729  1
  As  As15  1  0.62203255  0.50766702  0.76874271  1
  As  As16  1  0.05306301  0.34545450  0.41862532  1
  As  As17  1  0.70760851  0.65454550  0.08137468  1
  As  As18  1  0.94693699  0.65454550  0.58137468  1
  As  As19  1  0.29239149  0.34545450  0.91862532  1
  As  As20  1  0.28568916  0.81455366  0.41244026  1
  As  As21  1  0.47113550  0.18544634  0.08755974  1
  As  As22  1  0.71431084  0.18544634  0.58755974  1
  As  As23  1  0.52886450  0.81455366  0.91244026  1
  S  S24  1  0.58777099  0.99549024  0.10317410  1
  S  S25  1  0.59228074  0.00450976  0.39682590  1
  S  S26  1  0.41222901  0.00450976  0.89682590  1
  S  S27  1  0.40771926  0.99549024  0.60317410  1
  S  S28  1  0.01958312  0.86254902  0.09019536  1
  S  S29  1  0.15703410  0.13745098  0.40980464  1
  S  S30  1  0.98041688  0.13745098  0.90980464  1
  S  S31  1  0.84296590  0.86254902  0.59019536  1
  S  S32  1  0.45116126  0.25354879  0.22131464  1
  S  S33  1  0.19761248  0.74645121  0.27868536  1
  S  S34  1  0.54883874  0.74645121  0.77868536  1
  S  S35  1  0.80238752  0.25354879  0.72131464  1
  S  S36  1  0.97885667  0.28692902  0.28517142  1
  S  S37  1  0.69192764  0.71307098  0.21482858  1
  S  S38  1  0.02114333  0.71307098  0.71482858  1
  S  S39  1  0.30807236  0.28692902  0.78517142  1
  S  S40  1  0.81643578  0.56790060  0.39149805  1
  S  S41  1  0.24853519  0.43209940  0.10850195  1
  S  S42  1  0.18356422  0.43209940  0.60850195  1
  S  S43  1  0.75146481  0.56790060  0.89149805  1
  S  S44  1  0.76792886  0.41351483  0.07416280  1
  S  S45  1  0.35441403  0.58648517  0.42583720  1
  S  S46  1  0.23207114  0.58648517  0.92583720  1
  S  S47  1  0.64558597  0.41351483  0.57416280  1
