# generated using pymatgen
data_Fe5(PO4)4
_symmetry_space_group_name_H-M   'P 1'
_cell_length_a   8.04848956
_cell_length_b   8.39167340
_cell_length_c   5.17883782
_cell_angle_alpha   91.57499399
_cell_angle_beta   100.85235969
_cell_angle_gamma   112.00605656
_symmetry_Int_Tables_number   1
_chemical_formula_structural   Fe5(PO4)4
_chemical_formula_sum   'Fe5 P4 O16'
_cell_volume   316.64558942
_cell_formula_units_Z   1
loop_
 _symmetry_equiv_pos_site_id
 _symmetry_equiv_pos_as_xyz
  1  'x, y, z'
loop_
 _atom_site_type_symbol
 _atom_site_label
 _atom_site_symmetry_multiplicity
 _atom_site_fract_x
 _atom_site_fract_y
 _atom_site_fract_z
 _atom_site_occupancy
  Fe  Fe0  1  0.58338492  0.33337527  0.35398054  1
  Fe  Fe1  1  0.41661508  0.66662473  0.64601946  1
  Fe  Fe2  1  0.24373913  0.77056846  0.10363949  1
  Fe  Fe3  1  -0.00000000  0.00000000  -0.00000000  1
  Fe  Fe4  1  0.75626087  0.22943154  0.89636051  1
  P  P5  1  0.69417537  0.97878090  0.36301413  1
  P  P6  1  0.30582463  0.02121910  0.63698587  1
  P  P7  1  0.79621381  0.56734255  0.86462777  1
  P  P8  1  0.20378619  0.43265745  0.13537223  1
  O  O9  1  0.18274962  0.56691556  0.33458374  1
  O  O10  1  0.64242693  0.62211588  0.73930607  1
  O  O11  1  0.33649037  0.86779779  0.78129174  1
  O  O12  1  0.82296002  0.92296273  0.23973100  1
  O  O13  1  0.24591231  0.54582035  0.90429556  1
  O  O14  1  0.75408769  0.45417965  0.09570444  1
  O  O15  1  0.97862568  0.72823236  0.94565513  1
  O  O16  1  0.49745307  0.17289246  0.67286103  1
  O  O17  1  0.35757307  0.37788412  0.26069393  1
  O  O18  1  0.02137432  0.27176764  0.05434487  1
  O  O19  1  0.81725038  0.43308444  0.66541626  1
  O  O20  1  0.66350963  0.13220221  0.21870826  1
  O  O21  1  0.17703998  0.07703727  0.76026900  1
  O  O22  1  0.50254693  0.82710754  0.32713897  1
  O  O23  1  0.76895099  0.03688156  0.66689573  1
  O  O24  1  0.23104901  0.96311844  0.33310427  1
