# generated using pymatgen
data_NaH2ClO5
_symmetry_space_group_name_H-M   'P 1'
_cell_length_a   5.55014688
_cell_length_b   8.50261228
_cell_length_c   11.09448927
_cell_angle_alpha   109.06632947
_cell_angle_beta   90.00000000
_cell_angle_gamma   109.04913758
_symmetry_Int_Tables_number   1
_chemical_formula_structural   NaH2ClO5
_chemical_formula_sum   'Na4 H8 Cl4 O20'
_cell_volume   464.39508792
_cell_formula_units_Z   4
loop_
 _symmetry_equiv_pos_site_id
 _symmetry_equiv_pos_as_xyz
  1  'x, y, z'
loop_
 _atom_site_type_symbol
 _atom_site_label
 _atom_site_symmetry_multiplicity
 _atom_site_fract_x
 _atom_site_fract_y
 _atom_site_fract_z
 _atom_site_occupancy
  Na  Na0  1  0.00000000  0.50000000  0.50000000  1
  Na  Na1  1  0.50000000  0.50000000  0.00000000  1
  Na  Na2  1  0.53452312  0.00000000  0.25000000  1
  Na  Na3  1  0.46547688  0.00000000  0.75000000  1
  Cl  Cl4  1  0.15373982  0.25217424  0.19416498  1
  Cl  Cl5  1  0.90156557  0.74782576  0.30583502  1
  Cl  Cl6  1  0.84626018  0.74782576  0.80583502  1
  Cl  Cl7  1  0.09843443  0.25217424  0.69416498  1
  O  O8  1  0.19091874  0.33111951  0.33486033  1
  O  O9  1  0.85979923  0.66888049  0.16513967  1
  O  O10  1  0.80908126  0.66888049  0.66513967  1
  O  O11  1  0.14020077  0.33111951  0.83486033  1
  O  O12  1  0.20917627  0.39089454  0.13824058  1
  O  O13  1  0.81828173  0.60910546  0.36175942  1
  O  O14  1  0.79082373  0.60910546  0.86175942  1
  O  O15  1  0.18171827  0.39089454  0.63824058  1
  O  O16  1  0.88719395  0.13446569  0.15151795  1
  O  O17  1  0.75272826  0.86553431  0.34848205  1
  O  O18  1  0.11280605  0.86553431  0.84848205  1
  O  O19  1  0.24727174  0.13446569  0.65151795  1
  O  O20  1  0.32432194  0.15015938  0.15369141  1
  O  O21  1  0.17416256  0.84984062  0.34630859  1
  O  O22  1  0.67567806  0.84984062  0.84630859  1
  O  O23  1  0.82583744  0.15015938  0.65369141  1
  O  O24  1  0.34727954  0.74815843  0.05250739  1
  O  O25  1  0.59912111  0.25184157  0.44749261  1
  O  O26  1  0.65272046  0.25184157  0.94749261  1
  O  O27  1  0.40087889  0.74815843  0.55250739  1
  H  H28  1  0.35438451  0.78575411  0.97777107  1
  H  H29  1  0.56863041  0.21424589  0.52222893  1
  H  H30  1  0.64561549  0.21424589  0.02222893  1
  H  H31  1  0.43136959  0.78575411  0.47777107  1
  H  H32  1  0.16556544  0.71269779  0.06620525  1
  H  H33  1  0.45286765  0.28730221  0.43379475  1
  H  H34  1  0.83443456  0.28730221  0.93379475  1
  H  H35  1  0.54713235  0.71269779  0.56620525  1
