# generated using pymatgen
data_K2LaH4N5O17
_symmetry_space_group_name_H-M   'P 1'
_cell_length_a   8.46524637
_cell_length_b   8.46541465
_cell_length_c   12.32309381
_cell_angle_alpha   108.33028426
_cell_angle_beta   108.30287686
_cell_angle_gamma   94.88866891
_symmetry_Int_Tables_number   1
_chemical_formula_structural   K2LaH4N5O17
_chemical_formula_sum   'K4 La2 H8 N10 O34'
_cell_volume   779.11656819
_cell_formula_units_Z   2
loop_
 _symmetry_equiv_pos_site_id
 _symmetry_equiv_pos_as_xyz
  1  'x, y, z'
loop_
 _atom_site_type_symbol
 _atom_site_label
 _atom_site_symmetry_multiplicity
 _atom_site_fract_x
 _atom_site_fract_y
 _atom_site_fract_z
 _atom_site_occupancy
  La  La0  1  0.99770717  0.00225741  -0.00002193  1
  La  La1  1  0.74777566  0.25223493  0.50000067  1
  O  O2  1  0.77060193  0.95692833  0.09708044  1
  O  O3  1  0.04310567  0.22941590  0.90292186  1
  O  O4  1  0.89006996  0.57639865  0.59709950  1
  O  O5  1  0.42359732  0.10990806  0.40291206  1
  O  O6  1  0.72766885  0.75461996  0.92268279  1
  O  O7  1  0.24537701  0.27237431  0.07730704  1
  O  O8  1  0.91800497  0.44499050  0.42273207  1
  O  O9  1  0.55496766  0.08199696  0.57725443  1
  O  O10  1  0.57504580  0.72483761  0.03334741  1
  O  O11  1  0.27518304  0.42495867  0.96665045  1
  O  O12  1  0.05835876  0.70835370  0.53338164  1
  O  O13  1  0.29163770  0.94163010  0.46662493  1
  O  O14  1  0.06575691  0.77144149  0.11510958  1
  O  O15  1  0.22853129  0.93425613  0.88489645  1
  O  O16  1  0.09359197  0.29938813  0.61526835  1
  O  O17  1  0.70057874  0.90644311  0.38476127  1
  O  O18  1  0.29070633  0.92871857  0.12375833  1
  O  O19  1  0.07128005  0.70930841  0.87624978  1
  O  O20  1  0.94492603  0.08298522  0.62370919  1
  O  O21  1  0.91701891  0.05512838  0.37631672  1
  O  O22  1  0.31854668  0.73048550  0.20562446  1
  O  O23  1  0.26951275  0.68144215  0.79436083  1
  O  O24  1  0.22500669  0.13702086  0.70564941  1
  O  O25  1  0.86298752  0.77498956  0.29434255  1
  O  O26  1  0.71286056  0.11655593  0.90930288  1
  O  O27  1  0.88341954  0.28714543  0.09069483  1
  O  O28  1  0.54297811  0.44668294  0.40940409  1
  O  O29  1  0.55329586  0.45704762  0.59058323  1
  O  O30  1  0.64461848  0.35539490  0.00002125  1
  O  O31  1  0.39460503  0.60540370  0.50000455  1
  K  K32  1  0.56045532  0.52386885  0.20448223  1
  K  K33  1  0.47615957  0.43950334  0.79550471  1
  K  K34  1  0.43025800  0.89416629  0.70441130  1
  K  K35  1  0.10582209  0.56975274  0.29557583  1
  N  N36  1  0.68722267  0.80910920  0.01819948  1
  N  N37  1  0.19091163  0.31280135  0.98179709  1
  N  N38  1  0.95897113  0.58093667  0.51823007  1
  N  N39  1  0.41904816  0.04102366  0.48176957  1
  N  N40  1  0.22674445  0.80810815  0.14913245  1
  N  N41  1  0.19188766  0.77326055  0.85086472  1
  N  N42  1  0.09092243  0.17236680  0.64917338  1
  N  N43  1  0.82761957  0.90909297  0.35083803  1
  N  N44  1  0.74476415  0.25523516  0.00000563  1
  N  N45  1  0.49475658  0.50524531  0.49999523  1
  O  O46  1  0.11089864  0.15602121  0.24600430  1
  O  O47  1  0.84397997  0.88907190  0.75400403  1
  O  O48  1  0.83996350  0.38510109  0.74600520  1
  O  O49  1  0.61491901  0.16002932  0.25399532  1
  H  H50  1  0.22351869  0.14254177  0.29304368  1
  H  H51  1  0.85747071  0.77643412  0.70695153  1
  H  H52  1  0.90047737  0.31954176  0.79305692  1
  H  H53  1  0.68047310  0.09948806  0.20692490  1
  H  H54  1  0.03578119  0.11313637  0.28212946  1
  H  H55  1  0.88687046  0.96418906  0.71788160  1
  H  H56  1  0.91899671  0.49634508  0.78212230  1
  H  H57  1  0.50366426  0.08100611  0.21786990  1
