# generated using pymatgen
data_Co3P2(H2O5)2
_symmetry_space_group_name_H-M   'P 1'
_cell_length_a   7.47549379
_cell_length_b   7.56681731
_cell_length_c   7.61066707
_cell_angle_alpha   90.00000000
_cell_angle_beta   117.81229654
_cell_angle_gamma   90.00000000
_symmetry_Int_Tables_number   1
_chemical_formula_structural   Co3P2(H2O5)2
_chemical_formula_sum   'Co6 P4 H8 O20'
_cell_volume   380.77137979
_cell_formula_units_Z   2
loop_
 _symmetry_equiv_pos_site_id
 _symmetry_equiv_pos_as_xyz
  1  'x, y, z'
loop_
 _atom_site_type_symbol
 _atom_site_label
 _atom_site_symmetry_multiplicity
 _atom_site_fract_x
 _atom_site_fract_y
 _atom_site_fract_z
 _atom_site_occupancy
  Co  Co0  1  0.00000000  0.00000000  0.00000000  1
  Co  Co1  1  0.50000000  0.50000000  0.00000000  1
  Co  Co2  1  0.98043371  0.72541219  0.25348562  1
  Co  Co3  1  0.51956629  0.22541219  0.74651438  1
  Co  Co4  1  0.01956629  0.27458781  0.74651438  1
  Co  Co5  1  0.48043371  0.77458781  0.25348562  1
  P  P6  1  0.76260196  0.61825288  0.76376229  1
  P  P7  1  0.73739804  0.11825288  0.23623771  1
  P  P8  1  0.23739804  0.38174712  0.23623771  1
  P  P9  1  0.26260196  0.88174712  0.76376229  1
  O  O10  1  0.64082275  0.48489517  0.81604289  1
  O  O11  1  0.85917725  0.98489517  0.18395711  1
  O  O12  1  0.35917725  0.51510483  0.18395711  1
  O  O13  1  0.14082275  0.01510483  0.81604289  1
  O  O14  1  0.88566169  0.52921708  0.67219643  1
  O  O15  1  0.61433831  0.02921708  0.32780357  1
  O  O16  1  0.11433831  0.47078292  0.32780357  1
  O  O17  1  0.38566169  0.97078292  0.67219643  1
  O  O18  1  0.89179328  0.73612472  0.94200489  1
  O  O19  1  0.60820672  0.23612472  0.05799511  1
  O  O20  1  0.10820672  0.26387528  0.05799511  1
  O  O21  1  0.39179328  0.76387528  0.94200489  1
  O  O22  1  0.60641296  0.74589392  0.58799660  1
  O  O23  1  0.89358704  0.24589392  0.41200340  1
  O  O24  1  0.39358704  0.25410608  0.41200340  1
  O  O25  1  0.10641296  0.75410608  0.58799660  1
  O  O26  1  0.72334878  0.63009151  0.25135275  1
  O  O27  1  0.77665122  0.13009151  0.74864725  1
  O  O28  1  0.27665122  0.36990849  0.74864725  1
  O  O29  1  0.22334878  0.86990849  0.25135275  1
  H  H30  1  0.52669679  0.82807366  0.63186825  1
  H  H31  1  0.97330321  0.32807366  0.36813175  1
  H  H32  1  0.47330321  0.17192634  0.36813175  1
  H  H33  1  0.02669679  0.67192634  0.63186825  1
  H  H34  1  0.76371135  0.55479746  0.36860308  1
  H  H35  1  0.73628865  0.05479746  0.63139692  1
  H  H36  1  0.23628865  0.44520254  0.63139692  1
  H  H37  1  0.26371135  0.94520254  0.36860308  1
