# generated using pymatgen
data_Li2Fe(PO3)4
_symmetry_space_group_name_H-M   'P 1'
_cell_length_a   9.49204556
_cell_length_b   10.13967086
_cell_length_c   9.39189760
_cell_angle_alpha   90.00000000
_cell_angle_beta   90.00000000
_cell_angle_gamma   90.00000000
_symmetry_Int_Tables_number   1
_chemical_formula_structural   Li2Fe(PO3)4
_chemical_formula_sum   'Li8 Fe4 P16 O48'
_cell_volume   903.93462165
_cell_formula_units_Z   4
loop_
 _symmetry_equiv_pos_site_id
 _symmetry_equiv_pos_as_xyz
  1  'x, y, z'
loop_
 _atom_site_type_symbol
 _atom_site_label
 _atom_site_symmetry_multiplicity
 _atom_site_fract_x
 _atom_site_fract_y
 _atom_site_fract_z
 _atom_site_occupancy
  Li  Li0  1  0.00333636  0.82972343  0.39712149  1
  Li  Li1  1  0.49666364  0.32972343  0.60287851  1
  Li  Li2  1  0.99666364  0.17027657  0.60287851  1
  Li  Li3  1  0.50333636  0.67027657  0.39712149  1
  Li  Li4  1  0.99666364  0.17027657  0.89712149  1
  Li  Li5  1  0.49666364  0.32972343  0.89712149  1
  Li  Li6  1  0.00333636  0.82972343  0.10287851  1
  Li  Li7  1  0.50333636  0.67027657  0.10287851  1
  Fe  Fe8  1  0.98742313  0.80280371  0.75000000  1
  Fe  Fe9  1  0.51257687  0.30280371  0.25000000  1
  Fe  Fe10  1  0.48742313  0.69719629  0.75000000  1
  Fe  Fe11  1  0.01257687  0.19719629  0.25000000  1
  P  P12  1  0.19462926  0.39674997  0.75000000  1
  P  P13  1  0.70660250  0.88624503  0.53570376  1
  P  P14  1  0.79339750  0.38624503  0.46429624  1
  P  P15  1  0.30537074  0.89674997  0.25000000  1
  P  P16  1  0.29339750  0.11375497  0.46429624  1
  P  P17  1  0.79339750  0.38624503  0.03570376  1
  P  P18  1  0.70660250  0.88624503  0.96429624  1
  P  P19  1  0.20660250  0.61375497  0.53570376  1
  P  P20  1  0.69462926  0.10325003  0.75000000  1
  P  P21  1  0.72651255  0.01989865  0.25000000  1
  P  P22  1  0.22651255  0.48010135  0.25000000  1
  P  P23  1  0.77348745  0.51989865  0.75000000  1
  P  P24  1  0.80537074  0.60325003  0.25000000  1
  P  P25  1  0.27348745  0.98010135  0.75000000  1
  P  P26  1  0.29339750  0.11375497  0.03570376  1
  P  P27  1  0.20660250  0.61375497  0.96429624  1
  O  O28  1  0.85164571  0.11955860  0.75000000  1
  O  O29  1  0.14835429  0.88044140  0.25000000  1
  O  O30  1  0.14378361  0.35583505  0.25000000  1
  O  O31  1  0.64556855  0.01368796  0.88305242  1
  O  O32  1  0.11250558  0.72981560  0.56629870  1
  O  O33  1  0.88749442  0.27018440  0.43370130  1
  O  O34  1  0.63629440  0.37521150  0.05722585  1
  O  O35  1  0.13629440  0.12478850  0.44277415  1
  O  O36  1  0.61424456  0.52644542  0.75000000  1
  O  O37  1  0.61250558  0.77018440  0.93370130  1
  O  O38  1  0.11424456  0.97355458  0.75000000  1
  O  O39  1  0.82794501  0.42566746  0.62463546  1
  O  O40  1  0.13629440  0.12478850  0.05722585  1
  O  O41  1  0.35621639  0.85583505  0.75000000  1
  O  O42  1  0.17205499  0.57433254  0.37536454  1
  O  O43  1  0.67205499  0.92566746  0.37536454  1
  O  O44  1  0.32794501  0.07433254  0.62463546  1
  O  O45  1  0.85443145  0.51368796  0.38305242  1
  O  O46  1  0.64378361  0.14416495  0.25000000  1
  O  O47  1  0.14556855  0.48631204  0.88305242  1
  O  O48  1  0.63629440  0.37521150  0.44277415  1
  O  O49  1  0.61250558  0.77018440  0.56629870  1
  O  O50  1  0.11250558  0.72981560  0.93370130  1
  O  O51  1  0.38749442  0.22981560  0.43370130  1
  O  O52  1  0.35443145  0.98631204  0.38305242  1
  O  O53  1  0.85443145  0.51368796  0.11694758  1
  O  O54  1  0.38575544  0.47355458  0.25000000  1
  O  O55  1  0.35443145  0.98631204  0.11694758  1
  O  O56  1  0.39930233  0.77854190  0.25000000  1
  O  O57  1  0.14556855  0.48631204  0.61694758  1
  O  O58  1  0.85621639  0.64416495  0.75000000  1
  O  O59  1  0.64835429  0.61955860  0.25000000  1
  O  O60  1  0.32794501  0.07433254  0.87536454  1
  O  O61  1  0.10069767  0.27854190  0.75000000  1
  O  O62  1  0.88575544  0.02644542  0.25000000  1
  O  O63  1  0.60069767  0.22145810  0.75000000  1
  O  O64  1  0.35164571  0.38044140  0.75000000  1
  O  O65  1  0.82794501  0.42566746  0.87536454  1
  O  O66  1  0.38749442  0.22981560  0.06629870  1
  O  O67  1  0.67205499  0.92566746  0.12463546  1
  O  O68  1  0.17205499  0.57433254  0.12463546  1
  O  O69  1  0.89930233  0.72145810  0.25000000  1
  O  O70  1  0.88749442  0.27018440  0.06629870  1
  O  O71  1  0.36370560  0.62478850  0.55722585  1
  O  O72  1  0.64556855  0.01368796  0.61694758  1
  O  O73  1  0.36370560  0.62478850  0.94277415  1
  O  O74  1  0.86370560  0.87521150  0.55722585  1
  O  O75  1  0.86370560  0.87521150  0.94277415  1
