# generated using pymatgen
data_NiH8(IO5)2
_symmetry_space_group_name_H-M   'P 1'
_cell_length_a   6.57786609
_cell_length_b   8.37276628
_cell_length_c   8.54554983
_cell_angle_alpha   99.14664960
_cell_angle_beta   90.00000000
_cell_angle_gamma   90.00000000
_symmetry_Int_Tables_number   1
_chemical_formula_structural   NiH8(IO5)2
_chemical_formula_sum   'Ni2 H16 I4 O20'
_cell_volume   464.66120881
_cell_formula_units_Z   2
loop_
 _symmetry_equiv_pos_site_id
 _symmetry_equiv_pos_as_xyz
  1  'x, y, z'
loop_
 _atom_site_type_symbol
 _atom_site_label
 _atom_site_symmetry_multiplicity
 _atom_site_fract_x
 _atom_site_fract_y
 _atom_site_fract_z
 _atom_site_occupancy
  Ni  Ni0  1  0.00000000  0.00000000  0.00000000  1
  Ni  Ni1  1  0.50000000  0.00000000  0.50000000  1
  I  I2  1  0.67952056  0.66868864  0.97327988  1
  I  I3  1  0.17952056  0.33131136  0.52672012  1
  I  I4  1  0.32047944  0.33131136  0.02672012  1
  I  I5  1  0.82047944  0.66868864  0.47327988  1
  O  O6  1  0.71760476  0.88871875  0.02920835  1
  O  O7  1  0.21760476  0.11128125  0.47079165  1
  O  O8  1  0.28239524  0.11128125  0.97079165  1
  O  O9  1  0.78239524  0.88871875  0.52920835  1
  O  O10  1  0.61915763  0.66384472  0.76374769  1
  O  O11  1  0.11915763  0.33615528  0.73625231  1
  O  O12  1  0.38084237  0.33615528  0.23625231  1
  O  O13  1  0.88084237  0.66384472  0.26374769  1
  O  O14  1  0.07846679  0.66215813  0.55748867  1
  O  O15  1  0.57846679  0.33784187  0.94251133  1
  O  O16  1  0.92153321  0.33784187  0.44251133  1
  O  O17  1  0.42153321  0.66215813  0.05748867  1
  O  O18  1  0.90792747  0.06868063  0.79521248  1
  O  O19  1  0.40792747  0.93131937  0.70478752  1
  O  O20  1  0.09207253  0.93131937  0.20478752  1
  O  O21  1  0.59207253  0.06868063  0.29521248  1
  O  O22  1  0.09229641  0.76238612  0.89457955  1
  O  O23  1  0.59229641  0.23761388  0.60542045  1
  O  O24  1  0.90770359  0.23761388  0.10542045  1
  O  O25  1  0.40770359  0.76238612  0.39457955  1
  H  H26  1  0.99436524  0.15477529  0.76258258  1
  H  H27  1  0.49436524  0.84522471  0.73741742  1
  H  H28  1  0.00563476  0.84522471  0.23741742  1
  H  H29  1  0.50563476  0.15477529  0.26258258  1
  H  H30  1  0.87419576  0.99102259  0.69749737  1
  H  H31  1  0.37419576  0.00897741  0.80250263  1
  H  H32  1  0.12580424  0.00897741  0.30250263  1
  H  H33  1  0.62580424  0.99102259  0.19749737  1
  H  H34  1  0.21694221  0.72714143  0.94633462  1
  H  H35  1  0.71694221  0.27285857  0.55366538  1
  H  H36  1  0.78305779  0.27285857  0.05366538  1
  H  H37  1  0.28305779  0.72714143  0.44633462  1
  H  H38  1  0.11007194  0.73633557  0.77808044  1
  H  H39  1  0.61007194  0.26366443  0.72191956  1
  H  H40  1  0.88992806  0.26366443  0.22191956  1
  H  H41  1  0.38992806  0.73633557  0.27808044  1
