# generated using pymatgen
data_CsAgCl2
_symmetry_space_group_name_H-M   'P 1'
_cell_length_a   4.44458407
_cell_length_b   5.76587336
_cell_length_c   9.99797625
_cell_angle_alpha   90.00000000
_cell_angle_beta   102.84264483
_cell_angle_gamma   90.00000000
_symmetry_Int_Tables_number   1
_chemical_formula_structural   CsAgCl2
_chemical_formula_sum   'Cs2 Ag2 Cl4'
_cell_volume   249.80774413
_cell_formula_units_Z   2
loop_
 _symmetry_equiv_pos_site_id
 _symmetry_equiv_pos_as_xyz
  1  'x, y, z'
loop_
 _atom_site_type_symbol
 _atom_site_label
 _atom_site_symmetry_multiplicity
 _atom_site_fract_x
 _atom_site_fract_y
 _atom_site_fract_z
 _atom_site_occupancy
  Cs  Cs0  1  0.41748165  0.25000000  0.83496330  1
  Cs  Cs1  1  0.58251835  0.75000000  0.16503670  1
  Ag  Ag2  1  0.20041689  0.25000000  0.40083378  1
  Ag  Ag3  1  0.79958311  0.75000000  0.59916622  1
  Cl  Cl4  1  0.77612485  0.25000000  0.55224969  1
  Cl  Cl5  1  0.22387515  0.75000000  0.44775031  1
  Cl  Cl6  1  0.06905947  0.25000000  0.13811894  1
  Cl  Cl7  1  0.93094053  0.75000000  0.86188106  1
