# generated using pymatgen
data_KHo(PO3)4
_symmetry_space_group_name_H-M   'P 1'
_cell_length_a   7.39837772
_cell_length_b   7.39837781
_cell_length_c   10.51728958
_cell_angle_alpha   101.06048231
_cell_angle_beta   101.06048243
_cell_angle_gamma   115.32313829
_symmetry_Int_Tables_number   1
_chemical_formula_structural   KHo(PO3)4
_chemical_formula_sum   'K2 Ho2 P8 O24'
_cell_volume   485.74075519
_cell_formula_units_Z   2
loop_
 _symmetry_equiv_pos_site_id
 _symmetry_equiv_pos_as_xyz
  1  'x, y, z'
loop_
 _atom_site_type_symbol
 _atom_site_label
 _atom_site_symmetry_multiplicity
 _atom_site_fract_x
 _atom_site_fract_y
 _atom_site_fract_z
 _atom_site_occupancy
  K  K0  1  0.31580103  0.18419897  0.75000000  1
  K  K1  1  0.68419897  0.81580103  0.25000000  1
  Ho  Ho2  1  0.38016615  0.11983385  0.25000000  1
  Ho  Ho3  1  0.61983385  0.88016615  0.75000000  1
  P  P4  1  0.24521806  0.69735932  0.94290135  1
  P  P5  1  0.19735932  0.74521806  0.44290135  1
  P  P6  1  0.80264068  0.25478194  0.55709865  1
  P  P7  1  0.12620358  0.28510263  0.00333123  1
  P  P8  1  0.21489737  0.37379642  0.49666877  1
  P  P9  1  0.87379642  0.71489737  0.99666877  1
  P  P10  1  0.78510263  0.62620358  0.50333123  1
  P  P11  1  0.75478194  0.30264068  0.05709865  1
  O  O12  1  0.02919641  0.27151720  0.56377140  1
  O  O13  1  0.36396850  0.84375006  0.08597406  1
  O  O14  1  0.68394505  0.24675133  0.17409334  1
  O  O15  1  0.63603150  0.15624994  0.91402594  1
  O  O16  1  0.25324867  0.81605495  0.32590666  1
  O  O17  1  0.98603649  0.08974308  0.88464753  1
  O  O18  1  0.34375006  0.86396850  0.58597406  1
  O  O19  1  -0.00053860  0.35809151  0.08997950  1
  O  O20  1  0.31605495  0.75324867  0.82590666  1
  O  O21  1  1.00053860  0.64190849  0.91002050  1
  O  O22  1  0.65624994  0.13603150  0.41402594  1
  O  O23  1  0.01396351  0.91025692  0.11535247  1
  O  O24  1  0.58974308  0.48603649  0.38464753  1
  O  O25  1  0.79542362  0.80886622  0.60237907  1
  O  O26  1  0.22848280  0.47080359  0.93622860  1
  O  O27  1  0.20457638  0.19113378  0.39762093  1
  O  O28  1  0.97080359  0.72848280  0.43622860  1
  O  O29  1  0.30886622  0.29542362  0.10237907  1
  O  O30  1  0.69113378  0.70457638  0.89762093  1
  O  O31  1  0.77151720  0.52919641  0.06377140  1
  O  O32  1  0.85809151  0.49946140  0.58997950  1
  O  O33  1  0.14190849  0.50053860  0.41002050  1
  O  O34  1  0.41025692  0.51396351  0.61535247  1
  O  O35  1  0.74675133  0.18394505  0.67409334  1
