# generated using pymatgen
data_KZrCuF7
_symmetry_space_group_name_H-M   'P 1'
_cell_length_a   7.76076609
_cell_length_b   7.76076680
_cell_length_c   10.21719644
_cell_angle_alpha   90.00000000
_cell_angle_beta   90.00000000
_cell_angle_gamma   113.34406320
_symmetry_Int_Tables_number   1
_chemical_formula_structural   KZrCuF7
_chemical_formula_sum   'K4 Zr4 Cu4 F28'
_cell_volume   565.00304162
_cell_formula_units_Z   4
loop_
 _symmetry_equiv_pos_site_id
 _symmetry_equiv_pos_as_xyz
  1  'x, y, z'
loop_
 _atom_site_type_symbol
 _atom_site_label
 _atom_site_symmetry_multiplicity
 _atom_site_fract_x
 _atom_site_fract_y
 _atom_site_fract_z
 _atom_site_occupancy
  K  K0  1  0.63718096  0.84704182  0.25000000  1
  K  K1  1  0.15295818  0.36281904  0.25000000  1
  K  K2  1  0.84704182  0.63718096  0.75000000  1
  K  K3  1  0.36281904  0.15295818  0.75000000  1
  Zr  Zr4  1  0.13379200  0.86620800  0.43110751  1
  Zr  Zr5  1  0.13379200  0.86620800  0.06889249  1
  Zr  Zr6  1  0.86620800  0.13379200  0.93110751  1
  Zr  Zr7  1  0.86620800  0.13379200  0.56889249  1
  Cu  Cu8  1  0.63393085  0.36606915  0.06993112  1
  Cu  Cu9  1  0.36606915  0.63393085  0.56993112  1
  Cu  Cu10  1  0.36606915  0.63393085  0.93006888  1
  Cu  Cu11  1  0.63393085  0.36606915  0.43006888  1
  F  F12  1  0.64429010  0.89721954  0.51343510  1
  F  F13  1  0.35570990  0.10278046  0.48656490  1
  F  F14  1  0.77764387  0.22235613  0.38586781  1
  F  F15  1  0.22235613  0.77764387  0.61413219  1
  F  F16  1  0.02547719  0.97452281  0.61348487  1
  F  F17  1  0.35570990  0.10278046  0.01343510  1
  F  F18  1  0.89721954  0.64429010  0.01343510  1
  F  F19  1  0.99769639  0.72510101  0.25000000  1
  F  F20  1  0.10278046  0.35570990  0.51343510  1
  F  F21  1  0.29545478  0.70454522  0.38989494  1
  F  F22  1  0.58405198  0.41594802  0.25000000  1
  F  F23  1  0.70454522  0.29545478  0.61010506  1
  F  F24  1  0.70454522  0.29545478  0.88989494  1
  F  F25  1  0.97452281  0.02547719  0.38651513  1
  F  F26  1  0.10278046  0.35570990  0.98656490  1
  F  F27  1  0.22235613  0.77764387  0.88586781  1
  F  F28  1  0.41594802  0.58405198  0.75000000  1
  F  F29  1  0.89721954  0.64429010  0.48656490  1
  F  F30  1  0.72510101  0.99769639  0.75000000  1
  F  F31  1  0.02547719  0.97452281  0.88651513  1
  F  F32  1  0.97452281  0.02547719  0.11348487  1
  F  F33  1  0.29545478  0.70454522  0.11010506  1
  F  F34  1  0.64429010  0.89721954  0.98656490  1
  F  F35  1  0.77764387  0.22235613  0.11413219  1
  F  F36  1  0.50000000  0.50000000  0.50000000  1
  F  F37  1  0.00230361  0.27489899  0.75000000  1
  F  F38  1  0.27489899  0.00230361  0.25000000  1
  F  F39  1  0.50000000  0.50000000  0.00000000  1
