# generated using pymatgen
data_Ba3Zr2S7
_symmetry_space_group_name_H-M   'P 1'
_cell_length_a   7.12167045
_cell_length_b   7.14977286
_cell_length_c   13.39937427
_cell_angle_alpha   105.47364225
_cell_angle_beta   90.00000000
_cell_angle_gamma   90.00000000
_symmetry_Int_Tables_number   1
_chemical_formula_structural   Ba3Zr2S7
_chemical_formula_sum   'Ba6 Zr4 S14'
_cell_volume   657.54353087
_cell_formula_units_Z   2
loop_
 _symmetry_equiv_pos_site_id
 _symmetry_equiv_pos_as_xyz
  1  'x, y, z'
loop_
 _atom_site_type_symbol
 _atom_site_label
 _atom_site_symmetry_multiplicity
 _atom_site_fract_x
 _atom_site_fract_y
 _atom_site_fract_z
 _atom_site_occupancy
  Ba  Ba0  1  0.00000000  0.69359377  0.86142769  1
  Ba  Ba1  1  0.00000000  0.30640623  0.13857231  1
  Ba  Ba2  1  0.50000000  0.16783392  0.86142769  1
  Ba  Ba3  1  0.50000000  0.83216608  0.13857231  1
  Ba  Ba4  1  0.50000000  0.00000000  0.50000000  1
  Ba  Ba5  1  0.00000000  0.50000000  0.50000000  1
  Zr  Zr6  1  0.00000000  0.89944360  0.29913313  1
  Zr  Zr7  1  0.50000000  0.60031047  0.70086687  1
  Zr  Zr8  1  0.00000000  0.10055640  0.70086687  1
  Zr  Zr9  1  0.50000000  0.39968953  0.29913313  1
  S  S10  1  0.75000000  0.34858412  0.69716825  1
  S  S11  1  0.25000000  0.34858412  0.69716825  1
  S  S12  1  0.00000000  0.00000000  0.50000000  1
  S  S13  1  0.75000000  0.84424051  0.68848102  1
  S  S14  1  0.00000000  0.81803866  0.10349119  1
  S  S15  1  0.25000000  0.65141588  0.30283175  1
  S  S16  1  0.25000000  0.15575949  0.31151898  1
  S  S17  1  0.50000000  0.28545253  0.10349119  1
  S  S18  1  0.50000000  0.50000000  0.50000000  1
  S  S19  1  0.75000000  0.65141588  0.30283175  1
  S  S20  1  0.00000000  0.18196134  0.89650881  1
  S  S21  1  0.25000000  0.84424051  0.68848102  1
  S  S22  1  0.75000000  0.15575949  0.31151898  1
  S  S23  1  0.50000000  0.71454747  0.89650881  1
