# generated using pymatgen
data_AgPS3
_symmetry_space_group_name_H-M   'P 1'
_cell_length_a   7.31550329
_cell_length_b   7.31550330
_cell_length_c   6.59845963
_cell_angle_alpha   98.99811238
_cell_angle_beta   113.20523562
_cell_angle_gamma   120.23338523
_symmetry_Int_Tables_number   1
_chemical_formula_structural   AgPS3
_chemical_formula_sum   'Ag2 P2 S6'
_cell_volume   250.86575783
_cell_formula_units_Z   2
loop_
 _symmetry_equiv_pos_site_id
 _symmetry_equiv_pos_as_xyz
  1  'x, y, z'
loop_
 _atom_site_type_symbol
 _atom_site_label
 _atom_site_symmetry_multiplicity
 _atom_site_fract_x
 _atom_site_fract_y
 _atom_site_fract_z
 _atom_site_occupancy
  P  P0  1  0.06286940  0.35546173  0.41833113  1
  P  P1  1  0.93713060  0.64453827  0.58166887  1
  S  S2  1  0.68060112  0.67111221  0.35171334  1
  S  S3  1  0.31939888  0.32888779  0.64828666  1
  S  S4  1  0.78584118  0.28584118  0.50000000  1
  S  S5  1  0.21415882  0.71415882  0.50000000  1
  S  S6  1  0.11292927  0.83192704  0.94485632  1
  S  S7  1  0.88707073  0.16807296  0.05514368  1
  Ag  Ag8  1  0.74619263  0.74619263  0.00000000  1
  Ag  Ag9  1  0.25380737  0.25380737  0.00000000  1
