# generated using pymatgen
data_BaTeO3
_symmetry_space_group_name_H-M   'P 1'
_cell_length_a   6.23690478
_cell_length_b   12.51636027
_cell_length_c   15.19278196
_cell_angle_alpha   90.00000000
_cell_angle_beta   90.00000000
_cell_angle_gamma   90.00000000
_symmetry_Int_Tables_number   1
_chemical_formula_structural   BaTeO3
_chemical_formula_sum   'Ba12 Te12 O36'
_cell_volume   1185.99941302
_cell_formula_units_Z   12
loop_
 _symmetry_equiv_pos_site_id
 _symmetry_equiv_pos_as_xyz
  1  'x, y, z'
loop_
 _atom_site_type_symbol
 _atom_site_label
 _atom_site_symmetry_multiplicity
 _atom_site_fract_x
 _atom_site_fract_y
 _atom_site_fract_z
 _atom_site_occupancy
  Ba  Ba0  1  0.25000000  0.85794741  0.19374831  1
  Ba  Ba1  1  0.25000000  0.87243057  0.48435675  1
  Ba  Ba2  1  0.75000000  0.14205259  0.80625169  1
  Ba  Ba3  1  0.75000000  0.12756943  0.51564325  1
  Ba  Ba4  1  0.75000000  0.35794741  0.30625169  1
  Ba  Ba5  1  0.75000000  0.37243057  0.01564325  1
  Ba  Ba6  1  0.25000000  0.13638331  0.00495705  1
  Ba  Ba7  1  0.75000000  0.63638331  0.49504295  1
  Ba  Ba8  1  0.25000000  0.36361669  0.50495705  1
  Ba  Ba9  1  0.25000000  0.64205259  0.69374831  1
  Ba  Ba10  1  0.25000000  0.62756943  0.98435675  1
  Ba  Ba11  1  0.75000000  0.86361669  0.99504295  1
  Te  Te12  1  0.25000000  0.38526912  0.16158746  1
  Te  Te13  1  0.25000000  0.34759959  0.81548518  1
  Te  Te14  1  0.75000000  0.40278720  0.63786086  1
  Te  Te15  1  0.75000000  0.61473088  0.83841254  1
  Te  Te16  1  0.25000000  0.59721280  0.36213914  1
  Te  Te17  1  0.25000000  0.90278720  0.86213914  1
  Te  Te18  1  0.25000000  0.11473088  0.66158746  1
  Te  Te19  1  0.75000000  0.88526912  0.33841254  1
  Te  Te20  1  0.75000000  0.09721280  0.13786086  1
  Te  Te21  1  0.75000000  0.65240041  0.18451482  1
  Te  Te22  1  0.25000000  0.15240041  0.31548518  1
  Te  Te23  1  0.75000000  0.84759959  0.68451482  1
  O  O24  1  0.25000000  0.84546386  0.97697767  1
  O  O25  1  0.52312253  0.71227702  0.11640348  1
  O  O26  1  0.02018822  0.50021296  0.38288868  1
  O  O27  1  0.02312253  0.21227702  0.38359652  1
  O  O28  1  0.25000000  0.42630435  0.04336273  1
  O  O29  1  0.25000000  0.07369565  0.54336273  1
  O  O30  1  0.75000000  0.34546386  0.52302233  1
  O  O31  1  0.47981178  0.50021296  0.38288868  1
  O  O32  1  0.75000000  0.15453614  0.02302233  1
  O  O33  1  0.97687747  0.71227702  0.11640348  1
  O  O34  1  0.25000000  0.49496708  0.84209486  1
  O  O35  1  0.75000000  0.99496708  0.65790514  1
  O  O36  1  0.48222222  0.28759827  0.15691192  1
  O  O37  1  0.52018822  0.00021296  0.11711132  1
  O  O38  1  0.98222222  0.78759827  0.34308808  1
  O  O39  1  0.52312253  0.78772298  0.61640348  1
  O  O40  1  0.97981178  0.49978704  0.61711132  1
  O  O41  1  0.75000000  0.57369565  0.95663727  1
  O  O42  1  0.47687747  0.28772298  0.88359652  1
  O  O43  1  0.25000000  0.65453614  0.47697767  1
  O  O44  1  0.98222222  0.71240173  0.84308808  1
  O  O45  1  0.02018822  0.99978704  0.88288868  1
  O  O46  1  0.52018822  0.49978704  0.61711132  1
  O  O47  1  0.48222222  0.21240173  0.65691192  1
  O  O48  1  0.47687747  0.21227702  0.38359652  1
  O  O49  1  0.02312253  0.28772298  0.88359652  1
  O  O50  1  0.75000000  0.92630435  0.45663727  1
  O  O51  1  0.01777778  0.21240173  0.65691192  1
  O  O52  1  0.75000000  0.50503292  0.15790514  1
  O  O53  1  0.25000000  0.00503292  0.34209486  1
  O  O54  1  0.51777778  0.71240173  0.84308808  1
  O  O55  1  0.01777778  0.28759827  0.15691192  1
  O  O56  1  0.47981178  0.99978704  0.88288868  1
  O  O57  1  0.51777778  0.78759827  0.34308808  1
  O  O58  1  0.97687747  0.78772298  0.61640348  1
  O  O59  1  0.97981178  0.00021296  0.11711132  1
