# generated using pymatgen
data_Zn3CoS4
_symmetry_space_group_name_H-M   'P 1'
_cell_length_a   3.82279110
_cell_length_b   10.79148681
_cell_length_c   3.82279110
_cell_angle_alpha   90.00000000
_cell_angle_beta   90.00000000
_cell_angle_gamma   90.00000000
_symmetry_Int_Tables_number   1
_chemical_formula_structural   Zn3CoS4
_chemical_formula_sum   'Zn3 Co1 S4'
_cell_volume   157.70389392
_cell_formula_units_Z   1
loop_
 _symmetry_equiv_pos_site_id
 _symmetry_equiv_pos_as_xyz
  1  'x, y, z'
loop_
 _atom_site_type_symbol
 _atom_site_label
 _atom_site_symmetry_multiplicity
 _atom_site_fract_x
 _atom_site_fract_y
 _atom_site_fract_z
 _atom_site_occupancy
  Zn  Zn0  1  0.00000000  0.99706532  0.00000000  1
  Zn  Zn1  1  0.50000000  0.25000000  0.50000000  1
  Zn  Zn2  1  -0.00000000  0.50293468  -0.00000000  1
  Co  Co3  1  0.50000000  0.75000000  0.50000000  1
  S  S4  1  0.50000000  0.37593222  0.00000000  1
  S  S5  1  -0.00000000  0.63116011  0.50000000  1
  S  S6  1  0.50000000  0.86883989  0.00000000  1
  S  S7  1  0.00000000  0.12406778  0.50000000  1
