# generated using pymatgen
data_InAg3(PO4)2
_symmetry_space_group_name_H-M   'P 1'
_cell_length_a   5.23515802
_cell_length_b   5.23515830
_cell_length_c   7.45724301
_cell_angle_alpha   86.46118569
_cell_angle_beta   86.46118548
_cell_angle_gamma   64.79572858
_symmetry_Int_Tables_number   1
_chemical_formula_structural   InAg3(PO4)2
_chemical_formula_sum   'In1 Ag3 P2 O8'
_cell_volume   184.42707537
_cell_formula_units_Z   1
loop_
 _symmetry_equiv_pos_site_id
 _symmetry_equiv_pos_as_xyz
  1  'x, y, z'
loop_
 _atom_site_type_symbol
 _atom_site_label
 _atom_site_symmetry_multiplicity
 _atom_site_fract_x
 _atom_site_fract_y
 _atom_site_fract_z
 _atom_site_occupancy
  In  In0  1  0.00000000  0.00000000  0.00000000  1
  Ag  Ag1  1  0.33166399  0.33166399  0.67930644  1
  Ag  Ag2  1  0.66833601  0.66833601  0.32069356  1
  Ag  Ag3  1  0.00000000  0.00000000  0.50000000  1
  P  P4  1  0.66131381  0.66131381  0.79050286  1
  P  P5  1  0.33868619  0.33868619  0.20949714  1
  O  O6  1  0.24405901  0.24405901  0.39291206  1
  O  O7  1  0.76263897  0.76263897  0.94957924  1
  O  O8  1  0.22071659  0.67026397  0.20338094  1
  O  O9  1  0.32973603  0.77928341  0.79661906  1
  O  O10  1  0.23736103  0.23736103  0.05042076  1
  O  O11  1  0.67026397  0.22071659  0.20338094  1
  O  O12  1  0.77928341  0.32973603  0.79661906  1
  O  O13  1  0.75594099  0.75594099  0.60708794  1
