# generated using pymatgen
data_SiO2
_symmetry_space_group_name_H-M   'P 1'
_cell_length_a   13.61445205
_cell_length_b   15.94091036
_cell_length_c   15.94091062
_cell_angle_alpha   79.49312663
_cell_angle_beta   64.72085787
_cell_angle_gamma   64.72086046
_symmetry_Int_Tables_number   1
_chemical_formula_structural   SiO2
_chemical_formula_sum   'Si48 O96'
_cell_volume   2828.73323203
_cell_formula_units_Z   48
loop_
 _symmetry_equiv_pos_site_id
 _symmetry_equiv_pos_as_xyz
  1  'x, y, z'
loop_
 _atom_site_type_symbol
 _atom_site_label
 _atom_site_symmetry_multiplicity
 _atom_site_fract_x
 _atom_site_fract_y
 _atom_site_fract_z
 _atom_site_occupancy
  Si  Si0  1  0.08961090  0.23038525  0.61840651  1
  Si  Si1  1  0.29198260  0.61840651  0.76961475  1
  Si  Si2  1  0.87278275  0.85211111  0.69940060  1
  Si  Si3  1  0.30931017  0.76549557  0.61459238  1
  Si  Si4  1  0.28414974  0.69582128  0.45549286  1
  Si  Si5  1  0.03617017  0.53482593  0.09333064  1
  Si  Si6  1  0.06200840  0.08558746  0.52766791  1
  Si  Si7  1  0.28487651  0.85180069  0.30281448  1
  Si  Si8  1  0.66432675  0.46517407  0.90666936  1
  Si  Si9  1  0.41230901  0.30281448  0.14819931  1
  Si  Si10  1  0.26035740  0.45549286  0.30417872  1
  Si  Si11  1  0.86332281  0.69718552  0.85180069  1
  Si  Si12  1  0.85240414  0.47233209  0.08558746  1
  Si  Si13  1  0.02681868  0.69752731  0.54506868  1
  Si  Si14  1  0.69962374  0.00789304  0.62193757  1
  Si  Si15  1  0.43949168  0.14819931  0.69718552  1
  Si  Si16  1  0.92519425  0.38540762  0.76549557  1
  Si  Si17  1  0.01693222  0.31144462  0.93242694  1
  Si  Si18  1  0.07609745  0.61459238  0.23450443  1
  Si  Si19  1  0.68000386  0.38159349  0.23038525  1
  Si  Si20  1  0.26941466  0.30247269  0.45493132  1
  Si  Si21  1  0.08139687  1.00016498  0.84606484  1
  Si  Si22  1  0.93840265  0.76961475  0.38159349  1
  Si  Si23  1  0.42781664  0.69940060  0.14788889  1
  Si  Si24  1  0.27072428  0.06450539  0.69338487  1
  Si  Si25  1  0.02861454  0.93549461  0.30661513  1
  Si  Si26  1  0.41032369  0.52766791  0.91441254  1
  Si  Si27  1  0.05064085  0.93242694  0.68855538  1
  Si  Si28  1  0.87049918  0.09333064  0.46517407  1
  Si  Si29  1  0.32945435  0.99210696  0.37806243  1
  Si  Si30  1  0.27565401  0.45493132  0.69752731  1
  Si  Si31  1  0.42429447  0.14788889  0.30059940  1
  Si  Si32  1  0.07253829  0.84606484  -0.00016498  1
  Si  Si33  1  0.67843869  0.62193757  0.99210696  1
  Si  Si34  1  0.42811264  0.54506868  0.30247269  1
  Si  Si35  1  0.66477033  0.30661513  0.06450539  1
  Si  Si36  1  0.92762669  -0.00016498  0.15393516  1
  Si  Si37  1  0.43546387  0.30417872  0.54450714  1
  Si  Si38  1  0.68939812  0.23450443  0.38540762  1
  Si  Si39  1  0.67162317  0.06757306  0.31144462  1
  Si  Si40  1  0.03589085  0.69338487  0.93549461  1
  Si  Si41  1  0.26080377  0.68855538  0.06757306  1
  Si  Si42  1  0.42900390  0.90666936  0.53482593  1
  Si  Si43  1  0.29248322  0.37806243  0.00789304  1
  Si  Si44  1  0.27510614  0.30059940  0.85211111  1
  Si  Si45  1  0.02002898  0.54450714  0.69582128  1
  Si  Si46  1  0.91843815  0.15393516  1.00016498  1
  Si  Si47  1  0.67526377  0.91441254  0.47233209  1
  O  O48  1  0.32704208  0.70724726  0.53175059  1
  O  O49  1  0.38316029  0.21626184  0.78432463  1
  O  O50  1  0.17105673  0.65302914  0.15571422  1
  O  O51  1  0.17591413  0.84428578  0.65302914  1
  O  O52  1  0.37810474  0.06700240  0.31027262  1
  O  O53  1  0.34091815  0.91923197  0.31224720  1
  O  O54  1  0.38374676  0.78373816  0.21567537  1
  O  O55  1  0.54974679  0.28572011  0.08608406  1
  O  O56  1  0.65431227  0.56185167  0.93621996  1
  O  O57  1  0.19041298  0.77562563  0.01667965  1
  O  O58  1  0.24762541  0.39781179  0.79476898  1
  O  O59  1  0.93842996  0.00747641  0.39263905  1
  O  O60  1  0.00762201  0.98091774  0.21269979  1
  O  O61  1  0.96347948  0.11780493  0.48386960  1
  O  O62  1  0.77917106  0.42469887  0.17458702  1
  O  O63  1  0.77967820  0.21269979  0.01908226  1
  O  O64  1  0.36416915  0.08608406  0.71427989  1
  O  O65  1  0.79477626  0.18644542  0.42303405  1
  O  O66  1  0.96571066  0.46824941  0.70724726  1
  O  O67  1  0.66893099  0.39263905  0.99252359  1
  O  O68  1  0.97732684  0.08962923  0.90941456  1
  O  O69  1  0.79613007  0.82541298  0.42469887  1
  O  O70  1  0.19245888  0.04511705  0.44594262  1
  O  O71  1  0.33178119  0.69570088  0.69840145  1
  O  O72  1  0.95102656  0.39619983  0.00510310  1
  O  O73  1  0.15853650  0.27652411  0.89753895  1
  O  O74  1  0.14120733  0.53175059  0.29275274  1
  O  O75  1  0.35079485  0.39798544  0.20763037  1
  O  O76  1  0.68351855  0.95488295  0.55405738  1
  O  O77  1  0.40946777  0.93621996  0.43814833  1
  O  O78  1  0.97251793  0.30159855  0.69570088  1
  O  O79  1  0.11325860  0.90941456  0.91037077  1
  O  O80  1  0.01877832  0.57696595  0.18644542  1
  O  O81  1  0.56603993  0.29275274  0.46824941  1
  O  O82  1  0.40057787  0.21567537  0.21626184  1
  O  O83  1  0.04624191  0.17458702  0.57530113  1
  O  O84  1  0.17842819  0.15985490  0.66723205  1
  O  O85  1  0.83251507  0.78432463  0.78373816  1
  O  O86  1  0.94392455  0.89753895  0.72347589  1
  O  O87  1  0.34683464  0.31224720  0.08076803  1
  O  O88  1  0.20123954  0.01908226  0.78730021  1
  O  O89  1  0.05409363  0.60736095  0.00747641  1
  O  O90  1  0.04387034  0.00510310  0.60380017  1
  O  O91  1  0.38918255  0.38816995  0.61415210  1
  O  O92  1  0.33259956  0.72347589  0.10246105  1
  O  O93  1  0.03396139  0.98332035  0.77562563  1
  O  O94  1  0.56493940  0.10246105  0.27652411  1
  O  O95  1  0.97980008  0.34697086  0.84428578  1
  O  O96  1  0.22264749  0.38584790  0.38816995  1
  O  O97  1  0.56515401  0.88219507  0.51613040  1
  O  O98  1  0.67322906  0.15571422  0.34697086  1
  O  O99  1  0.44157478  0.20763037  0.60201456  1
  O  O100  1  0.95641066  0.60201456  0.79236963  1
  O  O101  1  0.30596503  0.53863361  0.70982133  1
  O  O102  1  0.34444620  0.32933378  0.49434618  1
  O  O103  1  0.15540136  0.29017867  0.53863361  1
  O  O104  1  0.15238391  0.43814833  0.06378004  1
  O  O105  1  0.99666535  0.61415210  0.61183005  1
  O  O106  1  0.35232949  0.60380017  0.99489690  1
  O  O107  1  0.25121970  0.79236963  0.39798544  1
  O  O108  1  0.75537977  0.93299760  0.68972738  1
  O  O109  1  0.91871559  0.51613040  0.11780493  1
  O  O110  1  0.01146025  0.78730021  0.98091774  1
  O  O111  1  0.15433976  0.66723205  0.84014510  1
  O  O112  1  0.93304393  0.09058544  0.08962923  1
  O  O113  1  0.44020618  0.60218821  0.20523102  1
  O  O114  1  0.73984988  0.68775280  0.91923197  1
  O  O115  1  0.92155096  0.71427989  0.91391594  1
  O  O116  1  0.32622003  0.50565382  0.32933378  1
  O  O117  1  0.36159850  0.44594262  0.95488295  1
  O  O118  1  0.96981736  0.69840145  0.30429912  1
  O  O119  1  0.76242407  0.55405738  0.04511705  1
  O  O120  1  0.37845695  0.57530113  0.82541298  1
  O  O121  1  0.79290737  0.01667965  0.22437437  1
  O  O122  1  0.98271825  0.22437437  0.98332035  1
  O  O123  1  0.16120762  0.49434618  0.67066622  1
  O  O124  1  0.39150461  0.61183005  0.38584790  1
  O  O125  1  0.72588352  0.30429912  0.30159855  1
  O  O126  1  0.66171691  0.33276795  0.15985490  1
  O  O127  1  0.16812615  0.67066622  0.50565382  1
  O  O128  1  0.57239733  0.08076803  0.68775280  1
  O  O129  1  0.98421364  0.70982133  0.46136639  1
  O  O130  1  0.35456280  0.20523102  0.39781179  1
  O  O131  1  0.97637063  0.91037077  0.09058544  1
  O  O132  1  0.78383605  0.06378004  0.56185167  1
  O  O133  1  0.33854542  0.99252359  0.60736095  1
  O  O134  1  0.00551514  0.84014510  0.33276795  1
  O  O135  1  0.78218970  0.42303405  0.81355458  1
  O  O136  1  0.65277361  0.99489690  0.39619983  1
  O  O137  1  0.55265091  0.48386960  0.88219507  1
  O  O138  1  0.40425573  0.81355458  0.57696595  1
  O  O139  1  0.95760561  0.79476898  0.60218821  1
  O  O140  1  0.55441997  0.46136639  0.29017867  1
  O  O141  1  0.55489285  0.68972738  0.06700240  1
  O  O142  1  0.31162264  0.31027262  0.93299760  1
  O  O143  1  0.16453310  0.91391594  0.28572011  1
