# generated using pymatgen
data_Cu2SiPbS4
_symmetry_space_group_name_H-M   'P 1'
_cell_length_a   6.08738339
_cell_length_b   6.08743168
_cell_length_c   15.21657680
_cell_angle_alpha   90.00086873
_cell_angle_beta   90.00024053
_cell_angle_gamma   119.99766075
_symmetry_Int_Tables_number   1
_chemical_formula_structural   Cu2SiPbS4
_chemical_formula_sum   'Cu6 Si3 Pb3 S12'
_cell_volume   488.34032211
_cell_formula_units_Z   3
loop_
 _symmetry_equiv_pos_site_id
 _symmetry_equiv_pos_as_xyz
  1  'x, y, z'
loop_
 _atom_site_type_symbol
 _atom_site_label
 _atom_site_symmetry_multiplicity
 _atom_site_fract_x
 _atom_site_fract_y
 _atom_site_fract_z
 _atom_site_occupancy
  Cu  Cu0  1  0.42719009  0.33596234  0.74295326  1
  Cu  Cu1  1  0.33611913  0.42720425  0.25697864  1
  Cu  Cu2  1  0.57286374  0.90889110  0.92372831  1
  Cu  Cu3  1  0.90901819  0.57299245  0.07628469  1
  Cu  Cu4  1  0.66396702  0.09123838  0.40967846  1
  Si  Si5  1  0.72224223  -0.00002753  0.66667151  1
  Si  Si6  1  -0.00001979  0.72227723  0.33332633  1
  Cu  Cu7  1  0.09106398  0.66387353  0.59032400  1
  Si  Si8  1  0.27774351  0.27772953  -0.00000029  1
  Pb  Pb9  1  0.52938330  0.00011829  0.16667124  1
  Pb  Pb10  1  0.99991998  0.52924745  0.83334178  1
  Pb  Pb11  1  0.47056720  0.47068310  0.50002511  1
  S  S12  1  0.49496473  0.97341397  0.55502256  1
  S  S13  1  0.32712219  0.09663955  0.33557983  1
  S  S14  1  0.02649439  0.52148834  0.22168185  1
  S  S15  1  0.52151297  0.02649519  0.77832380  1
  S  S16  1  0.09661421  0.32710164  0.66441772  1
  S  S17  1  0.76949202  0.67283434  0.66892880  1
  S  S18  1  0.67283616  0.76951584  0.33109645  1
  S  S19  1  0.90337098  0.23048953  0.00227345  1
  S  S20  1  0.47843435  0.50499872  0.88835056  1
  S  S21  1  0.23052694  0.90337019  0.99772163  1
  S  S22  1  0.97348730  0.49501843  0.44498190  1
  S  S23  1  0.50508521  0.47844415  0.11163841  1
