# generated using pymatgen
data_NaY(PO3)4
_symmetry_space_group_name_H-M   'P 1'
_cell_length_a   7.26931370
_cell_length_b   9.82634663
_cell_length_c   13.20484278
_cell_angle_alpha   90.00000000
_cell_angle_beta   90.00000000
_cell_angle_gamma   90.45133133
_symmetry_Int_Tables_number   1
_chemical_formula_structural   NaY(PO3)4
_chemical_formula_sum   'Na4 Y4 P16 O48'
_cell_volume   943.20316915
_cell_formula_units_Z   4
loop_
 _symmetry_equiv_pos_site_id
 _symmetry_equiv_pos_as_xyz
  1  'x, y, z'
loop_
 _atom_site_type_symbol
 _atom_site_label
 _atom_site_symmetry_multiplicity
 _atom_site_fract_x
 _atom_site_fract_y
 _atom_site_fract_z
 _atom_site_occupancy
  Na  Na0  1  0.00075443  0.93837088  0.77800373  1
  Na  Na1  1  0.49924557  0.56162912  0.27800373  1
  Na  Na2  1  0.50075443  0.43837088  0.72199627  1
  Na  Na3  1  0.99924557  0.06162912  0.22199627  1
  Y  Y4  1  0.98765176  0.52274469  0.72031971  1
  Y  Y5  1  0.51234824  0.97725531  0.22031971  1
  Y  Y6  1  0.01234824  0.47725531  0.27968029  1
  Y  Y7  1  0.48765176  0.02274469  0.77968029  1
  P  P8  1  0.74949441  0.75541925  0.89705393  1
  P  P9  1  0.73300841  0.29662556  0.90775934  1
  P  P10  1  0.26699159  0.70337444  0.09224066  1
  P  P11  1  0.76699159  0.20337444  0.40775934  1
  P  P12  1  0.85294313  0.19751496  0.62763220  1
  P  P13  1  0.37482859  0.26323277  0.38525779  1
  P  P14  1  0.75050559  0.74458075  0.39705393  1
  P  P15  1  0.23300841  0.79662556  0.59224066  1
  P  P16  1  0.62517141  0.73676723  0.61474221  1
  P  P17  1  0.24949441  0.25541925  0.60294607  1
  P  P18  1  0.14705687  0.80248504  0.37236780  1
  P  P19  1  0.64705687  0.30248504  0.12763220  1
  P  P20  1  0.12517141  0.23676723  0.88525779  1
  P  P21  1  0.25050559  0.24458075  0.10294607  1
  P  P22  1  0.35294313  0.69751496  0.87236780  1
  P  P23  1  0.87482859  0.76323277  0.11474221  1
  O  O24  1  0.70437892  0.60353788  0.64836368  1
  O  O25  1  0.63164883  0.85363607  0.68720850  1
  O  O26  1  0.71306070  0.90559707  0.88843222  1
  O  O27  1  0.57466797  0.20164127  0.88677077  1
  O  O28  1  0.36835117  0.14636393  0.31279150  1
  O  O29  1  0.09491321  0.29873859  0.16669503  1
  O  O30  1  0.28357069  0.63895180  0.97986185  1
  O  O31  1  0.23754300  0.58542695  0.16279601  1
  O  O32  1  0.72366261  0.39390281  0.20863556  1
  O  O33  1  0.82588732  0.34840702  0.63393528  1
  O  O34  1  0.58433253  0.29519731  0.41877721  1
  O  O35  1  0.57002861  0.66385339  0.87451226  1
  O  O36  1  0.78277041  0.70952860  0.01227303  1
  O  O37  1  0.17411268  0.65159298  0.36606472  1
  O  O38  1  0.29562108  0.39646212  0.35163632  1
  O  O39  1  0.79562108  0.89646212  0.14836368  1
  O  O40  1  0.78357069  0.13895180  0.52013815  1
  O  O41  1  0.13164883  0.35363607  0.81279150  1
  O  O42  1  0.21306070  0.40559707  0.61156778  1
  O  O43  1  0.32588732  0.84840702  0.86606472  1
  O  O44  1  0.41566747  0.70480269  0.58122279  1
  O  O45  1  0.21642931  0.86104820  0.47986185  1
  O  O46  1  0.26245700  0.91457305  0.66279601  1
  O  O47  1  0.73754300  0.08542695  0.33720399  1
  O  O48  1  0.76245700  0.41457305  0.83720399  1
  O  O49  1  0.07466797  0.70164127  0.61322923  1
  O  O50  1  0.20437892  0.10353788  0.85163632  1
  O  O51  1  0.86835117  0.64636393  0.18720850  1
  O  O52  1  0.42533203  0.79835873  0.11322923  1
  O  O53  1  0.77633739  0.10609719  0.70863556  1
  O  O54  1  0.78693930  0.59440293  0.38843222  1
  O  O55  1  0.28693930  0.09440293  0.11156778  1
  O  O56  1  0.92997139  0.83614661  0.37451226  1
  O  O57  1  0.21722959  0.29047140  0.98772697  1
  O  O58  1  0.67411268  0.15159298  0.13393528  1
  O  O59  1  0.92533203  0.29835873  0.38677077  1
  O  O60  1  0.40508679  0.20126141  0.66669503  1
  O  O61  1  0.07002861  0.16385339  0.62548774  1
  O  O62  1  0.27633739  0.60609719  0.79136444  1
  O  O63  1  0.42997139  0.33614661  0.12548774  1
  O  O64  1  0.91566747  0.20480269  0.91877721  1
  O  O65  1  0.22366261  0.89390281  0.29136444  1
  O  O66  1  0.28277041  0.20952860  0.48772697  1
  O  O67  1  0.59491321  0.79873859  0.33330497  1
  O  O68  1  0.71722959  0.79047140  0.51227303  1
  O  O69  1  0.71642931  0.36104820  0.02013815  1
  O  O70  1  0.08433253  0.79519731  0.08122279  1
  O  O71  1  0.90508679  0.70126141  0.83330497  1
