# generated using pymatgen
data_Si(Sn3O4)2
_symmetry_space_group_name_H-M   'P 1'
_cell_length_a   7.42410989
_cell_length_b   7.42411030
_cell_length_c   12.06039367
_cell_angle_alpha   90.00000000
_cell_angle_beta   90.00000000
_cell_angle_gamma   119.99999820
_symmetry_Int_Tables_number   1
_chemical_formula_structural   Si(Sn3O4)2
_chemical_formula_sum   'Si2 Sn12 O16'
_cell_volume   575.67972078
_cell_formula_units_Z   2
loop_
 _symmetry_equiv_pos_site_id
 _symmetry_equiv_pos_as_xyz
  1  'x, y, z'
loop_
 _atom_site_type_symbol
 _atom_site_label
 _atom_site_symmetry_multiplicity
 _atom_site_fract_x
 _atom_site_fract_y
 _atom_site_fract_z
 _atom_site_occupancy
  Si  Si0  1  0.66666700  0.33333300  0.09483526  1
  Si  Si1  1  0.33333300  0.66666700  0.59483526  1
  Sn  Sn2  1  0.17240689  0.34481379  0.09313829  1
  Sn  Sn3  1  0.98807234  0.49403617  0.35147771  1
  Sn  Sn4  1  0.49403617  0.98807234  0.85147771  1
  Sn  Sn5  1  0.34481379  0.17240689  0.59313829  1
  Sn  Sn6  1  0.65518621  0.82759311  0.09313829  1
  Sn  Sn7  1  0.01192766  0.50596383  0.85147771  1
  Sn  Sn8  1  0.82759311  0.65518621  0.59313829  1
  Sn  Sn9  1  0.49403617  0.50596383  0.85147771  1
  Sn  Sn10  1  0.50596383  0.49403617  0.35147771  1
  Sn  Sn11  1  0.50596383  0.01192766  0.35147771  1
  Sn  Sn12  1  0.82759311  0.17240689  0.59313829  1
  Sn  Sn13  1  0.17240689  0.82759311  0.09313829  1
  O  O14  1  0.80709970  0.61419939  0.41933611  1
  O  O15  1  0.54459016  0.45540984  0.04813602  1
  O  O16  1  0.33333300  0.66666700  0.11889744  1
  O  O17  1  0.54459016  0.08918033  0.04813602  1
  O  O18  1  0.61419939  0.80709970  0.91933611  1
  O  O19  1  0.45540984  0.91081967  0.54813602  1
  O  O20  1  0.66666700  0.33333300  0.61889744  1
  O  O21  1  0.80709970  0.19290030  0.41933611  1
  O  O22  1  0.19290030  0.38580061  0.91933611  1
  O  O23  1  0.33333300  0.66666700  0.73271291  1
  O  O24  1  0.66666700  0.33333300  0.23271291  1
  O  O25  1  0.08918033  0.54459016  0.54813602  1
  O  O26  1  0.38580061  0.19290030  0.41933611  1
  O  O27  1  0.45540984  0.54459016  0.54813602  1
  O  O28  1  0.91081967  0.45540984  0.04813602  1
  O  O29  1  0.19290030  0.80709970  0.91933611  1
