# generated using pymatgen
data_SiO2
_symmetry_space_group_name_H-M   'P 1'
_cell_length_a   10.39271992
_cell_length_b   10.39271983
_cell_length_c   18.88696414
_cell_angle_alpha   105.96972912
_cell_angle_beta   105.96972898
_cell_angle_gamma   90.00000115
_symmetry_Int_Tables_number   1
_chemical_formula_structural   SiO2
_chemical_formula_sum   'Si32 O64'
_cell_volume   1879.20451665
_cell_formula_units_Z   32
loop_
 _symmetry_equiv_pos_site_id
 _symmetry_equiv_pos_as_xyz
  1  'x, y, z'
loop_
 _atom_site_type_symbol
 _atom_site_label
 _atom_site_symmetry_multiplicity
 _atom_site_fract_x
 _atom_site_fract_y
 _atom_site_fract_z
 _atom_site_occupancy
  Si  Si0  1  0.21554223  0.81231612  0.93108446  1
  Si  Si1  1  0.21554223  0.11876834  0.93108446  1
  Si  Si2  1  0.50000000  0.28164752  0.00000000  1
  Si  Si3  1  0.00000000  0.28164752  0.00000000  1
  Si  Si4  1  0.61876834  0.71554223  0.43108446  1
  Si  Si5  1  0.13173224  0.16739120  0.76346448  1
  Si  Si6  1  0.33260880  0.36826776  0.73653552  1
  Si  Si7  1  0.94536910  0.34662956  0.39073821  1
  Si  Si8  1  0.86826776  0.40392673  0.23653552  1
  Si  Si9  1  0.09607327  0.63173224  0.26346448  1
  Si  Si10  1  0.21835248  1.00000000  0.50000000  1
  Si  Si11  1  0.94536910  0.04410864  0.39073821  1
  Si  Si12  1  0.45589136  0.55463090  0.10926179  1
  Si  Si13  1  0.66739120  0.63173224  0.26346448  1
  Si  Si14  1  0.78445777  0.18768388  0.06891554  1
  Si  Si15  1  0.38123166  0.28445777  0.56891554  1
  Si  Si16  1  0.50000000  0.71835248  1.00000000  1
  Si  Si17  1  0.05463090  0.95589136  0.60926179  1
  Si  Si18  1  0.31231612  0.71554223  0.43108446  1
  Si  Si19  1  0.84662956  0.44536910  0.89073821  1
  Si  Si20  1  0.68768388  0.28445777  0.56891554  1
  Si  Si21  1  0.86826776  0.83260880  0.23653552  1
  Si  Si22  1  0.15337044  0.55463090  0.10926179  1
  Si  Si23  1  0.78445777  0.88123166  0.06891554  1
  Si  Si24  1  0.13173224  0.59607327  0.76346448  1
  Si  Si25  1  0.90392673  0.36826776  0.73653552  1
  Si  Si26  1  0.05463090  0.65337044  0.60926179  1
  Si  Si27  1  0.78164752  0.50000000  0.50000000  1
  Si  Si28  1  0.21835248  0.50000000  0.50000000  1
  Si  Si29  1  1.00000000  0.71835248  1.00000000  1
  Si  Si30  1  0.78164752  0.00000000  0.50000000  1
  Si  Si31  1  0.54410864  0.44536910  0.89073821  1
  O  O32  1  0.90890870  0.56782365  0.57440020  1
  O  O33  1  0.36758974  0.79905188  0.98025907  1
  O  O34  1  0.06782365  0.40890870  0.07440020  1
  O  O35  1  0.99691944  0.24691944  0.75000000  1
  O  O36  1  0.09109130  0.43217635  0.42559980  1
  O  O37  1  0.63241026  0.20094812  0.01974093  1
  O  O38  1  0.06782365  0.66549149  0.07440020  1
  O  O39  1  0.29326361  0.54326361  0.08652721  1
  O  O40  1  0.74691944  0.75308056  0.25000000  1
  O  O41  1  0.17482744  0.15349181  0.84965487  1
  O  O42  1  0.20759904  0.95759904  0.91519807  1
  O  O43  1  0.17482744  0.69616306  0.84965487  1
  O  O44  1  0.80383694  0.32517256  0.65034513  1
  O  O45  1  0.48186129  0.39891052  0.79782104  1
  O  O46  1  0.89891052  0.31595975  0.29782104  1
  O  O47  1  0.00308056  0.75308056  0.25000000  1
  O  O48  1  0.16549149  0.56782365  0.57440020  1
  O  O49  1  0.79240096  0.04240096  0.08480193  1
  O  O50  1  0.82517256  0.30383694  0.15034513  1
  O  O51  1  0.49342346  0.33450851  0.92559980  1
  O  O52  1  0.83450851  0.43217635  0.42559980  1
  O  O53  1  0.34650819  0.32517256  0.65034513  1
  O  O54  1  0.25308056  0.24691944  0.75000000  1
  O  O55  1  0.90890870  0.00657654  0.57440020  1
  O  O56  1  0.68120719  0.61266933  0.48025907  1
  O  O57  1  0.09109130  0.99342346  0.42559980  1
  O  O58  1  0.70094812  0.38733067  0.51974093  1
  O  O59  1  0.54240096  0.29240096  0.58480193  1
  O  O60  1  0.25308056  0.50308056  0.75000000  1
  O  O61  1  0.89891052  0.98186129  0.29782104  1
  O  O62  1  0.63241026  0.81879281  0.01974093  1
  O  O63  1  0.65349181  0.67482744  0.34965487  1
  O  O64  1  0.19616306  0.67482744  0.34965487  1
  O  O65  1  0.88733067  0.20094812  0.01974093  1
  O  O66  1  0.10108948  0.01813871  0.70217896  1
  O  O67  1  0.45759904  0.70759904  0.41519807  1
  O  O68  1  0.83450851  0.99342346  0.42559980  1
  O  O69  1  0.70673639  0.45673639  0.91347279  1
  O  O70  1  0.31879281  0.13241026  0.51974093  1
  O  O71  1  0.29905188  0.61266933  0.48025907  1
  O  O72  1  0.81595975  0.39891052  0.79782104  1
  O  O73  1  0.11266933  0.18120719  0.98025907  1
  O  O74  1  0.88733067  0.81879281  0.01974093  1
  O  O75  1  0.31879281  0.38733067  0.51974093  1
  O  O76  1  0.36758974  0.18120719  0.98025907  1
  O  O77  1  0.74691944  0.49691944  0.25000000  1
  O  O78  1  0.93217635  0.33450851  0.92559980  1
  O  O79  1  0.68120719  0.86758974  0.48025907  1
  O  O80  1  0.11266933  0.79905188  0.98025907  1
  O  O81  1  0.29905188  0.86758974  0.48025907  1
  O  O82  1  0.00308056  0.49691944  0.25000000  1
  O  O83  1  0.49342346  0.59109130  0.92559980  1
  O  O84  1  0.51813871  0.60108948  0.20217896  1
  O  O85  1  0.82517256  0.84650819  0.15034513  1
  O  O86  1  0.10108948  0.68404025  0.70217896  1
  O  O87  1  0.95673639  0.20673639  0.41347279  1
  O  O88  1  0.50657654  0.40890870  0.07440020  1
  O  O89  1  0.70094812  0.13241026  0.51974093  1
  O  O90  1  0.99691944  0.50308056  0.75000000  1
  O  O91  1  0.18404025  0.60108948  0.20217896  1
  O  O92  1  0.50657654  0.66549149  0.07440020  1
  O  O93  1  0.93217635  0.59109130  0.92559980  1
  O  O94  1  0.16549149  0.00657654  0.57440020  1
  O  O95  1  0.04326361  0.79326361  0.58652721  1
