# generated using pymatgen
data_Li3Ga(BO3)2
_symmetry_space_group_name_H-M   'P 1'
_cell_length_a   4.97542400
_cell_length_b   6.52837448
_cell_length_c   8.08953915
_cell_angle_alpha   107.10417985
_cell_angle_beta   90.80729643
_cell_angle_gamma   89.67765668
_symmetry_Int_Tables_number   1
_chemical_formula_structural   Li3Ga(BO3)2
_chemical_formula_sum   'Li6 Ga2 B4 O12'
_cell_volume   251.11312163
_cell_formula_units_Z   2
loop_
 _symmetry_equiv_pos_site_id
 _symmetry_equiv_pos_as_xyz
  1  'x, y, z'
loop_
 _atom_site_type_symbol
 _atom_site_label
 _atom_site_symmetry_multiplicity
 _atom_site_fract_x
 _atom_site_fract_y
 _atom_site_fract_z
 _atom_site_occupancy
  Li  Li0  1  0.66277371  0.60270270  0.42374061  1
  Li  Li1  1  0.84083205  0.74794180  0.11363384  1
  Li  Li2  1  0.15916795  0.25205820  0.88636616  1
  Li  Li3  1  0.14811600  0.46942863  0.26924301  1
  Li  Li4  1  0.33722629  0.39729730  0.57625939  1
  Li  Li5  1  0.85188400  0.53057137  0.73075699  1
  Ga  Ga6  1  0.63952772  0.95256863  0.77850210  1
  Ga  Ga7  1  0.36047228  0.04743137  0.22149790  1
  B  B8  1  0.65621801  0.32203989  0.07249835  1
  B  B9  1  0.84285966  0.18168336  0.40318531  1
  B  B10  1  0.34378199  0.67796011  0.92750165  1
  B  B11  1  0.15714034  0.81831664  0.59681469  1
  O  O12  1  0.28795565  0.66009859  0.47995435  1
  O  O13  1  0.87521912  0.80824782  0.60907172  1
  O  O14  1  0.12478088  0.19175218  0.39092828  1
  O  O15  1  0.28909892  0.99128324  0.71457205  1
  O  O16  1  0.21646090  0.51074948  0.81577186  1
  O  O17  1  0.39226168  0.25902984  0.10166886  1
  O  O18  1  0.78353910  0.48925052  0.18422814  1
  O  O19  1  0.77976825  0.20658716  0.91851996  1
  O  O20  1  0.71090108  0.00871676  0.28542795  1
  O  O21  1  0.22023175  0.79341284  0.08148004  1
  O  O22  1  0.60773832  0.74097016  0.89833114  1
  O  O23  1  0.71204435  0.33990141  0.52004565  1
