# generated using pymatgen
data_K2Ca2(CO3)3
_symmetry_space_group_name_H-M   'P 1'
_cell_length_a   8.16572503
_cell_length_b   8.16572420
_cell_length_c   8.16572520
_cell_angle_alpha   108.01993281
_cell_angle_beta   108.01993096
_cell_angle_gamma   108.01993326
_symmetry_Int_Tables_number   1
_chemical_formula_structural   K2Ca2(CO3)3
_chemical_formula_sum   'K4 Ca4 C6 O18'
_cell_volume   440.22542695
_cell_formula_units_Z   2
loop_
 _symmetry_equiv_pos_site_id
 _symmetry_equiv_pos_as_xyz
  1  'x, y, z'
loop_
 _atom_site_type_symbol
 _atom_site_label
 _atom_site_symmetry_multiplicity
 _atom_site_fract_x
 _atom_site_fract_y
 _atom_site_fract_z
 _atom_site_occupancy
  K  K0  1  0.87061689  0.87061689  0.87061689  1
  K  K1  1  0.55509832  0.70047422  0.09727824  1
  K  K2  1  0.09727824  0.55509832  0.70047422  1
  K  K3  1  0.70047422  0.09727824  0.55509832  1
  Ca  Ca4  1  0.50807513  0.17168368  0.02473210  1
  Ca  Ca5  1  0.17168368  0.02473210  0.50807513  1
  Ca  Ca6  1  0.02473210  0.50807513  0.17168368  1
  Ca  Ca7  1  0.44709762  0.44709762  0.44709762  1
  C  C8  1  0.80183683  0.61466060  0.41566835  1
  C  C9  1  0.17957251  0.26709297  0.93446651  1
  C  C10  1  0.93446651  0.17957251  0.26709297  1
  C  C11  1  0.26709297  0.93446651  0.17957251  1
  C  C12  1  0.61466060  0.41566835  0.80183683  1
  C  C13  1  0.41566835  0.80183683  0.61466060  1
  O  O14  1  0.10218520  0.33031759  0.35975066  1
  O  O15  1  0.81242322  0.15440708  0.10409435  1
  O  O16  1  0.89280710  0.05803318  0.33679844  1
  O  O17  1  0.71936159  0.71648412  0.47436781  1
  O  O18  1  0.71676183  0.42845548  0.34986107  1
  O  O19  1  0.97189701  0.69667742  0.42482890  1
  O  O20  1  0.47436781  0.71936159  0.71648412  1
  O  O21  1  0.05803318  0.33679844  0.89280710  1
  O  O22  1  0.42482890  0.97189701  0.69667742  1
  O  O23  1  0.34986107  0.71676183  0.42845548  1
  O  O24  1  0.33031759  0.35975066  0.10218520  1
  O  O25  1  0.71648412  0.47436781  0.71936159  1
  O  O26  1  0.10409435  0.81242322  0.15440708  1
  O  O27  1  0.35975066  0.10218520  0.33031759  1
  O  O28  1  0.33679844  0.89280710  0.05803318  1
  O  O29  1  0.69667742  0.42482890  0.97189701  1
  O  O30  1  0.42845548  0.34986107  0.71676183  1
  O  O31  1  0.15440708  0.10409435  0.81242322  1
