# generated using pymatgen
data_Nb2P4O15
_symmetry_space_group_name_H-M   'P 1'
_cell_length_a   6.80660138
_cell_length_b   8.53586231
_cell_length_c   11.22320478
_cell_angle_alpha   74.29747325
_cell_angle_beta   89.70103754
_cell_angle_gamma   89.89119142
_symmetry_Int_Tables_number   1
_chemical_formula_structural   Nb2P4O15
_chemical_formula_sum   'Nb4 P8 O30'
_cell_volume   627.72655717
_cell_formula_units_Z   2
loop_
 _symmetry_equiv_pos_site_id
 _symmetry_equiv_pos_as_xyz
  1  'x, y, z'
loop_
 _atom_site_type_symbol
 _atom_site_label
 _atom_site_symmetry_multiplicity
 _atom_site_fract_x
 _atom_site_fract_y
 _atom_site_fract_z
 _atom_site_occupancy
  Nb  Nb0  1  0.73802486  0.70381590  0.85527171  1
  Nb  Nb1  1  0.26197514  0.29618410  0.14472829  1
  Nb  Nb2  1  0.23370315  0.29359104  0.64774345  1
  Nb  Nb3  1  0.76629685  0.70640896  0.35225655  1
  P  P4  1  0.11306597  0.91346040  0.62287874  1
  P  P5  1  0.43880650  0.68333243  0.60229164  1
  P  P6  1  0.06229231  0.68468217  0.09850257  1
  P  P7  1  0.56119350  0.31666757  0.39770836  1
  P  P8  1  0.61360197  0.08466696  0.87606483  1
  P  P9  1  0.88693403  0.08653960  0.37712126  1
  P  P10  1  0.93770769  0.31531783  0.90149743  1
  P  P11  1  0.38639803  0.91533304  0.12393517  1
  O  O12  1  0.32249358  0.52599396  0.64211183  1
  O  O13  1  0.55657268  0.66177878  0.96796517  1
  O  O14  1  0.03453618  0.33500980  0.54902657  1
  O  O15  1  0.44342732  0.33822122  0.03203483  1
  O  O16  1  0.50926638  0.79487567  0.21274455  1
  O  O17  1  0.44580440  0.29980059  0.51675087  1
  O  O18  1  0.03268647  0.30110204  0.02644797  1
  O  O19  1  0.56512469  0.71042431  0.70665188  1
  O  O20  1  0.91691522  0.71484452  0.19367375  1
  O  O21  1  0.67750642  0.47400604  0.35788817  1
  O  O22  1  0.98820114  0.79095002  0.70924737  1
  O  O23  1  0.49073362  0.20512433  0.78725545  1
  O  O24  1  0.96731353  0.69889796  0.97355203  1
  O  O25  1  0.17703797  0.52767345  0.14638875  1
  O  O26  1  0.82296203  0.47232655  0.85361125  1
  O  O27  1  0.78857446  0.16493197  0.93235749  1
  O  O28  1  0.21142554  0.83506803  0.06764251  1
  O  O29  1  0.00000000  0.00000000  0.50000000  1
  O  O30  1  0.01179886  0.20904998  0.29075263  1
  O  O31  1  0.96546382  0.66499020  0.45097343  1
  O  O32  1  0.70774015  0.95227829  0.82643084  1
  O  O33  1  0.28940603  0.83399288  0.56523732  1
  O  O34  1  0.55419560  0.70019941  0.48324913  1
  O  O35  1  0.43487531  0.28957569  0.29334812  1
  O  O36  1  0.08308478  0.28515548  0.80632625  1
  O  O37  1  0.29225985  0.04772171  0.17356916  1
  O  O38  1  0.20524724  0.04442919  0.67423862  1
  O  O39  1  0.79475276  0.95557081  0.32576138  1
  O  O40  1  0.71059397  0.16600712  0.43476268  1
  O  O41  1  0.50000000  0.00000000  0.00000000  1
