# generated using pymatgen
data_Sc(PO3)3
_symmetry_space_group_name_H-M   'P 1'
_cell_length_a   9.84419362
_cell_length_b   11.07865984
_cell_length_c   12.06365871
_cell_angle_alpha   113.73545318
_cell_angle_beta   110.13567808
_cell_angle_gamma   97.98249932
_symmetry_Int_Tables_number   1
_chemical_formula_structural   Sc(PO3)3
_chemical_formula_sum   'Sc6 P18 O54'
_cell_volume   1070.23633476
_cell_formula_units_Z   6
loop_
 _symmetry_equiv_pos_site_id
 _symmetry_equiv_pos_as_xyz
  1  'x, y, z'
loop_
 _atom_site_type_symbol
 _atom_site_label
 _atom_site_symmetry_multiplicity
 _atom_site_fract_x
 _atom_site_fract_y
 _atom_site_fract_z
 _atom_site_occupancy
  Sc  Sc0  1  0.58207570  0.59565134  0.17764391  1
  Sc  Sc1  1  0.57002304  0.08309914  0.15640141  1
  Sc  Sc2  1  0.90443180  0.41800743  0.82235609  1
  Sc  Sc3  1  0.25432284  0.23204368  0.48804887  1
  Sc  Sc4  1  0.26627397  0.74399480  0.51195113  1
  Sc  Sc5  1  0.91362163  0.92669774  0.84359859  1
  P  P6  1  0.99283036  0.15447416  0.60092277  1
  P  P7  1  0.21132510  0.89250975  0.06295642  1
  P  P8  1  0.83289531  0.68174161  0.05698418  1
  P  P9  1  0.17329180  0.00586891  0.72774359  1
  P  P10  1  0.54815125  0.21133604  0.72657171  1
  P  P11  1  0.80019663  0.56920279  0.62073524  1
  P  P12  1  0.27591112  0.62475743  0.94301582  1
  P  P13  1  0.62449356  0.94542536  0.60786690  1
  P  P14  1  0.00539340  0.29275419  0.04896357  1
  P  P15  1  0.94554822  0.27812533  0.27225641  1
  P  P16  1  0.67946139  0.94846755  0.37926476  1
  P  P17  1  0.45642984  0.24379063  0.95103643  1
  P  P18  1  0.64836868  0.82955333  0.93704358  1
  P  P19  1  0.37082814  0.58950166  0.71692934  1
  P  P20  1  0.15389880  0.87257232  0.28307066  1
  P  P21  1  0.32157954  0.48476432  0.27342829  1
  P  P22  1  0.89190759  0.55355139  0.39907723  1
  P  P23  1  0.51662665  0.33755846  0.39213310  1
  O  O24  1  0.94575769  0.32642697  0.16295130  1
  O  O25  1  0.99478390  0.14251724  0.98270047  1
  O  O26  1  0.05201939  0.89487279  0.99877041  1
  O  O27  1  0.98245541  0.76763828  0.19766793  1
  O  O28  1  0.84525523  0.06246754  0.45969193  1
  O  O29  1  0.71847021  0.60163669  0.07912053  1
  O  O30  1  0.88556330  0.60277561  0.54030807  1
  O  O31  1  0.10407258  0.23428393  0.57581099  1
  O  O32  1  0.81372121  0.70825583  0.72420963  1
  O  O33  1  0.28478748  0.56997035  0.80233207  1
  O  O34  1  0.23786789  0.82289297  0.37627208  1
  O  O35  1  0.25813846  0.92488757  0.66066290  1
  O  O36  1  0.55389352  0.26069245  0.87263093  1
  O  O37  1  0.38973929  0.36752977  0.29145989  1
  O  O38  1  0.80495280  0.15586042  0.20958965  1
  O  O39  1  0.04916991  0.03234240  0.62097107  1
  O  O40  1  0.43656284  0.25676067  0.43839003  1
  O  O41  1  0.22460552  0.84620532  0.17621723  1
  O  O42  1  0.62205036  0.49290327  0.51333747  1
  O  O43  1  0.87315385  0.60205054  0.94583268  1
  O  O44  1  0.49817281  0.81837064  0.56160997  1
  O  O45  1  0.26434461  0.54931908  0.37635525  1
  O  O46  1  0.69438551  0.80518188  0.33252794  1
  O  O47  1  0.36159581  0.44662090  0.62372792  1
  O  O48  1  0.33899222  0.02194761  0.11641146  1
  O  O49  1  0.58951159  0.98404620  0.27579037  1
  O  O50  1  0.78021978  0.80786242  0.04280234  1
  O  O51  1  0.55324898  0.89610238  0.00122959  1
  O  O52  1  0.23741744  0.76506007  0.95719766  1
  O  O53  1  0.66977941  0.31828933  0.73666464  1
  O  O54  1  0.15138546  0.01950031  0.34209651  1
  O  O55  1  0.78527357  0.94842798  0.67694036  1
  O  O56  1  0.60833321  0.27148762  0.32305964  1
  O  O57  1  0.60871289  0.97956579  0.48666253  1
  O  O58  1  0.94819117  0.23617474  0.70828894  1
  O  O59  1  0.51208343  0.15981677  0.01729953  1
  O  O60  1  0.38798935  0.17296383  0.62364475  1
  O  O61  1  0.18126259  0.38806152  0.12736907  1
  O  O62  1  0.86185757  0.47265394  0.66747206  1
  O  O63  1  0.43311477  0.58162468  0.26333536  1
  O  O64  1  0.09536315  0.94627077  0.79041035  1
  O  O65  1  0.45927546  0.38700777  0.03732633  1
  O  O66  1  0.92819884  0.41137133  0.37902893  1
  O  O67  1  0.59827940  0.07606989  0.70854011  1
  O  O68  1  0.92194913  0.34968144  0.96267367  1
  O  O69  1  0.13934969  0.52251616  0.92087947  1
  O  O70  1  0.30928895  0.67740381  0.65790349  1
  O  O71  1  0.09747556  0.26422467  0.33933710  1
  O  O72  1  0.42732117  0.65621785  0.05416732  1
  O  O73  1  0.28280638  0.16347566  0.83704870  1
  O  O74  1  0.73990223  0.52788580  0.29171106  1
  O  O75  1  0.54838828  0.66998809  0.82378277  1
  O  O76  1  0.72258076  0.90553616  0.88358854  1
  O  O77  1  0.02826159  0.65847294  0.42418901  1
