# generated using pymatgen
data_BaCu6(GeS4)2
_symmetry_space_group_name_H-M   'P 1'
_cell_length_a   6.13776945
_cell_length_b   12.05974234
_cell_length_c   17.65606821
_cell_angle_alpha   90.00000000
_cell_angle_beta   90.00000000
_cell_angle_gamma   90.00000000
_symmetry_Int_Tables_number   1
_chemical_formula_structural   BaCu6(GeS4)2
_chemical_formula_sum   'Ba4 Cu24 Ge8 S32'
_cell_volume   1306.90072304
_cell_formula_units_Z   4
loop_
 _symmetry_equiv_pos_site_id
 _symmetry_equiv_pos_as_xyz
  1  'x, y, z'
loop_
 _atom_site_type_symbol
 _atom_site_label
 _atom_site_symmetry_multiplicity
 _atom_site_fract_x
 _atom_site_fract_y
 _atom_site_fract_z
 _atom_site_occupancy
  Ba  Ba0  1  0.92693880  0.77374146  0.25000000  1
  Ba  Ba1  1  0.07306120  0.27374146  0.25000000  1
  Ba  Ba2  1  0.92693880  0.72625854  0.75000000  1
  Ba  Ba3  1  0.07306120  0.22625854  0.75000000  1
  Cu  Cu4  1  0.49794496  0.29477373  0.37476272  1
  Cu  Cu5  1  0.44123676  0.59361797  0.45278197  1
  Cu  Cu6  1  0.49794496  0.20522627  0.87476272  1
  Cu  Cu7  1  0.95135210  0.50559460  0.37156249  1
  Cu  Cu8  1  0.49794496  0.29477373  0.12523728  1
  Cu  Cu9  1  0.55876324  0.40638203  0.95278197  1
  Cu  Cu10  1  0.95135210  0.99440540  0.87156249  1
  Cu  Cu11  1  0.04864790  0.49440540  0.87156249  1
  Cu  Cu12  1  0.44123676  0.90638203  0.95278197  1
  Cu  Cu13  1  0.50205504  0.70522627  0.62523728  1
  Cu  Cu14  1  0.55876324  0.09361797  0.45278197  1
  Cu  Cu15  1  0.55876324  0.40638203  0.54721803  1
  Cu  Cu16  1  0.04864790  0.00559460  0.12843751  1
  Cu  Cu17  1  0.44123676  0.59361797  0.04721803  1
  Cu  Cu18  1  0.50205504  0.70522627  0.87476272  1
  Cu  Cu19  1  0.44123676  0.90638203  0.54721803  1
  Cu  Cu20  1  0.04864790  0.49440540  0.62843751  1
  Cu  Cu21  1  0.95135210  0.99440540  0.62843751  1
  Cu  Cu22  1  0.95135210  0.50559460  0.12843751  1
  Cu  Cu23  1  0.50205504  0.79477373  0.37476272  1
  Cu  Cu24  1  0.50205504  0.79477373  0.12523728  1
  Cu  Cu25  1  0.04864790  0.00559460  0.37156249  1
  Cu  Cu26  1  0.49794496  0.20522627  0.62523728  1
  Cu  Cu27  1  0.55876324  0.09361797  0.04721803  1
  Ge  Ge28  1  0.54149330  0.45662359  0.75000000  1
  Ge  Ge29  1  0.54149330  0.04337641  0.25000000  1
  Ge  Ge30  1  0.45850670  0.95662359  0.75000000  1
  Ge  Ge31  1  0.98959625  0.75000000  0.50000000  1
  Ge  Ge32  1  0.45850670  0.54337641  0.25000000  1
  Ge  Ge33  1  0.98959625  0.75000000  0.00000000  1
  Ge  Ge34  1  0.01040375  0.25000000  0.50000000  1
  Ge  Ge35  1  0.01040375  0.25000000  0.00000000  1
  S  S36  1  0.22378389  0.87171697  0.05504744  1
  S  S37  1  0.77621611  0.37171697  0.44495256  1
  S  S38  1  0.23064693  0.33358583  0.91498740  1
  S  S39  1  0.81449160  0.50635362  0.25000000  1
  S  S40  1  0.23064693  0.33358583  0.58501260  1
  S  S41  1  0.68430795  0.52715576  0.85979239  1
  S  S42  1  0.23064693  0.16641417  0.41498740  1
  S  S43  1  0.81449160  0.99364638  0.75000000  1
  S  S44  1  0.18550840  0.00635362  0.25000000  1
  S  S45  1  0.68430795  0.97284424  0.14020761  1
  S  S46  1  0.77621611  0.12828303  0.55504744  1
  S  S47  1  0.58160991  0.22944510  0.25000000  1
  S  S48  1  0.68430795  0.97284424  0.35979239  1
  S  S49  1  0.22378389  0.87171697  0.44495256  1
  S  S50  1  0.58160991  0.27055490  0.75000000  1
  S  S51  1  0.31569205  0.02715576  0.85979239  1
  S  S52  1  0.22378389  0.62828303  0.94495256  1
  S  S53  1  0.76935307  0.66641417  0.08501260  1
  S  S54  1  0.41839009  0.72944510  0.25000000  1
  S  S55  1  0.76935307  0.83358583  0.58501260  1
  S  S56  1  0.18550840  0.49364638  0.75000000  1
  S  S57  1  0.41839009  0.77055490  0.75000000  1
  S  S58  1  0.76935307  0.83358583  0.91498740  1
  S  S59  1  0.77621611  0.12828303  0.94495256  1
  S  S60  1  0.22378389  0.62828303  0.55504744  1
  S  S61  1  0.77621611  0.37171697  0.05504744  1
  S  S62  1  0.31569205  0.47284424  0.14020761  1
  S  S63  1  0.31569205  0.02715576  0.64020761  1
  S  S64  1  0.31569205  0.47284424  0.35979239  1
  S  S65  1  0.68430795  0.52715576  0.64020761  1
  S  S66  1  0.23064693  0.16641417  0.08501260  1
  S  S67  1  0.76935307  0.66641417  0.41498740  1
