# generated using pymatgen
data_CaBi2B2O7
_symmetry_space_group_name_H-M   'P 1'
_cell_length_a   5.56287020
_cell_length_b   8.98368869
_cell_length_c   12.76516991
_cell_angle_alpha   90.00000000
_cell_angle_beta   90.00000000
_cell_angle_gamma   90.00000000
_symmetry_Int_Tables_number   1
_chemical_formula_structural   CaBi2B2O7
_chemical_formula_sum   'Ca4 Bi8 B8 O28'
_cell_volume   637.94056745
_cell_formula_units_Z   4
loop_
 _symmetry_equiv_pos_site_id
 _symmetry_equiv_pos_as_xyz
  1  'x, y, z'
loop_
 _atom_site_type_symbol
 _atom_site_label
 _atom_site_symmetry_multiplicity
 _atom_site_fract_x
 _atom_site_fract_y
 _atom_site_fract_z
 _atom_site_occupancy
  Ca  Ca0  1  0.55392566  0.82573262  0.99825284  1
  Ca  Ca1  1  0.94607434  0.32573262  0.99825284  1
  Ca  Ca2  1  0.05392566  0.67426738  0.49825284  1
  Ca  Ca3  1  0.44607434  0.17426738  0.49825284  1
  Bi  Bi4  1  0.06644205  0.66761642  0.15660731  1
  Bi  Bi5  1  0.56644205  0.83238358  0.65660731  1
  Bi  Bi6  1  0.93355795  0.33238358  0.65660731  1
  Bi  Bi7  1  0.43353612  0.16724800  0.83996919  1
  Bi  Bi8  1  0.56646388  0.83275200  0.33996919  1
  Bi  Bi9  1  0.06646388  0.66724800  0.83996919  1
  Bi  Bi10  1  0.43355795  0.16761642  0.15660731  1
  Bi  Bi11  1  0.93353612  0.33275200  0.33996919  1
  B  B12  1  0.48496273  0.47620608  0.12816383  1
  B  B13  1  0.51460273  0.52402615  0.36821310  1
  B  B14  1  0.01503727  0.97620608  0.12816383  1
  B  B15  1  0.51503727  0.52379392  0.62816383  1
  B  B16  1  0.48539727  0.47597385  0.86821310  1
  B  B17  1  0.01460273  0.97597385  0.86821310  1
  B  B18  1  0.98539727  0.02402615  0.36821310  1
  B  B19  1  0.98496273  0.02379392  0.62816383  1
  O  O20  1  0.77009626  0.10748387  0.62696382  1
  O  O21  1  0.22937311  0.89220883  0.86960541  1
  O  O22  1  0.27062689  0.39220883  0.86960541  1
  O  O23  1  0.80415663  0.89816974  0.13749045  1
  O  O24  1  0.03593401  0.37261729  0.49828203  1
  O  O25  1  0.22990374  0.89251613  0.12696382  1
  O  O26  1  0.69635879  0.39803363  0.85878056  1
  O  O27  1  0.72937311  0.60779117  0.36960541  1
  O  O28  1  0.03703847  0.12855204  0.87282614  1
  O  O29  1  0.96296153  0.87144796  0.37282614  1
  O  O30  1  0.53703847  0.37144796  0.37282614  1
  O  O31  1  0.46275551  0.62879340  0.12354532  1
  O  O32  1  0.19635879  0.10196637  0.35878056  1
  O  O33  1  0.69584337  0.39816974  0.13749045  1
  O  O34  1  0.46296153  0.62855204  0.87282614  1
  O  O35  1  0.53593401  0.12738271  0.99828203  1
  O  O36  1  0.19584337  0.10183026  0.63749045  1
  O  O37  1  0.30415663  0.60183026  0.63749045  1
  O  O38  1  0.72990374  0.60748387  0.62696382  1
  O  O39  1  0.46406599  0.87261729  0.49828203  1
  O  O40  1  0.96406599  0.62738271  0.99828203  1
  O  O41  1  0.77062689  0.10779117  0.36960541  1
  O  O42  1  0.53724449  0.37120660  0.62354532  1
  O  O43  1  0.30364121  0.60196637  0.35878056  1
  O  O44  1  0.80364121  0.89803363  0.85878056  1
  O  O45  1  0.96275551  0.87120660  0.62354532  1
  O  O46  1  0.27009626  0.39251613  0.12696382  1
  O  O47  1  0.03724449  0.12879340  0.12354532  1
