# generated using pymatgen
data_Ba5Hf4S13
_symmetry_space_group_name_H-M   'P 1'
_cell_length_a   5.00408290
_cell_length_b   5.00408391
_cell_length_c   23.15329376
_cell_angle_alpha   96.20448655
_cell_angle_beta   96.20449581
_cell_angle_gamma   90.00015166
_symmetry_Int_Tables_number   1
_chemical_formula_structural   Ba5Hf4S13
_chemical_formula_sum   'Ba5 Hf4 S13'
_cell_volume   572.96591982
_cell_formula_units_Z   1
loop_
 _symmetry_equiv_pos_site_id
 _symmetry_equiv_pos_as_xyz
  1  'x, y, z'
loop_
 _atom_site_type_symbol
 _atom_site_label
 _atom_site_symmetry_multiplicity
 _atom_site_fract_x
 _atom_site_fract_y
 _atom_site_fract_z
 _atom_site_occupancy
  Ba  Ba0  1  0.71099525  0.71099513  0.42196962  1
  Ba  Ba1  1  0.60742516  0.60742541  0.21482974  1
  Ba  Ba2  1  0.28900475  0.28900487  0.57803038  1
  Ba  Ba3  1  0.50000000  0.50000000  0.00000000  1
  Ba  Ba4  1  0.39257484  0.39257459  0.78517026  1
  Hf  Hf5  1  0.83376685  0.83376693  0.66760533  1
  Hf  Hf6  1  0.05515813  0.05515804  0.11045855  1
  Hf  Hf7  1  0.16623315  0.16623307  0.33239467  1
  Hf  Hf8  1  0.94484187  0.94484196  0.88954145  1
  S  S9  1  0.89011479  0.89011501  0.78039374  1
  S  S10  1  0.83649776  0.33649008  0.67307968  1
  S  S11  1  0.94534924  0.44527938  0.89040762  1
  S  S12  1  0.55472067  0.05465087  0.10959235  1
  S  S13  1  0.10988521  0.10988499  0.21960626  1
  S  S14  1  0.77939134  0.77939088  0.55887219  1
  S  S15  1  0.22060866  0.22060912  0.44112781  1
  S  S16  1  0.33649010  0.83649760  0.67307963  1
  S  S17  1  0.66350990  0.16350240  0.32692037  1
  S  S18  1  0.44527933  0.94534913  0.89040765  1
  S  S19  1  0.16350224  0.66350992  0.32692032  1
  S  S20  1  0.00000000  0.00000000  0.00000000  1
  S  S21  1  0.05465076  0.55472062  0.10959238  1
