# generated using pymatgen
data_BaCSNCl
_symmetry_space_group_name_H-M   'P 1'
_cell_length_a   4.68979536
_cell_length_b   5.91308570
_cell_length_c   8.90497719
_cell_angle_alpha   98.71094826
_cell_angle_beta   90.00000000
_cell_angle_gamma   90.00000000
_symmetry_Int_Tables_number   1
_chemical_formula_structural   BaCSNCl
_chemical_formula_sum   'Ba2 C2 S2 N2 Cl2'
_cell_volume   244.09684049
_cell_formula_units_Z   2
loop_
 _symmetry_equiv_pos_site_id
 _symmetry_equiv_pos_as_xyz
  1  'x, y, z'
loop_
 _atom_site_type_symbol
 _atom_site_label
 _atom_site_symmetry_multiplicity
 _atom_site_fract_x
 _atom_site_fract_y
 _atom_site_fract_z
 _atom_site_occupancy
  Ba  Ba0  1  0.25000000  0.78989737  0.69858919  1
  Ba  Ba1  1  0.75000000  0.21010263  0.30141081  1
  C  C2  1  0.75000000  0.39393706  0.84561566  1
  C  C3  1  0.25000000  0.60606294  0.15438434  1
  S  S4  1  0.25000000  0.85985582  0.10389638  1
  S  S5  1  0.75000000  0.14014418  0.89610362  1
  N  N6  1  0.75000000  0.57901074  0.80904801  1
  N  N7  1  0.25000000  0.42098926  0.19095199  1
  Cl  Cl8  1  0.75000000  0.74782594  0.45163151  1
  Cl  Cl9  1  0.25000000  0.25217406  0.54836849  1
