# generated using pymatgen
data_Zn2NiO3
_symmetry_space_group_name_H-M   'P 1'
_cell_length_a   3.04122301
_cell_length_b   4.29836349
_cell_length_c   5.26597609
_cell_angle_alpha   65.91283278
_cell_angle_beta   73.21617268
_cell_angle_gamma   90.00000000
_symmetry_Int_Tables_number   1
_chemical_formula_structural   Zn2NiO3
_chemical_formula_sum   'Zn2 Ni1 O3'
_cell_volume   59.61772163
_cell_formula_units_Z   1
loop_
 _symmetry_equiv_pos_site_id
 _symmetry_equiv_pos_as_xyz
  1  'x, y, z'
loop_
 _atom_site_type_symbol
 _atom_site_label
 _atom_site_symmetry_multiplicity
 _atom_site_fract_x
 _atom_site_fract_y
 _atom_site_fract_z
 _atom_site_occupancy
  Zn  Zn0  1  0.33361182  0.33361182  0.33277535  1
  Zn  Zn1  1  0.66638818  0.66638818  0.66722465  1
  Ni  Ni2  1  -0.00000000  -0.00000000  0.00000000  1
  O  O3  1  -0.00000000  0.50000000  0.00000000  1
  O  O4  1  0.33625009  0.83625009  0.32749883  1
  O  O5  1  0.66374991  0.16374991  0.67250117  1
