# generated using pymatgen
data_AlPO4
_symmetry_space_group_name_H-M   'P 1'
_cell_length_a   8.61534685
_cell_length_b   14.08666757
_cell_length_c   24.27801862
_cell_angle_alpha   90.00000000
_cell_angle_beta   90.00000000
_cell_angle_gamma   90.00000000
_symmetry_Int_Tables_number   1
_chemical_formula_structural   AlPO4
_chemical_formula_sum   'Al24 P24 O96'
_cell_volume   2946.41741411
_cell_formula_units_Z   24
loop_
 _symmetry_equiv_pos_site_id
 _symmetry_equiv_pos_as_xyz
  1  'x, y, z'
loop_
 _atom_site_type_symbol
 _atom_site_label
 _atom_site_symmetry_multiplicity
 _atom_site_fract_x
 _atom_site_fract_y
 _atom_site_fract_z
 _atom_site_occupancy
  Al  Al0  1  0.42599232  0.21224625  0.33405165  1
  Al  Al1  1  0.92552744  0.38942161  0.05675451  1
  Al  Al2  1  0.92762338  0.21721732  0.66525964  1
  Al  Al3  1  0.42738001  0.89304444  0.22967323  1
  Al  Al4  1  0.42472392  0.40542138  0.93675110  1
  Al  Al5  1  0.92738001  0.39304444  0.27032677  1
  Al  Al6  1  0.92599232  0.71224625  0.16594835  1
  Al  Al7  1  0.92525713  0.10545370  0.23066831  1
  Al  Al8  1  0.42472392  0.59457862  0.06324890  1
  Al  Al9  1  0.92762338  0.78278268  0.33474036  1
  Al  Al10  1  0.42762338  0.71721732  0.83474036  1
  Al  Al11  1  0.42599232  0.78775375  0.66594835  1
  Al  Al12  1  0.92472392  0.09457862  0.43675110  1
  Al  Al13  1  0.92738001  0.60695556  0.72967323  1
  Al  Al14  1  0.42738001  0.10695556  0.77032677  1
  Al  Al15  1  0.92472392  0.90542138  0.56324890  1
  Al  Al16  1  0.42525713  0.60545370  0.26933169  1
  Al  Al17  1  0.42762338  0.28278268  0.16525964  1
  Al  Al18  1  0.92599232  0.28775375  0.83405165  1
  Al  Al19  1  0.42525713  0.39454630  0.73066831  1
  Al  Al20  1  0.92552744  0.61057839  0.94324549  1
  Al  Al21  1  0.42552744  0.88942161  0.44324549  1
  Al  Al22  1  0.42552744  0.11057839  0.55675451  1
  Al  Al23  1  0.92525713  0.89454630  0.76933169  1
  P  P24  1  0.04921021  0.10530813  0.77144394  1
  P  P25  1  0.54921021  0.60530813  0.72855606  1
  P  P26  1  0.05049378  0.21360780  0.33672816  1
  P  P27  1  0.05049378  0.78639220  0.66327184  1
  P  P28  1  0.54966988  0.10343851  0.22844199  1
  P  P29  1  0.05461394  0.59687765  0.06401189  1
  P  P30  1  0.55461394  0.90312235  0.56401189  1
  P  P31  1  0.54940717  0.78273888  0.33594144  1
  P  P32  1  0.05401078  0.88861438  0.44181636  1
  P  P33  1  0.04966988  0.60343851  0.27155801  1
  P  P34  1  0.55461394  0.09687765  0.43598811  1
  P  P35  1  0.04940717  0.71726112  0.83594144  1
  P  P36  1  0.04921021  0.89469187  0.22855606  1
  P  P37  1  0.04940717  0.28273888  0.16405856  1
  P  P38  1  0.55401078  0.61138562  0.94181636  1
  P  P39  1  0.55049378  0.28639220  0.83672816  1
  P  P40  1  0.54921021  0.39469187  0.27144394  1
  P  P41  1  0.05461394  0.40312235  0.93598811  1
  P  P42  1  0.54966988  0.89656149  0.77155801  1
  P  P43  1  0.55049378  0.71360780  0.16327184  1
  P  P44  1  0.05401078  0.11138562  0.55818364  1
  P  P45  1  0.55401078  0.38861438  0.05818364  1
  P  P46  1  0.04966988  0.39656149  0.72844199  1
  P  P47  1  0.54940717  0.21726112  0.66405856  1
  O  O48  1  0.52425926  0.13260290  0.49491754  1
  O  O49  1  0.48655999  0.49225361  0.28857019  1
  O  O50  1  0.48027239  0.31442304  0.89243097  1
  O  O51  1  0.47686109  0.68645967  0.32090514  1
  O  O52  1  0.22451828  0.39145275  0.74007068  1
  O  O53  1  0.96089629  0.12779972  0.50504102  1
  O  O54  1  0.72700847  0.62691295  0.95367299  1
  O  O55  1  0.47852222  0.63334871  0.78450352  1
  O  O56  1  0.02425926  0.36739710  0.99491754  1
  O  O57  1  0.97852222  0.13334871  0.71549648  1
  O  O58  1  0.49941946  0.31669031  0.10127230  1
  O  O59  1  0.98655999  0.00774639  0.78857019  1
  O  O60  1  0.00804254  0.67198403  0.31855162  1
  O  O61  1  0.50466533  0.67750343  0.68386754  1
  O  O62  1  0.51280967  0.82382367  0.60456992  1
  O  O63  1  0.22636967  0.27341826  0.16372161  1
  O  O64  1  0.99304659  0.31058787  0.10647470  1
  O  O65  1  0.99304659  0.68941213  0.89352530  1
  O  O66  1  0.52425926  0.86739710  0.50508246  1
  O  O67  1  1.00080051  0.35959250  0.20577567  1
  O  O68  1  0.72609743  0.39917499  0.26616710  1
  O  O69  1  0.97686109  0.18645967  0.17909486  1
  O  O70  1  0.50466533  0.32249657  0.31613246  1
  O  O71  1  0.72451828  0.89145275  0.75992932  1
  O  O72  1  0.00804254  0.32801597  0.68144838  1
  O  O73  1  0.22451828  0.60854725  0.25992932  1
  O  O74  1  0.50804254  0.82801597  0.81855162  1
  O  O75  1  0.97686109  0.81354033  0.82090514  1
  O  O76  1  0.01280967  0.67617633  0.10456992  1
  O  O77  1  0.01330443  0.86281707  0.70678482  1
  O  O78  1  0.72700847  0.37308705  0.04632701  1
  O  O79  1  0.72451828  0.10854725  0.24007068  1
  O  O80  1  0.02822118  0.99067374  0.42035540  1
  O  O81  1  0.72656125  0.27694570  0.84296410  1
  O  O82  1  0.22609743  0.10082501  0.76616710  1
  O  O83  1  1.00466533  0.17750343  0.81613246  1
  O  O84  1  -0.00058054  0.81669031  0.39872770  1
  O  O85  1  0.96024978  0.37044785  0.78130454  1
  O  O86  1  0.46024978  0.87044785  0.71869546  1
  O  O87  1  0.72676645  0.07062343  0.42967648  1
  O  O88  1  0.72609743  0.60082501  0.73383290  1
  O  O89  1  0.49304659  0.18941213  0.60647470  1
  O  O90  1  0.22656125  0.22305430  0.34296410  1
  O  O91  1  0.96024978  0.62955215  0.21869546  1
  O  O92  1  0.45558917  0.99175695  0.57663609  1
  O  O93  1  0.49304659  0.81058787  0.39352530  1
  O  O94  1  0.47852222  0.36665129  0.21549648  1
  O  O95  1  0.98112729  0.69023282  0.67989869  1
  O  O96  1  -0.00058054  0.18330969  0.60127230  1
  O  O97  1  0.01280967  0.32382367  0.89543008  1
  O  O98  1  1.00466533  0.82249657  0.18386754  1
  O  O99  1  0.95558917  0.50824305  0.07663609  1
  O  O100  1  0.50080051  0.85959250  0.29422433  1
  O  O101  1  0.22609743  0.89917499  0.23383290  1
  O  O102  1  0.46024978  0.12955215  0.28130454  1
  O  O103  1  0.72636967  0.22658174  0.66372161  1
  O  O104  1  0.00502130  0.49735960  0.71073363  1
  O  O105  1  0.52822118  0.50932626  0.92035540  1
  O  O106  1  0.51280967  0.17617633  0.39543008  1
  O  O107  1  0.50502130  0.99735960  0.78926637  1
  O  O108  1  0.45558917  0.00824305  0.42336391  1
  O  O109  1  0.50080051  0.14040750  0.70577567  1
  O  O110  1  0.22636967  0.72658174  0.83627839  1
  O  O111  1  0.49941946  0.68330969  0.89872770  1
  O  O112  1  0.52822118  0.49067374  0.07964460  1
  O  O113  1  0.98112729  0.30976718  0.32010131  1
  O  O114  1  0.00502130  0.50264040  0.28926637  1
  O  O115  1  0.48027239  0.68557696  0.10756903  1
  O  O116  1  0.22676645  0.57062343  0.07032352  1
  O  O117  1  0.48655999  0.50774639  0.71142981  1
  O  O118  1  0.97852222  0.86665129  0.28450352  1
  O  O119  1  0.98655999  0.99225361  0.21142981  1
  O  O120  1  0.51330443  0.36281707  0.79321518  1
  O  O121  1  0.48112729  0.80976718  0.17989869  1
  O  O122  1  0.98027239  0.81442304  0.60756903  1
  O  O123  1  0.50502130  0.00264040  0.21073363  1
  O  O124  1  0.46089629  0.37220028  0.00504102  1
  O  O125  1  0.02425926  0.63260290  0.00508246  1
  O  O126  1  0.22700847  0.87308705  0.45367299  1
  O  O127  1  0.72636967  0.77341826  0.33627839  1
  O  O128  1  0.51330443  0.63718293  0.20678482  1
  O  O129  1  0.46089629  0.62779972  0.99495898  1
  O  O130  1  0.48112729  0.19023282  0.82010131  1
  O  O131  1  0.22676645  0.42937657  0.92967648  1
  O  O132  1  1.00080051  0.64040750  0.79422433  1
  O  O133  1  0.02822118  0.00932626  0.57964460  1
  O  O134  1  0.22656125  0.77694570  0.65703590  1
  O  O135  1  0.47686109  0.31354033  0.67909486  1
  O  O136  1  0.96089629  0.87220028  0.49495898  1
  O  O137  1  0.01330443  0.13718293  0.29321518  1
  O  O138  1  0.50804254  0.17198403  0.18144838  1
  O  O139  1  0.98027239  0.18557696  0.39243097  1
  O  O140  1  0.95558917  0.49175695  0.92336391  1
  O  O141  1  0.72676645  0.92937657  0.57032352  1
  O  O142  1  0.72656125  0.72305430  0.15703590  1
  O  O143  1  0.22700847  0.12691295  0.54632701  1
