# generated using pymatgen
data_K2PrZr(PO4)3
_symmetry_space_group_name_H-M   'P 1'
_cell_length_a   10.63325072
_cell_length_b   10.63325072
_cell_length_c   10.63325072
_cell_angle_alpha   90.00000000
_cell_angle_beta   90.00000000
_cell_angle_gamma   90.00000000
_symmetry_Int_Tables_number   1
_chemical_formula_structural   K2PrZr(PO4)3
_chemical_formula_sum   'K8 Pr4 Zr4 P12 O48'
_cell_volume   1202.25934787
_cell_formula_units_Z   4
loop_
 _symmetry_equiv_pos_site_id
 _symmetry_equiv_pos_as_xyz
  1  'x, y, z'
loop_
 _atom_site_type_symbol
 _atom_site_label
 _atom_site_symmetry_multiplicity
 _atom_site_fract_x
 _atom_site_fract_y
 _atom_site_fract_z
 _atom_site_occupancy
  K  K0  1  0.07142253  0.07142253  0.07142253  1
  K  K1  1  0.92857747  0.57142253  0.42857747  1
  K  K2  1  0.42857747  0.92857747  0.57142253  1
  K  K3  1  0.20265441  0.70265441  0.79734559  1
  K  K4  1  0.79734559  0.20265441  0.70265441  1
  K  K5  1  0.57142253  0.42857747  0.92857747  1
  K  K6  1  0.70265441  0.79734559  0.20265441  1
  K  K7  1  0.29734559  0.29734559  0.29734559  1
  Pr  Pr8  1  0.92405842  0.42405842  0.07594158  1
  Pr  Pr9  1  0.07594158  0.92405842  0.42405842  1
  Pr  Pr10  1  0.42405842  0.07594158  0.92405842  1
  Pr  Pr11  1  0.57594158  0.57594158  0.57594158  1
  Zr  Zr12  1  0.85341809  0.85341809  0.85341809  1
  Zr  Zr13  1  0.14658191  0.35341809  0.64658191  1
  Zr  Zr14  1  0.35341809  0.64658191  0.14658191  1
  Zr  Zr15  1  0.64658191  0.14658191  0.35341809  1
  P  P16  1  0.54150172  0.75122117  0.88070691  1
  P  P17  1  0.75122117  0.88070691  0.54150172  1
  P  P18  1  0.38070691  0.95849828  0.24877883  1
  P  P19  1  0.95849828  0.24877883  0.38070691  1
  P  P20  1  0.25122117  0.61929309  0.45849828  1
  P  P21  1  0.11929309  0.04150172  0.74877883  1
  P  P22  1  0.45849828  0.25122117  0.61929309  1
  P  P23  1  0.74877883  0.11929309  0.04150172  1
  P  P24  1  0.24877883  0.38070691  0.95849828  1
  P  P25  1  0.04150172  0.74877883  0.11929309  1
  P  P26  1  0.88070691  0.54150172  0.75122117  1
  P  P27  1  0.61929309  0.45849828  0.25122117  1
  O  O28  1  0.12379264  0.33845899  0.01778469  1
  O  O29  1  0.83845899  0.48221531  0.87620736  1
  O  O30  1  0.85146765  0.21960448  0.02535564  1
  O  O31  1  0.58611861  0.31611810  0.26772464  1
  O  O32  1  0.26772464  0.58611861  0.31611810  1
  O  O33  1  1.00305017  0.47419399  0.70597099  1
  O  O34  1  0.28039552  0.97464436  0.35146765  1
  O  O35  1  0.62379264  0.16154101  0.98221531  1
  O  O36  1  0.52535564  0.64853235  0.78039552  1
  O  O37  1  0.16154101  0.98221531  0.62379264  1
  O  O38  1  0.48221531  0.87620736  0.83845899  1
  O  O39  1  0.47464436  0.14853235  0.71960448  1
  O  O40  1  0.41388139  0.81611810  0.23227536  1
  O  O41  1  0.49694983  0.52580601  0.20597099  1
  O  O42  1  0.20597099  0.49694983  0.52580601  1
  O  O43  1  -0.00305017  0.97419399  0.79402901  1
  O  O44  1  0.97464436  0.35146765  0.28039552  1
  O  O45  1  0.66154101  0.51778469  0.37620736  1
  O  O46  1  0.78039552  0.52535564  0.64853235  1
  O  O47  1  0.73227536  0.08611861  0.18388190  1
  O  O48  1  0.91388139  0.68388190  0.76772464  1
  O  O49  1  0.51778469  0.37620736  0.66154101  1
  O  O50  1  0.71960448  0.47464436  0.14853235  1
  O  O51  1  0.76772464  0.91388139  0.68388190  1
  O  O52  1  0.47419399  0.70597099  1.00305017  1
  O  O53  1  0.98221531  0.62379264  0.16154101  1
  O  O54  1  0.68388190  0.76772464  0.91388139  1
  O  O55  1  0.01778469  0.12379264  0.33845899  1
  O  O56  1  0.02580601  0.29402901  0.50305017  1
  O  O57  1  0.18388190  0.73227536  0.08611861  1
  O  O58  1  0.50305017  0.02580601  0.29402901  1
  O  O59  1  0.29402901  0.50305017  0.02580601  1
  O  O60  1  0.37620736  0.66154101  0.51778469  1
  O  O61  1  0.97419399  0.79402901  -0.00305017  1
  O  O62  1  0.02535564  0.85146765  0.21960448  1
  O  O63  1  0.52580601  0.20597099  0.49694983  1
  O  O64  1  0.79402901  -0.00305017  0.97419399  1
  O  O65  1  0.81611810  0.23227536  0.41388139  1
  O  O66  1  0.08611861  0.18388190  0.73227536  1
  O  O67  1  0.64853235  0.78039552  0.52535564  1
  O  O68  1  0.31611810  0.26772464  0.58611861  1
  O  O69  1  0.14853235  0.71960448  0.47464436  1
  O  O70  1  0.70597099  1.00305017  0.47419399  1
  O  O71  1  0.23227536  0.41388139  0.81611810  1
  O  O72  1  0.21960448  0.02535564  0.85146765  1
  O  O73  1  0.87620736  0.83845899  0.48221531  1
  O  O74  1  0.35146765  0.28039552  0.97464436  1
  O  O75  1  0.33845899  0.01778469  0.12379264  1
