# generated using pymatgen
data_AlPO4
_symmetry_space_group_name_H-M   'P 1'
_cell_length_a   12.25563190
_cell_length_b   12.25563192
_cell_length_c   12.25563217
_cell_angle_alpha   118.14622287
_cell_angle_beta   118.14622290
_cell_angle_gamma   118.14622447
_symmetry_Int_Tables_number   1
_chemical_formula_structural   AlPO4
_chemical_formula_sum   'Al6 P6 O24'
_cell_volume   644.26128972
_cell_formula_units_Z   6
loop_
 _symmetry_equiv_pos_site_id
 _symmetry_equiv_pos_as_xyz
  1  'x, y, z'
loop_
 _atom_site_type_symbol
 _atom_site_label
 _atom_site_symmetry_multiplicity
 _atom_site_fract_x
 _atom_site_fract_y
 _atom_site_fract_z
 _atom_site_occupancy
  Al  Al0  1  0.94372488  0.64640844  0.49770805  1
  Al  Al1  1  0.05627512  0.35359156  0.50229195  1
  Al  Al2  1  0.49770805  0.94372488  0.64640844  1
  Al  Al3  1  0.64640844  0.49770805  0.94372488  1
  Al  Al4  1  0.35359156  0.50229195  0.05627512  1
  Al  Al5  1  0.50229195  0.05627512  0.35359156  1
  P  P6  1  0.40448205  0.26025106  0.96424628  1
  P  P7  1  0.59551795  0.73974894  0.03575372  1
  P  P8  1  0.03575372  0.59551795  0.73974894  1
  P  P9  1  0.73974894  0.03575372  0.59551795  1
  P  P10  1  0.26025106  0.96424628  0.40448205  1
  P  P11  1  0.96424628  0.40448205  0.26025106  1
  O  O12  1  0.30505703  0.97230812  0.30846834  1
  O  O13  1  0.95013670  0.68706664  0.15077639  1
  O  O14  1  0.69494297  0.02769188  0.69153166  1
  O  O15  1  0.97230812  0.30846834  0.30505703  1
  O  O16  1  0.40457811  -0.00256511  0.56123382  1
  O  O17  1  0.59542189  1.00256511  0.43876618  1
  O  O18  1  0.61978264  0.79953478  0.40331127  1
  O  O19  1  0.84922361  0.04986330  0.31293336  1
  O  O20  1  0.56123382  0.40457811  -0.00256511  1
  O  O21  1  0.15077639  0.95013670  0.68706664  1
  O  O22  1  0.79953478  0.40331127  0.61978264  1
  O  O23  1  0.68706664  0.15077639  0.95013670  1
  O  O24  1  0.04986330  0.31293336  0.84922361  1
  O  O25  1  0.38021736  0.20046522  0.59668873  1
  O  O26  1  0.40331127  0.61978264  0.79953478  1
  O  O27  1  0.31293336  0.84922361  0.04986330  1
  O  O28  1  0.02769188  0.69153166  0.69494297  1
  O  O29  1  0.43876618  0.59542189  1.00256511  1
  O  O30  1  0.30846834  0.30505703  0.97230812  1
  O  O31  1  -0.00256511  0.56123382  0.40457811  1
  O  O32  1  1.00256511  0.43876618  0.59542189  1
  O  O33  1  0.69153166  0.69494297  0.02769188  1
  O  O34  1  0.20046522  0.59668873  0.38021736  1
  O  O35  1  0.59668873  0.38021736  0.20046522  1
