# generated using pymatgen
data_Ba6Ti17O40
_symmetry_space_group_name_H-M   'P 1'
_cell_length_a   9.99281455
_cell_length_b   9.99281459
_cell_length_c   19.21628548
_cell_angle_alpha   94.46519302
_cell_angle_beta   94.46519305
_cell_angle_gamma   119.73213218
_symmetry_Int_Tables_number   1
_chemical_formula_structural   Ba6Ti17O40
_chemical_formula_sum   'Ba12 Ti34 O80'
_cell_volume   1646.09741349
_cell_formula_units_Z   2
loop_
 _symmetry_equiv_pos_site_id
 _symmetry_equiv_pos_as_xyz
  1  'x, y, z'
loop_
 _atom_site_type_symbol
 _atom_site_label
 _atom_site_symmetry_multiplicity
 _atom_site_fract_x
 _atom_site_fract_y
 _atom_site_fract_z
 _atom_site_occupancy
  Ba  Ba0  1  0.13664605  0.56911371  0.31495182  1
  Ba  Ba1  1  0.28932619  0.43981906  0.82268702  1
  Ba  Ba2  1  0.83719297  0.02076075  0.55565744  1
  Ba  Ba3  1  0.56911371  0.13664605  0.81495182  1
  Ba  Ba4  1  0.86335395  0.43088629  0.68504818  1
  Ba  Ba5  1  0.56018094  0.71067381  0.67731298  1
  Ba  Ba6  1  0.02076075  0.83719297  0.05565744  1
  Ba  Ba7  1  0.16280703  0.97923925  0.44434256  1
  Ba  Ba8  1  0.43088629  0.86335395  0.18504818  1
  Ba  Ba9  1  0.71067381  0.56018094  0.17731298  1
  Ba  Ba10  1  0.97923925  0.16280703  0.94434256  1
  Ba  Ba11  1  0.43981906  0.28932619  0.32268702  1
  Ti  Ti12  1  0.29170066  0.64961513  0.99650200  1
  Ti  Ti13  1  0.18184710  0.86983149  0.62278921  1
  Ti  Ti14  1  0.64961513  0.29170066  0.49650200  1
  Ti  Ti15  1  0.38042219  0.23151316  0.62778737  1
  Ti  Ti16  1  0.67516494  0.83630304  0.01268297  1
  Ti  Ti17  1  0.82453603  0.62689899  0.36034864  1
  Ti  Ti18  1  0.61957781  0.76848684  0.37221263  1
  Ti  Ti19  1  0.86983149  0.18184710  0.12278921  1
  Ti  Ti20  1  0.32483506  0.16369696  0.98731703  1
  Ti  Ti21  1  0.16369696  0.32483506  0.48731703  1
  Ti  Ti22  1  0.17546397  0.37310101  0.63965136  1
  Ti  Ti23  1  0.23151316  0.38042219  0.12778737  1
  Ti  Ti24  1  0.05988002  0.94011998  0.75000000  1
  Ti  Ti25  1  0.25346959  0.74653041  0.75000000  1
  Ti  Ti26  1  0.95609351  0.46380558  0.87291407  1
  Ti  Ti27  1  0.35038487  0.70829934  0.50349800  1
  Ti  Ti28  1  0.94011998  0.05988002  0.25000000  1
  Ti  Ti29  1  0.50000000  0.00000000  0.00000000  1
  Ti  Ti30  1  0.70829934  0.35038487  0.00349800  1
  Ti  Ti31  1  0.13016851  0.81815290  0.87721079  1
  Ti  Ti32  1  0.10556136  0.89443864  0.25000000  1
  Ti  Ti33  1  0.00000000  0.50000000  0.50000000  1
  Ti  Ti34  1  0.50000000  0.50000000  0.50000000  1
  Ti  Ti35  1  0.04390649  0.53619442  0.12708593  1
  Ti  Ti36  1  0.62689899  0.82453603  0.86034864  1
  Ti  Ti37  1  0.37310101  0.17546397  0.13965136  1
  Ti  Ti38  1  0.53619442  0.04390649  0.62708593  1
  Ti  Ti39  1  0.74653041  0.25346959  0.25000000  1
  Ti  Ti40  1  0.89443864  0.10556136  0.75000000  1
  Ti  Ti41  1  0.46380558  0.95609351  0.37291407  1
  Ti  Ti42  1  0.50000000  0.50000000  0.00000000  1
  Ti  Ti43  1  0.76848684  0.61957781  0.87221263  1
  Ti  Ti44  1  0.81815290  0.13016851  0.37721079  1
  Ti  Ti45  1  0.83630304  0.67516494  0.51268297  1
  O  O46  1  0.34402043  0.03036791  0.57525374  1
  O  O47  1  0.53589054  0.22093909  0.68352325  1
  O  O48  1  0.81466112  0.32771883  0.93028513  1
  O  O49  1  0.70229590  0.06339944  0.69133292  1
  O  O50  1  0.81565732  0.30344608  0.44924176  1
  O  O51  1  0.48955121  0.65115174  0.43950004  1
  O  O52  1  0.88048400  0.91765099  0.70052942  1
  O  O53  1  0.69655392  0.18434268  0.05075824  1
  O  O54  1  0.46854590  0.64329135  0.94766481  1
  O  O55  1  0.67228117  0.18533888  0.56971487  1
  O  O56  1  0.98582853  0.76108651  0.31880955  1
  O  O57  1  0.01289469  0.84941763  0.55773154  1
  O  O58  1  0.55876130  0.21848040  0.19628246  1
  O  O59  1  0.37152175  0.88420416  0.68200766  1
  O  O60  1  0.18434268  0.69655392  0.55075824  1
  O  O61  1  0.11579584  0.62847825  0.81799234  1
  O  O62  1  0.74650143  0.07132107  0.19168498  1
  O  O63  1  0.51202659  0.86179912  0.56673635  1
  O  O64  1  0.92867893  0.25349857  0.30831502  1
  O  O65  1  0.18533888  0.67228117  0.06971487  1
  O  O66  1  0.61564775  0.63886098  0.81520668  1
  O  O67  1  0.11951600  0.08234901  0.29947058  1
  O  O68  1  0.36113902  0.38435225  0.68479332  1
  O  O69  1  0.32423677  0.31745183  0.94081663  1
  O  O70  1  0.07132107  0.74650143  0.69168498  1
  O  O71  1  0.62443281  0.95652175  0.93919028  1
  O  O72  1  0.06339944  0.70229590  0.19133292  1
  O  O73  1  0.22114718  0.18774529  0.06685686  1
  O  O74  1  0.23891349  0.01417147  0.18119045  1
  O  O75  1  0.91765099  0.88048400  0.20052942  1
  O  O76  1  0.48797341  0.13820088  0.43326365  1
  O  O77  1  0.95652175  0.62443281  0.43919028  1
  O  O78  1  0.46410946  0.77906091  0.31647675  1
  O  O79  1  0.81225471  0.77885282  0.43314314  1
  O  O80  1  0.95591778  0.79795324  0.81977111  1
  O  O81  1  0.62847825  0.11579584  0.31799234  1
  O  O82  1  0.77906091  0.46410946  0.81647675  1
  O  O83  1  0.84901291  0.50921247  0.55496769  1
  O  O84  1  0.50921247  0.84901291  0.05496769  1
  O  O85  1  0.77885282  0.81225471  0.93314314  1
  O  O86  1  0.76108651  0.98582853  0.81880955  1
  O  O87  1  0.67576323  0.68254817  0.05918337  1
  O  O88  1  0.29770410  0.93660056  0.30866708  1
  O  O89  1  0.93660056  0.29770410  0.80866708  1
  O  O90  1  0.03036791  0.34402043  0.07525374  1
  O  O91  1  0.96963209  0.65597957  0.92474626  1
  O  O92  1  0.15098709  0.49078753  0.44503231  1
  O  O93  1  0.53145410  0.35670865  0.05233519  1
  O  O94  1  0.04408222  0.20204676  0.18022889  1
  O  O95  1  0.86179912  0.51202659  0.06673635  1
  O  O96  1  0.22093909  0.53589054  0.18352325  1
  O  O97  1  0.44123870  0.78151960  0.80371754  1
  O  O98  1  0.65597957  0.96963209  0.42474626  1
  O  O99  1  0.51044879  0.34884826  0.56049996  1
  O  O100  1  0.34884826  0.51044879  0.06049996  1
  O  O101  1  0.15058237  0.98710531  0.94226846  1
  O  O102  1  0.98710531  0.15058237  0.44226846  1
  O  O103  1  0.21848040  0.55876130  0.69628246  1
  O  O104  1  0.68254817  0.67576323  0.55918337  1
  O  O105  1  0.64329135  0.46854590  0.44766481  1
  O  O106  1  0.84941763  0.01289469  0.05773154  1
  O  O107  1  0.37556719  0.04347825  0.06080972  1
  O  O108  1  0.01417147  0.23891349  0.68119045  1
  O  O109  1  0.04347825  0.37556719  0.56080972  1
  O  O110  1  0.18774529  0.22114718  0.56685686  1
  O  O111  1  0.35670865  0.53145410  0.55233519  1
  O  O112  1  0.25349857  0.92867893  0.80831502  1
  O  O113  1  0.65115174  0.48955121  0.93950004  1
  O  O114  1  0.30344608  0.81565732  0.94924176  1
  O  O115  1  0.20204676  0.04408222  0.68022889  1
  O  O116  1  0.78151960  0.44123870  0.30371754  1
  O  O117  1  0.31745183  0.32423677  0.44081663  1
  O  O118  1  0.13820088  0.48797341  0.93326365  1
  O  O119  1  0.32771883  0.81466112  0.43028513  1
  O  O120  1  0.88420416  0.37152175  0.18200766  1
  O  O121  1  0.63886098  0.61564775  0.31520668  1
  O  O122  1  0.49078753  0.15098709  0.94503231  1
  O  O123  1  0.08234901  0.11951600  0.79947058  1
  O  O124  1  0.38435225  0.36113902  0.18479332  1
  O  O125  1  0.79795324  0.95591778  0.31977111  1
