# generated using pymatgen
data_Li9Ga3P8O29
_symmetry_space_group_name_H-M   'P 1'
_cell_length_a   9.78115312
_cell_length_b   9.78115316
_cell_length_c   13.74601434
_cell_angle_alpha   90.00000000
_cell_angle_beta   90.00000000
_cell_angle_gamma   119.99999985
_symmetry_Int_Tables_number   1
_chemical_formula_structural   Li9Ga3P8O29
_chemical_formula_sum   'Li18 Ga6 P16 O58'
_cell_volume   1138.90511178
_cell_formula_units_Z   2
loop_
 _symmetry_equiv_pos_site_id
 _symmetry_equiv_pos_as_xyz
  1  'x, y, z'
loop_
 _atom_site_type_symbol
 _atom_site_label
 _atom_site_symmetry_multiplicity
 _atom_site_fract_x
 _atom_site_fract_y
 _atom_site_fract_z
 _atom_site_occupancy
  Li  Li0  1  0.23503963  0.89817983  0.43654450  1
  Li  Li1  1  0.89817983  0.66314020  0.56345550  1
  Li  Li2  1  0.10182017  0.76496037  0.93654450  1
  Li  Li3  1  0.76496037  0.10182017  0.56345550  1
  Li  Li4  1  0.33333300  0.66666700  0.61971375  1
  Li  Li5  1  0.76496037  0.66314020  0.06345550  1
  Li  Li6  1  0.23503963  0.33685980  0.93654450  1
  Li  Li7  1  0.33685980  0.23503963  0.56345550  1
  Li  Li8  1  0.66666700  0.33333300  0.88028625  1
  Li  Li9  1  0.33685980  0.10182017  0.06345550  1
  Li  Li10  1  0.00000000  0.00000000  0.50000000  1
  Li  Li11  1  0.89817983  0.23503963  0.06345550  1
  Li  Li12  1  0.66666700  0.33333300  0.38028625  1
  Li  Li13  1  0.66314020  0.76496037  0.43654450  1
  Li  Li14  1  0.66314020  0.89817983  0.93654450  1
  Li  Li15  1  0.10182017  0.33685980  0.43654450  1
  Li  Li16  1  0.33333300  0.66666700  0.11971375  1
  Li  Li17  1  0.00000000  0.00000000  0.00000000  1
  Ga  Ga18  1  1.00000000  0.56509162  0.75000000  1
  Ga  Ga19  1  0.43490838  0.43490838  0.75000000  1
  Ga  Ga20  1  0.56509162  0.00000000  0.75000000  1
  Ga  Ga21  1  0.43490838  0.00000000  0.25000000  1
  Ga  Ga22  1  0.00000000  0.43490838  0.25000000  1
  Ga  Ga23  1  0.56509162  0.56509162  0.25000000  1
  P  P24  1  0.66666700  0.33333300  0.12536174  1
  P  P25  1  0.77351487  0.68193388  0.84364982  1
  P  P26  1  0.68193388  0.77351487  0.65635018  1
  P  P27  1  0.66666700  0.33333300  0.62536174  1
  P  P28  1  0.31806612  0.09158099  0.84364982  1
  P  P29  1  0.22648513  0.90841901  0.65635018  1
  P  P30  1  0.77351487  0.09158099  0.34364982  1
  P  P31  1  0.33333300  0.66666700  0.37463826  1
  P  P32  1  0.90841901  0.22648513  0.84364982  1
  P  P33  1  0.09158099  0.31806612  0.65635018  1
  P  P34  1  0.33333300  0.66666700  0.87463826  1
  P  P35  1  0.09158099  0.77351487  0.15635018  1
  P  P36  1  0.68193388  0.90841901  0.15635018  1
  P  P37  1  0.22648513  0.31806612  0.15635018  1
  P  P38  1  0.90841901  0.68193388  0.34364982  1
  P  P39  1  0.31806612  0.22648513  0.34364982  1
  O  O40  1  0.00000000  0.78662781  0.25000000  1
  O  O41  1  0.81264244  0.32433162  0.16352064  1
  O  O42  1  0.51168918  0.18735756  0.16352064  1
  O  O43  1  0.62662010  0.10956901  0.33285119  1
  O  O44  1  0.51168918  0.32433162  0.66352064  1
  O  O45  1  0.48831082  0.81264244  0.83647936  1
  O  O46  1  0.22686413  -0.00047306  0.93321096  1
  O  O47  1  0.89043099  0.51705110  0.33285119  1
  O  O48  1  0.78662781  0.78662781  0.75000000  1
  O  O49  1  0.25473977  0.33149579  0.65663448  1
  O  O50  1  0.10956901  0.62662010  0.16714881  1
  O  O51  1  0.33149579  0.25473977  0.84336552  1
  O  O52  1  0.67566838  0.18735756  0.66352064  1
  O  O53  1  0.18735756  0.67566838  0.83647936  1
  O  O54  1  0.18735756  0.51168918  0.33647936  1
  O  O55  1  0.37337990  0.89043099  0.66714881  1
  O  O56  1  0.92324398  0.25473977  0.34336552  1
  O  O57  1  0.78662781  0.00000000  0.25000000  1
  O  O58  1  0.22733719  1.00047306  0.56678904  1
  O  O59  1  0.66666700  0.33333300  0.51510078  1
  O  O60  1  0.10956901  0.48294890  0.66714881  1
  O  O61  1  0.21337219  0.00000000  0.75000000  1
  O  O62  1  0.67566838  0.48831082  0.16352064  1
  O  O63  1  0.33149579  0.07675602  0.34336552  1
  O  O64  1  0.51705110  0.89043099  0.16714881  1
  O  O65  1  -0.00047306  0.22686413  0.56678904  1
  O  O66  1  1.00000000  0.21337219  0.75000000  1
  O  O67  1  0.33333300  0.66666700  0.48489922  1
  O  O68  1  0.22733719  0.22686413  0.06678904  1
  O  O69  1  0.77313587  1.00047306  0.06678904  1
  O  O70  1  0.48831082  0.67566838  0.33647936  1
  O  O71  1  0.62662010  0.51705110  0.83285119  1
  O  O72  1  0.77266281  -0.00047306  0.43321096  1
  O  O73  1  0.66850421  0.74526023  0.15663448  1
  O  O74  1  -0.00047306  0.77266281  0.06678904  1
  O  O75  1  0.77266281  0.77313587  0.93321096  1
  O  O76  1  0.48294890  0.10956901  0.83285119  1
  O  O77  1  0.32433162  0.51168918  0.83647936  1
  O  O78  1  0.51705110  0.62662010  0.66714881  1
  O  O79  1  0.74526023  0.66850421  0.34336552  1
  O  O80  1  0.66850421  0.92324398  0.65663448  1
  O  O81  1  0.25473977  0.92324398  0.15663448  1
  O  O82  1  1.00047306  0.77313587  0.43321096  1
  O  O83  1  0.32433162  0.81264244  0.33647936  1
  O  O84  1  0.81264244  0.48831082  0.66352064  1
  O  O85  1  0.92324398  0.66850421  0.84336552  1
  O  O86  1  0.37337990  0.48294890  0.16714881  1
  O  O87  1  0.66666700  0.33333300  0.01510078  1
  O  O88  1  0.07675602  0.33149579  0.15663448  1
  O  O89  1  0.07675602  0.74526023  0.65663448  1
  O  O90  1  0.48294890  0.37337990  0.33285119  1
  O  O91  1  0.77313587  0.77266281  0.56678904  1
  O  O92  1  0.33333300  0.66666700  0.98489922  1
  O  O93  1  0.89043099  0.37337990  0.83285119  1
  O  O94  1  0.22686413  0.22733719  0.43321096  1
  O  O95  1  1.00047306  0.22733719  0.93321096  1
  O  O96  1  0.74526023  0.07675602  0.84336552  1
  O  O97  1  0.21337219  0.21337219  0.25000000  1
