# generated using pymatgen
data_Li2Ca2Si5O13
_symmetry_space_group_name_H-M   'P 1'
_cell_length_a   7.59095622
_cell_length_b   7.85936930
_cell_length_c   10.31246971
_cell_angle_alpha   83.24570124
_cell_angle_beta   68.82159110
_cell_angle_gamma   75.79281901
_symmetry_Int_Tables_number   1
_chemical_formula_structural   Li2Ca2Si5O13
_chemical_formula_sum   'Li4 Ca4 Si10 O26'
_cell_volume   555.85801688
_cell_formula_units_Z   2
loop_
 _symmetry_equiv_pos_site_id
 _symmetry_equiv_pos_as_xyz
  1  'x, y, z'
loop_
 _atom_site_type_symbol
 _atom_site_label
 _atom_site_symmetry_multiplicity
 _atom_site_fract_x
 _atom_site_fract_y
 _atom_site_fract_z
 _atom_site_occupancy
  Li  Li0  1  0.16207167  0.40851936  0.74808077  1
  Li  Li1  1  0.83792833  0.59148064  0.25191923  1
  Li  Li2  1  0.17703044  0.07747812  0.87357482  1
  Li  Li3  1  0.82296956  0.92252188  0.12642518  1
  Ca  Ca4  1  0.45107587  0.85266866  0.39120479  1
  Ca  Ca5  1  0.54892413  0.14733134  0.60879521  1
  Ca  Ca6  1  0.97626507  0.83292947  0.39395605  1
  Ca  Ca7  1  0.02373493  0.16707053  0.60604395  1
  Si  Si8  1  0.73505006  0.23209344  0.26612384  1
  Si  Si9  1  0.63553129  0.69866240  0.03870885  1
  Si  Si10  1  0.78167737  0.30791293  0.96215667  1
  Si  Si11  1  0.26494994  0.76790656  0.73387616  1
  Si  Si12  1  0.68461232  0.55074411  0.59213224  1
  Si  Si13  1  0.36446871  0.30133760  0.96129115  1
  Si  Si14  1  0.31538768  0.44925589  0.40786776  1
  Si  Si15  1  0.85395384  0.77119956  0.73600558  1
  Si  Si16  1  0.14604616  0.22880044  0.26399442  1
  Si  Si17  1  0.21832263  0.69208707  0.03784333  1
  O  O18  1  0.28893756  0.17893412  0.10366797  1
  O  O19  1  0.77881000  0.50205894  0.00650473  1
  O  O20  1  0.07643796  0.69188422  0.74123173  1
  O  O21  1  0.29788232  0.94217305  0.63609578  1
  O  O22  1  0.74567111  0.34051433  0.57746530  1
  O  O23  1  0.78113956  0.17628138  0.10321447  1
  O  O24  1  0.65165898  0.77416214  0.17082519  1
  O  O25  1  0.34834102  0.22583786  0.82917481  1
  O  O26  1  0.92356204  0.30811578  0.25876827  1
  O  O27  1  0.02903339  0.76418799  0.16743367  1
  O  O28  1  0.84126717  0.94126531  0.63200771  1
  O  O29  1  0.70211768  0.05782695  0.36390422  1
  O  O30  1  0.71106244  0.82106588  0.89633203  1
  O  O31  1  0.25432889  0.65948567  0.42253470  1
  O  O32  1  0.97096661  0.23581201  0.83256633  1
  O  O33  1  0.21886044  0.82371862  0.89678553  1
  O  O34  1  0.41441881  0.68789970  0.06702863  1
  O  O35  1  0.19598399  0.39477486  0.31610815  1
  O  O36  1  0.44902451  0.60207643  0.68875382  1
  O  O37  1  0.15873283  0.05873469  0.36799229  1
  O  O38  1  0.80401601  0.60522514  0.68389185  1
  O  O39  1  0.58558119  0.31210030  0.93297137  1
  O  O40  1  0.27758658  0.32875436  0.55120323  1
  O  O41  1  0.72241342  0.67124564  0.44879677  1
  O  O42  1  0.55097549  0.39792357  0.31124618  1
  O  O43  1  0.22119000  0.49794106  0.99349527  1
