# generated using pymatgen
data_KCu4(PO4)3
_symmetry_space_group_name_H-M   'P 1'
_cell_length_a   7.53348593
_cell_length_b   7.92450249
_cell_length_c   9.61166302
_cell_angle_alpha   108.12777205
_cell_angle_beta   112.77590349
_cell_angle_gamma   92.32652464
_symmetry_Int_Tables_number   1
_chemical_formula_structural   KCu4(PO4)3
_chemical_formula_sum   'K2 Cu8 P6 O24'
_cell_volume   494.24105050
_cell_formula_units_Z   2
loop_
 _symmetry_equiv_pos_site_id
 _symmetry_equiv_pos_as_xyz
  1  'x, y, z'
loop_
 _atom_site_type_symbol
 _atom_site_label
 _atom_site_symmetry_multiplicity
 _atom_site_fract_x
 _atom_site_fract_y
 _atom_site_fract_z
 _atom_site_occupancy
  K  K0  1  0.69394022  0.86421841  0.67244453  1
  K  K1  1  0.30605978  0.13578159  0.32755547  1
  Cu  Cu2  1  0.73542413  0.10004574  0.09971484  1
  Cu  Cu3  1  0.69351177  0.38205677  0.71423628  1
  Cu  Cu4  1  0.26457587  0.89995426  0.90028516  1
  Cu  Cu5  1  0.30648823  0.61794323  0.28576372  1
  Cu  Cu6  1  0.73601395  0.46818888  0.07688293  1
  Cu  Cu7  1  0.26398605  0.53181112  0.92311707  1
  Cu  Cu8  1  0.02335980  0.79066990  0.45385775  1
  Cu  Cu9  1  0.97664020  0.20933010  0.54614225  1
  P  P10  1  0.29859710  0.55152861  0.61413218  1
  P  P11  1  0.38335826  0.14752106  0.74864213  1
  P  P12  1  0.70140290  0.44847139  0.38586782  1
  P  P13  1  0.97864354  0.74861828  0.05590428  1
  P  P14  1  0.02135646  0.25138172  0.94409572  1
  P  P15  1  0.61664174  0.85247894  0.25135787  1
  O  O16  1  0.81757678  0.57551505  0.94821199  1
  O  O17  1  0.55103620  0.98323489  0.15473188  1
  O  O18  1  0.25049897  0.67631979  0.51045409  1
  O  O19  1  0.89536578  0.92028311  0.06328998  1
  O  O20  1  0.18242322  0.42448495  0.05178801  1
  O  O21  1  0.13326662  0.74461448  0.98286854  1
  O  O22  1  0.44896380  0.01676511  0.84526812  1
  O  O23  1  0.51495735  0.53896463  0.65643419  1
  O  O24  1  0.08294580  0.74086110  0.22970718  1
  O  O25  1  0.40485797  0.33937684  0.86554785  1
  O  O26  1  0.26917316  0.64838237  0.77175644  1
  O  O27  1  0.86673338  0.25538552  0.01713146  1
  O  O28  1  0.51283880  0.15156702  0.65824498  1
  O  O29  1  0.83801080  0.63371000  0.48048303  1
  O  O30  1  0.73082684  0.35161763  0.22824356  1
  O  O31  1  0.83418676  0.93655284  0.37707412  1
  O  O32  1  0.10463422  0.07971689  0.93671002  1
  O  O33  1  0.91705420  0.25913890  0.77029282  1
  O  O34  1  0.16198920  0.36629000  0.51951697  1
  O  O35  1  0.59514203  0.66062316  0.13445215  1
  O  O36  1  0.74950103  0.32368021  0.48954591  1
  O  O37  1  0.48716120  0.84843298  0.34175502  1
  O  O38  1  0.48504265  0.46103537  0.34356581  1
  O  O39  1  0.16581324  0.06344716  0.62292588  1
