# generated using pymatgen
data_CaHf4O9
_symmetry_space_group_name_H-M   'P 1'
_cell_length_a   11.48200230
_cell_length_b   11.48200170
_cell_length_c   12.03851759
_cell_angle_alpha   67.88418325
_cell_angle_beta   67.88418446
_cell_angle_gamma   79.18231689
_symmetry_Int_Tables_number   1
_chemical_formula_structural   CaHf4O9
_chemical_formula_sum   'Ca8 Hf32 O72'
_cell_volume   1360.20791110
_cell_formula_units_Z   8
loop_
 _symmetry_equiv_pos_site_id
 _symmetry_equiv_pos_as_xyz
  1  'x, y, z'
loop_
 _atom_site_type_symbol
 _atom_site_label
 _atom_site_symmetry_multiplicity
 _atom_site_fract_x
 _atom_site_fract_y
 _atom_site_fract_z
 _atom_site_occupancy
  Ca  Ca0  1  0.11345085  0.48854847  0.85025827  1
  Ca  Ca1  1  0.51145153  0.88654915  0.64974173  1
  Ca  Ca2  1  0.48854847  0.11345085  0.35025827  1
  Ca  Ca3  1  0.93693942  0.06306058  0.75000000  1
  Ca  Ca4  1  0.06306058  0.93693942  0.25000000  1
  Ca  Ca5  1  0.43612719  0.56387281  0.75000000  1
  Ca  Ca6  1  0.56387281  0.43612719  0.25000000  1
  Ca  Ca7  1  0.88654915  0.51145153  0.14974173  1
  Hf  Hf8  1  0.62525005  0.00650886  0.82244916  1
  Hf  Hf9  1  0.93590961  0.84859695  0.06423747  1
  Hf  Hf10  1  0.15140305  0.06409039  0.43576253  1
  Hf  Hf11  1  0.81474867  0.18525133  0.25000000  1
  Hf  Hf12  1  0.30412186  0.93497227  0.94917165  1
  Hf  Hf13  1  0.06409039  0.15140305  0.93576253  1
  Hf  Hf14  1  0.58333698  0.21096787  0.55117127  1
  Hf  Hf15  1  0.48431112  0.33479541  0.04959896  1
  Hf  Hf16  1  0.31241014  0.68758986  0.25000000  1
  Hf  Hf17  1  0.11724757  0.25653797  0.15111948  1
  Hf  Hf18  1  0.69587814  0.06502773  0.05082835  1
  Hf  Hf19  1  0.99349114  0.37474995  0.67755084  1
  Hf  Hf20  1  0.25079185  0.35867000  0.37975201  1
  Hf  Hf21  1  0.33479541  0.48431112  0.54959896  1
  Hf  Hf22  1  0.51568888  0.66520459  0.95040104  1
  Hf  Hf23  1  0.25653797  0.11724757  0.65111948  1
  Hf  Hf24  1  0.00650886  0.62525005  0.32244916  1
  Hf  Hf25  1  0.37474995  0.99349114  0.17755084  1
  Hf  Hf26  1  0.35867000  0.25079185  0.87975201  1
  Hf  Hf27  1  0.18525133  0.81474867  0.75000000  1
  Hf  Hf28  1  0.93497227  0.30412186  0.44917165  1
  Hf  Hf29  1  0.66520459  0.51568888  0.45040104  1
  Hf  Hf30  1  0.74346203  0.88275243  0.34888052  1
  Hf  Hf31  1  0.88275243  0.74346203  0.84888052  1
  Hf  Hf32  1  0.64133000  0.74920815  0.12024799  1
  Hf  Hf33  1  0.41666302  0.78903213  0.44882873  1
  Hf  Hf34  1  0.84859695  0.93590961  0.56423747  1
  Hf  Hf35  1  0.78903213  0.41666302  0.94882873  1
  Hf  Hf36  1  0.74920815  0.64133000  0.62024799  1
  Hf  Hf37  1  0.68758986  0.31241014  0.75000000  1
  Hf  Hf38  1  0.21096787  0.58333698  0.05117127  1
  Hf  Hf39  1  0.06502773  0.69587814  0.55082835  1
  O  O40  1  0.73218377  0.31766375  0.52232562  1
  O  O41  1  0.09946481  0.44726406  0.07978115  1
  O  O42  1  0.39332835  0.06270661  0.97987657  1
  O  O43  1  0.44726406  0.09946481  0.57978115  1
  O  O44  1  0.89441312  0.04530741  0.97859276  1
  O  O45  1  0.34971014  0.50810526  0.36296702  1
  O  O46  1  0.55273594  0.90053519  0.42021885  1
  O  O47  1  0.49189474  0.65028986  0.13703298  1
  O  O48  1  0.48441624  0.60630693  0.50780435  1
  O  O49  1  0.67266794  0.57946014  0.26290901  1
  O  O50  1  0.35937743  0.77961969  0.63132481  1
  O  O51  1  0.39369307  0.51558376  0.99219565  1
  O  O52  1  0.68235558  0.72589570  0.94133900  1
  O  O53  1  0.57946014  0.67266794  0.76290901  1
  O  O54  1  0.32188121  0.95993491  0.37803452  1
  O  O55  1  0.67811879  0.04006509  0.62196548  1
  O  O56  1  0.93729339  0.60667165  0.52012343  1
  O  O57  1  0.50810526  0.34971014  0.86296702  1
  O  O58  1  0.99341192  0.14830510  0.12807865  1
  O  O59  1  0.13123588  0.26493324  0.32789456  1
  O  O60  1  0.27410430  0.31764442  0.55866100  1
  O  O61  1  0.42053986  0.32733206  0.23709099  1
  O  O62  1  0.72100470  0.12320337  0.84911724  1
  O  O63  1  0.49526491  0.88394811  0.85695556  1
  O  O64  1  0.22038031  0.64062257  0.86867519  1
  O  O65  1  0.04006509  0.67811879  0.12196548  1
  O  O66  1  0.27954371  0.92635982  0.78606120  1
  O  O67  1  0.72589570  0.68235558  0.44133900  1
  O  O68  1  0.90053519  0.55273594  0.92021885  1
  O  O69  1  0.45659131  0.80640696  0.25420850  1
  O  O70  1  0.12320337  0.72100470  0.34911724  1
  O  O71  1  0.87679663  0.27899530  0.65088276  1
  O  O72  1  0.64062257  0.22038031  0.36867519  1
  O  O73  1  0.19359304  0.54340869  0.24579150  1
  O  O74  1  0.81074036  0.92424542  0.75918924  1
  O  O75  1  0.77961969  0.35937743  0.13132481  1
  O  O76  1  0.83618343  0.72583137  0.04356567  1
  O  O77  1  0.26493324  0.13123588  0.82789456  1
  O  O78  1  0.92424542  0.81074036  0.25918924  1
  O  O79  1  0.60667165  0.93729339  0.02012343  1
  O  O80  1  0.95993491  0.32188121  0.87803452  1
  O  O81  1  0.95469259  0.10558688  0.52140724  1
  O  O82  1  0.14830510  0.99341192  0.62807865  1
  O  O83  1  0.86876412  0.73506676  0.67210544  1
  O  O84  1  0.51558376  0.39369307  0.49219565  1
  O  O85  1  0.11605189  0.50473509  0.64304444  1
  O  O86  1  0.80640696  0.45659131  0.75420850  1
  O  O87  1  0.06270661  0.39332835  0.47987657  1
  O  O88  1  0.04530741  0.89441312  0.47859276  1
  O  O89  1  0.31764442  0.27410430  0.05866100  1
  O  O90  1  0.85169490  0.00658808  0.37192135  1
  O  O91  1  0.72045629  0.07364018  0.21393880  1
  O  O92  1  0.92635982  0.27954371  0.28606120  1
  O  O93  1  0.26781623  0.68233625  0.47767438  1
  O  O94  1  0.88394811  0.49526491  0.35695556  1
  O  O95  1  0.31766375  0.73218377  0.02232562  1
  O  O96  1  0.07364018  0.72045629  0.71393880  1
  O  O97  1  0.50473509  0.11605189  0.14304444  1
  O  O98  1  0.72583137  0.83618343  0.54356567  1
  O  O99  1  0.65028986  0.49189474  0.63703298  1
  O  O100  1  0.73506676  0.86876412  0.17210544  1
  O  O101  1  0.18925964  0.07575458  0.24081076  1
  O  O102  1  0.00658808  0.85169490  0.87192135  1
  O  O103  1  0.16381657  0.27416863  0.95643433  1
  O  O104  1  0.10558688  0.95469259  0.02140724  1
  O  O105  1  0.54340869  0.19359304  0.74579150  1
  O  O106  1  0.27899530  0.87679663  0.15088276  1
  O  O107  1  0.60630693  0.48441624  0.00780435  1
  O  O108  1  0.27416863  0.16381657  0.45643433  1
  O  O109  1  0.68233625  0.26781623  0.97767438  1
  O  O110  1  0.07575458  0.18925964  0.74081076  1
  O  O111  1  0.32733206  0.42053986  0.73709099  1
