# generated using pymatgen
data_SrBi2B2O7
_symmetry_space_group_name_H-M   'P 1'
_cell_length_a   9.22214486
_cell_length_b   9.22214522
_cell_length_c   13.24999716
_cell_angle_alpha   90.00000000
_cell_angle_beta   90.00000000
_cell_angle_gamma   119.99999874
_symmetry_Int_Tables_number   1
_chemical_formula_structural   SrBi2B2O7
_chemical_formula_sum   'Sr6 Bi12 B12 O42'
_cell_volume   975.91123759
_cell_formula_units_Z   6
loop_
 _symmetry_equiv_pos_site_id
 _symmetry_equiv_pos_as_xyz
  1  'x, y, z'
loop_
 _atom_site_type_symbol
 _atom_site_label
 _atom_site_symmetry_multiplicity
 _atom_site_fract_x
 _atom_site_fract_y
 _atom_site_fract_z
 _atom_site_occupancy
  Sr  Sr0  1  0.36176159  0.04589181  0.99908630  1
  Sr  Sr1  1  0.31586978  0.36176159  0.49908630  1
  Sr  Sr2  1  0.68413022  0.63823841  0.99908630  1
  Sr  Sr3  1  0.95410819  0.31586978  0.99908630  1
  Sr  Sr4  1  0.63823841  0.95410819  0.49908630  1
  Sr  Sr5  1  0.04589181  0.68413022  0.49908630  1
  Bi  Bi6  1  0.03115422  0.67411990  0.15754053  1
  Bi  Bi7  1  0.35719117  0.03100133  0.34060092  1
  Bi  Bi8  1  0.03100133  0.67381016  0.84060092  1
  Bi  Bi9  1  0.32618984  0.35719117  0.84060092  1
  Bi  Bi10  1  0.64296567  0.96884578  0.15754053  1
  Bi  Bi11  1  0.67411990  0.64296567  0.65754053  1
  Bi  Bi12  1  0.67381016  0.64280883  0.34060092  1
  Bi  Bi13  1  0.96884578  0.32588010  0.65754053  1
  Bi  Bi14  1  0.35703433  0.03115422  0.65754053  1
  Bi  Bi15  1  0.32588010  0.35703433  0.15754053  1
  Bi  Bi16  1  0.96899867  0.32618984  0.34060092  1
  Bi  Bi17  1  0.64280883  0.96899867  0.84060092  1
  B  B18  1  0.66666700  0.33333300  0.61496497  1
  B  B19  1  0.66666700  0.33333300  0.83404719  1
  B  B20  1  0.33333300  0.66666700  0.66435093  1
  B  B21  1  0.00000000  0.00000000  0.13256771  1
  B  B22  1  0.33333300  0.66666700  0.33404719  1
  B  B23  1  0.00000000  0.00000000  0.63256771  1
  B  B24  1  0.00000000  0.00000000  0.86470101  1
  B  B25  1  0.66666700  0.33333300  0.38368978  1
  B  B26  1  0.00000000  0.00000000  0.36470101  1
  B  B27  1  0.33333300  0.66666700  0.11496497  1
  B  B28  1  0.33333300  0.66666700  0.88368978  1
  B  B29  1  0.66666700  0.33333300  0.16435093  1
  O  O30  1  0.16920151  0.11679047  0.63183700  1
  O  O31  1  0.94754253  0.83077829  0.36546273  1
  O  O32  1  0.49530091  0.80467054  0.66357506  1
  O  O33  1  0.94758897  0.83079849  0.63183700  1
  O  O34  1  0.19469520  0.50854790  0.88090719  1
  O  O35  1  0.31468320  0.80583365  0.11770998  1
  O  O36  1  0.31385270  0.80530480  0.88090719  1
  O  O37  1  0.11676424  0.94754253  0.86546273  1
  O  O38  1  0.50884955  0.31468320  0.61770998  1
  O  O39  1  0.61587097  0.65375172  0.49909535  1
  O  O40  1  0.96211925  0.61587097  0.99909535  1
  O  O41  1  0.69063037  0.49530091  0.16357506  1
  O  O42  1  0.19532946  0.69063037  0.66357506  1
  O  O43  1  0.88323576  0.05245747  0.36546273  1
  O  O44  1  0.03788075  0.38412903  0.49909535  1
  O  O45  1  0.31038203  0.50510009  0.33481108  1
  O  O46  1  0.83077829  0.88323576  0.86546273  1
  O  O47  1  0.19416635  0.50884955  0.11770998  1
  O  O48  1  0.83079849  0.88320953  0.13183700  1
  O  O49  1  0.50854790  0.31385270  0.38090719  1
  O  O50  1  0.30936963  0.50469909  0.66357506  1
  O  O51  1  0.49145210  0.68614730  0.88090719  1
  O  O52  1  0.50510009  0.19471807  0.83481108  1
  O  O53  1  0.50469909  0.19532946  0.16357506  1
  O  O54  1  0.68531680  0.19416635  0.61770998  1
  O  O55  1  0.11679047  0.94758897  0.13183700  1
  O  O56  1  0.68961797  0.49489991  0.83481108  1
  O  O57  1  0.34624828  0.96211925  0.49909535  1
  O  O58  1  0.38412903  0.34624828  0.99909535  1
  O  O59  1  0.05245747  0.16922171  0.86546273  1
  O  O60  1  0.49115045  0.68531680  0.11770998  1
  O  O61  1  0.68614730  0.19469520  0.38090719  1
  O  O62  1  0.05241103  0.16920151  0.13183700  1
  O  O63  1  0.88320953  0.05241103  0.63183700  1
  O  O64  1  0.80467054  0.30936963  0.16357506  1
  O  O65  1  0.16922171  0.11676424  0.36546273  1
  O  O66  1  0.80530480  0.49145210  0.38090719  1
  O  O67  1  0.65375172  0.03788075  0.99909535  1
  O  O68  1  0.19471807  0.68961797  0.33481108  1
  O  O69  1  0.80528193  0.31038203  0.83481108  1
  O  O70  1  0.80583365  0.49115045  0.61770998  1
  O  O71  1  0.49489991  0.80528193  0.33481108  1
