# generated using pymatgen
data_SrLi2Nb2O7
_symmetry_space_group_name_H-M   'P 1'
_cell_length_a   5.66558279
_cell_length_b   5.67659730
_cell_length_c   9.59698203
_cell_angle_alpha   107.20246725
_cell_angle_beta   90.00000000
_cell_angle_gamma   90.00000000
_symmetry_Int_Tables_number   1
_chemical_formula_structural   SrLi2Nb2O7
_chemical_formula_sum   'Sr2 Li4 Nb4 O14'
_cell_volume   294.84346681
_cell_formula_units_Z   2
loop_
 _symmetry_equiv_pos_site_id
 _symmetry_equiv_pos_as_xyz
  1  'x, y, z'
loop_
 _atom_site_type_symbol
 _atom_site_label
 _atom_site_symmetry_multiplicity
 _atom_site_fract_x
 _atom_site_fract_y
 _atom_site_fract_z
 _atom_site_occupancy
  Sr  Sr0  1  0.75000000  0.25506179  0.00000000  1
  Sr  Sr1  1  0.25000000  0.74493821  1.00000000  1
  Li  Li2  1  0.00000000  0.73841554  0.47683109  1
  Li  Li3  1  0.00000000  0.26158446  0.52316891  1
  Li  Li4  1  0.50000000  0.26158446  0.52316891  1
  Li  Li5  1  0.50000000  0.73841554  0.47683109  1
  Nb  Nb6  1  0.25000000  0.13078835  0.76922538  1
  Nb  Nb7  1  0.75000000  0.63843704  0.76922538  1
  Nb  Nb8  1  0.75000000  0.86921165  0.23077462  1
  Nb  Nb9  1  0.25000000  0.36156296  0.23077462  1
  O  O10  1  0.00000000  0.38368828  0.76737656  1
  O  O11  1  0.50000000  0.09480194  0.18960388  1
  O  O12  1  0.50000000  0.61631172  0.23262344  1
  O  O13  1  0.75000000  0.99929808  0.43646186  1
  O  O14  1  0.25000000  0.29698369  1.00000000  1
  O  O15  1  0.00000000  0.09480194  0.18960388  1
  O  O16  1  0.50000000  0.38368828  0.76737656  1
  O  O17  1  0.25000000  0.43716378  0.43646186  1
  O  O18  1  0.75000000  0.70301631  0.00000000  1
  O  O19  1  0.75000000  0.56283622  0.56353814  1
  O  O20  1  0.00000000  0.61631172  0.23262344  1
  O  O21  1  0.25000000  0.00070192  0.56353814  1
  O  O22  1  0.00000000  0.90519806  0.81039612  1
  O  O23  1  0.50000000  0.90519806  0.81039612  1
