# generated using pymatgen
data_SrTa2Bi2O9
_symmetry_space_group_name_H-M   'P 1'
_cell_length_a   5.59382368
_cell_length_b   5.61560131
_cell_length_c   13.05977052
_cell_angle_alpha   102.41530526
_cell_angle_beta   90.00000000
_cell_angle_gamma   90.00000000
_symmetry_Int_Tables_number   1
_chemical_formula_structural   SrTa2Bi2O9
_chemical_formula_sum   'Sr2 Ta4 Bi4 O18'
_cell_volume   400.64887075
_cell_formula_units_Z   2
loop_
 _symmetry_equiv_pos_site_id
 _symmetry_equiv_pos_as_xyz
  1  'x, y, z'
loop_
 _atom_site_type_symbol
 _atom_site_label
 _atom_site_symmetry_multiplicity
 _atom_site_fract_x
 _atom_site_fract_y
 _atom_site_fract_z
 _atom_site_occupancy
  Sr  Sr0  1  0.00000000  0.01913485  0.00000000  1
  Sr  Sr1  1  0.50000000  0.51913485  0.00000000  1
  Ta  Ta2  1  0.49705884  0.09872666  0.16666212  1
  Ta  Ta3  1  0.50294116  0.93206454  0.83333788  1
  Ta  Ta4  1  0.00294116  0.59872666  0.16666212  1
  Ta  Ta5  1  0.99705884  0.43206454  0.83333788  1
  Bi  Bi6  1  0.02164907  0.11967739  0.40082737  1
  Bi  Bi7  1  0.97835093  0.71885002  0.59917263  1
  Bi  Bi8  1  0.52164907  0.21885002  0.59917263  1
  Bi  Bi9  1  0.47835093  0.61967739  0.40082737  1
  O  O10  1  0.53583534  0.88215668  0.68506054  1
  O  O11  1  0.73936541  0.46087276  0.49786989  1
  O  O12  1  0.26063459  0.96300288  0.50213011  1
  O  O13  1  0.96416466  0.38215668  0.68506054  1
  O  O14  1  0.00000000  0.52561182  0.00000000  1
  O  O15  1  0.50000000  0.02561182  0.00000000  1
  O  O16  1  0.73168655  0.83132227  0.15567351  1
  O  O17  1  0.26831345  0.67564876  0.84432649  1
  O  O18  1  0.26848137  0.36451183  0.14648842  1
  O  O19  1  0.23936541  0.46300288  0.50213011  1
  O  O20  1  0.23151863  0.86451183  0.14648842  1
  O  O21  1  0.23168655  0.17564876  0.84432649  1
  O  O22  1  0.76848137  0.71802341  0.85351158  1
  O  O23  1  0.76831345  0.33132227  0.15567351  1
  O  O24  1  0.03583534  0.69709614  0.31493946  1
  O  O25  1  0.73151863  0.21802341  0.85351158  1
  O  O26  1  0.46416466  0.19709614  0.31493946  1
  O  O27  1  0.76063459  0.96087276  0.49786989  1
