# generated using pymatgen
data_SiO2
_symmetry_space_group_name_H-M   'P 1'
_cell_length_a   7.48264744
_cell_length_b   9.80114686
_cell_length_c   19.72797130
_cell_angle_alpha   90.00000000
_cell_angle_beta   90.00000000
_cell_angle_gamma   98.66103346
_symmetry_Int_Tables_number   1
_chemical_formula_structural   SiO2
_chemical_formula_sum   'Si24 O48'
_cell_volume   1430.32157254
_cell_formula_units_Z   24
loop_
 _symmetry_equiv_pos_site_id
 _symmetry_equiv_pos_as_xyz
  1  'x, y, z'
loop_
 _atom_site_type_symbol
 _atom_site_label
 _atom_site_symmetry_multiplicity
 _atom_site_fract_x
 _atom_site_fract_y
 _atom_site_fract_z
 _atom_site_occupancy
  Si  Si0  1  0.53525249  0.88444636  0.67083216  1
  Si  Si1  1  0.30832237  0.34554355  0.55765260  1
  Si  Si2  1  0.07785541  0.02492550  0.10733644  1
  Si  Si3  1  0.59264303  0.33031582  0.05507918  1
  Si  Si4  1  0.69167763  0.65445645  0.05765260  1
  Si  Si5  1  0.29115467  0.12014939  0.82891551  1
  Si  Si6  1  0.59264303  0.33031582  0.44492082  1
  Si  Si7  1  0.06121312  0.78448600  0.00188812  1
  Si  Si8  1  0.40735697  0.66968418  0.55507918  1
  Si  Si9  1  0.46474751  0.11555364  0.17083216  1
  Si  Si10  1  0.07785541  0.02492550  0.39266356  1
  Si  Si11  1  0.92214459  0.97507450  0.89266356  1
  Si  Si12  1  0.70884533  0.87985061  0.17108449  1
  Si  Si13  1  0.06121312  0.78448600  0.49811188  1
  Si  Si14  1  0.92214459  0.97507450  0.60733644  1
  Si  Si15  1  0.40735697  0.66968418  0.94492082  1
  Si  Si16  1  0.69167763  0.65445645  0.44234740  1
  Si  Si17  1  0.93878688  0.21551400  0.99811188  1
  Si  Si18  1  0.29115467  0.12014939  0.67108449  1
  Si  Si19  1  0.46474751  0.11555364  0.32916784  1
  Si  Si20  1  0.93878688  0.21551400  0.50188812  1
  Si  Si21  1  0.30832237  0.34554355  0.94234740  1
  Si  Si22  1  0.53525249  0.88444636  0.82916784  1
  Si  Si23  1  0.70884533  0.87985061  0.32891551  1
  O  O24  1  0.41919070  0.28995820  0.00524074  1
  O  O25  1  0.30416044  0.16650778  0.75000000  1
  O  O26  1  0.44254773  0.75528078  0.87479918  1
  O  O27  1  0.86858949  0.08905435  0.55372432  1
  O  O28  1  0.50758367  0.84048608  0.75000000  1
  O  O29  1  0.25018950  0.07874234  0.15486325  1
  O  O30  1  0.66153647  0.74181602  0.37461256  1
  O  O31  1  0.91243392  0.95739125  0.34434242  1
  O  O32  1  0.58080930  0.71004180  0.99475926  1
  O  O33  1  0.22803450  0.70464251  0.51685552  1
  O  O34  1  0.33846353  0.25818398  0.87461256  1
  O  O35  1  0.01868109  0.15556649  0.06682417  1
  O  O36  1  0.98131891  0.84443351  0.93317583  1
  O  O37  1  0.09442941  0.32561208  0.96195333  1
  O  O38  1  0.61866135  0.49359666  0.07317109  1
  O  O39  1  0.13141051  0.91094565  0.44627568  1
  O  O40  1  0.38133865  0.50640334  0.92682891  1
  O  O41  1  0.74981050  0.92125766  0.84513675  1
  O  O42  1  0.98131891  0.84443351  0.56682417  1
  O  O43  1  0.41919070  0.28995820  0.49475926  1
  O  O44  1  0.56174056  0.98148438  0.15423129  1
  O  O45  1  0.61866135  0.49359666  0.42682891  1
  O  O46  1  0.55745227  0.24471922  0.37479918  1
  O  O47  1  0.44254773  0.75528078  0.62520082  1
  O  O48  1  0.43825944  0.01851562  0.65423129  1
  O  O49  1  0.90557059  0.67438792  0.03804667  1
  O  O50  1  0.01868109  0.15556649  0.43317583  1
  O  O51  1  0.74981050  0.92125766  0.65486325  1
  O  O52  1  0.38133865  0.50640334  0.57317109  1
  O  O53  1  0.56174056  0.98148438  0.34576871  1
  O  O54  1  0.55745227  0.24471922  0.12520082  1
  O  O55  1  0.09442941  0.32561208  0.53804667  1
  O  O56  1  0.77196550  0.29535749  0.48314448  1
  O  O57  1  0.22803450  0.70464251  0.98314448  1
  O  O58  1  0.33846353  0.25818398  0.62538744  1
  O  O59  1  0.43825944  0.01851562  0.84576871  1
  O  O60  1  0.58080930  0.71004180  0.50524074  1
  O  O61  1  0.25018950  0.07874234  0.34513675  1
  O  O62  1  0.66153647  0.74181602  0.12538744  1
  O  O63  1  0.13141051  0.91094565  0.05372432  1
  O  O64  1  0.90557059  0.67438792  0.46195333  1
  O  O65  1  0.49241633  0.15951392  0.25000000  1
  O  O66  1  0.91243392  0.95739125  0.15565758  1
  O  O67  1  0.08756608  0.04260875  0.65565758  1
  O  O68  1  0.86858949  0.08905435  0.94627568  1
  O  O69  1  0.69583956  0.83349222  0.25000000  1
  O  O70  1  0.77196550  0.29535749  0.01685552  1
  O  O71  1  0.08756608  0.04260875  0.84434242  1
