# generated using pymatgen
data_CaB3H5O8
_symmetry_space_group_name_H-M   'P 1'
_cell_length_a   6.14122303
_cell_length_b   8.82133484
_cell_length_c   11.31061224
_cell_angle_alpha   90.00000000
_cell_angle_beta   90.00000000
_cell_angle_gamma   110.12245418
_symmetry_Int_Tables_number   1
_chemical_formula_structural   CaB3H5O8
_chemical_formula_sum   'Ca4 B12 H20 O32'
_cell_volume   575.33679726
_cell_formula_units_Z   4
loop_
 _symmetry_equiv_pos_site_id
 _symmetry_equiv_pos_as_xyz
  1  'x, y, z'
loop_
 _atom_site_type_symbol
 _atom_site_label
 _atom_site_symmetry_multiplicity
 _atom_site_fract_x
 _atom_site_fract_y
 _atom_site_fract_z
 _atom_site_occupancy
  Ca  Ca0  1  0.25949206  0.11363755  0.70580342  1
  Ca  Ca1  1  0.74298894  0.38404019  0.28777159  1
  Ca  Ca2  1  0.25701106  0.61595981  0.78777159  1
  Ca  Ca3  1  0.74050794  0.88636245  0.20580342  1
  B  B4  1  0.16592148  0.28759549  0.17185454  1
  B  B5  1  0.31622466  0.58292756  0.21486748  1
  B  B6  1  0.68377534  0.41707244  0.71486748  1
  B  B7  1  0.83545908  0.21199066  0.83134533  1
  B  B8  1  0.83407852  0.71240451  0.67185454  1
  B  B9  1  0.49684728  0.47076901  0.05023611  1
  B  B10  1  0.50315272  0.52923099  0.55023611  1
  B  B11  1  0.50135601  0.03080444  0.95100698  1
  B  B12  1  0.68643218  0.91560711  0.79366461  1
  B  B13  1  0.16454092  0.78800934  0.33134533  1
  B  B14  1  0.49864399  0.96919556  0.45100698  1
  B  B15  1  0.31356782  0.08439289  0.29366461  1
  H  H16  1  0.86621449  0.17147908  0.08137614  1
  H  H17  1  0.04261521  0.95719711  0.98202058  1
  H  H18  1  0.67476534  0.07307388  0.60229682  1
  H  H19  1  0.96012736  0.54374800  0.02189856  1
  H  H20  1  0.30043725  0.67307625  0.52410274  1
  H  H21  1  0.13742021  0.33056678  0.91756819  1
  H  H22  1  0.13378551  0.82852092  0.58137614  1
  H  H23  1  0.86257979  0.66943322  0.41756819  1
  H  H24  1  0.30424517  0.17743056  0.97321753  1
  H  H25  1  0.02061045  0.22411929  0.50896815  1
  H  H26  1  0.23205559  0.65441773  0.02954418  1
  H  H27  1  0.69575483  0.82256944  0.47321753  1
  H  H28  1  0.03987264  0.45625200  0.52189856  1
  H  H29  1  0.76794441  0.34558227  0.52954418  1
  H  H30  1  0.32523466  0.92692612  0.10229682  1
  H  H31  1  0.95738479  0.04280289  0.48202058  1
  H  H32  1  0.34441780  0.38140901  0.41115261  1
  H  H33  1  0.97938955  0.77588071  0.00896815  1
  H  H34  1  0.65558220  0.61859099  0.91115261  1
  H  H35  1  0.69956275  0.32692375  0.02410274  1
  O  O36  1  0.30170351  0.08414164  0.92254493  1
  O  O37  1  0.93033113  0.66844896  0.33788889  1
  O  O38  1  0.14264503  0.43684137  0.23176141  1
  O  O39  1  0.27728728  0.33424052  0.05613021  1
  O  O40  1  0.70504489  0.42249387  0.07379997  1
  O  O41  1  0.49525549  0.46018436  0.43104091  1
  O  O42  1  0.29495511  0.57750613  0.57379997  1
  O  O43  1  0.27385226  0.83382745  0.44730021  1
  O  O44  1  0.91946843  0.86613162  0.02124867  1
  O  O45  1  0.08053157  0.13386838  0.52124867  1
  O  O46  1  0.06966887  0.33155104  0.83788889  1
  O  O47  1  0.51738356  0.03835941  0.57095537  1
  O  O48  1  0.14289855  0.93766175  0.27213694  1
  O  O49  1  0.90877070  0.36802146  0.48215833  1
  O  O50  1  0.68396194  0.27078583  0.75507669  1
  O  O51  1  0.93057385  0.17060017  0.16241985  1
  O  O52  1  0.06942615  0.82939983  0.66241985  1
  O  O53  1  0.09122930  0.63197854  0.98215833  1
  O  O54  1  0.31603806  0.72921417  0.25507669  1
  O  O55  1  0.49295022  0.40650719  0.64440108  1
  O  O56  1  0.69829649  0.91585836  0.42254493  1
  O  O57  1  0.72271272  0.66575948  0.55613021  1
  O  O58  1  0.50474451  0.53981564  0.93104091  1
  O  O59  1  0.50704978  0.59349281  0.14440108  1
  O  O60  1  0.68418384  0.76986509  0.74934434  1
  O  O61  1  0.49150330  0.90634372  0.85889664  1
  O  O62  1  0.72614774  0.16617255  0.94730021  1
  O  O63  1  0.48261644  0.96164059  0.07095537  1
  O  O64  1  0.85735497  0.56315863  0.73176141  1
  O  O65  1  0.31581616  0.23013491  0.24934434  1
  O  O66  1  0.50849670  0.09365628  0.35889664  1
  O  O67  1  0.85710145  0.06233825  0.77213694  1
