# generated using pymatgen
data_NaLiCO3
_symmetry_space_group_name_H-M   'P 1'
_cell_length_a   8.41836162
_cell_length_b   8.41836207
_cell_length_c   3.40376078
_cell_angle_alpha   90.00000000
_cell_angle_beta   90.00000000
_cell_angle_gamma   119.99999826
_symmetry_Int_Tables_number   1
_chemical_formula_structural   NaLiCO3
_chemical_formula_sum   'Na3 Li3 C3 O9'
_cell_volume   208.90308197
_cell_formula_units_Z   3
loop_
 _symmetry_equiv_pos_site_id
 _symmetry_equiv_pos_as_xyz
  1  'x, y, z'
loop_
 _atom_site_type_symbol
 _atom_site_label
 _atom_site_symmetry_multiplicity
 _atom_site_fract_x
 _atom_site_fract_y
 _atom_site_fract_z
 _atom_site_occupancy
  Na  Na0  1  0.67705506  0.01190965  0.50000000  1
  Na  Na1  1  0.33485458  0.32294494  0.50000000  1
  Na  Na2  1  0.98809035  0.66514542  0.50000000  1
  Li  Li3  1  0.04434452  0.37607696  0.00000000  1
  Li  Li4  1  0.62392304  0.66826756  0.00000000  1
  Li  Li5  1  0.33173244  0.95565548  0.00000000  1
  C  C6  1  0.00000000  0.00000000  0.00000000  1
  C  C7  1  0.66666700  0.33333300  0.00000000  1
  C  C8  1  0.33333300  0.66666700  0.50000000  1
  O  O9  1  0.17929787  0.51174963  0.50000000  1
  O  O10  1  0.56985565  0.41469641  0.00000000  1
  O  O11  1  0.82205899  0.92279711  0.00000000  1
  O  O12  1  0.48825037  0.66754824  0.50000000  1
  O  O13  1  0.33245176  0.82070213  0.50000000  1
  O  O14  1  0.07720289  0.89926188  0.00000000  1
  O  O15  1  0.84484076  0.43014435  0.00000000  1
  O  O16  1  0.58530359  0.15515924  0.00000000  1
  O  O17  1  0.10073812  0.17794101  0.00000000  1
