# generated using pymatgen
data_SiO2
_symmetry_space_group_name_H-M   'P 1'
_cell_length_a   8.56299352
_cell_length_b   12.58035641
_cell_length_c   15.23153371
_cell_angle_alpha   105.92344003
_cell_angle_beta   90.00000000
_cell_angle_gamma   90.00000000
_symmetry_Int_Tables_number   1
_chemical_formula_structural   SiO2
_chemical_formula_sum   'Si28 O56'
_cell_volume   1577.86490387
_cell_formula_units_Z   28
loop_
 _symmetry_equiv_pos_site_id
 _symmetry_equiv_pos_as_xyz
  1  'x, y, z'
loop_
 _atom_site_type_symbol
 _atom_site_label
 _atom_site_symmetry_multiplicity
 _atom_site_fract_x
 _atom_site_fract_y
 _atom_site_fract_z
 _atom_site_occupancy
  Si  Si0  1  0.81613857  0.11674722  0.21837147  1
  Si  Si1  1  0.68545515  0.90467881  0.59490617  1
  Si  Si2  1  0.18386143  0.11674722  0.21837147  1
  Si  Si3  1  0.31454485  0.90467881  0.59490617  1
  Si  Si4  1  0.18439776  0.14042429  0.89032086  1
  Si  Si5  1  0.81301546  0.48746205  0.09824553  1
  Si  Si6  1  0.68552781  0.75338725  0.91309534  1
  Si  Si7  1  0.81560224  0.85957571  0.10967914  1
  Si  Si8  1  0.31715530  0.29321963  0.77241512  1
  Si  Si9  1  0.31454485  0.09532119  0.40509383  1
  Si  Si10  1  0.31447219  0.24661275  0.08690466  1
  Si  Si11  1  0.18698454  0.48746205  0.09824553  1
  Si  Si12  1  0.68284470  0.70678037  0.22758488  1
  Si  Si13  1  0.18386143  0.88325278  0.78162853  1
  Si  Si14  1  0.81679050  0.13840459  0.59775930  1
  Si  Si15  1  0.18320950  0.13840459  0.59775930  1
  Si  Si16  1  0.81560224  0.14042429  0.89032086  1
  Si  Si17  1  0.18320950  0.86159541  0.40224070  1
  Si  Si18  1  0.31715530  0.70678037  0.22758488  1
  Si  Si19  1  0.81301546  0.51253795  0.90175447  1
  Si  Si20  1  0.18698454  0.51253795  0.90175447  1
  Si  Si21  1  0.68552781  0.24661275  0.08690466  1
  Si  Si22  1  0.68545515  0.09532119  0.40509383  1
  Si  Si23  1  0.68284470  0.29321963  0.77241512  1
  Si  Si24  1  0.81613857  0.88325278  0.78162853  1
  Si  Si25  1  0.18439776  0.85957571  0.10967914  1
  Si  Si26  1  0.31447219  0.75338725  0.91309534  1
  Si  Si27  1  0.81679050  0.86159541  0.40224070  1
  O  O28  1  0.77161648  0.36562876  0.10750420  1
  O  O29  1  0.24141964  0.16174186  0.99541148  1
  O  O30  1  0.27321944  0.57858245  0.18001431  1
  O  O31  1  0.22838352  0.63437124  0.89249580  1
  O  O32  1  0.76084750  0.86139014  0.67631242  1
  O  O33  1  0.22838352  0.36562876  0.10750420  1
  O  O34  1  0.00000000  0.17128310  0.88739651  1
  O  O35  1  0.71389253  0.80408968  0.82732960  1
  O  O36  1  0.71389253  0.19591032  0.17267040  1
  O  O37  1  0.00000000  0.50738062  0.10682773  1
  O  O38  1  0.23915250  0.13860986  0.32368758  1
  O  O39  1  0.78622472  0.01178953  0.83694254  1
  O  O40  1  0.00000000  0.82871690  0.11260349  1
  O  O41  1  0.50000000  0.28412188  0.74416712  1
  O  O42  1  0.28610747  0.80408968  0.82732960  1
  O  O43  1  0.21347979  0.75031162  0.32008936  1
  O  O44  1  0.72678056  0.57858245  0.18001431  1
  O  O45  1  0.75227770  0.50000000  0.00000000  1
  O  O46  1  0.21347979  0.24968838  0.67991064  1
  O  O47  1  0.72678056  0.42141755  0.81998569  1
  O  O48  1  0.71551787  0.78130580  0.15746610  1
  O  O49  1  0.77038583  0.83956300  0.49947206  1
  O  O50  1  0.78652021  0.75031162  0.32008936  1
  O  O51  1  0.22961417  0.83956300  0.49947206  1
  O  O52  1  0.71551787  0.21869420  0.84253390  1
  O  O53  1  0.28448213  0.21869420  0.84253390  1
  O  O54  1  0.50000000  0.87828720  0.58769318  1
  O  O55  1  0.75858036  0.16174186  0.99541148  1
  O  O56  1  0.24772230  0.50000000  0.00000000  1
  O  O57  1  0.50000000  0.26213401  0.07334177  1
  O  O58  1  0.50000000  0.73786599  0.92665823  1
  O  O59  1  0.28610747  0.19591032  0.17267040  1
  O  O60  1  0.28869432  0.96208342  0.38512339  1
  O  O61  1  0.28869432  0.03791658  0.61487661  1
  O  O62  1  0.24141964  0.83825814  0.00458852  1
  O  O63  1  0.00000000  0.14751062  0.21518376  1
  O  O64  1  0.77161648  0.63437124  0.89249580  1
  O  O65  1  0.27321944  0.42141755  0.81998569  1
  O  O66  1  0.00000000  0.10373719  0.59705261  1
  O  O67  1  0.75858036  0.83825814  0.00458852  1
  O  O68  1  0.00000000  0.85248938  0.78481624  1
  O  O69  1  0.78652021  0.24968838  0.67991064  1
  O  O70  1  0.71130568  0.03791658  0.61487661  1
  O  O71  1  0.23915250  0.86139014  0.67631242  1
  O  O72  1  0.78622472  0.98821047  0.16305746  1
  O  O73  1  0.21377528  0.98821047  0.16305746  1
  O  O74  1  0.71130568  0.96208342  0.38512339  1
  O  O75  1  0.50000000  0.71587812  0.25583288  1
  O  O76  1  0.00000000  0.89626281  0.40294739  1
  O  O77  1  0.50000000  0.12171280  0.41230682  1
  O  O78  1  0.22961417  0.16043700  0.50052794  1
  O  O79  1  0.21377528  0.01178953  0.83694254  1
  O  O80  1  0.00000000  0.49261938  0.89317227  1
  O  O81  1  0.28448213  0.78130580  0.15746610  1
  O  O82  1  0.77038583  0.16043700  0.50052794  1
  O  O83  1  0.76084750  0.13860986  0.32368758  1
