# generated using pymatgen
data_TeMo5O16
_symmetry_space_group_name_H-M   'P 1'
_cell_length_a   8.20220399
_cell_length_b   10.28018900
_cell_length_c   14.83156905
_cell_angle_alpha   90.00000000
_cell_angle_beta   90.00000000
_cell_angle_gamma   90.74434221
_symmetry_Int_Tables_number   1
_chemical_formula_structural   TeMo5O16
_chemical_formula_sum   'Te4 Mo20 O64'
_cell_volume   1250.49544387
_cell_formula_units_Z   4
loop_
 _symmetry_equiv_pos_site_id
 _symmetry_equiv_pos_as_xyz
  1  'x, y, z'
loop_
 _atom_site_type_symbol
 _atom_site_label
 _atom_site_symmetry_multiplicity
 _atom_site_fract_x
 _atom_site_fract_y
 _atom_site_fract_z
 _atom_site_occupancy
  Te  Te0  1  0.71457506  0.02161448  0.16317610  1
  Te  Te1  1  0.21457506  0.02161448  0.33682390  1
  Te  Te2  1  0.78542494  0.97838552  0.66317610  1
  Te  Te3  1  0.28542494  0.97838552  0.83682390  1
  Mo  Mo4  1  0.79300257  0.68518030  0.00077808  1
  Mo  Mo5  1  0.29300257  0.68518030  0.49922192  1
  Mo  Mo6  1  0.72536560  0.66541660  0.74778804  1
  Mo  Mo7  1  0.77463440  0.33458340  0.24778804  1
  Mo  Mo8  1  0.80142012  0.30747765  0.74587271  1
  Mo  Mo9  1  0.19857988  0.69252235  0.25412729  1
  Mo  Mo10  1  0.20699743  0.31481970  0.99922192  1
  Mo  Mo11  1  0.70517822  0.32973114  0.99819888  1
  Mo  Mo12  1  0.27463440  0.33458340  0.25221196  1
  Mo  Mo13  1  0.70699743  0.31481970  0.50077808  1
  Mo  Mo14  1  0.22536560  0.66541660  0.75221196  1
  Mo  Mo15  1  0.24440508  -0.00101320  0.11090726  1
  Mo  Mo16  1  0.30142012  0.30747765  0.75412729  1
  Mo  Mo17  1  0.74440508  -0.00101320  0.38909274  1
  Mo  Mo18  1  0.20517822  0.32973114  0.50180112  1
  Mo  Mo19  1  0.79482178  0.67026886  0.49819888  1
  Mo  Mo20  1  0.69857988  0.69252235  0.24587271  1
  Mo  Mo21  1  0.25559492  1.00101320  0.61090726  1
  Mo  Mo22  1  0.75559492  1.00101320  0.88909274  1
  Mo  Mo23  1  0.29482178  0.67026886  0.00180112  1
  O  O24  1  0.48648883  0.68826155  0.25302977  1
  O  O25  1  0.76534546  0.11204117  0.76730359  1
  O  O26  1  0.46693080  0.00806911  0.60868601  1
  O  O27  1  0.26534546  0.11204117  0.73269641  1
  O  O28  1  0.73981754  0.74734868  0.12258376  1
  O  O29  1  0.74435021  0.35622628  0.36939280  1
  O  O30  1  0.26178554  0.49659831  0.78497127  1
  O  O31  1  0.53306920  0.99193089  0.39131399  1
  O  O32  1  0.98711375  0.32723337  0.24519566  1
  O  O33  1  0.00644934  0.65389103  0.50038503  1
  O  O34  1  0.26018246  0.25265132  0.87741624  1
  O  O35  1  0.72946811  0.13198482  0.27210584  1
  O  O36  1  0.22946811  0.13198482  0.22789416  1
  O  O37  1  0.24435021  0.35622628  0.13060720  1
  O  O38  1  0.49005589  0.01111826  0.15459754  1
  O  O39  1  0.22073700  0.86257566  0.53559281  1
  O  O40  1  0.74707864  0.34728306  0.87628819  1
  O  O41  1  0.25564979  0.64377372  0.63060720  1
  O  O42  1  0.50378606  0.70437645  0.50040573  1
  O  O43  1  0.76924394  0.74301152  0.62416281  1
  O  O44  1  0.70699752  0.13292221  0.96713249  1
  O  O45  1  0.76178554  0.49659831  0.71502873  1
  O  O46  1  0.49355066  0.34610897  1.00038503  1
  O  O47  1  0.23821446  0.50340169  0.28497127  1
  O  O48  1  0.03306920  0.99193089  0.10868601  1
  O  O49  1  0.99621394  0.29562355  0.00040573  1
  O  O50  1  0.23075606  0.25698848  0.37583719  1
  O  O51  1  0.76018246  0.25265132  0.62258376  1
  O  O52  1  0.73465454  0.88795883  0.26730359  1
  O  O53  1  0.96693080  0.00806911  0.89131399  1
  O  O54  1  0.72614335  0.50547425  0.53006382  1
  O  O55  1  0.27053189  0.86801518  0.72789416  1
  O  O56  1  0.49621394  0.29562355  0.49959427  1
  O  O57  1  0.77385665  0.49452575  0.03006382  1
  O  O58  1  0.24707864  0.34728306  0.62371181  1
  O  O59  1  0.26924394  0.74301152  0.87583719  1
  O  O60  1  0.72073700  0.86257566  0.96440719  1
  O  O61  1  0.99355066  0.34610897  0.49961497  1
  O  O62  1  0.79300248  0.86707779  0.46713249  1
  O  O63  1  0.75292136  0.65271694  0.37628819  1
  O  O64  1  0.23981754  0.74734868  0.37741624  1
  O  O65  1  0.22614335  0.50547425  0.96993618  1
  O  O66  1  0.23465454  0.88795883  0.23269641  1
  O  O67  1  0.98648883  0.68826155  0.24697023  1
  O  O68  1  0.00378606  0.70437645  0.99959427  1
  O  O69  1  0.01288625  0.67276663  0.75480434  1
  O  O70  1  0.01351117  0.31173845  0.75302977  1
  O  O71  1  0.73075606  0.25698848  0.12416281  1
  O  O72  1  0.77053189  0.86801518  0.77210584  1
  O  O73  1  0.51351117  0.31173845  0.74697023  1
  O  O74  1  0.25292136  0.65271694  0.12371181  1
  O  O75  1  0.20699752  0.13292221  0.53286751  1
  O  O76  1  0.99005589  0.01111826  0.34540246  1
  O  O77  1  0.50994411  0.98888174  0.84540246  1
  O  O78  1  0.48711375  0.32723337  0.25480434  1
  O  O79  1  0.51288625  0.67276663  0.74519566  1
  O  O80  1  0.00994411  0.98888174  0.65459754  1
  O  O81  1  0.27926300  0.13742434  0.03559281  1
  O  O82  1  0.73821446  0.50340169  0.21502873  1
  O  O83  1  0.75564979  0.64377372  0.86939280  1
  O  O84  1  0.27385665  0.49452575  0.46993618  1
  O  O85  1  0.29300248  0.86707779  0.03286751  1
  O  O86  1  0.50644934  0.65389103  -0.00038503  1
  O  O87  1  0.77926300  0.13742434  0.46440719  1
