# generated using pymatgen
data_Dy3CuSnS7
_symmetry_space_group_name_H-M   'P 1'
_cell_length_a   9.75637631
_cell_length_b   9.75637642
_cell_length_c   6.25828190
_cell_angle_alpha   90.00000000
_cell_angle_beta   90.00000000
_cell_angle_gamma   119.99999966
_symmetry_Int_Tables_number   1
_chemical_formula_structural   Dy3CuSnS7
_chemical_formula_sum   'Dy6 Cu2 Sn2 S14'
_cell_volume   515.89681414
_cell_formula_units_Z   2
loop_
 _symmetry_equiv_pos_site_id
 _symmetry_equiv_pos_as_xyz
  1  'x, y, z'
loop_
 _atom_site_type_symbol
 _atom_site_label
 _atom_site_symmetry_multiplicity
 _atom_site_fract_x
 _atom_site_fract_y
 _atom_site_fract_z
 _atom_site_occupancy
  Dy  Dy0  1  0.35937989  0.14799684  0.26727442  1
  Dy  Dy1  1  0.64062011  0.85200316  0.76727442  1
  Dy  Dy2  1  0.85200316  0.21138305  0.26727442  1
  Dy  Dy3  1  0.21138305  0.35937989  0.76727442  1
  Dy  Dy4  1  0.78861695  0.64062011  0.26727442  1
  Dy  Dy5  1  0.14799684  0.78861695  0.76727442  1
  Cu  Cu6  1  0.00000000  0.00000000  0.14988820  1
  Cu  Cu7  1  0.00000000  0.00000000  0.64988820  1
  Sn  Sn8  1  0.66666700  0.33333300  0.83144745  1
  Sn  Sn9  1  0.33333300  0.66666700  0.33144745  1
  S  S10  1  0.66666700  0.33333300  0.44758636  1
  S  S11  1  0.08242802  0.51794906  0.51449361  1
  S  S12  1  0.51794906  0.43552104  0.01449361  1
  S  S13  1  0.11393322  0.85199056  0.18605796  1
  S  S14  1  0.33333300  0.66666700  0.94758636  1
  S  S15  1  0.85199056  0.73805734  0.68605796  1
  S  S16  1  0.91757198  0.48205094  0.01449361  1
  S  S17  1  0.26194266  0.11393322  0.68605796  1
  S  S18  1  0.48205094  0.56447896  0.51449361  1
  S  S19  1  0.88606678  0.14800944  0.68605796  1
  S  S20  1  0.43552104  0.91757198  0.51449361  1
  S  S21  1  0.73805734  0.88606678  0.18605796  1
  S  S22  1  0.14800944  0.26194266  0.18605796  1
  S  S23  1  0.56447896  0.08242802  0.01449361  1
