# generated using pymatgen
data_PdSeO4
_symmetry_space_group_name_H-M   'P 1'
_cell_length_a   5.05386340
_cell_length_b   5.05386279
_cell_length_c   8.19994808
_cell_angle_alpha   85.86525328
_cell_angle_beta   85.86525373
_cell_angle_gamma   68.95741980
_symmetry_Int_Tables_number   1
_chemical_formula_structural   PdSeO4
_chemical_formula_sum   'Pd2 Se2 O8'
_cell_volume   194.72337373
_cell_formula_units_Z   2
loop_
 _symmetry_equiv_pos_site_id
 _symmetry_equiv_pos_as_xyz
  1  'x, y, z'
loop_
 _atom_site_type_symbol
 _atom_site_label
 _atom_site_symmetry_multiplicity
 _atom_site_fract_x
 _atom_site_fract_y
 _atom_site_fract_z
 _atom_site_occupancy
  Pd  Pd0  1  0.00000000  0.50000000  0.50000000  1
  Pd  Pd1  1  0.50000000  0.00000000  0.00000000  1
  Se  Se2  1  0.06492993  0.93507007  0.75000000  1
  Se  Se3  1  0.93507007  0.06492993  0.25000000  1
  O  O4  1  0.92375282  0.73385362  0.28413632  1
  O  O5  1  0.20895863  0.73622001  0.58498787  1
  O  O6  1  0.79104137  0.26377999  0.41501213  1
  O  O7  1  0.73385362  0.92375282  0.78413632  1
  O  O8  1  0.26614638  0.07624718  0.21586368  1
  O  O9  1  0.26377999  0.79104137  0.91501213  1
  O  O10  1  0.73622001  0.20895863  0.08498787  1
  O  O11  1  0.07624718  0.26614638  0.71586368  1
