# generated using pymatgen
data_KYP2O7
_symmetry_space_group_name_H-M   'P 1'
_cell_length_a   5.49455288
_cell_length_b   5.49455328
_cell_length_c   12.43980579
_cell_angle_alpha   90.00000000
_cell_angle_beta   90.00000000
_cell_angle_gamma   116.49178461
_symmetry_Int_Tables_number   1
_chemical_formula_structural   KYP2O7
_chemical_formula_sum   'K2 Y2 P4 O14'
_cell_volume   336.12481192
_cell_formula_units_Z   2
loop_
 _symmetry_equiv_pos_site_id
 _symmetry_equiv_pos_as_xyz
  1  'x, y, z'
loop_
 _atom_site_type_symbol
 _atom_site_label
 _atom_site_symmetry_multiplicity
 _atom_site_fract_x
 _atom_site_fract_y
 _atom_site_fract_z
 _atom_site_occupancy
  K  K0  1  0.69570334  0.30429666  0.25000000  1
  K  K1  1  0.30429666  0.69570334  0.75000000  1
  Y  Y2  1  0.00000000  0.00000000  0.00000000  1
  Y  Y3  1  0.00000000  0.00000000  0.50000000  1
  P  P4  1  0.35587470  0.64412530  0.37042869  1
  P  P5  1  0.64412530  0.35587470  0.62957131  1
  P  P6  1  0.35587470  0.64412530  0.12957131  1
  P  P7  1  0.64412530  0.35587470  0.87042869  1
  O  O8  1  0.33349744  0.22617926  0.62315643  1
  O  O9  1  0.77279590  0.22720410  0.55508924  1
  O  O10  1  0.66650256  0.77382074  0.37684357  1
  O  O11  1  0.66650256  0.77382074  0.12315643  1
  O  O12  1  0.22720410  0.77279590  0.44491076  1
  O  O13  1  0.77382074  0.66650256  0.87684357  1
  O  O14  1  0.22720410  0.77279590  0.05508924  1
  O  O15  1  0.77279590  0.22720410  0.94491076  1
  O  O16  1  0.77382074  0.66650256  0.62315643  1
  O  O17  1  0.71785362  0.28214638  0.75000000  1
  O  O18  1  0.22617926  0.33349744  0.37684357  1
  O  O19  1  0.22617926  0.33349744  0.12315643  1
  O  O20  1  0.28214638  0.71785362  0.25000000  1
  O  O21  1  0.33349744  0.22617926  0.87684357  1
