# generated using pymatgen
data_SiO2
_symmetry_space_group_name_H-M   'P 1'
_cell_length_a   7.10363868
_cell_length_b   7.10363914
_cell_length_c   9.05719309
_cell_angle_alpha   90.00000000
_cell_angle_beta   90.00000000
_cell_angle_gamma   94.46455708
_symmetry_Int_Tables_number   1
_chemical_formula_structural   SiO2
_chemical_formula_sum   'Si8 O16'
_cell_volume   455.65442121
_cell_formula_units_Z   8
loop_
 _symmetry_equiv_pos_site_id
 _symmetry_equiv_pos_as_xyz
  1  'x, y, z'
loop_
 _atom_site_type_symbol
 _atom_site_label
 _atom_site_symmetry_multiplicity
 _atom_site_fract_x
 _atom_site_fract_y
 _atom_site_fract_z
 _atom_site_occupancy
  Si  Si0  1  0.70108586  0.96990233  0.42508595  1
  Si  Si1  1  0.96990233  0.70108586  0.92508595  1
  Si  Si2  1  0.29891414  0.03009767  0.92508595  1
  Si  Si3  1  0.70108586  0.96990233  0.07491405  1
  Si  Si4  1  0.29891414  0.03009767  0.57491405  1
  Si  Si5  1  0.03009767  0.29891414  0.42508595  1
  Si  Si6  1  0.96990233  0.70108586  0.57491405  1
  Si  Si7  1  0.03009767  0.29891414  0.07491405  1
  O  O8  1  0.21224353  0.21224353  0.00000000  1
  O  O9  1  0.15881105  0.84118895  0.54734475  1
  O  O10  1  0.84118895  0.15881105  0.04734475  1
  O  O11  1  0.78775647  0.78775647  0.50000000  1
  O  O12  1  0.32787354  0.07001794  0.75000000  1
  O  O13  1  0.92998206  0.67212646  0.75000000  1
  O  O14  1  0.00000000  0.50000000  0.50000000  1
  O  O15  1  0.21224353  0.21224353  0.50000000  1
  O  O16  1  0.15881105  0.84118895  0.95265525  1
  O  O17  1  0.78775647  0.78775647  0.00000000  1
  O  O18  1  0.84118895  0.15881105  0.45265525  1
  O  O19  1  0.07001794  0.32787354  0.25000000  1
  O  O20  1  0.67212646  0.92998206  0.25000000  1
  O  O21  1  0.50000000  0.00000000  0.00000000  1
  O  O22  1  0.50000000  0.00000000  0.50000000  1
  O  O23  1  0.00000000  0.50000000  0.00000000  1
