# generated using pymatgen
data_Mo9O25
_symmetry_space_group_name_H-M   'P 1'
_cell_length_a   5.58141850
_cell_length_b   6.89043853
_cell_length_c   28.41002910
_cell_angle_alpha   95.88770639
_cell_angle_beta   90.00000000
_cell_angle_gamma   90.00000000
_symmetry_Int_Tables_number   1
_chemical_formula_structural   Mo9O25
_chemical_formula_sum   'Mo18 O50'
_cell_volume   1086.84120830
_cell_formula_units_Z   2
loop_
 _symmetry_equiv_pos_site_id
 _symmetry_equiv_pos_as_xyz
  1  'x, y, z'
loop_
 _atom_site_type_symbol
 _atom_site_label
 _atom_site_symmetry_multiplicity
 _atom_site_fract_x
 _atom_site_fract_y
 _atom_site_fract_z
 _atom_site_occupancy
  Mo  Mo0  1  0.22951981  0.50000000  0.25000000  1
  Mo  Mo1  1  0.77048019  0.50000000  0.75000000  1
  Mo  Mo2  1  0.72937573  0.20372462  0.30117701  1
  Mo  Mo3  1  0.72937573  0.79627538  0.19882299  1
  Mo  Mo4  1  0.27062427  0.79627538  0.69882299  1
  Mo  Mo5  1  0.27062427  0.20372462  0.80117701  1
  Mo  Mo6  1  0.23000141  0.90061737  0.35468260  1
  Mo  Mo7  1  0.23000141  0.09938263  0.14531840  1
  Mo  Mo8  1  0.76999859  0.09938263  0.64531740  1
  Mo  Mo9  1  0.76999859  0.90061737  0.85468260  1
  Mo  Mo10  1  0.73671572  0.59597171  0.40941935  1
  Mo  Mo11  1  0.73671572  0.40402829  0.09058065  1
  Mo  Mo12  1  0.26328428  0.40402829  0.59058065  1
  Mo  Mo13  1  0.26328428  0.59597171  0.90941935  1
  Mo  Mo14  1  0.22334656  0.28786935  0.46058252  1
  Mo  Mo15  1  0.22334656  0.71213065  0.03941748  1
  Mo  Mo16  1  0.77665344  0.71213065  0.53941748  1
  Mo  Mo17  1  0.77665344  0.28786935  0.96058252  1
  O  O18  1  0.73561943  0.00000000  0.25000000  1
  O  O19  1  0.26438057  0.00000000  0.75000000  1
  O  O20  1  0.48563781  0.34993796  0.27812119  1
  O  O21  1  0.48563781  0.65006204  0.22187881  1
  O  O22  1  0.51436219  0.65006204  0.72187881  1
  O  O23  1  0.51436219  0.34993796  0.77812119  1
  O  O24  1  0.98653949  0.34670362  0.27889756  1
  O  O25  1  0.98653949  0.65329638  0.22110244  1
  O  O26  1  0.01346051  0.65329638  0.72110244  1
  O  O27  1  0.01346051  0.34670362  0.77889756  1
  O  O28  1  0.23126491  0.70351418  0.30823870  1
  O  O29  1  0.23126491  0.29648582  0.19176130  1
  O  O30  1  0.76873509  0.29648582  0.69176130  1
  O  O31  1  0.76873509  0.70351418  0.80823870  1
  O  O32  1  0.97628501  0.03803633  0.33755750  1
  O  O33  1  0.97628501  0.96196367  0.16244250  1
  O  O34  1  0.46597078  0.04852562  0.33447787  1
  O  O35  1  0.02371499  0.96196367  0.66244250  1
  O  O36  1  0.25479724  0.75684599  0.97813042  1
  O  O37  1  0.25479724  0.24315401  0.52186958  1
  O  O38  1  0.74520276  0.24315401  0.02186958  1
  O  O39  1  0.74520276  0.75684599  0.47813042  1
  O  O40  1  0.54056196  0.44224257  0.94514189  1
  O  O41  1  0.54056196  0.55775743  0.55485811  1
  O  O42  1  0.45943804  0.55775743  0.05485811  1
  O  O43  1  0.45943804  0.44224257  0.44514189  1
  O  O44  1  0.05654521  0.40507751  0.95070834  1
  O  O45  1  0.05654521  0.59492249  0.54929166  1
  O  O46  1  0.94345479  0.59492249  0.04929166  1
  O  O47  1  0.94345479  0.40507751  0.45070834  1
  O  O48  1  0.76390860  0.06162226  0.92333806  1
  O  O49  1  0.76390860  0.93837774  0.57666194  1
  O  O50  1  0.23609140  0.93837774  0.07666194  1
  O  O51  1  0.23609140  0.06162226  0.42333806  1
  O  O52  1  0.49476798  0.74751110  0.89030711  1
  O  O53  1  0.49476798  0.25248890  0.60969289  1
  O  O54  1  0.50523202  0.25248890  0.10969289  1
  O  O55  1  0.50523202  0.74751110  0.39030711  1
  O  O56  1  1.00002921  0.72351001  0.89371455  1
  O  O57  1  1.00002921  0.27648999  0.60628545  1
  O  O58  1  -0.00002921  0.27648999  0.10628545  1
  O  O59  1  -0.00002921  0.72351001  0.39371455  1
  O  O60  1  0.26759268  0.39862085  0.86294127  1
  O  O61  1  0.26759268  0.60137915  0.63705873  1
  O  O62  1  0.73240732  0.60137915  0.13705873  1
  O  O63  1  0.73240732  0.39862085  0.36294127  1
  O  O64  1  0.53402922  0.04852562  0.83447787  1
  O  O65  1  0.53402922  0.95147438  0.66552213  1
  O  O66  1  0.46597078  0.95147438  0.16552213  1
  O  O67  1  0.02371499  0.03803633  0.83755750  1
