# generated using pymatgen
data_K2Mo4O13
_symmetry_space_group_name_H-M   'P 1'
_cell_length_a   8.24881089
_cell_length_b   8.53380606
_cell_length_c   10.33278073
_cell_angle_alpha   107.36828005
_cell_angle_beta   103.10107009
_cell_angle_gamma   109.50356263
_symmetry_Int_Tables_number   1
_chemical_formula_structural   K2Mo4O13
_chemical_formula_sum   'K4 Mo8 O26'
_cell_volume   609.79936829
_cell_formula_units_Z   2
loop_
 _symmetry_equiv_pos_site_id
 _symmetry_equiv_pos_as_xyz
  1  'x, y, z'
loop_
 _atom_site_type_symbol
 _atom_site_label
 _atom_site_symmetry_multiplicity
 _atom_site_fract_x
 _atom_site_fract_y
 _atom_site_fract_z
 _atom_site_occupancy
  K  K0  1  0.74122312  0.78172665  0.43033347  1
  K  K1  1  0.25877688  0.21827335  0.56966653  1
  K  K2  1  0.68495743  0.23532987  0.30943238  1
  K  K3  1  0.31504257  0.76467013  0.69056762  1
  Mo  Mo4  1  0.81597329  0.50684975  0.05094145  1
  Mo  Mo5  1  0.18402671  0.49315025  0.94905855  1
  Mo  Mo6  1  0.83129746  0.90811675  0.06204280  1
  Mo  Mo7  1  0.16870254  0.09188325  0.93795720  1
  Mo  Mo8  1  0.77903002  0.60620855  0.73104403  1
  Mo  Mo9  1  0.22096998  0.39379145  0.26895597  1
  Mo  Mo10  1  0.77504706  0.20338922  0.70985773  1
  Mo  Mo11  1  0.22495294  0.79661078  0.29014227  1
  O  O12  1  0.65666919  0.94014330  0.96202241  1
  O  O13  1  0.34333081  0.05985670  0.03797759  1
  O  O14  1  0.95101337  0.86279191  0.88293759  1
  O  O15  1  0.04898663  0.13720809  0.11706241  1
  O  O16  1  0.89749745  0.61829246  0.61123049  1
  O  O17  1  0.10250255  0.38170754  0.38876951  1
  O  O18  1  0.71480742  0.63582958  0.94587533  1
  O  O19  1  0.28519258  0.36417042  0.05412467  1
  O  O20  1  0.71784584  0.51008141  0.18325992  1
  O  O21  1  0.28215416  0.48991859  0.81674008  1
  O  O22  1  0.86649813  0.18599224  0.57082046  1
  O  O23  1  0.13350187  0.81400776  0.42917954  1
  O  O24  1  0.64245700  0.34675333  0.66432224  1
  O  O25  1  0.35754300  0.65324667  0.33567776  1
  O  O26  1  0.02325358  0.78467545  0.14526178  1
  O  O27  1  0.97674642  0.21532455  0.85473822  1
  O  O28  1  0.68449518  0.28563269  0.90948287  1
  O  O29  1  0.31550482  0.71436831  0.09051713  1
  O  O30  1  0.59962892  0.98625974  0.64720985  1
  O  O31  1  0.40037108  0.01374026  0.35279015  1
  O  O32  1  0.59130864  0.64379489  0.65880010  1
  O  O33  1  0.40869136  0.35620511  0.34119990  1
  O  O34  1  0.96268109  0.51410406  0.86425314  1
  O  O35  1  0.03731891  0.48589594  0.13574686  1
  O  O36  1  0.79830241  0.94406040  0.22779048  1
  O  O37  1  0.20169759  0.05593960  0.77220952  1
