# generated using pymatgen
data_VCuSe2O7
_symmetry_space_group_name_H-M   'P 1'
_cell_length_a   8.28670470
_cell_length_b   8.65652361
_cell_length_c   8.98988870
_cell_angle_alpha   90.00000000
_cell_angle_beta   90.00000000
_cell_angle_gamma   100.09508121
_symmetry_Int_Tables_number   1
_chemical_formula_structural   VCuSe2O7
_chemical_formula_sum   'V4 Cu4 Se8 O28'
_cell_volume   634.89726842
_cell_formula_units_Z   4
loop_
 _symmetry_equiv_pos_site_id
 _symmetry_equiv_pos_as_xyz
  1  'x, y, z'
loop_
 _atom_site_type_symbol
 _atom_site_label
 _atom_site_symmetry_multiplicity
 _atom_site_fract_x
 _atom_site_fract_y
 _atom_site_fract_z
 _atom_site_occupancy
  V  V0  1  0.30637713  0.55378149  0.99262616  1
  V  V1  1  0.69362287  0.94621851  0.49262616  1
  V  V2  1  0.30637713  0.05378149  0.50737384  1
  V  V3  1  0.69362287  0.44621851  0.00737384  1
  Cu  Cu4  1  0.62974802  0.48664250  0.61898863  1
  Cu  Cu5  1  0.62974802  0.98664250  0.88101137  1
  Cu  Cu6  1  0.37025198  0.01335750  0.11898863  1
  Cu  Cu7  1  0.37025198  0.51335750  0.38101137  1
  Se  Se8  1  0.13234955  0.75243990  0.26819883  1
  Se  Se9  1  0.86765045  0.74756010  0.76819883  1
  Se  Se10  1  0.86765045  0.24756010  0.73180117  1
  Se  Se11  1  0.32884607  0.71783317  0.66965670  1
  Se  Se12  1  0.67115393  0.78216683  0.16965670  1
  Se  Se13  1  0.32884607  0.21783317  0.83034330  1
  Se  Se14  1  0.13234955  0.25243990  0.23180117  1
  Se  Se15  1  0.67115393  0.28216683  0.33034330  1
  O  O16  1  0.14532443  0.47708606  0.89226677  1
  O  O17  1  0.58778209  0.27622343  0.15573296  1
  O  O18  1  0.42037070  0.56763964  0.59156129  1
  O  O19  1  0.55484130  0.61103512  0.09317939  1
  O  O20  1  0.44515870  0.88896488  0.59317939  1
  O  O21  1  0.41221791  0.22377657  0.65573296  1
  O  O22  1  0.57962930  0.93236036  0.09156129  1
  O  O23  1  0.41221791  0.72377657  0.84426704  1
  O  O24  1  0.22916650  0.22943933  0.39840125  1
  O  O25  1  0.44515870  0.38896488  0.90682061  1
  O  O26  1  0.77083350  0.27056067  0.89840125  1
  O  O27  1  0.72299415  0.07584439  0.68643334  1
  O  O28  1  0.85467557  0.02291394  0.39226677  1
  O  O29  1  0.14532443  0.97708606  0.60773323  1
  O  O30  1  0.55484130  0.11103512  0.40682061  1
  O  O31  1  0.22916650  0.72943933  0.10159875  1
  O  O32  1  0.27700585  0.92415561  0.31356666  1
  O  O33  1  0.42037070  0.06763964  0.90843871  1
  O  O34  1  0.17977283  0.61837757  0.39318895  1
  O  O35  1  0.82022717  0.38162243  0.60681105  1
  O  O36  1  0.58778209  0.77622343  0.34426704  1
  O  O37  1  0.17977283  0.11837757  0.10681105  1
  O  O38  1  0.82022717  0.88162243  0.89318895  1
  O  O39  1  0.27700585  0.42415561  0.18643334  1
  O  O40  1  0.85467557  0.52291394  0.10773323  1
  O  O41  1  0.72299415  0.57584439  0.81356666  1
  O  O42  1  0.57962930  0.43236036  0.40843871  1
  O  O43  1  0.77083350  0.77056067  0.60159875  1
