# generated using pymatgen
data_Sr9Cr5O18
_symmetry_space_group_name_H-M   'P 1'
_cell_length_a   5.46575194
_cell_length_b   10.94101458
_cell_length_c   15.46083924
_cell_angle_alpha   90.00000000
_cell_angle_beta   100.18116185
_cell_angle_gamma   90.00000000
_symmetry_Int_Tables_number   1
_chemical_formula_structural   Sr9Cr5O18
_chemical_formula_sum   'Sr18 Cr10 O36'
_cell_volume   910.01315320
_cell_formula_units_Z   2
loop_
 _symmetry_equiv_pos_site_id
 _symmetry_equiv_pos_as_xyz
  1  'x, y, z'
loop_
 _atom_site_type_symbol
 _atom_site_label
 _atom_site_symmetry_multiplicity
 _atom_site_fract_x
 _atom_site_fract_y
 _atom_site_fract_z
 _atom_site_occupancy
  Sr  Sr0  1  0.79525965  0.74912106  0.59019759  1
  Sr  Sr1  1  0.20474035  0.24912106  0.40980241  1
  Sr  Sr2  1  0.79493794  0.24912106  0.59019759  1
  Sr  Sr3  1  0.20506206  0.74912106  0.40980241  1
  Sr  Sr4  1  0.29232877  0.99883343  0.58655437  1
  Sr  Sr5  1  0.70767123  0.49883343  0.41344563  1
  Sr  Sr6  1  0.29422560  0.49883343  0.58655437  1
  Sr  Sr7  1  0.70577440  0.99883343  0.41344563  1
  Sr  Sr8  1  0.91005573  0.74761780  0.83248987  1
  Sr  Sr9  1  0.08994427  0.24761780  0.16751013  1
  Sr  Sr10  1  0.92243415  0.24761780  0.83248987  1
  Sr  Sr11  1  0.07756585  0.74761780  0.16751013  1
  Sr  Sr12  1  0.41500276  0.00180454  0.83165303  1
  Sr  Sr13  1  0.58499724  0.50180454  0.16834697  1
  Sr  Sr14  1  0.41665027  0.50180454  0.83165303  1
  Sr  Sr15  1  0.58334973  0.00180454  0.16834697  1
  Sr  Sr16  1  0.99551997  0.50052027  0.00000000  1
  Sr  Sr17  1  0.00448003  0.00052027  1.00000000  1
  Cr  Cr18  1  0.34874673  0.74888993  0.69779328  1
  Cr  Cr19  1  0.65125327  0.24888993  0.30220672  1
  Cr  Cr20  1  0.34904755  0.24888993  0.69779328  1
  Cr  Cr21  1  0.65095245  0.74888993  0.30220672  1
  Cr  Cr22  1  0.85358958  0.99865835  0.70932801  1
  Cr  Cr23  1  0.14641042  0.49865835  0.29067199  1
  Cr  Cr24  1  0.85573843  0.49865835  0.70932801  1
  Cr  Cr25  1  0.14426157  0.99865835  0.29067199  1
  Cr  Cr26  1  0.55928905  0.27975319  0.00000000  1
  Cr  Cr27  1  0.44071095  0.77975319  0.00000000  1
  O  O28  1  0.59820549  0.62804747  0.71239056  1
  O  O29  1  0.40179451  0.12804747  0.28760944  1
  O  O30  1  0.11418508  0.12804747  0.71239056  1
  O  O31  1  0.88581492  0.62804747  0.28760944  1
  O  O32  1  0.11589553  0.62858400  0.71451549  1
  O  O33  1  0.88410447  0.12858400  0.28548451  1
  O  O34  1  0.59861996  0.12858400  0.71451549  1
  O  O35  1  0.40138004  0.62858400  0.28548451  1
  O  O36  1  0.59779039  0.86928519  0.71459051  1
  O  O37  1  0.40220961  0.36928519  0.28540949  1
  O  O38  1  0.11680013  0.36928519  0.71459051  1
  O  O39  1  0.88319987  0.86928519  0.28540949  1
  O  O40  1  0.11636392  0.86904706  0.71627143  1
  O  O41  1  0.88363608  0.36904706  0.28372857  1
  O  O42  1  0.59990751  0.36904706  0.71627143  1
  O  O43  1  0.91866404  0.99960063  0.84431808  1
  O  O44  1  0.40009249  0.86904706  0.28372857  1
  O  O45  1  0.71526865  0.24969233  0.42666042  1
  O  O46  1  0.28860722  0.24969233  0.57333958  1
  O  O47  1  0.71139278  0.74969233  0.42666042  1
  O  O48  1  0.78635256  0.99797881  0.57570187  1
  O  O49  1  0.21364744  0.49797881  0.42429813  1
  O  O50  1  0.78934931  0.49797881  0.57570187  1
  O  O51  1  0.21065069  0.99797881  0.42429813  1
  O  O52  1  0.49373095  0.72506837  0.89462317  1
  O  O53  1  0.50626905  0.22506837  0.10537683  1
  O  O54  1  0.40089221  0.22506837  0.89462317  1
  O  O55  1  0.59910779  0.72506837  0.10537683  1
  O  O56  1  0.48497780  0.94603307  0.00000000  1
  O  O57  1  0.51502220  0.44603307  1.00000000  1
  O  O58  1  0.10655994  0.75923350  1.00000000  1
  O  O59  1  0.89344006  0.25923350  0.00000000  1
  O  O60  1  0.07434595  0.99960063  0.15568192  1
  O  O61  1  0.92565405  0.49960063  0.84431808  1
  O  O62  1  0.08133596  0.49960063  0.15568192  1
  O  O63  1  0.28473135  0.74969233  0.57333958  1
