# generated using pymatgen
data_K8Th(MoO4)6
_symmetry_space_group_name_H-M   'P 1'
_cell_length_a   10.50619533
_cell_length_b   10.51680527
_cell_length_c   14.75313586
_cell_angle_alpha   75.81537316
_cell_angle_beta   83.13806786
_cell_angle_gamma   61.72157703
_symmetry_Int_Tables_number   1
_chemical_formula_structural   K8Th(MoO4)6
_chemical_formula_sum   'K16 Th2 Mo12 O48'
_cell_volume   1391.77569414
_cell_formula_units_Z   2
loop_
 _symmetry_equiv_pos_site_id
 _symmetry_equiv_pos_as_xyz
  1  'x, y, z'
loop_
 _atom_site_type_symbol
 _atom_site_label
 _atom_site_symmetry_multiplicity
 _atom_site_fract_x
 _atom_site_fract_y
 _atom_site_fract_z
 _atom_site_occupancy
  K  K0  1  0.99536453  0.35578802  0.45658286  1
  K  K1  1  0.66632040  0.50417607  0.94982613  1
  K  K2  1  0.99043614  0.15428482  0.04134028  1
  K  K3  1  0.33367960  0.49582393  0.05017387  1
  K  K4  1  0.00956386  0.84571518  0.95865972  1
  K  K5  1  0.32373954  0.98290756  0.55281844  1
  K  K6  1  0.31089030  0.20516021  0.95148838  1
  K  K7  1  0.68910970  0.79483979  0.04851162  1
  K  K8  1  0.00463547  0.64421198  0.54341714  1
  K  K9  1  0.01632814  0.24885047  0.74806032  1
  K  K10  1  0.98367186  0.75114953  0.25193968  1
  K  K11  1  0.67626046  0.01709244  0.44718156  1
  K  K12  1  0.33297739  0.57646673  0.75159055  1
  K  K13  1  0.66935256  0.32192002  0.54139271  1
  K  K14  1  0.66702261  0.42353327  0.24840945  1
  K  K15  1  0.33064744  0.67807998  0.45860729  1
  Th  Th16  1  0.30856259  0.06853817  0.24879720  1
  Th  Th17  1  0.69143741  0.93146183  0.75120280  1
  Mo  Mo18  1  0.67046195  0.11184848  0.15590529  1
  Mo  Mo19  1  0.34836284  0.27040274  0.64655613  1
  Mo  Mo20  1  0.99070939  0.94925665  0.64552904  1
  Mo  Mo21  1  0.33103516  0.39091941  0.34310841  1
  Mo  Mo22  1  0.66896484  0.60908059  0.65689159  1
  Mo  Mo23  1  0.00155952  0.44616920  0.14965761  1
  Mo  Mo24  1  0.32953805  0.88815152  0.84409471  1
  Mo  Mo25  1  0.33423730  0.80335706  0.14367600  1
  Mo  Mo26  1  0.99844048  0.55383080  0.85034239  1
  Mo  Mo27  1  0.65163716  0.72959726  0.35344387  1
  Mo  Mo28  1  0.66576270  0.19664294  0.85632400  1
  Mo  Mo29  1  0.00929061  0.05074335  0.35447096  1
  O  O30  1  0.37202444  0.43209997  0.60227125  1
  O  O31  1  0.20245995  0.28170437  0.58824074  1
  O  O32  1  0.49862955  0.09980789  0.16607251  1
  O  O33  1  0.35882143  0.70630095  0.90121129  1
  O  O34  1  0.00742178  0.61696322  0.10347934  1
  O  O35  1  0.17519244  0.80717282  0.11013523  1
  O  O36  1  0.79754005  0.71829563  0.41175926  1
  O  O37  1  0.99257822  0.38303678  0.89652066  1
  O  O38  1  0.64249334  0.50948658  0.76741516  1
  O  O39  1  0.85284276  0.19315522  0.39491759  1
  O  O40  1  0.80373580  0.98339016  0.09225983  1
  O  O41  1  0.51254351  0.09637135  0.63353841  1
  O  O42  1  0.96573043  0.42955836  0.27126030  1
  O  O43  1  0.30569592  0.25714894  0.76735866  1
  O  O44  1  0.82284093  0.48267891  0.60300813  1
  O  O45  1  0.48890915  0.32148373  0.41109267  1
  O  O46  1  0.69647961  0.76481949  0.67075230  1
  O  O47  1  0.50137045  0.90019211  0.83392749  1
  O  O48  1  0.30352039  0.23518051  0.32924770  1
  O  O49  1  0.05324823  0.09371555  0.23076408  1
  O  O50  1  0.17715907  0.51732109  0.39699187  1
  O  O51  1  0.66079268  0.19630083  0.73304090  1
  O  O52  1  0.85769926  0.44861714  0.09426765  1
  O  O53  1  0.62797556  0.56790003  0.39772875  1
  O  O54  1  0.03426957  0.57044164  0.72873970  1
  O  O55  1  0.01085353  0.87614745  0.39385012  1
  O  O56  1  0.51109085  0.67851627  0.58890733  1
  O  O57  1  0.94675177  0.90628445  0.76923592  1
  O  O58  1  0.19626420  0.01660984  0.90774017  1
  O  O59  1  0.33920732  0.80369917  0.26695910  1
  O  O60  1  0.74400364  0.07171760  0.26806723  1
  O  O61  1  0.17138038  0.03847943  0.39801133  1
  O  O62  1  0.67217634  0.01527635  0.89977744  1
  O  O63  1  0.82861962  0.96152057  0.60198867  1
  O  O64  1  0.98914647  0.12385255  0.60614988  1
  O  O65  1  0.35750666  0.49051342  0.23258484  1
  O  O66  1  0.82480756  0.19282718  0.88986477  1
  O  O67  1  0.48745649  0.90362865  0.36646159  1
  O  O68  1  0.14715724  0.80684478  0.60508241  1
  O  O69  1  0.14230074  0.55138286  0.90573235  1
  O  O70  1  0.32782366  0.98472365  0.10022256  1
  O  O71  1  0.25599636  0.92828240  0.73193277  1
  O  O72  1  0.17988175  0.28925497  0.13224411  1
  O  O73  1  0.49487748  0.66849715  0.10071775  1
  O  O74  1  0.69430408  0.74285106  0.23264134  1
  O  O75  1  0.64117857  0.29369905  0.09878871  1
  O  O76  1  0.50512252  0.33150285  0.89928225  1
  O  O77  1  0.82011825  0.71074503  0.86775589  1
