# generated using pymatgen
data_LaBMoO6
_symmetry_space_group_name_H-M   'P 1'
_cell_length_a   4.19567097
_cell_length_b   10.42011275
_cell_length_c   21.76967874
_cell_angle_alpha   90.68087647
_cell_angle_beta   90.00000000
_cell_angle_gamma   90.00000000
_symmetry_Int_Tables_number   1
_chemical_formula_structural   LaBMoO6
_chemical_formula_sum   'La8 B8 Mo8 O48'
_cell_volume   951.68931892
_cell_formula_units_Z   8
loop_
 _symmetry_equiv_pos_site_id
 _symmetry_equiv_pos_as_xyz
  1  'x, y, z'
loop_
 _atom_site_type_symbol
 _atom_site_label
 _atom_site_symmetry_multiplicity
 _atom_site_fract_x
 _atom_site_fract_y
 _atom_site_fract_z
 _atom_site_occupancy
  La  La0  1  0.74395827  0.56867068  0.23466013  1
  La  La1  1  0.75604173  0.06867068  0.73466013  1
  La  La2  1  0.28778337  0.18253396  0.01580134  1
  La  La3  1  0.24395827  0.93132932  0.26533987  1
  La  La4  1  0.78778337  0.31746604  0.48419866  1
  La  La5  1  0.21221663  0.68253396  0.51580134  1
  La  La6  1  0.25604173  0.43132932  0.76533987  1
  La  La7  1  0.71221663  0.81746604  0.98419866  1
  B  B8  1  0.33398781  0.40228442  0.59536851  1
  B  B9  1  0.66601219  0.59771558  0.40463149  1
  B  B10  1  0.66625569  0.84884766  0.15388072  1
  B  B11  1  0.16625569  0.65115234  0.34611928  1
  B  B12  1  0.83398781  0.09771558  0.90463149  1
  B  B13  1  0.16601219  0.90228442  0.09536851  1
  B  B14  1  0.83374431  0.34884766  0.65388072  1
  B  B15  1  0.33374431  0.15115234  0.84611928  1
  Mo  Mo16  1  0.67569519  0.94396420  0.40976914  1
  Mo  Mo17  1  0.19905677  0.30455313  0.33976114  1
  Mo  Mo18  1  0.80094323  0.69544687  0.66023886  1
  Mo  Mo19  1  0.82430481  0.44396420  0.90976914  1
  Mo  Mo20  1  0.69905677  0.19544687  0.16023886  1
  Mo  Mo21  1  0.30094323  0.80455313  0.83976114  1
  Mo  Mo22  1  0.17569519  0.55603580  0.09023086  1
  Mo  Mo23  1  0.32430481  0.05603580  0.59023086  1
  O  O24  1  0.21679992  0.81949492  0.92345752  1
  O  O25  1  0.28320008  0.31949492  0.42345752  1
  O  O26  1  0.25294775  0.40419715  0.05483256  1
  O  O27  1  0.84192991  0.61908653  0.35096611  1
  O  O28  1  0.28431987  0.44115258  0.29146265  1
  O  O29  1  0.75294775  0.09580285  0.44516744  1
  O  O30  1  0.26092041  0.69231437  0.04159183  1
  O  O31  1  0.76482413  0.79694854  0.20660084  1
  O  O32  1  0.65807009  0.11908653  0.85096611  1
  O  O33  1  0.75792646  0.92873970  0.32608827  1
  O  O34  1  0.71568013  0.55884742  0.70853735  1
  O  O35  1  0.24786427  0.43473874  0.90221097  1
  O  O36  1  0.78431987  0.05884742  0.20853735  1
  O  O37  1  0.26482413  0.70305146  0.29339916  1
  O  O38  1  0.73024852  0.04557485  0.95688506  1
  O  O39  1  0.26975148  0.95442515  0.04311494  1
  O  O40  1  0.77669300  0.34764775  0.19551251  1
  O  O41  1  0.22330700  0.65235225  0.80448749  1
  O  O42  1  0.34192991  0.88091347  0.14903389  1
  O  O43  1  0.22397539  0.68678763  0.65239261  1
  O  O44  1  0.75213573  0.56526126  0.09778903  1
  O  O45  1  0.73517587  0.29694854  0.70660084  1
  O  O46  1  0.74786427  0.06526126  0.59778903  1
  O  O47  1  0.21568013  0.94115258  0.79146265  1
  O  O48  1  0.23517587  0.20305146  0.79339916  1
  O  O49  1  0.15807009  0.38091347  0.64903389  1
  O  O50  1  0.27669300  0.15235225  0.30448749  1
  O  O51  1  0.84186434  0.87059308  0.10030828  1
  O  O52  1  0.76092041  0.80768563  0.45840817  1
  O  O53  1  0.25213573  0.93473874  0.40221097  1
  O  O54  1  0.34186434  0.62940692  0.39969172  1
  O  O55  1  0.24705225  0.90419715  0.55483256  1
  O  O56  1  0.73907959  0.30768563  0.95840817  1
  O  O57  1  0.27602461  0.18678763  0.15239261  1
  O  O58  1  0.77602461  0.31321237  0.34760739  1
  O  O59  1  0.15813566  0.12940692  0.89969172  1
  O  O60  1  0.23907959  0.19231437  0.54159183  1
  O  O61  1  0.71679992  0.68050508  0.57654248  1
  O  O62  1  0.72397539  0.81321237  0.84760739  1
  O  O63  1  0.76975148  0.54557485  0.45688506  1
  O  O64  1  0.74705225  0.59580285  0.94516744  1
  O  O65  1  0.72330700  0.84764775  0.69551251  1
  O  O66  1  0.74207354  0.42873970  0.82608827  1
  O  O67  1  0.23024852  0.45442515  0.54311494  1
  O  O68  1  0.25792646  0.57126030  0.17391173  1
  O  O69  1  0.65813566  0.37059308  0.60030828  1
  O  O70  1  0.78320008  0.18050508  0.07654248  1
  O  O71  1  0.24207354  0.07126030  0.67391173  1
