# generated using pymatgen
data_U3TiS6
_symmetry_space_group_name_H-M   'P 1'
_cell_length_a   3.70045393
_cell_length_b   10.49471348
_cell_length_c   10.32417083
_cell_angle_alpha   90.00000000
_cell_angle_beta   90.00000000
_cell_angle_gamma   90.00000000
_symmetry_Int_Tables_number   1
_chemical_formula_structural   U3TiS6
_chemical_formula_sum   'U6 Ti2 S12'
_cell_volume   400.94127764
_cell_formula_units_Z   2
loop_
 _symmetry_equiv_pos_site_id
 _symmetry_equiv_pos_as_xyz
  1  'x, y, z'
loop_
 _atom_site_type_symbol
 _atom_site_label
 _atom_site_symmetry_multiplicity
 _atom_site_fract_x
 _atom_site_fract_y
 _atom_site_fract_z
 _atom_site_occupancy
  U  U0  1  0.25000000  0.50753409  0.31598561  1
  U  U1  1  0.25000000  0.99246591  0.81598561  1
  U  U2  1  0.25000000  0.17596196  0.48384177  1
  U  U3  1  0.25000000  0.32403804  0.98384177  1
  U  U4  1  0.75000000  0.81247203  0.51554328  1
  U  U5  1  0.75000000  0.68752797  0.01554328  1
  Ti  Ti6  1  0.75000000  0.46872719  0.67369700  1
  Ti  Ti7  1  0.75000000  0.03127281  0.17369700  1
  S  S8  1  0.25000000  0.30530955  0.71879162  1
  S  S9  1  0.25000000  0.19469045  0.21879162  1
  S  S10  1  0.75000000  0.69763144  0.28102902  1
  S  S11  1  0.75000000  0.80236856  0.78102902  1
  S  S12  1  0.75000000  0.05532972  0.62795654  1
  S  S13  1  0.75000000  0.44467028  0.12795654  1
  S  S14  1  0.25000000  0.94286698  0.36905450  1
  S  S15  1  0.25000000  0.55713302  0.86905450  1
  S  S16  1  0.25000000  0.61747109  0.56301891  1
  S  S17  1  0.25000000  0.88252891  0.06301891  1
  S  S18  1  0.75000000  0.36692251  0.45108175  1
  S  S19  1  0.75000000  0.13307749  0.95108175  1
