# generated using pymatgen
data_Sr2UFeO6
_symmetry_space_group_name_H-M   'P 1'
_cell_length_a   5.97978493
_cell_length_b   5.89904741
_cell_length_c   8.18846465
_cell_angle_alpha   89.75222202
_cell_angle_beta   90.00000000
_cell_angle_gamma   90.00000000
_symmetry_Int_Tables_number   1
_chemical_formula_structural   Sr2UFeO6
_chemical_formula_sum   'Sr4 U2 Fe2 O12'
_cell_volume   288.84567444
_cell_formula_units_Z   2
loop_
 _symmetry_equiv_pos_site_id
 _symmetry_equiv_pos_as_xyz
  1  'x, y, z'
loop_
 _atom_site_type_symbol
 _atom_site_label
 _atom_site_symmetry_multiplicity
 _atom_site_fract_x
 _atom_site_fract_y
 _atom_site_fract_z
 _atom_site_occupancy
  Sr  Sr0  1  0.45856426  0.50923230  0.75125932  1
  Sr  Sr1  1  0.04143574  0.00923230  0.25125932  1
  Sr  Sr2  1  0.54143574  0.49076770  0.24874068  1
  Sr  Sr3  1  0.95856426  0.99076770  0.74874068  1
  U  U4  1  0.50000000  0.00000000  0.00000000  1
  U  U5  1  0.00000000  0.50000000  0.50000000  1
  Fe  Fe6  1  0.00000000  0.50000000  0.00000000  1
  Fe  Fe7  1  0.50000000  0.00000000  0.50000000  1
  O  O8  1  0.79708547  0.21988769  0.45686251  1
  O  O9  1  0.22046416  0.79764539  0.95516273  1
  O  O10  1  0.77953584  0.20235461  0.04483727  1
  O  O11  1  0.29708547  0.28011231  0.04313749  1
  O  O12  1  0.70291453  0.71988769  0.95686251  1
  O  O13  1  0.27953584  0.29764539  0.45516273  1
  O  O14  1  0.47676458  0.91594200  0.25130635  1
  O  O15  1  0.97676458  0.58405800  0.24869365  1
  O  O16  1  0.20291453  0.78011231  0.54313749  1
  O  O17  1  0.72046416  0.70235461  0.54483727  1
  O  O18  1  0.02323542  0.41594200  0.75130635  1
  O  O19  1  0.52323542  0.08405800  0.74869365  1
