# generated using pymatgen
data_SiO2
_symmetry_space_group_name_H-M   'P 1'
_cell_length_a   5.16231008
_cell_length_b   6.98168892
_cell_length_c   6.98168951
_cell_angle_alpha   75.93460788
_cell_angle_beta   70.95709648
_cell_angle_gamma   70.95709363
_symmetry_Int_Tables_number   1
_chemical_formula_structural   SiO2
_chemical_formula_sum   'Si4 O8'
_cell_volume   222.20199873
_cell_formula_units_Z   4
loop_
 _symmetry_equiv_pos_site_id
 _symmetry_equiv_pos_as_xyz
  1  'x, y, z'
loop_
 _atom_site_type_symbol
 _atom_site_label
 _atom_site_symmetry_multiplicity
 _atom_site_fract_x
 _atom_site_fract_y
 _atom_site_fract_z
 _atom_site_occupancy
  Si  Si0  1  0.63338367  0.05337437  0.25713523  1
  Si  Si1  1  0.86661633  0.74286477  0.94662563  1
  Si  Si2  1  0.36661633  0.94662563  0.74286477  1
  Si  Si3  1  0.13338367  0.25713523  0.05337437  1
  O  O4  1  0.00000000  0.50000000  -0.00000000  1
  O  O5  1  0.50000000  -0.00000000  0.50000000  1
  O  O6  1  0.10534141  0.84838463  0.78028420  1
  O  O7  1  0.39465859  0.21971580  0.15161537  1
  O  O8  1  0.75000000  0.84244844  0.15755156  1
  O  O9  1  0.25000000  0.15755156  0.84244844  1
  O  O10  1  0.60534141  0.78028420  0.84838463  1
  O  O11  1  0.89465859  0.15161537  0.21971580  1
