# generated using pymatgen
data_Fe5Cu2(PO4)6
_symmetry_space_group_name_H-M   'P 1'
_cell_length_a   6.33495064
_cell_length_b   8.05310281
_cell_length_c   9.45759749
_cell_angle_alpha   105.65737782
_cell_angle_beta   107.44960896
_cell_angle_gamma   101.09698830
_symmetry_Int_Tables_number   1
_chemical_formula_structural   Fe5Cu2(PO4)6
_chemical_formula_sum   'Fe5 Cu2 P6 O24'
_cell_volume   423.11949808
_cell_formula_units_Z   1
loop_
 _symmetry_equiv_pos_site_id
 _symmetry_equiv_pos_as_xyz
  1  'x, y, z'
loop_
 _atom_site_type_symbol
 _atom_site_label
 _atom_site_symmetry_multiplicity
 _atom_site_fract_x
 _atom_site_fract_y
 _atom_site_fract_z
 _atom_site_occupancy
  Fe  Fe0  1  0.38403402  0.45343215  0.11639608  1
  Fe  Fe1  1  0.04935376  0.72140497  0.52639270  1
  Fe  Fe2  1  0.00000000  0.00000000  0.00000000  1
  Fe  Fe3  1  0.61596598  0.54656785  0.88360392  1
  Fe  Fe4  1  0.95064624  0.27859503  0.47360730  1
  Cu  Cu5  1  0.73970728  0.19484453  0.72982522  1
  Cu  Cu6  1  0.26029272  0.80515547  0.27017478  1
  P  P7  1  0.39967613  0.22835570  0.36995218  1
  P  P8  1  0.23238563  0.14827587  0.77118337  1
  P  P9  1  0.90598441  0.40665218  0.16898208  1
  P  P10  1  0.76761437  0.85172413  0.22881663  1
  P  P11  1  0.09401559  0.59334782  0.83101792  1
  P  P12  1  0.60032387  0.77164430  0.63004782  1
  O  O13  1  0.12213209  0.53426050  0.16256835  1
  O  O14  1  0.79372581  0.05055730  0.29486497  1
  O  O15  1  0.63666792  0.24271462  0.49059186  1
  O  O16  1  0.24772690  0.27545990  0.46431592  1
  O  O17  1  0.97987010  0.80640013  0.33284813  1
  O  O18  1  0.56160181  0.63971616  0.71776113  1
  O  O19  1  0.87786791  0.46573950  0.83743165  1
  O  O20  1  0.68948412  0.46120334  0.08457886  1
  O  O21  1  0.46243849  0.26277514  0.77140256  1
  O  O22  1  0.76798869  0.79984175  0.05680540  1
  O  O23  1  0.88639741  0.21345570  0.08535409  1
  O  O24  1  0.36333208  0.75728538  0.50940814  1
  O  O25  1  0.93057948  0.45082852  0.34569176  1
  O  O26  1  0.06942052  0.54917148  0.65430824  1
  O  O27  1  0.02012990  0.19359987  0.66715187  1
  O  O28  1  0.53756151  0.73722486  0.22859744  1
  O  O29  1  0.11360259  0.78654430  0.91464591  1
  O  O30  1  0.75227310  0.72454010  0.53568408  1
  O  O31  1  0.43839819  0.36028384  0.28223887  1
  O  O32  1  0.23201131  0.20015825  0.94319460  1
  O  O33  1  0.28068589  0.03586892  0.23874695  1
  O  O34  1  0.31051588  0.53879666  0.91542114  1
  O  O35  1  0.20627419  0.94944270  0.70513503  1
  O  O36  1  0.71931411  0.96413108  0.76125305  1
