# generated using pymatgen
data_Y2Si2O7
_symmetry_space_group_name_H-M   'P 1'
_cell_length_a   5.09407783
_cell_length_b   7.41782377
_cell_length_c   8.15220351
_cell_angle_alpha   90.00000000
_cell_angle_beta   90.00000000
_cell_angle_gamma   108.76854805
_symmetry_Int_Tables_number   1
_chemical_formula_structural   Y2Si2O7
_chemical_formula_sum   'Y4 Si4 O14'
_cell_volume   291.66699388
_cell_formula_units_Z   2
loop_
 _symmetry_equiv_pos_site_id
 _symmetry_equiv_pos_as_xyz
  1  'x, y, z'
loop_
 _atom_site_type_symbol
 _atom_site_label
 _atom_site_symmetry_multiplicity
 _atom_site_fract_x
 _atom_site_fract_y
 _atom_site_fract_z
 _atom_site_occupancy
  Y  Y0  1  0.26944928  0.74825097  0.50778855  1
  Y  Y1  1  0.73055072  0.25174903  0.49221145  1
  Y  Y2  1  0.73055072  0.25174903  0.00778855  1
  Y  Y3  1  0.26944928  0.74825097  0.99221145  1
  Si  Si4  1  0.78630335  0.86704306  0.75000000  1
  Si  Si5  1  0.34612835  0.42678654  0.75000000  1
  Si  Si6  1  0.21369665  0.13295694  0.25000000  1
  Si  Si7  1  0.65387165  0.57321346  0.25000000  1
  O  O8  1  0.71634526  0.96585411  0.58467973  1
  O  O9  1  0.28365474  0.03414589  0.08467973  1
  O  O10  1  0.16855338  0.40729408  0.91921590  1
  O  O11  1  0.49046942  0.33535940  0.25000000  1
  O  O12  1  0.16855338  0.40729408  0.58078410  1
  O  O13  1  0.28365474  0.03414589  0.41532027  1
  O  O14  1  0.83144662  0.59270592  0.41921590  1
  O  O15  1  0.56958561  0.31216033  0.75000000  1
  O  O16  1  0.43041439  0.68783967  0.25000000  1
  O  O17  1  0.07141810  0.81448390  0.75000000  1
  O  O18  1  0.50953058  0.66464060  0.75000000  1
  O  O19  1  0.83144662  0.59270592  0.08078410  1
  O  O20  1  0.71634526  0.96585411  0.91532027  1
  O  O21  1  0.92858190  0.18551610  0.25000000  1
