# generated using pymatgen
data_Hg4AsI5
_symmetry_space_group_name_H-M   'P 1'
_cell_length_a   8.80347025
_cell_length_b   8.80347050
_cell_length_c   20.55056148
_cell_angle_alpha   90.00000000
_cell_angle_beta   90.00000000
_cell_angle_gamma   90.55571175
_symmetry_Int_Tables_number   1
_chemical_formula_structural   Hg4AsI5
_chemical_formula_sum   'Hg16 As4 I20'
_cell_volume   1592.61601683
_cell_formula_units_Z   4
loop_
 _symmetry_equiv_pos_site_id
 _symmetry_equiv_pos_as_xyz
  1  'x, y, z'
loop_
 _atom_site_type_symbol
 _atom_site_label
 _atom_site_symmetry_multiplicity
 _atom_site_fract_x
 _atom_site_fract_y
 _atom_site_fract_z
 _atom_site_occupancy
  Hg  Hg0  1  0.94285385  0.73432152  0.82784335  1
  Hg  Hg1  1  0.44693787  0.55306213  0.82934320  1
  Hg  Hg2  1  0.26545624  0.73454376  0.67093770  1
  Hg  Hg3  1  0.05714615  0.26567848  0.17215665  1
  Hg  Hg4  1  0.76545624  0.23454376  0.82906230  1
  Hg  Hg5  1  0.55714615  0.76567848  0.32784335  1
  Hg  Hg6  1  0.26567848  0.05714615  0.82784335  1
  Hg  Hg7  1  0.44285385  0.23432152  0.67215665  1
  Hg  Hg8  1  0.55306213  0.44693787  0.17065680  1
  Hg  Hg9  1  0.23454376  0.76545624  0.17093770  1
  Hg  Hg10  1  0.05306213  0.94693787  0.32934320  1
  Hg  Hg11  1  0.94693787  0.05306213  0.67065680  1
  Hg  Hg12  1  0.73432152  0.94285385  0.17215665  1
  Hg  Hg13  1  0.73454376  0.26545624  0.32906230  1
  Hg  Hg14  1  0.23432152  0.44285385  0.32784335  1
  Hg  Hg15  1  0.76567848  0.55714615  0.67215665  1
  As  As16  1  0.89395406  0.10604594  0.25046256  1
  As  As17  1  0.10604594  0.89395406  0.74953744  1
  As  As18  1  0.39395406  0.60604594  0.24953744  1
  As  As19  1  0.60604594  0.39395406  0.75046256  1
  I  I20  1  0.07264979  0.92735021  0.08374248  1
  I  I21  1  0.78732023  0.21267977  0.58249239  1
  I  I22  1  0.93125998  0.70922094  0.58257932  1
  I  I23  1  0.57264979  0.42735021  0.41625752  1
  I  I24  1  0.89020956  0.60979044  0.25000000  1
  I  I25  1  0.70922094  0.93125998  0.41742068  1
  I  I26  1  0.42735021  0.57264979  0.58374248  1
  I  I27  1  0.20922094  0.43125998  0.08257932  1
  I  I28  1  0.60979044  0.89020956  0.75000000  1
  I  I29  1  0.06874002  0.29077906  0.41742068  1
  I  I30  1  0.29077906  0.06874002  0.58257932  1
  I  I31  1  0.10979044  0.39020956  0.75000000  1
  I  I32  1  0.92735021  0.07264979  0.91625752  1
  I  I33  1  0.71267977  0.28732023  0.08249239  1
  I  I34  1  0.21267977  0.78732023  0.41750761  1
  I  I35  1  0.43125998  0.20922094  0.91742068  1
  I  I36  1  0.28732023  0.71267977  0.91750761  1
  I  I37  1  0.56874002  0.79077906  0.08257932  1
  I  I38  1  0.39020956  0.10979044  0.25000000  1
  I  I39  1  0.79077906  0.56874002  0.91742068  1
