# generated using pymatgen
data_La4Cu3MoO12
_symmetry_space_group_name_H-M   'P 1'
_cell_length_a   6.93994611
_cell_length_b   7.99152652
_cell_length_c   10.94717902
_cell_angle_alpha   90.00000000
_cell_angle_beta   90.00000000
_cell_angle_gamma   90.07922351
_symmetry_Int_Tables_number   1
_chemical_formula_structural   La4Cu3MoO12
_chemical_formula_sum   'La8 Cu6 Mo2 O24'
_cell_volume   607.13832477
_cell_formula_units_Z   2
loop_
 _symmetry_equiv_pos_site_id
 _symmetry_equiv_pos_as_xyz
  1  'x, y, z'
loop_
 _atom_site_type_symbol
 _atom_site_label
 _atom_site_symmetry_multiplicity
 _atom_site_fract_x
 _atom_site_fract_y
 _atom_site_fract_z
 _atom_site_occupancy
  La  La0  1  0.23755039  0.63005469  0.49843946  1
  La  La1  1  0.75122106  0.87951282  0.99785941  1
  La  La2  1  0.23755039  0.63005469  0.00156054  1
  La  La3  1  0.76244961  0.36994531  0.99843946  1
  La  La4  1  0.24877894  0.12048718  0.00214059  1
  La  La5  1  0.24877894  0.12048718  0.49785941  1
  La  La6  1  0.76244961  0.36994531  0.50156054  1
  La  La7  1  0.75122106  0.87951282  0.50214059  1
  Cu  Cu8  1  0.89019502  0.09077060  0.25000000  1
  Cu  Cu9  1  0.11559714  0.34327636  0.75000000  1
  Cu  Cu10  1  0.88440286  0.65672364  0.25000000  1
  Cu  Cu11  1  0.45592323  0.87331649  0.25000000  1
  Cu  Cu12  1  0.54407677  0.12668351  0.75000000  1
  Cu  Cu13  1  0.10980498  0.90922940  0.75000000  1
  Mo  Mo14  1  0.42080436  0.37757227  0.25000000  1
  Mo  Mo15  1  0.57919564  0.62242773  0.75000000  1
  O  O16  1  0.28457510  0.57617870  0.25000000  1
  O  O17  1  0.41984896  0.37651473  0.07362147  1
  O  O18  1  0.58430641  0.12553300  0.58443893  1
  O  O19  1  0.08395738  0.37175931  0.91757656  1
  O  O20  1  0.91497447  0.12245320  0.41654966  1
  O  O21  1  0.91604262  0.62824069  0.41757656  1
  O  O22  1  0.41569359  0.87446700  0.08443893  1
  O  O23  1  0.31178365  0.61974244  0.75000000  1
  O  O24  1  0.71542490  0.42382130  0.75000000  1
  O  O25  1  0.08502553  0.87754680  0.91654966  1
  O  O26  1  0.68821635  0.38025756  0.25000000  1
  O  O27  1  0.08502553  0.87754680  0.58345034  1
  O  O28  1  0.58015104  0.62348527  0.92637853  1
  O  O29  1  0.71013241  0.82406681  0.75000000  1
  O  O30  1  0.91497447  0.12245320  0.08345034  1
  O  O31  1  0.73738434  0.87500730  0.25000000  1
  O  O32  1  0.91604262  0.62824069  0.08242344  1
  O  O33  1  0.41984896  0.37651473  0.42637853  1
  O  O34  1  0.58015104  0.62348527  0.57362147  1
  O  O35  1  0.41569359  0.87446700  0.41556107  1
  O  O36  1  0.08395738  0.37175931  0.58242344  1
  O  O37  1  0.58430641  0.12553300  0.91556107  1
  O  O38  1  0.28986759  0.17593319  0.25000000  1
  O  O39  1  0.26261566  0.12499270  0.75000000  1
