# generated using pymatgen
data_Li6Br3N
_symmetry_space_group_name_H-M   'P 1'
_cell_length_a   11.52442862
_cell_length_b   11.61247352
_cell_length_c   14.02711284
_cell_angle_alpha   114.45192499
_cell_angle_beta   114.25454420
_cell_angle_gamma   89.99999923
_symmetry_Int_Tables_number   1
_chemical_formula_structural   Li6Br3N
_chemical_formula_sum   'Li48 Br24 N8'
_cell_volume   1524.95050414
_cell_formula_units_Z   8
loop_
 _symmetry_equiv_pos_site_id
 _symmetry_equiv_pos_as_xyz
  1  'x, y, z'
loop_
 _atom_site_type_symbol
 _atom_site_label
 _atom_site_symmetry_multiplicity
 _atom_site_fract_x
 _atom_site_fract_y
 _atom_site_fract_z
 _atom_site_occupancy
  Li  Li0  1  0.37538420  0.33580953  0.88380570  1
  Li  Li1  1  0.01061612  0.54906857  0.38616350  1
  Li  Li2  1  0.64188001  0.42227119  0.07030479  1
  Li  Li3  1  0.99157851  0.16419047  0.11619430  1
  Li  Li4  1  0.87554738  0.04906857  0.38616350  1
  Li  Li5  1  0.54535008  0.51435018  0.38496892  1
  Li  Li6  1  0.33350193  0.87945236  0.89208132  1
  Li  Li7  1  0.44142061  0.48737104  0.10791868  1
  Li  Li8  1  0.04535008  0.87061874  0.38496892  1
  Li  Li9  1  0.14188001  0.64803360  0.07030479  1
  Li  Li10  1  0.55857939  0.51262896  0.89208132  1
  Li  Li11  1  0.98938388  0.45093143  0.61383650  1
  Li  Li12  1  0.91458435  0.63872323  0.56008354  1
  Li  Li13  1  0.83350193  0.01262896  0.89208132  1
  Li  Li14  1  0.07157522  0.07772881  0.92969521  1
  Li  Li15  1  0.62445262  0.66290507  0.61383650  1
  Li  Li16  1  0.49157851  0.95200384  0.11619430  1
  Li  Li17  1  0.45464992  0.48564982  0.61503108  1
  Li  Li18  1  0.66649807  0.12054764  0.10791868  1
  Li  Li19  1  0.00842149  0.83580953  0.88380570  1
  Li  Li20  1  0.62461580  0.66419047  0.11619430  1
  Li  Li21  1  0.64549920  0.42136032  0.56008354  1
  Li  Li22  1  0.58541565  0.07863968  0.43991646  1
  Li  Li23  1  0.85450080  0.86127677  0.43991646  1
  Li  Li24  1  0.83961883  0.37061874  0.38496892  1
  Li  Li25  1  0.33961883  0.01435018  0.38496892  1
  Li  Li26  1  0.08541565  0.36127677  0.43991646  1
  Li  Li27  1  0.87538420  0.54799616  0.88380570  1
  Li  Li28  1  0.95464992  0.12938126  0.61503108  1
  Li  Li29  1  0.57157522  0.85196640  0.92969521  1
  Li  Li30  1  0.42842478  0.14803360  0.07030479  1
  Li  Li31  1  0.37554738  0.33709493  0.38616350  1
  Li  Li32  1  0.12445262  0.95093143  0.61383650  1
  Li  Li33  1  0.16038117  0.62938126  0.61503108  1
  Li  Li34  1  0.66038117  0.98564982  0.61503108  1
  Li  Li35  1  0.41458435  0.92136032  0.56008354  1
  Li  Li36  1  0.50842149  0.04799616  0.88380570  1
  Li  Li37  1  0.35811999  0.57772881  0.92969521  1
  Li  Li38  1  0.16649807  0.98737104  0.10791868  1
  Li  Li39  1  0.85811999  0.35196640  0.92969521  1
  Li  Li40  1  0.92842478  0.92227119  0.07030479  1
  Li  Li41  1  0.51061612  0.83709493  0.38616350  1
  Li  Li42  1  0.12461580  0.45200384  0.11619430  1
  Li  Li43  1  0.35450080  0.57863968  0.43991646  1
  Li  Li44  1  0.94142061  0.62054764  0.10791868  1
  Li  Li45  1  0.14549920  0.13872323  0.56008354  1
  Li  Li46  1  0.48938388  0.16290507  0.61383650  1
  Li  Li47  1  0.05857939  0.37945236  0.89208132  1
  Br  Br48  1  0.77903997  0.25000000  0.50000000  1
  Br  Br49  1  0.38582056  0.63582056  0.77164113  1
  Br  Br50  1  0.64081381  0.38397175  0.74564787  1
  Br  Br51  1  0.75000000  0.73028374  1.00000000  1
  Br  Br52  1  0.10483406  0.86167612  0.74564787  1
  Br  Br53  1  0.63683349  0.88683349  0.27366697  1
  Br  Br54  1  0.27903997  0.25000000  0.50000000  1
  Br  Br55  1  0.60483406  0.88397175  0.74564787  1
  Br  Br56  1  0.25000000  0.26971626  0.00000000  1
  Br  Br57  1  0.89516594  0.13832388  0.25435213  1
  Br  Br58  1  0.13683349  0.38683349  0.27366697  1
  Br  Br59  1  0.25000000  0.76971626  0.00000000  1
  Br  Br60  1  0.72096003  0.75000000  0.50000000  1
  Br  Br61  1  0.88582056  0.13582056  0.77164113  1
  Br  Br62  1  0.11417944  0.86417944  0.22835887  1
  Br  Br63  1  0.36316651  0.11316651  0.72633303  1
  Br  Br64  1  0.75000000  0.23028374  1.00000000  1
  Br  Br65  1  0.85918619  0.63832388  0.25435213  1
  Br  Br66  1  0.14081381  0.36167612  0.74564787  1
  Br  Br67  1  0.22096003  0.75000000  0.50000000  1
  Br  Br68  1  0.61417944  0.36417944  0.22835887  1
  Br  Br69  1  0.86316651  0.61316651  0.72633303  1
  Br  Br70  1  0.35918619  0.61602825  0.25435213  1
  Br  Br71  1  0.39516594  0.11602825  0.25435213  1
  N  N72  1  0.50000000  0.00000000  0.50000000  1
  N  N73  1  0.00000000  0.00000000  0.00000000  1
  N  N74  1  0.50000000  0.50000000  0.00000000  1
  N  N75  1  0.00000000  0.00000000  0.50000000  1
  N  N76  1  0.50000000  0.00000000  0.00000000  1
  N  N77  1  0.00000000  0.50000000  0.00000000  1
  N  N78  1  0.00000000  0.50000000  0.50000000  1
  N  N79  1  0.50000000  0.50000000  0.50000000  1
