# generated using pymatgen
data_RbNaMo3O10
_symmetry_space_group_name_H-M   'P 1'
_cell_length_a   7.72239486
_cell_length_b   7.82897505
_cell_length_c   15.83312026
_cell_angle_alpha   90.00000000
_cell_angle_beta   90.00000000
_cell_angle_gamma   90.00000000
_symmetry_Int_Tables_number   1
_chemical_formula_structural   RbNaMo3O10
_chemical_formula_sum   'Rb4 Na4 Mo12 O40'
_cell_volume   957.24569877
_cell_formula_units_Z   4
loop_
 _symmetry_equiv_pos_site_id
 _symmetry_equiv_pos_as_xyz
  1  'x, y, z'
loop_
 _atom_site_type_symbol
 _atom_site_label
 _atom_site_symmetry_multiplicity
 _atom_site_fract_x
 _atom_site_fract_y
 _atom_site_fract_z
 _atom_site_occupancy
  Rb  Rb0  1  0.75000000  0.64099377  0.64576280  1
  Rb  Rb1  1  0.25000000  0.35900623  0.35423720  1
  Rb  Rb2  1  0.75000000  0.14099377  0.85423720  1
  Rb  Rb3  1  0.25000000  0.85900623  0.14576280  1
  Na  Na4  1  0.75000000  0.56232455  0.27658169  1
  Na  Na5  1  0.25000000  0.93767545  0.77658169  1
  Na  Na6  1  0.75000000  0.06232455  0.22341831  1
  Na  Na7  1  0.25000000  0.43767545  0.72341831  1
  Mo  Mo8  1  0.49932393  0.61032866  0.89853693  1
  Mo  Mo9  1  0.75000000  0.23750706  0.44401374  1
  Mo  Mo10  1  0.99932393  0.38967134  0.10146307  1
  Mo  Mo11  1  0.25000000  0.26249294  0.94401374  1
  Mo  Mo12  1  0.00067607  0.61032866  0.89853693  1
  Mo  Mo13  1  0.25000000  0.76249294  0.55598626  1
  Mo  Mo14  1  0.50067607  0.38967134  0.10146307  1
  Mo  Mo15  1  0.75000000  0.73750706  0.05598626  1
  Mo  Mo16  1  0.50067607  0.88967134  0.39853693  1
  Mo  Mo17  1  0.49932393  0.11032866  0.60146307  1
  Mo  Mo18  1  0.00067607  0.11032866  0.60146307  1
  Mo  Mo19  1  0.99932393  0.88967134  0.39853693  1
  O  O20  1  0.51384444  0.15572499  0.46400976  1
  O  O21  1  0.98615556  0.15572499  0.46400976  1
  O  O22  1  0.03302400  0.99603885  0.30235333  1
  O  O23  1  0.02898842  0.32274799  0.63112984  1
  O  O24  1  0.75000000  0.94126977  0.41151207  1
  O  O25  1  0.46697600  0.49603885  0.19764667  1
  O  O26  1  0.01384444  0.34427501  0.96400976  1
  O  O27  1  0.75000000  0.77898692  0.16622688  1
  O  O28  1  0.75000000  0.93732756  0.00945672  1
  O  O29  1  0.46697600  0.99603885  0.30235333  1
  O  O30  1  0.75000000  0.11427525  0.57321678  1
  O  O31  1  0.75000000  0.44126977  0.08848793  1
  O  O32  1  0.96697600  0.50396115  0.80235333  1
  O  O33  1  0.47101158  0.82274799  0.86887016  1
  O  O34  1  0.52898842  0.67725201  0.36887016  1
  O  O35  1  0.75000000  0.43732756  0.49054328  1
  O  O36  1  0.96697600  0.00396115  0.69764667  1
  O  O37  1  0.98615556  0.65572499  0.03599024  1
  O  O38  1  0.47101158  0.32274799  0.63112984  1
  O  O39  1  0.53302400  0.50396115  0.80235333  1
  O  O40  1  0.97101158  0.67725201  0.36887016  1
  O  O41  1  0.25000000  0.05873023  0.58848793  1
  O  O42  1  0.01384444  0.84427501  0.53599024  1
  O  O43  1  0.48615556  0.84427501  0.53599024  1
  O  O44  1  0.25000000  0.56267244  0.50945672  1
  O  O45  1  0.25000000  0.22101308  0.83377312  1
  O  O46  1  0.25000000  0.72101308  0.66622688  1
  O  O47  1  0.53302400  0.00396115  0.69764667  1
  O  O48  1  0.75000000  0.27898692  0.33377312  1
  O  O49  1  0.51384444  0.65572499  0.03599024  1
  O  O50  1  0.25000000  0.55873023  0.91151207  1
  O  O51  1  0.02898842  0.82274799  0.86887016  1
  O  O52  1  0.48615556  0.34427501  0.96400976  1
  O  O53  1  0.75000000  0.61427525  0.92678322  1
  O  O54  1  0.25000000  0.38572475  0.07321678  1
  O  O55  1  0.25000000  0.88572475  0.42678322  1
  O  O56  1  0.25000000  0.06267244  0.99054328  1
  O  O57  1  0.97101158  0.17725201  0.13112984  1
  O  O58  1  0.52898842  0.17725201  0.13112984  1
  O  O59  1  0.03302400  0.49603885  0.19764667  1
