# generated using pymatgen
data_P2W2O11
_symmetry_space_group_name_H-M   'P 1'
_cell_length_a   7.99838784
_cell_length_b   8.01021395
_cell_length_c   12.74268680
_cell_angle_alpha   90.00000000
_cell_angle_beta   90.00000000
_cell_angle_gamma   92.38589166
_symmetry_Int_Tables_number   1
_chemical_formula_structural   P2W2O11
_chemical_formula_sum   'P8 W8 O44'
_cell_volume   815.70088957
_cell_formula_units_Z   4
loop_
 _symmetry_equiv_pos_site_id
 _symmetry_equiv_pos_as_xyz
  1  'x, y, z'
loop_
 _atom_site_type_symbol
 _atom_site_label
 _atom_site_symmetry_multiplicity
 _atom_site_fract_x
 _atom_site_fract_y
 _atom_site_fract_z
 _atom_site_occupancy
  P  P0  1  0.25220528  0.10615457  0.50146967  1
  P  P1  1  0.25022443  0.61566397  0.75560336  1
  P  P2  1  0.25068961  0.61449181  0.24790743  1
  P  P3  1  0.07224532  0.34424263  0.00182362  1
  P  P4  1  0.74931039  0.38550819  0.74790743  1
  P  P5  1  0.74977557  0.38433603  0.25560336  1
  P  P6  1  0.74779472  0.89384543  0.00146967  1
  P  P7  1  0.92775468  0.65575737  0.50182362  1
  W  W8  1  0.85072354  0.80763238  0.74940146  1
  W  W9  1  0.14977100  0.19341612  0.75394755  1
  W  W10  1  0.36245970  0.69022915  0.00192665  1
  W  W11  1  0.36130304  0.69407825  0.50184425  1
  W  W12  1  0.63869696  0.30592175  0.00184425  1
  W  W13  1  0.85022900  0.80658388  0.25394755  1
  W  W14  1  0.14927646  0.19236762  0.24940146  1
  W  W15  1  0.63754030  0.30977085  0.50192665  1
  O  O16  1  0.25626483  0.42147371  0.25713434  1
  O  O17  1  0.89610012  0.40800577  0.00190489  1
  O  O18  1  0.55682589  0.51571418  0.00234306  1
  O  O19  1  0.99917146  0.99993000  0.25202945  1
  O  O20  1  0.83095732  0.81581329  0.09833664  1
  O  O21  1  0.25573716  0.42282298  0.74532797  1
  O  O22  1  0.37093067  0.66472012  0.84801581  1
  O  O23  1  0.66889421  0.30569783  0.84663134  1
  O  O24  1  0.00082854  0.00007000  0.75202845  1
  O  O25  1  0.07618204  0.67154347  0.22660467  1
  O  O26  1  0.33003522  0.69681572  0.65708116  1
  O  O27  1  0.21201754  0.83947178  0.00222202  1
  O  O28  1  0.79629533  0.50829963  0.50205511  1
  O  O29  1  0.62854614  0.33549352  0.65571164  1
  O  O30  1  0.33066998  0.08865121  0.22614772  1
  O  O31  1  0.77344995  0.08306854  0.00082794  1
  O  O32  1  0.66933002  0.91134879  0.72614772  1
  O  O33  1  0.44317411  0.48428582  0.50234306  1
  O  O34  1  0.10294262  0.23441257  0.09944069  1
  O  O35  1  0.10389988  0.59199423  0.50190489  1
  O  O36  1  0.44341073  0.15249314  0.50163850  1
  O  O37  1  0.22655005  0.91693146  0.50082794  1
  O  O38  1  0.92436146  0.32794844  0.27737201  1
  O  O39  1  0.74426284  0.57717702  0.24532797  1
  O  O40  1  0.37145386  0.66450548  0.15571164  1
  O  O41  1  0.55658927  0.84750686  0.00163850  1
  O  O42  1  0.78798246  0.16052822  0.50222202  1
  O  O43  1  0.33215273  0.09170751  0.77771560  1
  O  O44  1  0.83100449  0.81446760  0.90508396  1
  O  O45  1  0.20370467  0.49170037  0.00205511  1
  O  O46  1  0.89671504  0.76446794  0.40381937  1
  O  O47  1  0.62906933  0.33527988  0.34801581  1
  O  O48  1  0.45253159  0.18756090  0.00193113  1
  O  O49  1  0.89705738  0.76558743  0.59944069  1
  O  O50  1  0.66996478  0.30318428  0.15708116  1
  O  O51  1  0.16904268  0.18418671  0.59833664  1
  O  O52  1  0.16899551  0.18553240  0.40508396  1
  O  O53  1  0.74373517  0.57852629  0.75713434  1
  O  O54  1  0.33110579  0.69430217  0.34663134  1
  O  O55  1  0.07563854  0.67205156  0.77737201  1
  O  O56  1  0.10328496  0.23553206  0.90381937  1
  O  O57  1  0.92381796  0.32845653  0.72660467  1
  O  O58  1  0.66784727  0.90829249  0.27771560  1
  O  O59  1  0.54746841  0.81243910  0.50193113  1
