# generated using pymatgen
data_Ti4V
_symmetry_space_group_name_H-M   'P 1'
_cell_length_a   2.76706360
_cell_length_b   2.76706360
_cell_length_c   11.48284649
_cell_angle_alpha   85.42622521
_cell_angle_beta   85.42622521
_cell_angle_gamma   109.76497826
_symmetry_Int_Tables_number   1
_chemical_formula_structural   Ti4V
_chemical_formula_sum   'Ti4 V1'
_cell_volume   81.94163515
_cell_formula_units_Z   1
loop_
 _symmetry_equiv_pos_site_id
 _symmetry_equiv_pos_as_xyz
  1  'x, y, z'
loop_
 _atom_site_type_symbol
 _atom_site_label
 _atom_site_symmetry_multiplicity
 _atom_site_fract_x
 _atom_site_fract_y
 _atom_site_fract_z
 _atom_site_occupancy
  Ti  Ti0  1  0.40878944  0.40878944  0.18242112  1
  Ti  Ti1  1  0.80060607  0.80060607  0.39878787  1
  Ti  Ti2  1  0.19939393  0.19939393  0.60121213  1
  Ti  Ti3  1  0.59121056  0.59121056  0.81757888  1
  V  V4  1  -0.00000000  0.00000000  -0.00000000  1
