# generated using pymatgen
data_Rb2Pd(IBr2)2
_symmetry_space_group_name_H-M   'P 1'
_cell_length_a   7.53158855
_cell_length_b   7.53158849
_cell_length_c   7.53158852
_cell_angle_alpha   106.43902527
_cell_angle_beta   111.00826817
_cell_angle_gamma   111.00826375
_symmetry_Int_Tables_number   1
_chemical_formula_structural   Rb2Pd(IBr2)2
_chemical_formula_sum   'Rb2 Pd1 I2 Br4'
_cell_volume   328.19411135
_cell_formula_units_Z   1
loop_
 _symmetry_equiv_pos_site_id
 _symmetry_equiv_pos_as_xyz
  1  'x, y, z'
loop_
 _atom_site_type_symbol
 _atom_site_label
 _atom_site_symmetry_multiplicity
 _atom_site_fract_x
 _atom_site_fract_y
 _atom_site_fract_z
 _atom_site_occupancy
  Rb  Rb0  1  0.50000000  0.25000000  0.75000000  1
  Rb  Rb1  1  0.50000000  0.75000000  0.25000000  1
  Pd  Pd2  1  0.00000000  0.00000000  0.00000000  1
  I  I3  1  0.00000000  0.33979620  0.33979620  1
  I  I4  1  1.00000000  0.66020380  0.66020380  1
  Br  Br5  1  1.00000000  0.79428655  0.20571345  1
  Br  Br6  1  0.58857311  0.79428655  0.79428655  1
  Br  Br7  1  0.00000000  0.20571345  0.79428655  1
  Br  Br8  1  0.41142689  0.20571345  0.20571345  1
