# generated using pymatgen
data_Na7Fe4(PO4)6
_symmetry_space_group_name_H-M   'P 1'
_cell_length_a   9.89609562
_cell_length_b   9.89609570
_cell_length_c   9.89609522
_cell_angle_alpha   86.67409086
_cell_angle_beta   86.67409084
_cell_angle_gamma   86.67408643
_symmetry_Int_Tables_number   1
_chemical_formula_structural   Na7Fe4(PO4)6
_chemical_formula_sum   'Na14 Fe8 P12 O48'
_cell_volume   964.43623951
_cell_formula_units_Z   2
loop_
 _symmetry_equiv_pos_site_id
 _symmetry_equiv_pos_as_xyz
  1  'x, y, z'
loop_
 _atom_site_type_symbol
 _atom_site_label
 _atom_site_symmetry_multiplicity
 _atom_site_fract_x
 _atom_site_fract_y
 _atom_site_fract_z
 _atom_site_occupancy
  Na  Na0  1  0.34876651  0.78272934  0.53272102  1
  Na  Na1  1  0.65123349  0.21727066  0.46727898  1
  Na  Na2  1  0.21727066  0.46727898  0.65123349  1
  Na  Na3  1  0.84876651  0.03272102  0.28272934  1
  Na  Na4  1  0.53272102  0.34876651  0.78272934  1
  Na  Na5  1  0.78272934  0.53272102  0.34876651  1
  Na  Na6  1  0.46727898  0.65123349  0.21727066  1
  Na  Na7  1  0.96727898  0.71727066  0.15123349  1
  Na  Na8  1  0.50000000  0.50000000  0.50000000  1
  Na  Na9  1  0.71727066  0.15123349  0.96727898  1
  Na  Na10  1  0.15123349  0.96727898  0.71727066  1
  Na  Na11  1  0.03272102  0.28272934  0.84876651  1
  Na  Na12  1  0.28272934  0.84876651  0.03272102  1
  Na  Na13  1  0.00000000  0.00000000  0.00000000  1
  Fe  Fe14  1  0.52836711  0.97163289  0.75000000  1
  Fe  Fe15  1  0.47163289  0.02836711  0.25000000  1
  Fe  Fe16  1  0.75000000  0.52836711  0.97163289  1
  Fe  Fe17  1  0.25000000  0.47163289  0.02836711  1
  Fe  Fe18  1  0.97163289  0.75000000  0.52836711  1
  Fe  Fe19  1  0.25000000  0.25000000  0.25000000  1
  Fe  Fe20  1  0.02836711  0.25000000  0.47163289  1
  Fe  Fe21  1  0.75000000  0.75000000  0.75000000  1
  P  P22  1  0.44904047  0.65637356  0.82744714  1
  P  P23  1  0.34362644  0.17255286  0.55095953  1
  P  P24  1  0.82744714  0.44904047  0.65637356  1
  P  P25  1  0.94904047  0.32744714  0.15637356  1
  P  P26  1  0.65637356  0.82744714  0.44904047  1
  P  P27  1  0.67255286  0.84362644  0.05095953  1
  P  P28  1  0.84362644  0.05095953  0.67255286  1
  P  P29  1  0.55095953  0.34362644  0.17255286  1
  P  P30  1  0.32744714  0.15637356  0.94904047  1
  P  P31  1  0.15637356  0.94904047  0.32744714  1
  P  P32  1  0.17255286  0.55095953  0.34362644  1
  P  P33  1  0.05095953  0.67255286  0.84362644  1
  O  O34  1  0.38516617  0.61162926  0.96947204  1
  O  O35  1  0.28821246  0.59773296  0.42160089  1
  O  O36  1  0.60821320  0.62486667  0.83176884  1
  O  O37  1  0.62486667  0.83176884  0.60821320  1
  O  O38  1  0.31164296  0.91441162  0.30639451  1
  O  O39  1  0.90226704  0.21178754  0.07839911  1
  O  O40  1  0.09773296  0.78821246  0.92160089  1
  O  O41  1  0.11162926  0.88516617  0.46947204  1
  O  O42  1  0.61483383  0.38837074  0.03052796  1
  O  O43  1  0.96947204  0.38516617  0.61162926  1
  O  O44  1  0.38837074  0.03052796  0.61483383  1
  O  O45  1  0.41441162  0.81164296  0.80639451  1
  O  O46  1  0.89178680  0.66823116  0.87513333  1
  O  O47  1  0.30639451  0.31164296  0.91441162  1
  O  O48  1  0.19360549  0.58558838  0.18835704  1
  O  O49  1  0.07839911  0.90226704  0.21178754  1
  O  O50  1  0.58558838  0.18835704  0.19360549  1
  O  O51  1  0.68835704  0.08558838  0.69360549  1
  O  O52  1  0.88837074  0.11483383  0.53052796  1
  O  O53  1  0.92160089  0.09773296  0.78821246  1
  O  O54  1  0.08558838  0.69360549  0.68835704  1
  O  O55  1  0.59773296  0.42160089  0.28821246  1
  O  O56  1  0.53052796  0.88837074  0.11483383  1
  O  O57  1  0.16823116  0.39178680  0.37513333  1
  O  O58  1  0.61162926  0.96947204  0.38516617  1
  O  O59  1  0.37513333  0.16823116  0.39178680  1
  O  O60  1  0.87513333  0.89178680  0.66823116  1
  O  O61  1  0.46947204  0.11162926  0.88516617  1
  O  O62  1  0.66823116  0.87513333  0.89178680  1
  O  O63  1  0.11483383  0.53052796  0.88837074  1
  O  O64  1  0.78821246  0.92160089  0.09773296  1
  O  O65  1  0.69360549  0.68835704  0.08558838  1
  O  O66  1  0.40226704  0.57839911  0.71178754  1
  O  O67  1  0.88516617  0.46947204  0.11162926  1
  O  O68  1  0.39178680  0.37513333  0.16823116  1
  O  O69  1  0.71178754  0.40226704  0.57839911  1
  O  O70  1  0.21178754  0.07839911  0.90226704  1
  O  O71  1  0.57839911  0.71178754  0.40226704  1
  O  O72  1  0.42160089  0.28821246  0.59773296  1
  O  O73  1  0.10821320  0.33176884  0.12486667  1
  O  O74  1  0.81164296  0.80639451  0.41441162  1
  O  O75  1  0.91441162  0.30639451  0.31164296  1
  O  O76  1  0.03052796  0.61483383  0.38837074  1
  O  O77  1  0.83176884  0.60821320  0.62486667  1
  O  O78  1  0.18835704  0.19360549  0.58558838  1
  O  O79  1  0.80639451  0.41441162  0.81164296  1
  O  O80  1  0.33176884  0.12486667  0.10821320  1
  O  O81  1  0.12486667  0.10821320  0.33176884  1
