# generated using pymatgen
data_Ca21(Zn18Ni)2
_symmetry_space_group_name_H-M   'P 1'
_cell_length_a   15.30984496
_cell_length_b   15.30984509
_cell_length_c   15.30984533
_cell_angle_alpha   59.99999946
_cell_angle_beta   59.99999917
_cell_angle_gamma   59.99999972
_symmetry_Int_Tables_number   1
_chemical_formula_structural   Ca21(Zn18Ni)2
_chemical_formula_sum   'Ca42 Zn72 Ni4'
_cell_volume   2537.44939044
_cell_formula_units_Z   2
loop_
 _symmetry_equiv_pos_site_id
 _symmetry_equiv_pos_as_xyz
  1  'x, y, z'
loop_
 _atom_site_type_symbol
 _atom_site_label
 _atom_site_symmetry_multiplicity
 _atom_site_fract_x
 _atom_site_fract_y
 _atom_site_fract_z
 _atom_site_occupancy
  Ca  Ca0  1  0.82901780  0.55699407  0.55699407  1
  Ca  Ca1  1  0.23424419  0.62813603  0.00948375  1
  Ca  Ca2  1  0.78145523  0.78145523  0.15563430  1
  Ca  Ca3  1  0.78145523  0.78145523  0.78145523  1
  Ca  Ca4  1  0.62813603  0.23424419  0.62813603  1
  Ca  Ca5  1  0.87500000  0.87500000  0.87500000  1
  Ca  Ca6  1  0.78145523  0.15563430  0.78145523  1
  Ca  Ca7  1  0.44300593  0.17098220  0.44300593  1
  Ca  Ca8  1  0.55699407  0.82901780  0.55699407  1
  Ca  Ca9  1  0.62813603  0.00948375  0.62813603  1
  Ca  Ca10  1  0.37186397  0.99051625  0.37186397  1
  Ca  Ca11  1  0.99051625  0.76575581  0.37186397  1
  Ca  Ca12  1  0.21854477  0.21854477  0.21854477  1
  Ca  Ca13  1  0.00948375  0.62813603  0.23424419  1
  Ca  Ca14  1  0.76575581  0.37186397  0.99051625  1
  Ca  Ca15  1  0.62813603  0.00948375  0.23424419  1
  Ca  Ca16  1  0.44300593  0.44300593  0.44300593  1
  Ca  Ca17  1  0.55699407  0.55699407  0.82901780  1
  Ca  Ca18  1  0.17098220  0.44300593  0.44300593  1
  Ca  Ca19  1  0.37186397  0.37186397  0.76575581  1
  Ca  Ca20  1  0.62813603  0.23424419  0.00948375  1
  Ca  Ca21  1  0.99051625  0.37186397  0.76575581  1
  Ca  Ca22  1  0.76575581  0.37186397  0.37186397  1
  Ca  Ca23  1  0.84436570  0.21854477  0.21854477  1
  Ca  Ca24  1  0.21854477  0.21854477  0.84436570  1
  Ca  Ca25  1  0.21854477  0.84436570  0.21854477  1
  Ca  Ca26  1  0.15563430  0.78145523  0.78145523  1
  Ca  Ca27  1  0.23424419  0.00948375  0.62813603  1
  Ca  Ca28  1  0.23424419  0.62813603  0.62813603  1
  Ca  Ca29  1  0.37186397  0.76575581  0.37186397  1
  Ca  Ca30  1  0.62813603  0.62813603  0.23424419  1
  Ca  Ca31  1  0.44300593  0.44300593  0.17098220  1
  Ca  Ca32  1  0.12500000  0.12500000  0.12500000  1
  Ca  Ca33  1  0.37186397  0.99051625  0.76575581  1
  Ca  Ca34  1  0.62813603  0.62813603  0.00948375  1
  Ca  Ca35  1  0.00948375  0.23424419  0.62813603  1
  Ca  Ca36  1  0.00948375  0.62813603  0.62813603  1
  Ca  Ca37  1  0.37186397  0.76575581  0.99051625  1
  Ca  Ca38  1  0.99051625  0.37186397  0.37186397  1
  Ca  Ca39  1  0.76575581  0.99051625  0.37186397  1
  Ca  Ca40  1  0.55699407  0.55699407  0.55699407  1
  Ca  Ca41  1  0.37186397  0.37186397  0.99051625  1
  Zn  Zn42  1  0.63066752  0.22640570  0.41652109  1
  Zn  Zn43  1  0.77359430  0.77359430  0.58347891  1
  Zn  Zn44  1  0.88917478  0.18375374  0.88917478  1
  Zn  Zn45  1  0.58347891  0.36933248  0.77359430  1
  Zn  Zn46  1  0.88917478  0.88917478  0.18375374  1
  Zn  Zn47  1  0.77359430  0.58347891  0.36933248  1
  Zn  Zn48  1  0.81624626  0.11082522  0.11082522  1
  Zn  Zn49  1  0.63066752  0.22640570  0.22640570  1
  Zn  Zn50  1  0.00767783  0.82616382  0.65848051  1
  Zn  Zn51  1  0.88917478  0.53789670  0.18375374  1
  Zn  Zn52  1  0.58347891  0.77359430  0.77359430  1
  Zn  Zn53  1  0.11082522  0.46210330  0.11082522  1
  Zn  Zn54  1  0.53789670  0.18375374  0.88917478  1
  Zn  Zn55  1  0.17383618  0.99232217  0.99232217  1
  Zn  Zn56  1  0.77359430  0.77359430  0.36933248  1
  Zn  Zn57  1  0.17383618  0.99232217  0.34151949  1
  Zn  Zn58  1  0.53789670  0.88917478  0.88917478  1
  Zn  Zn59  1  0.65848051  0.00767783  0.00767783  1
  Zn  Zn60  1  0.11082522  0.81624626  0.11082522  1
  Zn  Zn61  1  0.99232217  0.34151949  0.99232217  1
  Zn  Zn62  1  0.36933248  0.58347891  0.77359430  1
  Zn  Zn63  1  0.53789670  0.88917478  0.18375374  1
  Zn  Zn64  1  0.41652109  0.63066752  0.22640570  1
  Zn  Zn65  1  0.34151949  0.17383618  0.99232217  1
  Zn  Zn66  1  0.99232217  0.34151949  0.17383618  1
  Zn  Zn67  1  0.88917478  0.18375374  0.53789670  1
  Zn  Zn68  1  0.22640570  0.41652109  0.63066752  1
  Zn  Zn69  1  0.18375374  0.53789670  0.88917478  1
  Zn  Zn70  1  0.99232217  0.99232217  0.34151949  1
  Zn  Zn71  1  0.00767783  0.00767783  0.65848051  1
  Zn  Zn72  1  0.11082522  0.81624626  0.46210330  1
  Zn  Zn73  1  0.65848051  0.82616382  0.00767783  1
  Zn  Zn74  1  0.11082522  0.11082522  0.46210330  1
  Zn  Zn75  1  0.00767783  0.65848051  0.00767783  1
  Zn  Zn76  1  0.58347891  0.77359430  0.36933248  1
  Zn  Zn77  1  0.00767783  0.82616382  0.00767783  1
  Zn  Zn78  1  0.81624626  0.46210330  0.11082522  1
  Zn  Zn79  1  0.11082522  0.46210330  0.81624626  1
  Zn  Zn80  1  0.22640570  0.22640570  0.63066752  1
  Zn  Zn81  1  0.81624626  0.11082522  0.46210330  1
  Zn  Zn82  1  0.22640570  0.63066752  0.22640570  1
  Zn  Zn83  1  0.88917478  0.53789670  0.88917478  1
  Zn  Zn84  1  0.34151949  0.99232217  0.17383618  1
  Zn  Zn85  1  0.00767783  0.65848051  0.82616382  1
  Zn  Zn86  1  0.22640570  0.63066752  0.41652109  1
  Zn  Zn87  1  0.88917478  0.88917478  0.53789670  1
  Zn  Zn88  1  0.46210330  0.11082522  0.81624626  1
  Zn  Zn89  1  0.63066752  0.41652109  0.22640570  1
  Zn  Zn90  1  0.00767783  0.00767783  0.82616382  1
  Zn  Zn91  1  0.36933248  0.77359430  0.58347891  1
  Zn  Zn92  1  0.82616382  0.00767783  0.65848051  1
  Zn  Zn93  1  0.77359430  0.58347891  0.77359430  1
  Zn  Zn94  1  0.41652109  0.22640570  0.22640570  1
  Zn  Zn95  1  0.17383618  0.34151949  0.99232217  1
  Zn  Zn96  1  0.46210330  0.11082522  0.11082522  1
  Zn  Zn97  1  0.11082522  0.11082522  0.81624626  1
  Zn  Zn98  1  0.22640570  0.22640570  0.41652109  1
  Zn  Zn99  1  0.65848051  0.00767783  0.82616382  1
  Zn  Zn100  1  0.34151949  0.99232217  0.99232217  1
  Zn  Zn101  1  0.22640570  0.41652109  0.22640570  1
  Zn  Zn102  1  0.82616382  0.65848051  0.00767783  1
  Zn  Zn103  1  0.18375374  0.88917478  0.88917478  1
  Zn  Zn104  1  0.99232217  0.99232217  0.17383618  1
  Zn  Zn105  1  0.82616382  0.00767783  0.00767783  1
  Zn  Zn106  1  0.99232217  0.17383618  0.99232217  1
  Zn  Zn107  1  0.77359430  0.36933248  0.58347891  1
  Zn  Zn108  1  0.36933248  0.77359430  0.77359430  1
  Zn  Zn109  1  0.77359430  0.36933248  0.77359430  1
  Zn  Zn110  1  0.41652109  0.22640570  0.63066752  1
  Zn  Zn111  1  0.46210330  0.81624626  0.11082522  1
  Zn  Zn112  1  0.99232217  0.17383618  0.34151949  1
  Zn  Zn113  1  0.18375374  0.88917478  0.53789670  1
  Ni  Ni114  1  0.50000000  0.00000000  0.00000000  1
  Ni  Ni115  1  0.00000000  0.00000000  0.50000000  1
  Ni  Ni116  1  0.00000000  0.50000000  0.00000000  1
  Ni  Ni117  1  0.00000000  0.00000000  0.00000000  1
