# generated using pymatgen
data_Tl3PbBr5
_symmetry_space_group_name_H-M   'P 1'
_cell_length_a   8.99785753
_cell_length_b   8.99785753
_cell_length_c   15.67350101
_cell_angle_alpha   90.00000000
_cell_angle_beta   90.00000000
_cell_angle_gamma   90.00000000
_symmetry_Int_Tables_number   1
_chemical_formula_structural   Tl3PbBr5
_chemical_formula_sum   'Tl12 Pb4 Br20'
_cell_volume   1268.94921365
_cell_formula_units_Z   4
loop_
 _symmetry_equiv_pos_site_id
 _symmetry_equiv_pos_as_xyz
  1  'x, y, z'
loop_
 _atom_site_type_symbol
 _atom_site_label
 _atom_site_symmetry_multiplicity
 _atom_site_fract_x
 _atom_site_fract_y
 _atom_site_fract_z
 _atom_site_occupancy
  Tl  Tl0  1  0.99281975  0.81211066  0.80380482  1
  Tl  Tl1  1  0.88208908  0.68239671  0.37751674  1
  Tl  Tl2  1  0.18788934  0.99281975  0.05380482  1
  Tl  Tl3  1  0.17428731  0.36253289  0.56752808  1
  Tl  Tl4  1  0.68239671  0.11791092  0.12751674  1
  Tl  Tl5  1  0.36253289  0.82571269  0.31752808  1
  Tl  Tl6  1  0.11791092  0.31760329  0.87751674  1
  Tl  Tl7  1  0.00718025  0.18788934  0.30380482  1
  Tl  Tl8  1  0.63746711  0.17428731  0.81752808  1
  Tl  Tl9  1  0.82571269  0.63746711  0.06752808  1
  Tl  Tl10  1  0.31760329  0.88208908  0.62751674  1
  Tl  Tl11  1  0.81211066  0.00718025  0.55380482  1
  Pb  Pb12  1  0.69557694  0.51533549  0.64449700  1
  Pb  Pb13  1  0.48466451  0.69557694  0.89449700  1
  Pb  Pb14  1  0.51533549  0.30442306  0.39449700  1
  Pb  Pb15  1  0.30442306  0.48466451  0.14449700  1
  Br  Br16  1  0.36063154  0.51748214  0.75665723  1
  Br  Br17  1  0.49435772  0.79718342  0.10435136  1
  Br  Br18  1  0.20281658  0.49435772  0.35435136  1
  Br  Br19  1  0.67075343  0.01920063  0.35081698  1
  Br  Br20  1  0.64681565  0.82282235  0.72529698  1
  Br  Br21  1  0.50564228  0.20281658  0.60435136  1
  Br  Br22  1  0.63936846  0.48251786  0.25665723  1
  Br  Br23  1  0.48251786  0.36063154  0.00665723  1
  Br  Br24  1  0.01920063  0.32924657  0.10081698  1
  Br  Br25  1  0.97500956  0.17174670  0.70653082  1
  Br  Br26  1  0.79718342  0.50564228  0.85435136  1
  Br  Br27  1  0.82825330  0.97500956  0.95653082  1
  Br  Br28  1  0.17174670  0.02499044  0.45653082  1
  Br  Br29  1  0.17717765  0.64681565  0.97529698  1
  Br  Br30  1  0.32924657  0.98079937  0.85081698  1
  Br  Br31  1  0.82282235  0.35318435  0.47529698  1
  Br  Br32  1  0.98079937  0.67075343  0.60081698  1
  Br  Br33  1  0.51748214  0.63936846  0.50665723  1
  Br  Br34  1  0.35318435  0.17717765  0.22529698  1
  Br  Br35  1  0.02499044  0.82825330  0.20653082  1
