# generated using pymatgen
data_Ho2(GePt3)3
_symmetry_space_group_name_H-M   'P 1'
_cell_length_a   7.82122972
_cell_length_b   7.82122956
_cell_length_c   10.08704284
_cell_angle_alpha   90.31237773
_cell_angle_beta   112.55663508
_cell_angle_gamma   119.88389338
_symmetry_Int_Tables_number   1
_chemical_formula_structural   Ho2(GePt3)3
_chemical_formula_sum   'Ho4 Ge6 Pt18'
_cell_volume   478.94969970
_cell_formula_units_Z   2
loop_
 _symmetry_equiv_pos_site_id
 _symmetry_equiv_pos_as_xyz
  1  'x, y, z'
loop_
 _atom_site_type_symbol
 _atom_site_label
 _atom_site_symmetry_multiplicity
 _atom_site_fract_x
 _atom_site_fract_y
 _atom_site_fract_z
 _atom_site_occupancy
  Ho  Ho0  1  0.16687678  0.75440247  0.75092534  1
  Ho  Ho1  1  0.83312322  0.24559753  0.24907466  1
  Ho  Ho2  1  0.50347713  0.41595145  0.74907466  1
  Ho  Ho3  1  0.49652287  0.58404855  0.25092534  1
  Ge  Ge4  1  0.63810772  0.81898157  0.99762087  1
  Ge  Ge5  1  0.32136070  0.64048685  0.50237913  1
  Ge  Ge6  1  0.36189228  0.18101843  0.00237913  1
  Ge  Ge7  1  0.00000000  0.50000000  0.00000000  1
  Ge  Ge8  1  0.67863930  0.35951315  0.49762087  1
  Ge  Ge9  1  0.00000000  0.00000000  0.50000000  1
  Pt  Pt10  1  0.05523830  0.35994601  0.57758122  1
  Pt  Pt11  1  0.28236480  0.47765708  0.92241878  1
  Pt  Pt12  1  0.27977843  0.30618926  0.42026629  1
  Pt  Pt13  1  0.61633816  0.86633816  0.75000000  1
  Pt  Pt14  1  0.94476170  0.64005399  0.42241878  1
  Pt  Pt15  1  0.61407703  0.14048786  0.92026629  1
  Pt  Pt16  1  0.17060646  0.70194729  0.25681765  1
  Pt  Pt17  1  0.05360370  0.20235415  0.07764064  1
  Pt  Pt18  1  0.05487036  0.08621119  0.75681765  1
  Pt  Pt19  1  0.72022157  0.69381074  0.57973371  1
  Pt  Pt20  1  0.37528648  0.02403693  0.57764064  1
  Pt  Pt21  1  0.38592297  0.85951214  0.07973371  1
  Pt  Pt22  1  0.38366184  0.13366184  0.25000000  1
  Pt  Pt23  1  0.94639630  0.79764585  0.92235936  1
  Pt  Pt24  1  0.82939354  0.29805271  0.74318235  1
  Pt  Pt25  1  0.71763520  0.52234292  0.07758122  1
  Pt  Pt26  1  0.62471352  0.97596307  0.42235936  1
  Pt  Pt27  1  0.94512964  0.91378881  0.24318235  1
