# generated using pymatgen
data_Nb5Ga3
_symmetry_space_group_name_H-M   'P 1'
_cell_length_a   5.10966878
_cell_length_b   7.76299988
_cell_length_c   7.76299988
_cell_angle_alpha   83.78212981
_cell_angle_beta   70.78560108
_cell_angle_gamma   70.78560108
_symmetry_Int_Tables_number   1
_chemical_formula_structural   Nb5Ga3
_chemical_formula_sum   'Nb10 Ga6'
_cell_volume   274.57822067
_cell_formula_units_Z   2
loop_
 _symmetry_equiv_pos_site_id
 _symmetry_equiv_pos_as_xyz
  1  'x, y, z'
loop_
 _atom_site_type_symbol
 _atom_site_label
 _atom_site_symmetry_multiplicity
 _atom_site_fract_x
 _atom_site_fract_y
 _atom_site_fract_z
 _atom_site_occupancy
  Nb  Nb0  1  0.72165322  0.85476097  0.70193258  1
  Nb  Nb1  1  0.27834678  0.14523903  0.29806742  1
  Nb  Nb2  1  0.77834678  0.29806742  0.14523903  1
  Nb  Nb3  1  0.22165322  0.70193258  0.85476097  1
  Nb  Nb4  1  0.57641419  0.70193258  0.14523903  1
  Nb  Nb5  1  0.42358581  0.29806742  0.85476097  1
  Nb  Nb6  1  0.07641419  0.14523903  0.70193258  1
  Nb  Nb7  1  0.92358581  0.85476097  0.29806742  1
  Nb  Nb8  1  0.75000000  0.50000000  0.50000000  1
  Nb  Nb9  1  0.25000000  0.50000000  0.50000000  1
  Ga  Ga10  1  0.16512032  0.50000000  0.16975936  1
  Ga  Ga11  1  0.83487968  0.50000000  0.83024064  1
  Ga  Ga12  1  0.33487968  0.83024064  0.50000000  1
  Ga  Ga13  1  0.66512032  0.16975936  0.50000000  1
  Ga  Ga14  1  0.25000000  -0.00000000  0.00000000  1
  Ga  Ga15  1  0.75000000  -0.00000000  0.00000000  1
