# generated using pymatgen
data_Tc3Mo
_symmetry_space_group_name_H-M   'P 1'
_cell_length_a   2.77198711
_cell_length_b   2.77190567
_cell_length_c   8.98801957
_cell_angle_alpha   90.00000000
_cell_angle_beta   90.00000000
_cell_angle_gamma   60.00098482
_symmetry_Int_Tables_number   1
_chemical_formula_structural   Tc3Mo
_chemical_formula_sum   'Tc3 Mo1'
_cell_volume   59.80928413
_cell_formula_units_Z   1
loop_
 _symmetry_equiv_pos_site_id
 _symmetry_equiv_pos_as_xyz
  1  'x, y, z'
loop_
 _atom_site_type_symbol
 _atom_site_label
 _atom_site_symmetry_multiplicity
 _atom_site_fract_x
 _atom_site_fract_y
 _atom_site_fract_z
 _atom_site_occupancy
  Tc  Tc0  1  0.33335198  0.33332401  0.87500000  1
  Tc  Tc1  1  0.66663639  0.66668180  0.11772291  1
  Tc  Tc2  1  0.66663639  0.66668180  0.63227709  1
  Mo  Mo3  1  0.33337524  0.33331238  0.37500000  1
