# generated using pymatgen
data_La2B3Br
_symmetry_space_group_name_H-M   'P 1'
_cell_length_a   7.84123770
_cell_length_b   7.84123751
_cell_length_c   8.56859945
_cell_angle_alpha   90.00000000
_cell_angle_beta   90.00000000
_cell_angle_gamma   120.00000080
_symmetry_Int_Tables_number   1
_chemical_formula_structural   La2B3Br
_chemical_formula_sum   'La8 B12 Br4'
_cell_volume   456.25716526
_cell_formula_units_Z   4
loop_
 _symmetry_equiv_pos_site_id
 _symmetry_equiv_pos_as_xyz
  1  'x, y, z'
loop_
 _atom_site_type_symbol
 _atom_site_label
 _atom_site_symmetry_multiplicity
 _atom_site_fract_x
 _atom_site_fract_y
 _atom_site_fract_z
 _atom_site_occupancy
  La  La0  1  0.49999714  0.00066744  0.21691415  1
  La  La1  1  0.50067030  0.50000286  0.21691415  1
  La  La2  1  0.00000000  0.00000000  0.76867901  1
  La  La3  1  0.99933256  0.49932970  0.21691415  1
  La  La4  1  0.50067030  0.50000286  0.78308585  1
  La  La5  1  0.00000000  0.00000000  0.23132099  1
  La  La6  1  0.49999714  0.00066744  0.78308585  1
  La  La7  1  0.99933256  0.49932970  0.78308585  1
  B  B8  1  0.73756814  0.47488735  0.00000000  1
  B  B9  1  0.52511265  0.26268079  0.00000000  1
  B  B10  1  0.86117070  0.13869646  0.00000000  1
  B  B11  1  0.47466708  0.73733401  0.00000000  1
  B  B12  1  0.72186125  0.86082993  0.00000000  1
  B  B13  1  0.86130354  0.72247424  0.00000000  1
  B  B14  1  0.73731921  0.26243186  0.00000000  1
  B  B15  1  0.13917007  0.86103133  0.00000000  1
  B  B16  1  0.13896867  0.27813875  0.00000000  1
  B  B17  1  0.26266599  0.73733306  0.00000000  1
  B  B18  1  0.27752576  0.13882930  0.00000000  1
  B  B19  1  0.26266694  0.52533292  0.00000000  1
  Br  Br20  1  0.33904140  0.16956570  0.50000000  1
  Br  Br21  1  0.83052429  0.66095860  0.50000000  1
  Br  Br22  1  0.83043430  0.16947571  0.50000000  1
  Br  Br23  1  0.33333300  0.66666700  0.50000000  1
