# generated using pymatgen
data_B2S3
_symmetry_space_group_name_H-M   'P 1'
_cell_length_a   4.54610798
_cell_length_b   10.80679345
_cell_length_c   19.64244984
_cell_angle_alpha   90.00000000
_cell_angle_beta   101.27943261
_cell_angle_gamma   90.00000000
_symmetry_Int_Tables_number   1
_chemical_formula_structural   B2S3
_chemical_formula_sum   'B16 S24'
_cell_volume   946.37171971
_cell_formula_units_Z   8
loop_
 _symmetry_equiv_pos_site_id
 _symmetry_equiv_pos_as_xyz
  1  'x, y, z'
loop_
 _atom_site_type_symbol
 _atom_site_label
 _atom_site_symmetry_multiplicity
 _atom_site_fract_x
 _atom_site_fract_y
 _atom_site_fract_z
 _atom_site_occupancy
  B  B0  1  0.64597770  0.31363446  0.90118689  1
  B  B1  1  0.89794445  0.96619075  0.31860723  1
  B  B2  1  0.14597770  0.18636554  0.40118689  1
  B  B3  1  0.60205555  0.46619075  0.18139277  1
  B  B4  1  0.10205555  0.03380925  0.68139277  1
  B  B5  1  0.85402230  0.81363446  0.59881311  1
  B  B6  1  0.20001707  0.78138745  0.74136927  1
  B  B7  1  0.29998293  0.28138745  0.75863073  1
  B  B8  1  0.39794445  0.53380925  0.81860723  1
  B  B9  1  0.79998293  0.21861255  0.25863073  1
  B  B10  1  0.06298347  0.90101245  0.01033979  1
  B  B11  1  0.43701653  0.40101245  0.48966021  1
  B  B12  1  0.93701653  0.09898755  0.98966021  1
  B  B13  1  0.56298347  0.59898755  0.51033979  1
  B  B14  1  0.35402230  0.68636554  0.09881311  1
  B  B15  1  0.70001707  0.71861255  0.24136927  1
  S  S16  1  0.98821353  0.70254735  0.66661154  1
  S  S17  1  0.11590796  0.20294442  0.67894923  1
  S  S18  1  0.63371983  0.76366373  0.51481291  1
  S  S19  1  0.48821353  0.79745265  0.16661154  1
  S  S20  1  0.13371983  0.73633627  0.01481291  1
  S  S21  1  0.39896305  0.52000629  0.09764789  1
  S  S22  1  0.86628017  0.26366373  0.98518709  1
  S  S23  1  0.73120976  0.05414852  0.24336124  1
  S  S24  1  0.60103695  0.47999371  0.90235211  1
  S  S25  1  0.23120976  0.44585148  0.74336124  1
  S  S26  1  0.89896305  0.97999371  0.59764789  1
  S  S27  1  0.01178647  0.29745265  0.33338846  1
  S  S28  1  0.88409204  0.79705558  0.32105077  1
  S  S29  1  0.26879024  0.94585148  0.75663876  1
  S  S30  1  0.15854809  0.03132126  0.06966095  1
  S  S31  1  0.34145191  0.53132126  0.43033905  1
  S  S32  1  0.84145191  0.96867874  0.93033905  1
  S  S33  1  0.38409204  0.70294442  0.82105077  1
  S  S34  1  0.65854809  0.46867874  0.56966095  1
  S  S35  1  0.61590796  0.29705558  0.17894923  1
  S  S36  1  0.36628017  0.23633627  0.48518709  1
  S  S37  1  0.10103695  0.02000629  0.40235211  1
  S  S38  1  0.51178647  0.20254735  0.83338846  1
  S  S39  1  0.76879024  0.55414852  0.25663876  1
