# generated using pymatgen
data_YbGeBiO5
_symmetry_space_group_name_H-M   'P 1'
_cell_length_a   5.51329781
_cell_length_b   11.02685868
_cell_length_c   15.54683497
_cell_angle_alpha   90.00000000
_cell_angle_beta   90.00000000
_cell_angle_gamma   90.00000000
_symmetry_Int_Tables_number   1
_chemical_formula_structural   YbGeBiO5
_chemical_formula_sum   'Yb8 Ge8 Bi8 O40'
_cell_volume   945.15981691
_cell_formula_units_Z   8
loop_
 _symmetry_equiv_pos_site_id
 _symmetry_equiv_pos_as_xyz
  1  'x, y, z'
loop_
 _atom_site_type_symbol
 _atom_site_label
 _atom_site_symmetry_multiplicity
 _atom_site_fract_x
 _atom_site_fract_y
 _atom_site_fract_z
 _atom_site_occupancy
  Yb  Yb0  1  0.00963606  0.35987242  0.05249545  1
  Yb  Yb1  1  0.49036394  0.85987242  0.94750455  1
  Yb  Yb2  1  0.50963606  0.14012758  0.05249545  1
  Yb  Yb3  1  0.50963606  0.64012758  0.44750455  1
  Yb  Yb4  1  0.99036394  0.64012758  0.94750455  1
  Yb  Yb5  1  0.99036394  0.14012758  0.55249545  1
  Yb  Yb6  1  0.49036394  0.35987242  0.55249545  1
  Yb  Yb7  1  0.00963606  0.85987242  0.44750455  1
  Ge  Ge8  1  0.50182651  0.09995187  0.40587141  1
  Ge  Ge9  1  0.49817349  0.90004813  0.59412859  1
  Ge  Ge10  1  0.50182651  0.59995187  0.09412859  1
  Ge  Ge11  1  0.99817349  0.59995187  0.59412859  1
  Ge  Ge12  1  0.99817349  0.09995187  0.90587141  1
  Ge  Ge13  1  0.00182651  0.90004813  0.09412859  1
  Ge  Ge14  1  0.00182651  0.40004813  0.40587141  1
  Ge  Ge15  1  0.49817349  0.40004813  0.90587141  1
  Bi  Bi16  1  0.55084117  0.15122941  0.73455160  1
  Bi  Bi17  1  0.94915883  0.15122941  0.23455160  1
  Bi  Bi18  1  0.55084117  0.65122941  0.76544840  1
  Bi  Bi19  1  0.94915883  0.65122941  0.26544840  1
  Bi  Bi20  1  0.05084117  0.84877059  0.76544840  1
  Bi  Bi21  1  0.05084117  0.34877059  0.73455160  1
  Bi  Bi22  1  0.44915883  0.34877059  0.23455160  1
  Bi  Bi23  1  0.44915883  0.84877059  0.26544840  1
  O  O24  1  0.09126613  0.81736591  0.19029517  1
  O  O25  1  0.70170910  0.51406246  0.86225539  1
  O  O26  1  0.79829090  0.51406246  0.36225539  1
  O  O27  1  0.22573971  0.46379543  0.94362910  1
  O  O28  1  0.34231251  0.19260987  0.47691404  1
  O  O29  1  0.24538042  0.72783256  0.34490327  1
  O  O30  1  0.27426029  0.46379543  0.44362910  1
  O  O31  1  0.20170910  0.48593754  0.63774461  1
  O  O32  1  0.72573971  0.03620457  0.94362910  1
  O  O33  1  0.74538042  0.77216744  0.34490327  1
  O  O34  1  0.79829090  0.01406246  0.13774461  1
  O  O35  1  0.29829090  0.98593754  0.36225539  1
  O  O36  1  0.40873387  0.81736591  0.69029517  1
  O  O37  1  0.09126613  0.31736591  0.30970483  1
  O  O38  1  0.74538042  0.27216744  0.15509673  1
  O  O39  1  0.75461958  0.27216744  0.65509673  1
  O  O40  1  0.22573971  0.96379543  0.55637090  1
  O  O41  1  0.27426029  0.96379543  0.05637090  1
  O  O42  1  0.29829090  0.48593754  0.13774461  1
  O  O43  1  0.40873387  0.31736591  0.80970483  1
  O  O44  1  0.65768749  0.30739013  0.97691404  1
  O  O45  1  0.25461958  0.72783256  0.84490327  1
  O  O46  1  0.77426029  0.53620457  0.05637090  1
  O  O47  1  0.25461958  0.22783256  0.65509673  1
  O  O48  1  0.84231251  0.30739013  0.47691404  1
  O  O49  1  0.72573971  0.53620457  0.55637090  1
  O  O50  1  0.77426029  0.03620457  0.44362910  1
  O  O51  1  0.59126613  0.68263409  0.19029517  1
  O  O52  1  0.24538042  0.22783256  0.15509673  1
  O  O53  1  0.65768749  0.80739013  0.52308596  1
  O  O54  1  0.20170910  0.98593754  0.86225539  1
  O  O55  1  0.90873387  0.68263409  0.69029517  1
  O  O56  1  0.90873387  0.18263409  0.80970483  1
  O  O57  1  0.15768749  0.19260987  0.97691404  1
  O  O58  1  0.75461958  0.77216744  0.84490327  1
  O  O59  1  0.70170910  0.01406246  0.63774461  1
  O  O60  1  0.59126613  0.18263409  0.30970483  1
  O  O61  1  0.15768749  0.69260987  0.52308596  1
  O  O62  1  0.34231251  0.69260987  0.02308596  1
  O  O63  1  0.84231251  0.80739013  0.02308596  1
