# generated using pymatgen
data_V2Cd6Se5O21
_symmetry_space_group_name_H-M   'P 1'
_cell_length_a   5.54938653
_cell_length_b   15.62895255
_cell_length_c   24.50141807
_cell_angle_alpha   94.34863239
_cell_angle_beta   90.00000000
_cell_angle_gamma   90.00000000
_symmetry_Int_Tables_number   1
_chemical_formula_structural   V2Cd6Se5O21
_chemical_formula_sum   'V8 Cd24 Se20 O84'
_cell_volume   2118.91721729
_cell_formula_units_Z   4
loop_
 _symmetry_equiv_pos_site_id
 _symmetry_equiv_pos_as_xyz
  1  'x, y, z'
loop_
 _atom_site_type_symbol
 _atom_site_label
 _atom_site_symmetry_multiplicity
 _atom_site_fract_x
 _atom_site_fract_y
 _atom_site_fract_z
 _atom_site_occupancy
  V  V0  1  0.26111218  0.20884626  0.31327990  1
  V  V1  1  0.23888782  0.20884626  0.81327990  1
  V  V2  1  0.73888782  0.79115374  0.68672010  1
  V  V3  1  0.77685875  0.09696928  0.27190832  1
  V  V4  1  0.72314125  0.09696928  0.77190832  1
  V  V5  1  0.76111218  0.79115374  0.18672010  1
  V  V6  1  0.27685875  0.90303072  0.22809168  1
  V  V7  1  0.22314125  0.90303072  0.72809168  1
  Cd  Cd8  1  0.21728588  0.77286284  0.41453711  1
  Cd  Cd9  1  0.68071175  0.62359136  0.35561871  1
  Cd  Cd10  1  0.18071175  0.37640864  0.14438129  1
  Cd  Cd11  1  0.28271412  0.77286284  0.91453711  1
  Cd  Cd12  1  0.28980444  0.45541551  0.79699181  1
  Cd  Cd13  1  0.26279758  0.08737538  0.52738708  1
  Cd  Cd14  1  0.78271412  0.22713716  0.58546289  1
  Cd  Cd15  1  0.29755807  0.01206032  0.87530803  1
  Cd  Cd16  1  0.74423988  0.46926492  0.04274191  1
  Cd  Cd17  1  0.81928825  0.62359136  0.85561871  1
  Cd  Cd18  1  0.21019556  0.45541551  0.29699181  1
  Cd  Cd19  1  0.79755807  0.98793868  0.62469197  1
  Cd  Cd20  1  0.24423988  0.53073508  0.45725809  1
  Cd  Cd21  1  0.70244193  0.98793868  0.12469197  1
  Cd  Cd22  1  0.23720242  0.08737538  0.02738708  1
  Cd  Cd23  1  0.20244193  0.01206032  0.37530803  1
  Cd  Cd24  1  0.31928825  0.37640864  0.64438129  1
  Cd  Cd25  1  0.71728588  0.22713716  0.08546289  1
  Cd  Cd26  1  0.25576012  0.53073508  0.95725809  1
  Cd  Cd27  1  0.76279758  0.91262462  0.97261292  1
  Cd  Cd28  1  0.71019556  0.54458449  0.20300819  1
  Cd  Cd29  1  0.78980444  0.54458449  0.70300819  1
  Cd  Cd30  1  0.75576012  0.46926492  0.54274191  1
  Cd  Cd31  1  0.73720242  0.91262462  0.47261292  1
  Se  Se32  1  0.71952832  0.42515131  0.38976958  1
  Se  Se33  1  0.21952832  0.57484869  0.11023042  1
  Se  Se34  1  0.28551684  0.31788148  0.50119920  1
  Se  Se35  1  0.70515759  0.11879448  0.44365365  1
  Se  Se36  1  0.28047168  0.57484869  0.61023042  1
  Se  Se37  1  0.29484241  0.88120552  0.55634635  1
  Se  Se38  1  0.78047168  0.42515131  0.88976958  1
  Se  Se39  1  0.31457411  0.66087890  0.77884284  1
  Se  Se40  1  0.21448416  0.31788148  0.00119920  1
  Se  Se41  1  0.79484241  0.11879448  0.94365365  1
  Se  Se42  1  0.18542589  0.66087890  0.27884284  1
  Se  Se43  1  0.26020008  0.14191361  0.15814907  1
  Se  Se44  1  0.23979992  0.14191361  0.65814907  1
  Se  Se45  1  0.71448416  0.68211852  0.49879980  1
  Se  Se46  1  0.81457411  0.33912110  0.72115716  1
  Se  Se47  1  0.68542589  0.33912110  0.22115716  1
  Se  Se48  1  0.76020008  0.85808639  0.34185093  1
  Se  Se49  1  0.78551584  0.68211852  0.99880080  1
  Se  Se50  1  0.20515759  0.88120552  0.05634635  1
  Se  Se51  1  0.73979992  0.85808639  0.84185093  1
  O  O52  1  0.02007118  0.10695425  0.60688008  1
  O  O53  1  0.94874081  0.58811109  0.28509134  1
  O  O54  1  0.46894621  0.50701152  0.11323139  1
  O  O55  1  0.29253359  0.96969326  0.28568875  1
  O  O56  1  0.01886772  0.51128548  0.14416963  1
  O  O57  1  0.44874081  0.41188891  0.21490866  1
  O  O58  1  0.61098521  0.75753519  0.96968676  1
  O  O59  1  0.75635600  0.83901779  0.62743150  1
  O  O60  1  0.20746641  0.96969326  0.78568875  1
  O  O61  1  0.60620731  0.16747348  0.50544283  1
  O  O62  1  0.25635600  0.16098221  0.87256850  1
  O  O63  1  0.39077681  0.58264119  0.25631693  1
  O  O64  1  0.47992882  0.10695425  0.10688008  1
  O  O65  1  0.41100260  0.40362391  0.99807213  1
  O  O66  1  0.99579401  0.96584263  0.05772328  1
  O  O67  1  0.48728239  0.13460736  0.61597045  1
  O  O68  1  0.48055698  0.35136303  0.55669288  1
  O  O69  1  0.28412347  0.31659827  0.32450872  1
  O  O70  1  0.54265719  0.06049033  0.96031988  1
  O  O71  1  0.99073237  0.16269983  0.77381486  1
  O  O72  1  0.60922319  0.41735881  0.74368307  1
  O  O73  1  0.10922319  0.58264119  0.75631693  1
  O  O74  1  0.51886772  0.48871452  0.35583037  1
  O  O75  1  0.81703872  0.04624038  0.32932207  1
  O  O76  1  0.98728239  0.86539264  0.88402955  1
  O  O77  1  0.49570764  0.18064350  0.77037282  1
  O  O78  1  0.74364400  0.83901779  0.12743150  1
  O  O79  1  0.31703872  0.95375962  0.17067793  1
  O  O80  1  0.16259481  0.24829613  0.66364487  1
  O  O81  1  0.89379269  0.16747348  0.00544283  1
  O  O82  1  0.88901479  0.75753519  0.46968676  1
  O  O83  1  0.48113228  0.51128548  0.64416963  1
  O  O84  1  0.90694772  0.44247049  0.95388579  1
  O  O85  1  0.01944302  0.35136303  0.05669288  1
  O  O86  1  0.71587653  0.68340173  0.67549128  1
  O  O87  1  0.10620731  0.83252652  0.99455717  1
  O  O88  1  0.50429236  0.81935650  0.22962718  1
  O  O89  1  0.11098521  0.24246481  0.53031324  1
  O  O90  1  0.95734281  0.06049033  0.46031988  1
  O  O91  1  0.96894621  0.49298848  0.38676861  1
  O  O92  1  0.00420599  0.03415737  0.94227672  1
  O  O93  1  0.58899740  0.59637609  0.00192787  1
  O  O94  1  0.91100260  0.59637609  0.50192787  1
  O  O95  1  0.24364400  0.16098221  0.37256850  1
  O  O96  1  0.52007118  0.89304575  0.89311992  1
  O  O97  1  0.97992882  0.89304575  0.39311992  1
  O  O98  1  0.09305228  0.55752951  0.04611421  1
  O  O99  1  0.70746641  0.03030674  0.71431125  1
  O  O100  1  0.40694772  0.55752951  0.54611421  1
  O  O101  1  0.29011875  0.67266856  0.34585422  1
  O  O102  1  0.00429236  0.18064350  0.27037282  1
  O  O103  1  0.21587653  0.31659827  0.82450872  1
  O  O104  1  0.68296128  0.04624038  0.82932207  1
  O  O105  1  0.38901479  0.24246481  0.03031324  1
  O  O106  1  0.03105379  0.50701152  0.61323139  1
  O  O107  1  0.33740519  0.24829613  0.16364487  1
  O  O108  1  0.49579401  0.03415737  0.44227672  1
  O  O109  1  0.98113228  0.48871452  0.85583037  1
  O  O110  1  0.01271761  0.13460736  0.11597045  1
  O  O111  1  0.89077681  0.41735881  0.24368307  1
  O  O112  1  0.83740519  0.75170387  0.33635513  1
  O  O113  1  0.18296128  0.95375962  0.67067793  1
  O  O114  1  0.04265719  0.93950967  0.53968012  1
  O  O115  1  0.59305228  0.44247049  0.45388579  1
  O  O116  1  0.50926763  0.16269983  0.27381486  1
  O  O117  1  0.51944302  0.64863697  0.44330712  1
  O  O118  1  0.50420599  0.96584263  0.55772328  1
  O  O119  1  0.49073237  0.83730017  0.72618514  1
  O  O120  1  0.51271761  0.86539264  0.38402955  1
  O  O121  1  0.45734281  0.93950967  0.03968012  1
  O  O122  1  0.79011875  0.32733144  0.15414578  1
  O  O123  1  0.39379269  0.83252652  0.49455717  1
  O  O124  1  0.08899740  0.40362391  0.49807213  1
  O  O125  1  0.99570764  0.81935650  0.72962718  1
  O  O126  1  0.70988125  0.32733144  0.65414578  1
  O  O127  1  0.55125919  0.58811109  0.78509134  1
  O  O128  1  0.79253359  0.03030674  0.21431125  1
  O  O129  1  0.78412347  0.68340173  0.17549128  1
  O  O130  1  0.66259481  0.75170387  0.83635513  1
  O  O131  1  0.53105379  0.49298848  0.88676861  1
  O  O132  1  0.05125919  0.41188891  0.71490866  1
  O  O133  1  0.00926763  0.83730017  0.22618514  1
  O  O134  1  0.20988125  0.67266856  0.84585422  1
  O  O135  1  0.98055698  0.64863697  0.94330712  1
