# generated using pymatgen
data_Hg3Te2IBr
_symmetry_space_group_name_H-M   'P 1'
_cell_length_a   9.89477443
_cell_length_b   10.71962277
_cell_length_c   10.80782534
_cell_angle_alpha   90.02008647
_cell_angle_beta   90.00000000
_cell_angle_gamma   117.48563707
_symmetry_Int_Tables_number   1
_chemical_formula_structural   Hg3Te2IBr
_chemical_formula_sum   'Hg12 Te8 I4 Br4'
_cell_volume   1016.97262994
_cell_formula_units_Z   4
loop_
 _symmetry_equiv_pos_site_id
 _symmetry_equiv_pos_as_xyz
  1  'x, y, z'
loop_
 _atom_site_type_symbol
 _atom_site_label
 _atom_site_symmetry_multiplicity
 _atom_site_fract_x
 _atom_site_fract_y
 _atom_site_fract_z
 _atom_site_occupancy
  Hg  Hg0  1  0.83644711  0.25098236  0.20694518  1
  Hg  Hg1  1  0.70238004  0.00000000  0.50000000  1
  Hg  Hg2  1  0.47428223  0.49095892  0.50114230  1
  Hg  Hg3  1  0.01233073  0.04047679  0.77672069  1
  Hg  Hg4  1  0.97185394  0.95952321  0.22327931  1
  Hg  Hg5  1  0.24146540  0.00000000  0.50000000  1
  Hg  Hg6  1  0.15878573  0.75161200  0.80212419  1
  Hg  Hg7  1  0.58546475  0.74901764  0.79305482  1
  Hg  Hg8  1  0.26721685  0.54192893  0.20861476  1
  Hg  Hg9  1  0.98332331  0.50904108  0.49885770  1
  Hg  Hg10  1  0.40717373  0.24838800  0.19787581  1
  Hg  Hg11  1  0.72528792  0.45807107  0.79138524  1
  Te  Te12  1  0.53448704  0.53210576  0.25247390  1
  Te  Te13  1  0.99099248  0.53626033  0.24583394  1
  Te  Te14  1  0.73361355  0.03410460  0.75204408  1
  Te  Te15  1  0.45473215  0.46373967  0.75416606  1
  Te  Te16  1  0.00238128  0.46789424  0.74752610  1
  Te  Te17  1  0.28554862  0.03584853  0.75055378  1
  Te  Te18  1  0.69950895  0.96589540  0.24795592  1
  Te  Te19  1  0.24970009  0.96415147  0.24944622  1
  I  I20  1  0.11649901  0.24677247  0.02526416  1
  I  I21  1  0.87552993  0.75615445  0.52307326  1
  I  I22  1  0.11937547  0.24384555  0.47692674  1
  I  I23  1  0.86972654  0.75322753  0.97473584  1
  Br  Br24  1  0.61932477  0.25019651  0.00917413  1
  Br  Br25  1  0.37335851  0.74327687  0.52235237  1
  Br  Br26  1  0.63008164  0.25672313  0.47764763  1
  Br  Br27  1  0.36912825  0.74980349  0.99082587  1
