# generated using pymatgen
data_KV4Ag11O16
_symmetry_space_group_name_H-M   'P 1'
_cell_length_a   10.53504582
_cell_length_b   10.77793038
_cell_length_c   17.22442957
_cell_angle_alpha   90.00000000
_cell_angle_beta   90.00000000
_cell_angle_gamma   90.00000000
_symmetry_Int_Tables_number   1
_chemical_formula_structural   KV4Ag11O16
_chemical_formula_sum   'K4 V16 Ag44 O64'
_cell_volume   1955.76491457
_cell_formula_units_Z   4
loop_
 _symmetry_equiv_pos_site_id
 _symmetry_equiv_pos_as_xyz
  1  'x, y, z'
loop_
 _atom_site_type_symbol
 _atom_site_label
 _atom_site_symmetry_multiplicity
 _atom_site_fract_x
 _atom_site_fract_y
 _atom_site_fract_z
 _atom_site_occupancy
  K  K0  1  0.50000000  0.00000000  0.50000000  1
  K  K1  1  0.50000000  0.50000000  0.00000000  1
  K  K2  1  0.00000000  0.50000000  0.50000000  1
  K  K3  1  0.00000000  0.00000000  0.00000000  1
  V  V4  1  0.25809517  0.23413696  0.99807000  1
  V  V5  1  0.74190483  0.26586304  0.49807000  1
  V  V6  1  0.49930784  0.98248001  0.73542787  1
  V  V7  1  0.99930784  0.51751999  0.73542787  1
  V  V8  1  0.74190483  0.76586304  0.00193000  1
  V  V9  1  0.00069216  0.48248001  0.26457213  1
  V  V10  1  0.00069216  0.98248001  0.23542787  1
  V  V11  1  0.99930784  0.01751999  0.76457213  1
  V  V12  1  0.49930784  0.48248001  0.76457213  1
  V  V13  1  0.50069216  0.01751999  0.26457213  1
  V  V14  1  0.24190483  0.23413696  0.49807000  1
  V  V15  1  0.25809517  0.73413696  0.50193000  1
  V  V16  1  0.24190483  0.73413696  0.00193000  1
  V  V17  1  0.75809517  0.76586304  0.50193000  1
  V  V18  1  0.75809517  0.26586304  0.99807000  1
  V  V19  1  0.50069216  0.51751999  0.23542787  1
  Ag  Ag20  1  0.52469312  0.72387891  0.36417507  1
  Ag  Ag21  1  0.21460219  0.47430494  0.12119838  1
  Ag  Ag22  1  0.53128612  0.20976922  0.86561281  1
  Ag  Ag23  1  0.21333839  0.98946318  0.62305880  1
  Ag  Ag24  1  0.78539781  0.02569506  0.62119838  1
  Ag  Ag25  1  0.47530688  0.77612109  0.86417507  1
  Ag  Ag26  1  0.97530688  0.72387891  0.86417507  1
  Ag  Ag27  1  0.71333839  0.51053682  0.62305880  1
  Ag  Ag28  1  0.28539781  0.97430494  0.87880162  1
  Ag  Ag29  1  0.52469312  0.22387891  0.13582493  1
  Ag  Ag30  1  0.24787547  0.76034002  0.24511072  1
  Ag  Ag31  1  0.71333839  0.01053682  0.87694120  1
  Ag  Ag32  1  0.75212453  0.23965998  0.75488928  1
  Ag  Ag33  1  0.28539781  0.47430494  0.62119838  1
  Ag  Ag34  1  0.97530688  0.22387891  0.63582493  1
  Ag  Ag35  1  0.53128612  0.70976922  0.63438719  1
  Ag  Ag36  1  0.02469312  0.27612109  0.13582493  1
  Ag  Ag37  1  0.71460219  0.02569506  0.12119838  1
  Ag  Ag38  1  0.96871388  0.20976922  0.36561281  1
  Ag  Ag39  1  0.03128612  0.29023078  0.86561281  1
  Ag  Ag40  1  0.02469312  0.77612109  0.36417507  1
  Ag  Ag41  1  0.78666161  0.01053682  0.37694120  1
  Ag  Ag42  1  0.47530688  0.27612109  0.63582493  1
  Ag  Ag43  1  0.75212453  0.73965998  0.74511072  1
  Ag  Ag44  1  0.78539781  0.52569506  0.87880162  1
  Ag  Ag45  1  0.00000000  0.00000000  0.50000000  1
  Ag  Ag46  1  0.74787547  0.73965998  0.24511072  1
  Ag  Ag47  1  0.78666161  0.51053682  0.12305880  1
  Ag  Ag48  1  0.46871388  0.79023078  0.13438719  1
  Ag  Ag49  1  0.50000000  0.00000000  0.00000000  1
  Ag  Ag50  1  0.03128612  0.79023078  0.63438719  1
  Ag  Ag51  1  0.25212453  0.76034002  0.74511072  1
  Ag  Ag52  1  0.46871388  0.29023078  0.36561281  1
  Ag  Ag53  1  0.96871388  0.70976922  0.13438719  1
  Ag  Ag54  1  0.71460219  0.52569506  0.37880162  1
  Ag  Ag55  1  0.25212453  0.26034002  0.75488928  1
  Ag  Ag56  1  0.28666161  0.98946318  0.12305880  1
  Ag  Ag57  1  0.50000000  0.50000000  0.50000000  1
  Ag  Ag58  1  0.21333839  0.48946318  0.87694120  1
  Ag  Ag59  1  0.28666161  0.48946318  0.37694120  1
  Ag  Ag60  1  0.21460219  0.97430494  0.37880162  1
  Ag  Ag61  1  0.24787547  0.26034002  0.25488928  1
  Ag  Ag62  1  0.74787547  0.23965998  0.25488928  1
  Ag  Ag63  1  0.00000000  0.50000000  0.00000000  1
  O  O64  1  0.31906310  0.67551878  0.08395610  1
  O  O65  1  0.25921338  0.89714465  0.50249262  1
  O  O66  1  0.41837507  0.18270244  0.99926670  1
  O  O67  1  0.39200790  0.88780622  0.68438574  1
  O  O68  1  0.08140064  0.92608531  0.82907670  1
  O  O69  1  0.58162493  0.81729756  0.00073330  1
  O  O70  1  0.08162493  0.68270244  0.00073330  1
  O  O71  1  0.08808791  0.58262128  0.20229951  1
  O  O72  1  0.41859936  0.42608531  0.17092330  1
  O  O73  1  0.39200790  0.38780622  0.81561426  1
  O  O74  1  0.25921338  0.39714465  0.99750738  1
  O  O75  1  0.81906310  0.82448122  0.08395610  1
  O  O76  1  0.10736257  0.61619447  0.78888753  1
  O  O77  1  0.17944888  0.17643186  0.08010291  1
  O  O78  1  0.91837507  0.31729756  0.99926670  1
  O  O79  1  0.58162493  0.31729756  0.49926670  1
  O  O80  1  0.74078662  0.10285535  0.49750738  1
  O  O81  1  0.91191209  0.91737872  0.70229951  1
  O  O82  1  0.32055112  0.67643186  0.91989709  1
  O  O83  1  0.24078662  0.39714465  0.49750738  1
  O  O84  1  0.18093690  0.67551878  0.58395610  1
  O  O85  1  0.10736257  0.11619447  0.71111247  1
  O  O86  1  0.10799210  0.38780622  0.31561426  1
  O  O87  1  0.60736257  0.38380553  0.71111247  1
  O  O88  1  0.82055112  0.82356814  0.91989709  1
  O  O89  1  0.91859936  0.07391469  0.17092330  1
  O  O90  1  0.58808791  0.41737872  0.29770049  1
  O  O91  1  0.32055112  0.17643186  0.58010291  1
  O  O92  1  0.41859936  0.92608531  0.32907670  1
  O  O93  1  0.31906310  0.17551878  0.41604390  1
  O  O94  1  0.58140064  0.57391469  0.82907670  1
  O  O95  1  0.39263743  0.61619447  0.28888753  1
  O  O96  1  0.91837507  0.81729756  0.50073330  1
  O  O97  1  0.81906310  0.32448122  0.41604390  1
  O  O98  1  0.75921338  0.10285535  0.99750738  1
  O  O99  1  0.58140064  0.07391469  0.67092330  1
  O  O100  1  0.68093690  0.32448122  0.91604390  1
  O  O101  1  0.75921338  0.60285535  0.50249262  1
  O  O102  1  0.58808791  0.91737872  0.20229951  1
  O  O103  1  0.60799210  0.61219378  0.18438574  1
  O  O104  1  0.41837507  0.68270244  0.50073330  1
  O  O105  1  0.08808791  0.08262128  0.29770049  1
  O  O106  1  0.89200790  0.61219378  0.68438574  1
  O  O107  1  0.91191209  0.41737872  0.79770049  1
  O  O108  1  0.41191209  0.58262128  0.70229951  1
  O  O109  1  0.60736257  0.88380553  0.78888753  1
  O  O110  1  0.08162493  0.18270244  0.49926670  1
  O  O111  1  0.67944888  0.32356814  0.08010291  1
  O  O112  1  0.89263743  0.88380553  0.28888753  1
  O  O113  1  0.68093690  0.82448122  0.58395610  1
  O  O114  1  0.39263743  0.11619447  0.21111247  1
  O  O115  1  0.17944888  0.67643186  0.41989709  1
  O  O116  1  0.18093690  0.17551878  0.91604390  1
  O  O117  1  0.24078662  0.89714465  0.00249262  1
  O  O118  1  0.89200790  0.11219378  0.81561426  1
  O  O119  1  0.91859936  0.57391469  0.32907670  1
  O  O120  1  0.74078662  0.60285535  0.00249262  1
  O  O121  1  0.08140064  0.42608531  0.67092330  1
  O  O122  1  0.89263743  0.38380553  0.21111247  1
  O  O123  1  0.82055112  0.32356814  0.58010291  1
  O  O124  1  0.67944888  0.82356814  0.41989709  1
  O  O125  1  0.41191209  0.08262128  0.79770049  1
  O  O126  1  0.60799210  0.11219378  0.31561426  1
  O  O127  1  0.10799210  0.88780622  0.18438574  1
