# generated using pymatgen
data_Ce10S14O
_symmetry_space_group_name_H-M   'P 1'
_cell_length_a   14.60678960
_cell_length_b   14.60678962
_cell_length_c   14.60678993
_cell_angle_alpha   93.52112495
_cell_angle_beta   117.98833148
_cell_angle_gamma   117.98833068
_symmetry_Int_Tables_number   1
_chemical_formula_structural   Ce10S14O
_chemical_formula_sum   'Ce40 S56 O4'
_cell_volume   2266.06117581
_cell_formula_units_Z   4
loop_
 _symmetry_equiv_pos_site_id
 _symmetry_equiv_pos_as_xyz
  1  'x, y, z'
loop_
 _atom_site_type_symbol
 _atom_site_label
 _atom_site_symmetry_multiplicity
 _atom_site_fract_x
 _atom_site_fract_y
 _atom_site_fract_z
 _atom_site_occupancy
  Ce  Ce0  1  0.89930346  0.57596312  0.41852408  1
  Ce  Ce1  1  0.37642467  0.19021498  0.80105040  1
  Ce  Ce2  1  0.15743904  0.58147592  0.98077938  1
  Ce  Ce3  1  0.34256096  0.51922062  0.91852408  1
  Ce  Ce4  1  0.97883046  0.23941523  0.98941523  1
  Ce  Ce5  1  0.88916457  0.57537426  0.69894960  1
  Ce  Ce6  1  0.10069654  0.42403688  0.58147592  1
  Ce  Ce7  1  0.15743904  0.07596312  0.17665966  1
  Ce  Ce8  1  0.65743904  0.67665966  0.57596312  1
  Ce  Ce9  1  0.65743904  0.48077938  0.08147592  1
  Ce  Ce10  1  0.10069654  0.17665966  0.51922062  1
  Ce  Ce11  1  0.60069654  0.01922062  0.67665966  1
  Ce  Ce12  1  0.11083543  0.18620969  0.80978502  1
  Ce  Ce13  1  0.12357533  0.69894960  0.30978502  1
  Ce  Ce14  1  0.34256096  0.32334034  0.42403688  1
  Ce  Ce15  1  0.52116954  0.51058477  0.26058477  1
  Ce  Ce16  1  0.38916457  0.19894960  0.07537426  1
  Ce  Ce17  1  0.37642467  0.68620969  0.57537426  1
  Ce  Ce18  1  0.88916457  0.81379031  0.19021498  1
  Ce  Ce19  1  0.25000000  0.73941523  0.76058477  1
  Ce  Ce20  1  0.75000000  0.26058477  0.23941523  1
  Ce  Ce21  1  0.25000000  0.01058477  0.48941523  1
  Ce  Ce22  1  0.87642467  0.07537426  0.18620969  1
  Ce  Ce23  1  0.87642467  0.30105040  0.69021498  1
  Ce  Ce24  1  0.47883046  0.48941523  0.73941523  1
  Ce  Ce25  1  0.38916457  0.69021498  0.31379031  1
  Ce  Ce26  1  0.60069654  0.08147592  0.92403688  1
  Ce  Ce27  1  0.84256096  0.41852408  0.01922062  1
  Ce  Ce28  1  0.02116954  0.76058477  0.01058477  1
  Ce  Ce29  1  0.39930346  0.91852408  0.07596312  1
  Ce  Ce30  1  0.61083543  0.30978502  0.68620969  1
  Ce  Ce31  1  0.12357533  0.92462574  0.81379031  1
  Ce  Ce32  1  0.62357533  0.31379031  0.42462574  1
  Ce  Ce33  1  0.11083543  0.42462574  0.30105040  1
  Ce  Ce34  1  0.39930346  0.98077938  0.32334034  1
  Ce  Ce35  1  0.62357533  0.80978502  0.19894960  1
  Ce  Ce36  1  0.89930346  0.82334034  0.48077938  1
  Ce  Ce37  1  0.61083543  0.80105040  0.92462574  1
  Ce  Ce38  1  0.84256096  0.92403688  0.82334034  1
  Ce  Ce39  1  0.75000000  0.98941523  0.51058477  1
  S  S40  1  0.41550906  0.16510666  0.43610847  1
  S  S41  1  0.58449094  0.24959760  0.02059940  1
  S  S42  1  0.10980439  0.36640697  0.89990150  1
  S  S43  1  0.64689781  0.39689781  0.25000000  1
  S  S44  1  0.90625426  0.52745812  0.88535282  1
  S  S45  1  0.46650547  0.86640697  0.75660258  1
  S  S46  1  0.39019561  0.29009711  0.25660258  1
  S  S47  1  0.60980439  0.39990150  0.86640697  1
  S  S48  1  0.96650547  0.20990289  0.60009850  1
  S  S49  1  0.08449094  0.06389153  0.33489334  1
  S  S50  1  0.35310219  0.60310219  0.75000000  1
  S  S51  1  0.03349453  0.79009711  0.39990150  1
  S  S52  1  0.09374574  0.47254188  0.11464718  1
  S  S53  1  0.85310219  0.25000000  0.10310219  1
  S  S54  1  0.89019561  0.63359303  0.10009850  1
  S  S55  1  0.64689781  0.75000000  0.39689781  1
  S  S56  1  0.64210531  0.02745812  0.12120386  1
  S  S57  1  0.40625426  0.38535282  0.02745812  1
  S  S58  1  0.41550906  0.75040240  0.97940060  1
  S  S59  1  0.53349453  0.89990150  0.29009711  1
  S  S60  1  0.35789469  0.97254188  0.87879614  1
  S  S61  1  0.14210531  0.02090144  0.61464718  1
  S  S62  1  0.40625426  0.52090144  0.37879614  1
  S  S63  1  0.22899820  0.97940060  0.06389153  1
  S  S64  1  0.35789469  0.88535282  0.47909856  1
  S  S65  1  0.85310219  0.10310219  0.75000000  1
  S  S66  1  0.27100180  0.43610847  0.52059940  1
  S  S67  1  0.14689781  0.75000000  0.89689781  1
  S  S68  1  0.09374574  0.12120386  0.97909856  1
  S  S69  1  0.10980439  0.24339742  0.20990289  1
  S  S70  1  0.91550906  0.47940060  0.25040240  1
  S  S71  1  0.96650547  0.25660258  0.36640697  1
  S  S72  1  0.35310219  0.25000000  0.60310219  1
  S  S73  1  0.14689781  0.89689781  0.25000000  1
  S  S74  1  0.72899820  0.66510666  0.24959760  1
  S  S75  1  0.64210531  0.11464718  0.52090144  1
  S  S76  1  0.72899820  0.56389153  0.47940060  1
  S  S77  1  0.90625426  0.87879614  0.02090144  1
  S  S78  1  0.03349453  0.74339742  0.63359303  1
  S  S79  1  0.85789469  0.97909856  0.38535282  1
  S  S80  1  0.53349453  0.13359303  0.24339742  1
  S  S81  1  0.89019561  0.75660258  0.79009711  1
  S  S82  1  0.77100180  0.02059940  0.93610847  1
  S  S83  1  0.22899820  0.74959760  0.16510666  1
  S  S84  1  0.59374574  0.61464718  0.97254188  1
  S  S85  1  0.60980439  0.70990289  0.74339742  1
  S  S86  1  0.39019561  0.60009850  0.13359303  1
  S  S87  1  0.77100180  0.25040240  0.83489334  1
  S  S88  1  0.59374574  0.47909856  0.62120386  1
  S  S89  1  0.14210531  0.62120386  0.52745812  1
  S  S90  1  0.85789469  0.37879614  0.47254188  1
  S  S91  1  0.58449094  0.83489334  0.56389153  1
  S  S92  1  0.27100180  0.33489334  0.75040240  1
  S  S93  1  0.46650547  0.10009850  0.70990289  1
  S  S94  1  0.08449094  0.52059940  0.74959760  1
  S  S95  1  0.91550906  0.93610847  0.66510666  1
  O  O96  1  0.75000000  0.87500000  0.12500000  1
  O  O97  1  0.25000000  0.12500000  0.87500000  1
  O  O98  1  0.75000000  0.37500000  0.62500000  1
  O  O99  1  0.25000000  0.62500000  0.37500000  1
