# generated using pymatgen
data_Sr13Al6Si8O
_symmetry_space_group_name_H-M   'P 1'
_cell_length_a   4.84016064
_cell_length_b   11.70158676
_cell_length_c   14.60456243
_cell_angle_alpha   82.96742170
_cell_angle_beta   80.46353180
_cell_angle_gamma   78.06484684
_symmetry_Int_Tables_number   1
_chemical_formula_structural   Sr13Al6Si8O
_chemical_formula_sum   'Sr13 Al6 Si8 O1'
_cell_volume   794.76193122
_cell_formula_units_Z   1
loop_
 _symmetry_equiv_pos_site_id
 _symmetry_equiv_pos_as_xyz
  1  'x, y, z'
loop_
 _atom_site_type_symbol
 _atom_site_label
 _atom_site_symmetry_multiplicity
 _atom_site_fract_x
 _atom_site_fract_y
 _atom_site_fract_z
 _atom_site_occupancy
  Sr  Sr0  1  0.80603639  0.24092021  0.14695990  1
  Sr  Sr1  1  0.00227908  0.35456240  0.64091625  1
  Sr  Sr2  1  0.00146417  0.11762352  0.87942145  1
  Sr  Sr3  1  0.80655256  0.99582501  0.39113634  1
  Sr  Sr4  1  0.81516667  0.47826276  0.89142963  1
  Sr  Sr5  1  0.84544963  0.69206308  0.61709741  1
  Sr  Sr6  1  0.50000000  0.50000000  0.50000000  1
  Sr  Sr7  1  0.15455037  0.30793692  0.38290259  1
  Sr  Sr8  1  0.19344744  0.00417499  0.60886366  1
  Sr  Sr9  1  0.18483333  0.52173724  0.10857037  1
  Sr  Sr10  1  0.19396361  0.75907979  0.85304010  1
  Sr  Sr11  1  0.99853583  0.88237648  0.12057855  1
  Sr  Sr12  1  0.99772092  0.64543760  0.35908375  1
  Al  Al13  1  0.56603857  0.67691186  0.19087318  1
  Al  Al14  1  0.43074505  0.08617123  0.05250003  1
  Al  Al15  1  0.57248487  0.14994634  0.70511735  1
  Al  Al16  1  0.43396143  0.32308814  0.80912682  1
  Al  Al17  1  0.42751513  0.85005366  0.29488265  1
  Al  Al18  1  0.56925495  0.91382877  0.94749997  1
  Si  Si19  1  0.36081860  0.29447960  0.98377280  1
  Si  Si20  1  0.35526366  0.06094201  0.22856834  1
  Si  Si21  1  0.64473634  0.93905799  0.77143166  1
  Si  Si22  1  0.63064222  0.47237468  0.26612894  1
  Si  Si23  1  0.63288952  0.20000563  0.53415498  1
  Si  Si24  1  0.36711048  0.79999437  0.46584502  1
  Si  Si25  1  0.36935778  0.52762532  0.73387106  1
  Si  Si26  1  0.63918140  0.70552040  0.01622720  1
  O  O27  1  0.00000000  0.50000000  0.50000000  1
