# generated using pymatgen
data_BeCl2
_symmetry_space_group_name_H-M   'P 1'
_cell_length_a   11.16576907
_cell_length_b   11.16576861
_cell_length_c   12.02563773
_cell_angle_alpha   117.66159871
_cell_angle_beta   117.66159768
_cell_angle_gamma   90.00000216
_symmetry_Int_Tables_number   1
_chemical_formula_structural   BeCl2
_chemical_formula_sum   'Be16 Cl32'
_cell_volume   1130.89202071
_cell_formula_units_Z   16
loop_
 _symmetry_equiv_pos_site_id
 _symmetry_equiv_pos_as_xyz
  1  'x, y, z'
loop_
 _atom_site_type_symbol
 _atom_site_label
 _atom_site_symmetry_multiplicity
 _atom_site_fract_x
 _atom_site_fract_y
 _atom_site_fract_z
 _atom_site_occupancy
  Be  Be0  1  0.38775047  0.43610634  0.62243736  1
  Be  Be1  1  0.23468690  0.68633103  0.62243736  1
  Be  Be2  1  0.31366897  0.61224953  0.87756264  1
  Be  Be3  1  0.68633103  0.38775047  0.12243736  1
  Be  Be4  1  0.93610634  0.88775047  0.12243736  1
  Be  Be5  1  0.26531310  0.06389366  0.37756264  1
  Be  Be6  1  0.11224953  0.81366897  0.37756264  1
  Be  Be7  1  0.88775047  0.18633103  0.62243736  1
  Be  Be8  1  0.61224953  0.56389366  0.37756264  1
  Be  Be9  1  0.18633103  0.73468690  0.12243736  1
  Be  Be10  1  0.56389366  0.76531310  0.87756264  1
  Be  Be11  1  0.73468690  0.93610634  0.62243736  1
  Be  Be12  1  0.43610634  0.23468690  0.12243736  1
  Be  Be13  1  0.76531310  0.31366897  0.37756264  1
  Be  Be14  1  0.81366897  0.26531310  0.87756264  1
  Be  Be15  1  0.06389366  0.11224953  0.87756264  1
  Cl  Cl16  1  0.25000000  0.58373295  0.00000000  1
  Cl  Cl17  1  0.75000000  0.41626705  1.00000000  1
  Cl  Cl18  1  0.00581321  0.25581321  0.01162642  1
  Cl  Cl19  1  0.17252191  0.66786963  0.24931981  1
  Cl  Cl20  1  0.58145018  0.57679790  0.74931981  1
  Cl  Cl21  1  0.49418679  0.24418679  0.98837358  1
  Cl  Cl22  1  0.07679790  0.08145018  0.24931981  1
  Cl  Cl23  1  0.57679790  0.16786963  0.24931981  1
  Cl  Cl24  1  0.41626705  0.25000000  0.50000000  1
  Cl  Cl25  1  0.75581321  0.50581321  0.51162642  1
  Cl  Cl26  1  0.32747809  0.41854982  0.75068019  1
  Cl  Cl27  1  0.82747809  0.33213037  0.75068019  1
  Cl  Cl28  1  0.25000000  0.08373295  0.00000000  1
  Cl  Cl29  1  0.24418679  0.49418679  0.48837358  1
  Cl  Cl30  1  0.91626705  0.25000000  0.50000000  1
  Cl  Cl31  1  0.41854982  0.42320210  0.25068019  1
  Cl  Cl32  1  0.99418679  0.74418679  0.98837358  1
  Cl  Cl33  1  0.08145018  0.17252191  0.74931981  1
  Cl  Cl34  1  0.83213037  0.32747809  0.25068019  1
  Cl  Cl35  1  0.42320210  0.83213037  0.75068019  1
  Cl  Cl36  1  0.33213037  0.92320210  0.25068019  1
  Cl  Cl37  1  0.08373295  0.75000000  0.50000000  1
  Cl  Cl38  1  0.75000000  0.91626705  1.00000000  1
  Cl  Cl39  1  0.66786963  0.07679790  0.74931981  1
  Cl  Cl40  1  0.67252191  0.58145018  0.24931981  1
  Cl  Cl41  1  0.16786963  0.67252191  0.74931981  1
  Cl  Cl42  1  0.74418679  0.99418679  0.48837358  1
  Cl  Cl43  1  0.92320210  0.91854982  0.75068019  1
  Cl  Cl44  1  0.91854982  0.82747809  0.25068019  1
  Cl  Cl45  1  0.50581321  0.75581321  0.01162642  1
  Cl  Cl46  1  0.58373295  0.75000000  0.50000000  1
  Cl  Cl47  1  0.25581321  0.00581321  0.51162642  1
