# generated using pymatgen
data_NdH12S2NO12
_symmetry_space_group_name_H-M   'P 1'
_cell_length_a   6.73385854
_cell_length_b   8.84429946
_cell_length_c   19.23074482
_cell_angle_alpha   90.00000000
_cell_angle_beta   90.00000000
_cell_angle_gamma   97.54488325
_symmetry_Int_Tables_number   1
_chemical_formula_structural   NdH12S2NO12
_chemical_formula_sum   'Nd4 H48 S8 N4 O48'
_cell_volume   1135.39551510
_cell_formula_units_Z   4
loop_
 _symmetry_equiv_pos_site_id
 _symmetry_equiv_pos_as_xyz
  1  'x, y, z'
loop_
 _atom_site_type_symbol
 _atom_site_label
 _atom_site_symmetry_multiplicity
 _atom_site_fract_x
 _atom_site_fract_y
 _atom_site_fract_z
 _atom_site_occupancy
  Nd  Nd0  1  0.14405036  0.28825345  0.12300887  1
  Nd  Nd1  1  0.85594964  0.71174655  0.87699113  1
  Nd  Nd2  1  0.85594964  0.21174655  0.62300887  1
  Nd  Nd3  1  0.14405036  0.78825345  0.37699113  1
  H  H4  1  0.35029030  0.31636116  0.81980100  1
  H  H5  1  0.48231280  0.96605375  0.72443464  1
  H  H6  1  0.17728419  0.43389275  0.97155906  1
  H  H7  1  0.71686633  0.38303687  0.93436545  1
  H  H8  1  0.74551385  0.22615335  0.46317565  1
  H  H9  1  0.12741985  0.45140214  0.41586899  1
  H  H10  1  0.48231280  0.46605375  0.77556536  1
  H  H11  1  0.81237129  0.34944914  0.86302243  1
  H  H12  1  0.17728419  0.93389275  0.52844094  1
  H  H13  1  0.18762871  0.65055086  0.13697757  1
  H  H14  1  0.18762871  0.15055086  0.36302243  1
  H  H15  1  0.69031627  0.15911628  0.23369459  1
  H  H16  1  0.28553910  0.52038440  0.47062312  1
  H  H17  1  0.71686633  0.88303687  0.56563455  1
  H  H18  1  0.69031627  0.65911628  0.26630541  1
  H  H19  1  0.12741985  0.95140214  0.08413101  1
  H  H20  1  0.23819522  0.46671401  0.78992441  1
  H  H21  1  0.82271581  0.56610725  0.02844094  1
  H  H22  1  0.28553910  0.02038440  0.02937688  1
  H  H23  1  0.25448615  0.27384665  0.96317565  1
  H  H24  1  0.74551385  0.72615335  0.03682435  1
  H  H25  1  0.23819522  0.96671401  0.71007559  1
  H  H26  1  0.30968373  0.84088372  0.76630541  1
  H  H27  1  0.28313367  0.11696313  0.43436545  1
  H  H28  1  0.48607970  0.66691312  0.58739514  1
  H  H29  1  0.64970970  0.68363884  0.18019900  1
  H  H30  1  0.87258015  0.54859786  0.58413101  1
  H  H31  1  0.48607970  0.16691312  0.91260486  1
  H  H32  1  0.25448615  0.77384665  0.53682435  1
  H  H33  1  0.64970970  0.18363884  0.31980100  1
  H  H34  1  0.51392030  0.83308688  0.08739514  1
  H  H35  1  0.71446090  0.47961560  0.52937688  1
  H  H36  1  0.70662875  0.43633382  0.38707632  1
  H  H37  1  0.51768720  0.03394625  0.27556536  1
  H  H38  1  0.51392030  0.33308688  0.41260486  1
  H  H39  1  0.29337125  0.56366618  0.61292368  1
  H  H40  1  0.35029030  0.81636116  0.68019900  1
  H  H41  1  0.82271581  0.06610725  0.47155906  1
  H  H42  1  0.70662875  0.93633382  0.11292368  1
  H  H43  1  0.28313367  0.61696313  0.06563455  1
  H  H44  1  0.30968373  0.34088372  0.73369459  1
  H  H45  1  0.51768720  0.53394625  0.22443464  1
  H  H46  1  0.29337125  0.06366618  0.88707632  1
  H  H47  1  0.87258015  0.04859786  0.91586899  1
  H  H48  1  0.71446090  0.97961560  0.97062312  1
  H  H49  1  0.81237129  0.84944914  0.63697757  1
  H  H50  1  0.76180478  0.53328599  0.21007559  1
  H  H51  1  0.76180478  0.03328599  0.28992441  1
  S  S52  1  0.31547356  0.23730036  0.57604957  1
  S  S53  1  0.87895720  0.58561126  0.72294713  1
  S  S54  1  0.68452644  0.26269964  0.07604957  1
  S  S55  1  0.12104280  0.91438874  0.22294713  1
  S  S56  1  0.68452644  0.76269964  0.42395043  1
  S  S57  1  0.87895720  0.08561126  0.77705287  1
  S  S58  1  0.12104280  0.41438874  0.27705287  1
  S  S59  1  0.31547356  0.73730036  0.92395043  1
  N  N60  1  0.65412552  0.60361143  0.22002430  1
  N  N61  1  0.34587448  0.39638857  0.77997570  1
  N  N62  1  0.65412552  0.10361143  0.27997570  1
  N  N63  1  0.34587448  0.89638857  0.72002430  1
  O  O64  1  0.30596724  0.88580233  0.26166433  1
  O  O65  1  0.35591401  0.17132260  0.89079445  1
  O  O66  1  0.09272026  0.82071630  0.15893811  1
  O  O67  1  0.13369819  0.07808207  0.20490513  1
  O  O68  1  0.24917260  0.57084088  0.11132286  1
  O  O69  1  0.09272026  0.32071630  0.34106189  1
  O  O70  1  0.79023744  0.14263558  0.11045504  1
  O  O71  1  0.50553437  0.78567264  0.38238092  1
  O  O72  1  0.64408599  0.32867740  0.39079445  1
  O  O73  1  0.20976256  0.35736442  0.61045504  1
  O  O74  1  0.49446563  0.71432736  0.88238092  1
  O  O75  1  0.75082740  0.42915912  0.88867714  1
  O  O76  1  0.49446563  0.21432736  0.61761908  1
  O  O77  1  0.50553437  0.28567264  0.11761908  1
  O  O78  1  0.82281797  0.95373364  0.94119838  1
  O  O79  1  0.69403276  0.11419767  0.73833567  1
  O  O80  1  0.90727974  0.67928370  0.65893811  1
  O  O81  1  0.20976256  0.85736442  0.88954496  1
  O  O82  1  0.79440027  0.15695775  0.49803329  1
  O  O83  1  0.20559973  0.84304225  0.50196671  1
  O  O84  1  0.79023744  0.64263558  0.38954496  1
  O  O85  1  0.16508498  0.59600584  0.92228548  1
  O  O86  1  0.13369819  0.57808207  0.29509487  1
  O  O87  1  0.24917260  0.07084088  0.38867714  1
  O  O88  1  0.35591401  0.67132260  0.60920555  1
  O  O89  1  0.17718203  0.04626636  0.05880162  1
  O  O90  1  0.79440027  0.65695775  0.00196671  1
  O  O91  1  0.04927850  0.12634384  0.72705400  1
  O  O92  1  0.69403276  0.61419767  0.76166433  1
  O  O93  1  0.95072150  0.37365616  0.22705400  1
  O  O94  1  0.37073283  0.28082049  0.50365160  1
  O  O95  1  0.64408599  0.82867740  0.10920555  1
  O  O96  1  0.37073283  0.78082049  0.99634840  1
  O  O97  1  0.75082740  0.92915912  0.61132286  1
  O  O98  1  0.17718203  0.54626636  0.44119838  1
  O  O99  1  0.04927850  0.62634384  0.77294600  1
  O  O100  1  0.95072150  0.87365616  0.27294600  1
  O  O101  1  0.62926717  0.71917951  0.49634840  1
  O  O102  1  0.16508498  0.09600584  0.57771452  1
  O  O103  1  0.20559973  0.34304225  0.99803329  1
  O  O104  1  0.62926717  0.21917951  0.00365160  1
  O  O105  1  0.90727974  0.17928370  0.84106189  1
  O  O106  1  0.86630181  0.92191793  0.79509487  1
  O  O107  1  0.86630181  0.42191793  0.70490513  1
  O  O108  1  0.82281797  0.45373364  0.55880162  1
  O  O109  1  0.83491502  0.90399416  0.42228548  1
  O  O110  1  0.30596724  0.38580233  0.23833567  1
  O  O111  1  0.83491502  0.40399416  0.07771452  1
