# generated using pymatgen
data_LiFePO4
_symmetry_space_group_name_H-M   'P 1'
_cell_length_a   8.64378366
_cell_length_b   8.64378361
_cell_length_c   8.64378361
_cell_angle_alpha   107.65275389
_cell_angle_beta   107.65274427
_cell_angle_gamma   107.65274331
_symmetry_Int_Tables_number   1
_chemical_formula_structural   LiFePO4
_chemical_formula_sum   'Li6 Fe6 P6 O24'
_cell_volume   527.97560725
_cell_formula_units_Z   6
loop_
 _symmetry_equiv_pos_site_id
 _symmetry_equiv_pos_as_xyz
  1  'x, y, z'
loop_
 _atom_site_type_symbol
 _atom_site_label
 _atom_site_symmetry_multiplicity
 _atom_site_fract_x
 _atom_site_fract_y
 _atom_site_fract_z
 _atom_site_occupancy
  Li  Li0  1  0.12378755  0.89171315  0.72080344  1
  Li  Li1  1  0.21032879  0.42433282  0.60906961  1
  Li  Li2  1  0.42433282  0.60906961  0.21032879  1
  Li  Li3  1  0.72080344  0.12378755  0.89171315  1
  Li  Li4  1  0.60906961  0.21032879  0.42433282  1
  Li  Li5  1  0.89171315  0.72080344  0.12378755  1
  Fe  Fe6  1  0.05204681  0.45738529  0.23030879  1
  Fe  Fe7  1  0.53673270  0.76823344  0.94313359  1
  Fe  Fe8  1  0.23030879  0.05204681  0.45738529  1
  Fe  Fe9  1  0.76823344  0.94313359  0.53673270  1
  Fe  Fe10  1  0.45738529  0.23030879  0.05204681  1
  Fe  Fe11  1  0.94313359  0.53673270  0.76823344  1
  P  P12  1  0.09703565  0.28093897  0.87557617  1
  P  P13  1  0.38517418  0.78979081  0.57285432  1
  P  P14  1  0.28093897  0.87557617  0.09703565  1
  P  P15  1  0.57285432  0.38517418  0.78979081  1
  P  P16  1  0.78979081  0.57285432  0.38517418  1
  P  P17  1  0.87557617  0.09703565  0.28093897  1
  O  O18  1  0.29463029  0.96841467  0.96902974  1
  O  O19  1  0.09543218  0.39943067  0.77149743  1
  O  O20  1  0.02718484  0.08068993  0.74059272  1
  O  O21  1  0.27757211  0.90410280  0.59183961  1
  O  O22  1  0.02462330  0.28928634  0.35202513  1
  O  O23  1  0.08068993  0.74059272  0.02718484  1
  O  O24  1  0.36176410  0.68125094  0.68540557  1
  O  O25  1  0.30932742  0.65484730  0.37252353  1
  O  O26  1  0.37252353  0.30932742  0.65484730  1
  O  O27  1  0.58894932  0.91591341  0.64683355  1
  O  O28  1  0.39943067  0.77149743  0.09543218  1
  O  O29  1  0.28928634  0.35202513  0.02462330  1
  O  O30  1  0.64683355  0.58894932  0.91591341  1
  O  O31  1  0.59183961  0.27757211  0.90410280  1
  O  O32  1  0.35202513  0.02462330  0.28928634  1
  O  O33  1  0.68540557  0.36176410  0.68125094  1
  O  O34  1  0.68125094  0.68540557  0.36176410  1
  O  O35  1  0.65484730  0.37252353  0.30932742  1
  O  O36  1  0.91591341  0.64683355  0.58894932  1
  O  O37  1  0.96841467  0.96902974  0.29463029  1
  O  O38  1  0.96902974  0.29463029  0.96841467  1
  O  O39  1  0.77149743  0.09543218  0.39943067  1
  O  O40  1  0.90410280  0.59183961  0.27757211  1
  O  O41  1  0.74059272  0.02718484  0.08068993  1
