# generated using pymatgen
data_K3Mo2Cl9
_symmetry_space_group_name_H-M   'P 1'
_cell_length_a   7.19174190
_cell_length_b   7.19174212
_cell_length_c   17.43280241
_cell_angle_alpha   90.00000000
_cell_angle_beta   90.00000000
_cell_angle_gamma   119.99999896
_symmetry_Int_Tables_number   1
_chemical_formula_structural   K3Mo2Cl9
_chemical_formula_sum   'K6 Mo4 Cl18'
_cell_volume   780.84717444
_cell_formula_units_Z   2
loop_
 _symmetry_equiv_pos_site_id
 _symmetry_equiv_pos_as_xyz
  1  'x, y, z'
loop_
 _atom_site_type_symbol
 _atom_site_label
 _atom_site_symmetry_multiplicity
 _atom_site_fract_x
 _atom_site_fract_y
 _atom_site_fract_z
 _atom_site_occupancy
  K  K0  1  0.66666700  0.33333300  0.43392676  1
  K  K1  1  0.33333300  0.66666700  0.56607324  1
  K  K2  1  0.33333300  0.66666700  0.93392676  1
  K  K3  1  0.66666700  0.33333300  0.06607324  1
  K  K4  1  0.00000000  0.00000000  0.25000000  1
  K  K5  1  0.00000000  0.00000000  0.75000000  1
  Mo  Mo6  1  0.33333300  0.66666700  0.32967510  1
  Mo  Mo7  1  0.66666700  0.33333300  0.67032490  1
  Mo  Mo8  1  0.33333300  0.66666700  0.17032490  1
  Mo  Mo9  1  0.66666700  0.33333300  0.82967510  1
  Cl  Cl10  1  0.54176514  0.99591093  0.25000000  1
  Cl  Cl11  1  0.77975666  0.13151750  0.90777362  1
  Cl  Cl12  1  0.13151750  0.35176084  0.40777362  1
  Cl  Cl13  1  0.35176084  0.22024334  0.90777362  1
  Cl  Cl14  1  0.13151750  0.35176084  0.09222638  1
  Cl  Cl15  1  0.22024334  0.86848250  0.09222638  1
  Cl  Cl16  1  0.00408907  0.54585422  0.25000000  1
  Cl  Cl17  1  0.35176084  0.22024334  0.59222638  1
  Cl  Cl18  1  0.45414578  0.45823486  0.25000000  1
  Cl  Cl19  1  0.77975666  0.13151750  0.59222638  1
  Cl  Cl20  1  0.45823486  0.00408907  0.75000000  1
  Cl  Cl21  1  0.54585422  0.54176514  0.75000000  1
  Cl  Cl22  1  0.99591093  0.45414578  0.75000000  1
  Cl  Cl23  1  0.22024334  0.86848250  0.40777362  1
  Cl  Cl24  1  0.86848250  0.64823916  0.59222638  1
  Cl  Cl25  1  0.64823916  0.77975666  0.09222638  1
  Cl  Cl26  1  0.64823916  0.77975666  0.40777362  1
  Cl  Cl27  1  0.86848250  0.64823916  0.90777362  1
