# generated using pymatgen
data_CsW3Br3Cl4
_symmetry_space_group_name_H-M   'P 1'
_cell_length_a   10.33226043
_cell_length_b   10.33226060
_cell_length_c   15.91975829
_cell_angle_alpha   90.00000000
_cell_angle_beta   90.00000000
_cell_angle_gamma   119.99999947
_symmetry_Int_Tables_number   1
_chemical_formula_structural   CsW3Br3Cl4
_chemical_formula_sum   'Cs4 W12 Br12 Cl16'
_cell_volume   1471.83050365
_cell_formula_units_Z   4
loop_
 _symmetry_equiv_pos_site_id
 _symmetry_equiv_pos_as_xyz
  1  'x, y, z'
loop_
 _atom_site_type_symbol
 _atom_site_label
 _atom_site_symmetry_multiplicity
 _atom_site_fract_x
 _atom_site_fract_y
 _atom_site_fract_z
 _atom_site_occupancy
  Cs  Cs0  1  0.00000000  0.00000000  0.51592294  1
  Cs  Cs1  1  0.00000000  0.00000000  0.01592294  1
  Cs  Cs2  1  0.33333300  0.66666700  0.24213646  1
  Cs  Cs3  1  0.66666700  0.33333300  0.74213646  1
  W  W4  1  0.18197976  0.52346107  0.67976651  1
  W  W5  1  0.65851869  0.47653893  0.17976651  1
  W  W6  1  0.52346107  0.18197976  0.17976651  1
  W  W7  1  0.32670441  0.51591570  0.81470291  1
  W  W8  1  0.47653893  0.65851869  0.67976651  1
  W  W9  1  0.18921129  0.67329559  0.81470291  1
  W  W10  1  0.81078871  0.48408430  0.31470291  1
  W  W11  1  0.34148131  0.81802024  0.67976651  1
  W  W12  1  0.67329559  0.18921129  0.31470291  1
  W  W13  1  0.81802024  0.34148131  0.17976651  1
  W  W14  1  0.48408430  0.81078871  0.81470291  1
  W  W15  1  0.51591570  0.32670441  0.31470291  1
  Br  Br16  1  0.02392074  0.69669260  0.40283214  1
  Br  Br17  1  0.69669260  0.02392074  0.90283214  1
  Br  Br18  1  0.32113183  0.95965765  0.09129997  1
  Br  Br19  1  0.04034235  0.36147419  0.09129997  1
  Br  Br20  1  0.97607926  0.67277186  0.90283214  1
  Br  Br21  1  0.67886817  0.63852581  0.59129997  1
  Br  Br22  1  0.95965765  0.32113183  0.59129997  1
  Br  Br23  1  0.32722814  0.30330740  0.90283214  1
  Br  Br24  1  0.67277186  0.97607926  0.40283214  1
  Br  Br25  1  0.30330740  0.32722814  0.40283214  1
  Br  Br26  1  0.36147419  0.04034235  0.59129997  1
  Br  Br27  1  0.63852581  0.67886817  0.09129997  1
  Cl  Cl28  1  0.60846137  0.65539134  0.81320959  1
  Cl  Cl29  1  0.66666700  0.33333300  0.43968020  1
  Cl  Cl30  1  0.33333300  0.66666700  0.93968020  1
  Cl  Cl31  1  0.34460866  0.95307003  0.81320959  1
  Cl  Cl32  1  0.68359074  0.06102712  0.18122898  1
  Cl  Cl33  1  0.95307003  0.34460866  0.31320959  1
  Cl  Cl34  1  0.04692997  0.39153863  0.81320959  1
  Cl  Cl35  1  0.06102712  0.68359074  0.68122898  1
  Cl  Cl36  1  0.39153863  0.04692997  0.31320959  1
  Cl  Cl37  1  0.37743639  0.31640926  0.18122898  1
  Cl  Cl38  1  0.93897288  0.62256361  0.18122898  1
  Cl  Cl39  1  0.66666700  0.33333300  0.05434010  1
  Cl  Cl40  1  0.31640926  0.37743639  0.68122898  1
  Cl  Cl41  1  0.65539134  0.60846137  0.31320959  1
  Cl  Cl42  1  0.33333300  0.66666700  0.55434010  1
  Cl  Cl43  1  0.62256361  0.93897288  0.68122898  1
