# generated using pymatgen
data_K2Cr4Co(HO4)4
_symmetry_space_group_name_H-M   'P 1'
_cell_length_a   6.96124132
_cell_length_b   7.81672030
_cell_length_c   7.95697806
_cell_angle_alpha   89.57788546
_cell_angle_beta   81.43548683
_cell_angle_gamma   63.65667467
_symmetry_Int_Tables_number   1
_chemical_formula_structural   K2Cr4Co(HO4)4
_chemical_formula_sum   'K2 Cr4 Co1 H4 O16'
_cell_volume   382.83805949
_cell_formula_units_Z   1
loop_
 _symmetry_equiv_pos_site_id
 _symmetry_equiv_pos_as_xyz
  1  'x, y, z'
loop_
 _atom_site_type_symbol
 _atom_site_label
 _atom_site_symmetry_multiplicity
 _atom_site_fract_x
 _atom_site_fract_y
 _atom_site_fract_z
 _atom_site_occupancy
  K  K0  1  0.29166659  0.26522459  0.82755667  1
  K  K1  1  0.70833341  0.73477541  0.17244333  1
  Cr  Cr2  1  0.26046414  0.79415403  0.83604586  1
  Cr  Cr3  1  0.73953586  0.20584597  0.16395414  1
  Cr  Cr4  1  0.27157468  0.49834707  0.33178290  1
  Cr  Cr5  1  0.72842532  0.50165293  0.66821710  1
  Co  Co6  1  0.00000000  0.00000000  0.50000000  1
  H  H7  1  0.20232787  0.07459976  0.22123262  1
  H  H8  1  0.79767213  0.92540024  0.77876738  1
  H  H9  1  0.73773192  0.85304682  0.61789714  1
  H  H10  1  0.26226808  0.14695318  0.38210286  1
  O  O11  1  0.85264814  0.27845434  0.58975392  1
  O  O12  1  0.71842388  0.65273890  0.52150603  1
  O  O13  1  0.45438256  0.55376989  0.76039458  1
  O  O14  1  0.04159355  0.78633146  0.93061759  1
  O  O15  1  0.20643650  0.93313306  0.67377034  1
  O  O16  1  0.75076530  0.96280199  0.66805644  1
  O  O17  1  0.24923470  0.03719801  0.33194356  1
  O  O18  1  0.28157612  0.34726110  0.47849397  1
  O  O19  1  0.79356350  0.06686694  0.32622966  1
  O  O20  1  0.14735186  0.72154566  0.41024608  1
  O  O21  1  0.15307738  0.46490677  0.18307821  1
  O  O22  1  0.54561744  0.44623011  0.23960542  1
  O  O23  1  0.95840645  0.21366854  0.06938241  1
  O  O24  1  0.63185275  0.12556033  0.03528729  1
  O  O25  1  0.36814725  0.87443967  0.96471271  1
  O  O26  1  0.84692262  0.53509323  0.81692179  1
