# generated using pymatgen
data_Sr15Fe10(Bi5O23)2
_symmetry_space_group_name_H-M   'P 1'
_cell_length_a   5.54635931
_cell_length_b   21.40565674
_cell_length_c   21.40565707
_cell_angle_alpha   100.09453578
_cell_angle_beta   90.00000000
_cell_angle_gamma   90.00000000
_symmetry_Int_Tables_number   1
_chemical_formula_structural   Sr15Fe10(Bi5O23)2
_chemical_formula_sum   'Sr30 Fe20 Bi20 O92'
_cell_volume   2502.01333638
_cell_formula_units_Z   2
loop_
 _symmetry_equiv_pos_site_id
 _symmetry_equiv_pos_as_xyz
  1  'x, y, z'
loop_
 _atom_site_type_symbol
 _atom_site_label
 _atom_site_symmetry_multiplicity
 _atom_site_fract_x
 _atom_site_fract_y
 _atom_site_fract_z
 _atom_site_occupancy
  Sr  Sr0  1  0.25308716  0.68846258  0.21020985  1
  Sr  Sr1  1  0.25510759  0.50000000  0.00000000  1
  Sr  Sr2  1  0.25656671  0.18717557  0.90785149  1
  Sr  Sr3  1  0.74691284  0.78979015  0.31153742  1
  Sr  Sr4  1  0.74691284  0.21020985  0.68846258  1
  Sr  Sr5  1  0.24964876  0.00531006  0.28060946  1
  Sr  Sr6  1  0.74343329  0.09214851  0.81282443  1
  Sr  Sr7  1  0.75035124  0.71939054  0.99468994  1
  Sr  Sr8  1  0.74632429  0.53017395  0.78704566  1
  Sr  Sr9  1  0.24964876  0.99468994  0.71939054  1
  Sr  Sr10  1  0.25308716  0.31153742  0.78979015  1
  Sr  Sr11  1  0.75112062  0.67789477  0.43111824  1
  Sr  Sr12  1  0.74343329  0.90785149  0.18717557  1
  Sr  Sr13  1  0.75134729  0.40717428  0.89417381  1
  Sr  Sr14  1  0.74489241  0.00000000  0.50000000  1
  Sr  Sr15  1  0.25367571  0.21295434  0.46982605  1
  Sr  Sr16  1  0.25656671  0.81282443  0.09214851  1
  Sr  Sr17  1  0.74220716  0.89322940  0.62577541  1
  Sr  Sr18  1  0.75112062  0.32210523  0.56888176  1
  Sr  Sr19  1  0.24865271  0.89417381  0.40717428  1
  Sr  Sr20  1  0.25367571  0.78704566  0.53017395  1
  Sr  Sr21  1  0.74220716  0.10677060  0.37422459  1
  Sr  Sr22  1  0.24887938  0.56888176  0.32210523  1
  Sr  Sr23  1  0.75134729  0.59282572  0.10582619  1
  Sr  Sr24  1  0.24887938  0.43111824  0.67789477  1
  Sr  Sr25  1  0.25779284  0.37422459  0.10677060  1
  Sr  Sr26  1  0.24865271  0.10582619  0.59282572  1
  Sr  Sr27  1  0.25779284  0.62577541  0.89322940  1
  Sr  Sr28  1  0.74632429  0.46982605  0.21295434  1
  Sr  Sr29  1  0.75035124  0.28060946  0.00531006  1
  Fe  Fe30  1  0.24638268  0.84751587  0.24989647  1
  Fe  Fe31  1  0.24465967  0.94454528  0.56322250  1
  Fe  Fe32  1  0.74784699  0.05056597  0.65560390  1
  Fe  Fe33  1  0.24638268  0.15248413  0.75010353  1
  Fe  Fe34  1  0.75361732  0.24989647  0.84751587  1
  Fe  Fe35  1  0.25215301  0.65560390  0.05056597  1
  Fe  Fe36  1  0.24949563  0.73025808  0.37232428  1
  Fe  Fe37  1  0.74936299  0.16323654  0.53007329  1
  Fe  Fe38  1  0.24949563  0.26974192  0.62767572  1
  Fe  Fe39  1  0.75050437  0.37232428  0.73025808  1
  Fe  Fe40  1  0.25063701  0.46992671  0.83676346  1
  Fe  Fe41  1  0.75534033  0.43677750  0.05545472  1
  Fe  Fe42  1  0.75050437  0.62767572  0.26974192  1
  Fe  Fe43  1  0.74936299  0.83676346  0.46992671  1
  Fe  Fe44  1  0.75534033  0.56322250  0.94454528  1
  Fe  Fe45  1  0.24465967  0.05545472  0.43677750  1
  Fe  Fe46  1  0.25215301  0.34439610  0.94943403  1
  Fe  Fe47  1  0.25063701  0.53007329  0.16323654  1
  Fe  Fe48  1  0.75361732  0.75010353  0.15248413  1
  Fe  Fe49  1  0.74784699  0.94943403  0.34439610  1
  Bi  Bi50  1  0.22962968  0.80877282  0.91281192  1
  Bi  Bi51  1  0.77427696  0.71647967  0.62405869  1
  Bi  Bi52  1  0.78080882  0.28279618  0.18313791  1
  Bi  Bi53  1  0.21204753  0.39689056  0.48147513  1
  Bi  Bi54  1  0.78795247  0.48147513  0.39689056  1
  Bi  Bi55  1  0.77037032  0.08718808  0.19122718  1
  Bi  Bi56  1  0.22016541  0.00750840  0.89996316  1
  Bi  Bi57  1  0.21919118  0.18313791  0.28279618  1
  Bi  Bi58  1  0.21919118  0.81686209  0.71720382  1
  Bi  Bi59  1  0.22016541  0.99249160  0.10003684  1
  Bi  Bi60  1  0.77983459  0.89996316  0.00750840  1
  Bi  Bi61  1  0.22962968  0.19122718  0.08718808  1
  Bi  Bi62  1  0.78795247  0.51852487  0.60310944  1
  Bi  Bi63  1  0.77037032  0.91281192  0.80877282  1
  Bi  Bi64  1  0.22572304  0.37594131  0.28352033  1
  Bi  Bi65  1  0.77983459  0.10003684  0.99249160  1
  Bi  Bi66  1  0.21204753  0.60310944  0.51852487  1
  Bi  Bi67  1  0.78080882  0.71720382  0.81686209  1
  Bi  Bi68  1  0.22572304  0.62405869  0.71647967  1
  Bi  Bi69  1  0.77427696  0.28352033  0.37594131  1
  O  O70  1  0.15456525  0.92183965  0.81357897  1
  O  O71  1  0.84543475  0.81357897  0.92183965  1
  O  O72  1  0.99889434  0.88462920  0.52317957  1
  O  O73  1  0.73337431  0.83590539  0.06976394  1
  O  O74  1  0.16556442  0.27253525  0.17098774  1
  O  O75  1  0.26662569  0.93023606  0.16409461  1
  O  O76  1  0.16592313  0.90073731  0.01287355  1
  O  O77  1  0.76211978  0.50000000  0.00000000  1
  O  O78  1  0.13551954  0.54938851  0.63968945  1
  O  O79  1  0.23605645  0.78799201  0.30941428  1
  O  O80  1  0.00110566  0.52317957  0.88462920  1
  O  O81  1  0.25741415  0.87703854  0.65097856  1
  O  O82  1  0.99343886  0.00958285  0.38287526  1
  O  O83  1  0.00000000  0.33083362  0.66916638  1
  O  O84  1  0.83407687  0.01287355  0.90073731  1
  O  O85  1  0.27435971  0.74376324  0.97401201  1
  O  O86  1  0.83443558  0.82901226  0.72746475  1
  O  O87  1  0.83407687  0.98712645  0.09926269  1
  O  O88  1  0.83443558  0.17098774  0.27253525  1
  O  O89  1  0.99343886  0.99041715  0.61712474  1
  O  O90  1  0.00000000  0.19164771  0.80835229  1
  O  O91  1  0.49323646  0.11376656  0.47896016  1
  O  O92  1  0.29938472  0.66888208  0.46183098  1
  O  O93  1  0.50000000  0.67224652  0.32775348  1
  O  O94  1  0.50676354  0.52103984  0.88623344  1
  O  O95  1  0.50554770  0.29080817  0.90493865  1
  O  O96  1  0.76394355  0.30941428  0.78799201  1
  O  O97  1  0.49809093  0.00782360  0.38482206  1
  O  O98  1  0.99749795  0.90662284  0.28849777  1
  O  O99  1  0.00000000  0.55800522  0.44199478  1
  O  O100  1  0.00000000  0.66916638  0.33083362  1
  O  O101  1  0.50298508  0.22052124  0.57503704  1
  O  O102  1  0.24255441  0.59429800  0.10739063  1
  O  O103  1  0.50676354  0.47896016  0.11376656  1
  O  O104  1  0.70061528  0.53816902  0.33111792  1
  O  O105  1  0.99749795  0.09337716  0.71150223  1
  O  O106  1  0.70061528  0.46183098  0.66888208  1
  O  O107  1  0.50298508  0.77947876  0.42496296  1
  O  O108  1  0.00000000  0.80835229  0.19164771  1
  O  O109  1  0.72899783  0.77657255  0.55790766  1
  O  O110  1  0.99836478  0.77599747  0.42897705  1
  O  O111  1  0.24255441  0.40570200  0.89260937  1
  O  O112  1  0.15456525  0.07816035  0.18642103  1
  O  O113  1  0.16592313  0.09926269  0.98712645  1
  O  O114  1  0.74258585  0.34902144  0.12296146  1
  O  O115  1  0.00000000  0.44199478  0.55800522  1
  O  O116  1  0.49445230  0.90493865  0.29080817  1
  O  O117  1  0.49701492  0.57503704  0.22052124  1
  O  O118  1  0.72899783  0.22342745  0.44209234  1
  O  O119  1  0.00250205  0.71150223  0.09337716  1
  O  O120  1  0.27100217  0.55790766  0.77657255  1
  O  O121  1  0.99889434  0.11537080  0.47682043  1
  O  O122  1  0.76394355  0.69058572  0.21200799  1
  O  O123  1  0.15313228  0.26511300  0.36027362  1
  O  O124  1  0.50190907  0.61517794  0.99217640  1
  O  O125  1  0.74258585  0.65097856  0.87703854  1
  O  O126  1  0.50000000  0.80537804  0.19462196  1
  O  O127  1  0.23788022  0.00000000  0.50000000  1
  O  O128  1  0.99836478  0.22400253  0.57102295  1
  O  O129  1  0.00656114  0.38287526  0.00958285  1
  O  O130  1  0.26662569  0.06976394  0.83590539  1
  O  O131  1  0.86448046  0.63968945  0.54938851  1
  O  O132  1  0.27435971  0.25623676  0.02598799  1
  O  O133  1  0.50000000  0.19462196  0.80537804  1
  O  O134  1  0.49701492  0.42496296  0.77947876  1
  O  O135  1  0.00110566  0.47682043  0.11537080  1
  O  O136  1  0.15313228  0.73488700  0.63972638  1
  O  O137  1  0.00656114  0.61712474  0.99041715  1
  O  O138  1  0.00250205  0.28849777  0.90662284  1
  O  O139  1  0.00163522  0.57102295  0.22400253  1
  O  O140  1  0.72564029  0.02598799  0.25623676  1
  O  O141  1  0.00163522  0.42897705  0.77599747  1
  O  O142  1  0.75744559  0.89260937  0.40570200  1
  O  O143  1  0.25741415  0.12296146  0.34902144  1
  O  O144  1  0.27100217  0.44209234  0.22342745  1
  O  O145  1  0.16556442  0.72746475  0.82901226  1
  O  O146  1  0.49445230  0.09506135  0.70919183  1
  O  O147  1  0.50554770  0.70919183  0.09506135  1
  O  O148  1  0.86448046  0.36031055  0.45061149  1
  O  O149  1  0.50000000  0.32775348  0.67224652  1
  O  O150  1  0.13551954  0.45061149  0.36031055  1
  O  O151  1  0.72564029  0.97401201  0.74376324  1
  O  O152  1  0.75744559  0.10739063  0.59429800  1
  O  O153  1  0.29938472  0.33111792  0.53816902  1
  O  O154  1  0.49809093  0.99217640  0.61517794  1
  O  O155  1  0.73337431  0.16409461  0.93023606  1
  O  O156  1  0.84543475  0.18642103  0.07816035  1
  O  O157  1  0.50190907  0.38482206  0.00782360  1
  O  O158  1  0.23605645  0.21200799  0.69058572  1
  O  O159  1  0.84686772  0.63972638  0.73488700  1
  O  O160  1  0.84686772  0.36027362  0.26511300  1
  O  O161  1  0.49323646  0.88623344  0.52103984  1
