# generated using pymatgen
data_Li2B4H4O9
_symmetry_space_group_name_H-M   'P 1'
_cell_length_a   8.56532423
_cell_length_b   12.22811429
_cell_length_c   13.80821206
_cell_angle_alpha   73.33486065
_cell_angle_beta   87.16626458
_cell_angle_gamma   85.44802430
_symmetry_Int_Tables_number   1
_chemical_formula_structural   Li2B4H4O9
_chemical_formula_sum   'Li16 B32 H32 O72'
_cell_volume   1380.58577460
_cell_formula_units_Z   8
loop_
 _symmetry_equiv_pos_site_id
 _symmetry_equiv_pos_as_xyz
  1  'x, y, z'
loop_
 _atom_site_type_symbol
 _atom_site_label
 _atom_site_symmetry_multiplicity
 _atom_site_fract_x
 _atom_site_fract_y
 _atom_site_fract_z
 _atom_site_occupancy
  Li  Li0  1  0.24953300  0.97423468  0.00876633  1
  Li  Li1  1  0.72672745  0.24772392  0.57489206  1
  Li  Li2  1  0.71430875  0.23091580  0.27475619  1
  Li  Li3  1  0.75046700  0.02576532  0.99123367  1
  Li  Li4  1  0.27327255  0.75227608  0.42510794  1
  Li  Li5  1  0.80365868  0.63111685  0.27681779  1
  Li  Li6  1  0.25527119  0.51815160  0.49191841  1
  Li  Li7  1  0.77503773  0.25297756  0.92347518  1
  Li  Li8  1  0.68236979  0.88075642  0.23163867  1
  Li  Li9  1  0.96281931  0.47404014  0.84268214  1
  Li  Li10  1  0.31763021  0.11924358  0.76836133  1
  Li  Li11  1  0.03718069  0.52595986  0.15731786  1
  Li  Li12  1  0.19634132  0.36888315  0.72318221  1
  Li  Li13  1  0.28569125  0.76908420  0.72524381  1
  Li  Li14  1  0.74472881  0.48184840  0.50808159  1
  Li  Li15  1  0.22496227  0.74702244  0.07652482  1
  B  B16  1  0.09841422  0.95849494  0.83056628  1
  B  B17  1  0.45127765  0.31867135  0.09473332  1
  B  B18  1  0.63642911  0.14569130  0.13511013  1
  B  B19  1  0.97049161  0.85962350  0.12357099  1
  B  B20  1  0.14030950  0.64078900  0.63820726  1
  B  B21  1  0.03476134  0.32730455  0.50077894  1
  B  B22  1  0.51915982  0.64055330  0.37518849  1
  B  B23  1  0.59517226  0.97215519  0.84051874  1
  B  B24  1  0.50084386  0.26289626  0.81021617  1
  B  B25  1  0.65894893  0.42386207  0.72307156  1
  B  B26  1  0.84610346  0.07659423  0.78025527  1
  B  B27  1  0.45967698  0.17600013  0.99746945  1
  B  B28  1  0.90158578  0.04150506  0.16943372  1
  B  B29  1  0.85969050  0.35921100  0.36179274  1
  B  B30  1  0.15389654  0.92340577  0.21974473  1
  B  B31  1  0.54872235  0.68132865  0.90526668  1
  B  B32  1  0.36357089  0.85430870  0.86488987  1
  B  B33  1  0.00134771  0.23750232  0.69036258  1
  B  B34  1  0.34105107  0.57613793  0.27692844  1
  B  B35  1  0.04540593  0.18611597  0.40037779  1
  B  B36  1  0.54032302  0.82399987  0.00253055  1
  B  B37  1  0.91004737  0.52396679  0.65906638  1
  B  B38  1  0.40482774  0.02784481  0.15948126  1
  B  B39  1  0.40953565  0.54121966  0.66918691  1
  B  B40  1  0.48084018  0.35944670  0.62481151  1
  B  B41  1  0.95459407  0.81388403  0.59962221  1
  B  B42  1  0.49915614  0.73710374  0.18978383  1
  B  B43  1  0.59046435  0.45878034  0.33081309  1
  B  B44  1  0.08995263  0.47603321  0.34093362  1
  B  B45  1  0.96523866  0.67269545  0.49922106  1
  B  B46  1  0.02950839  0.14037650  0.87642901  1
  B  B47  1  0.99865229  0.76249768  0.30963742  1
  H  H48  1  0.25968074  0.54374013  0.04541646  1
  H  H49  1  0.39207490  0.26927347  0.54056820  1
  H  H50  1  0.20338429  0.13164288  0.57903568  1
  H  H51  1  0.72845280  0.62112233  0.08275090  1
  H  H52  1  0.12561147  0.34152777  0.09997832  1
  H  H53  1  0.24324174  0.49840526  0.83407770  1
  H  H54  1  0.75174459  0.03440068  0.56592916  1
  H  H55  1  0.56397183  0.11757647  0.44161663  1
  H  H56  1  0.74031926  0.45625987  0.95458354  1
  H  H57  1  0.07066051  0.07008433  0.32173152  1
  H  H58  1  0.12185047  0.61958293  0.97570008  1
  H  H59  1  0.87438853  0.65847223  0.90002168  1
  H  H60  1  0.00318360  0.30498437  0.18958411  1
  H  H61  1  0.27154720  0.37887767  0.91724910  1
  H  H62  1  0.60792510  0.73072653  0.45943180  1
  H  H63  1  0.13838661  0.17480220  0.99283631  1
  H  H64  1  0.92933949  0.92991567  0.67826848  1
  H  H65  1  0.63491624  0.07439054  0.63844115  1
  H  H66  1  0.48941182  0.10783650  0.33935579  1
  H  H67  1  0.68582253  0.97962752  0.37068425  1
  H  H68  1  0.42068324  0.43153018  0.17635474  1
  H  H69  1  0.24825541  0.96559932  0.43407084  1
  H  H70  1  0.87814953  0.38041707  0.02429992  1
  H  H71  1  0.57931676  0.56846982  0.82364526  1
  H  H72  1  0.43602817  0.88242353  0.55838337  1
  H  H73  1  0.51058818  0.89216350  0.66064421  1
  H  H74  1  0.31417747  0.02037248  0.62931575  1
  H  H75  1  0.79661571  0.86835712  0.42096432  1
  H  H76  1  0.75675826  0.50159474  0.16592230  1
  H  H77  1  0.36508376  0.92560946  0.36155885  1
  H  H78  1  0.86161339  0.82519780  0.00716369  1
  H  H79  1  0.99681640  0.69501563  0.81041589  1
  O  O80  1  0.45528245  0.95227017  0.80496410  1
  O  O81  1  0.86922809  0.57777692  0.56135424  1
  O  O82  1  0.55854896  0.81805774  0.10796608  1
  O  O83  1  0.93121833  0.25346810  0.33690317  1
  O  O84  1  0.79634142  0.13194753  0.17290425  1
  O  O85  1  0.94794991  0.45976472  0.30414411  1
  O  O86  1  0.13077191  0.42222308  0.43864576  1
  O  O87  1  0.58432462  0.11976792  0.37019362  1
  O  O88  1  0.07646145  0.22932868  0.77936444  1
  O  O89  1  0.45375505  0.47385408  0.27969837  1
  O  O90  1  0.88282858  0.17035649  0.68635964  1
  O  O91  1  0.86839115  0.34830437  0.47005688  1
  O  O92  1  0.37485362  0.84533626  0.97291845  1
  O  O93  1  0.43205496  0.74562714  0.84501419  1
  O  O94  1  0.38001155  0.67054416  0.18419537  1
  O  O95  1  0.60744221  0.71341580  0.98361846  1
  O  O96  1  0.89006628  0.91310417  0.61716616  1
  O  O97  1  0.38385473  0.41770560  0.11331387  1
  O  O98  1  0.56794504  0.25437286  0.15498581  1
  O  O99  1  0.17584965  0.60585629  0.04005030  1
  O  O100  1  0.20175323  0.42289324  0.86199996  1
  O  O101  1  0.64065087  0.38743279  0.63253285  1
  O  O102  1  0.27288680  0.09545212  0.63656931  1
  O  O103  1  0.14160003  0.03731636  0.87905434  1
  O  O104  1  0.85839997  0.96268364  0.12094566  1
  O  O105  1  0.52393965  0.68035279  0.46340881  1
  O  O106  1  0.31479942  0.95152209  0.22720916  1
  O  O107  1  0.94439620  0.67989018  0.39324086  1
  O  O108  1  0.36105211  0.08243910  0.06077960  1
  O  O109  1  0.72711320  0.90454788  0.36343069  1
  O  O110  1  0.04230708  0.02652110  0.21679970  1
  O  O111  1  0.44145104  0.18194226  0.89203392  1
  O  O112  1  0.81878761  0.45346652  0.73122090  1
  O  O113  1  0.42691298  0.27354997  0.72031317  1
  O  O114  1  0.62514638  0.15466374  0.02708155  1
  O  O115  1  0.57308702  0.72645003  0.27968683  1
  O  O116  1  0.70053601  0.37261820  0.32251642  1
  O  O117  1  0.61998845  0.32945584  0.81580463  1
  O  O118  1  0.05560380  0.32010982  0.60675914  1
  O  O119  1  0.39255779  0.28658420  0.01638154  1
  O  O120  1  0.09830484  0.21857002  0.47978679  1
  O  O121  1  0.86734001  0.11449581  0.87002114  1
  O  O122  1  0.68520058  0.04847791  0.77279084  1
  O  O123  1  0.20365858  0.86805247  0.82709575  1
  O  O124  1  0.90169516  0.78142998  0.52021321  1
  O  O125  1  0.47606035  0.31964721  0.53659119  1
  O  O126  1  0.06878167  0.74653190  0.66309683  1
  O  O127  1  0.66299172  0.09181243  0.56523380  1
  O  O128  1  0.82415035  0.39414371  0.95994970  1
  O  O129  1  0.79824677  0.57710676  0.13800004  1
  O  O130  1  0.10993372  0.08689583  0.38283384  1
  O  O131  1  0.02476609  0.36510766  0.12656019  1
  O  O132  1  0.41567538  0.88023208  0.62980638  1
  O  O133  1  0.11717142  0.82964351  0.31364036  1
  O  O134  1  0.29946399  0.62738180  0.67748358  1
  O  O135  1  0.33700828  0.90818757  0.43476620  1
  O  O136  1  0.36803729  0.46390967  0.61957989  1
  O  O137  1  0.63196271  0.53609033  0.38042011  1
  O  O138  1  0.95769292  0.97347890  0.78320030  1
  O  O139  1  0.54471755  0.04772983  0.19503590  1
  O  O140  1  0.35934913  0.61256721  0.36746715  1
  O  O141  1  0.61614527  0.58229440  0.88668613  1
  O  O142  1  0.03488489  0.17912656  0.96544711  1
  O  O143  1  0.13265999  0.88550419  0.12997886  1
  O  O144  1  0.13160885  0.65169563  0.52994312  1
  O  O145  1  0.18121239  0.54653348  0.26877910  1
  O  O146  1  0.63894789  0.91756090  0.93922040  1
  O  O147  1  0.54624495  0.52614592  0.72030163  1
  O  O148  1  0.96511511  0.82087344  0.03455289  1
  O  O149  1  0.92353855  0.77067132  0.22063556  1
  O  O150  1  0.97523391  0.63489234  0.87343981  1
  O  O151  1  0.05205009  0.54023528  0.69585589  1
