# generated using pymatgen
data_VZn2P2O9
_symmetry_space_group_name_H-M   'P 1'
_cell_length_a   7.88343698
_cell_length_b   7.88343751
_cell_length_c   7.88343733
_cell_angle_alpha   108.44454211
_cell_angle_beta   109.98698685
_cell_angle_gamma   109.98698259
_symmetry_Int_Tables_number   1
_chemical_formula_structural   VZn2P2O9
_chemical_formula_sum   'V2 Zn4 P4 O18'
_cell_volume   377.06880417
_cell_formula_units_Z   2
loop_
 _symmetry_equiv_pos_site_id
 _symmetry_equiv_pos_as_xyz
  1  'x, y, z'
loop_
 _atom_site_type_symbol
 _atom_site_label
 _atom_site_symmetry_multiplicity
 _atom_site_fract_x
 _atom_site_fract_y
 _atom_site_fract_z
 _atom_site_occupancy
  V  V0  1  0.00000000  0.60394164  0.60394164  1
  V  V1  1  0.00000000  0.10394164  0.10394164  1
  Zn  Zn2  1  0.26196045  0.14668553  0.64668553  1
  Zn  Zn3  1  0.50000000  0.88472508  0.14668553  1
  Zn  Zn4  1  0.50000000  0.64668553  0.38472508  1
  Zn  Zn5  1  0.73803955  0.38472508  0.88472508  1
  P  P6  1  0.50000000  0.92717949  0.81290343  1
  P  P7  1  0.11427606  0.42717949  0.92717949  1
  P  P8  1  0.88572394  0.81290343  0.31290343  1
  P  P9  1  0.50000000  0.31290343  0.42717949  1
  O  O10  1  1.00000000  0.92787933  0.92787933  1
  O  O11  1  0.50000000  0.33965850  0.63160845  1
  O  O12  1  0.96553131  0.29144553  0.98194289  1
  O  O13  1  0.96553131  0.48194289  0.79144553  1
  O  O14  1  0.69049736  0.51641159  0.48194289  1
  O  O15  1  1.00000000  0.42787933  0.42787933  1
  O  O16  1  0.03446869  0.82591422  0.51641159  1
  O  O17  1  0.19976749  0.31841590  0.81841590  1
  O  O18  1  0.70805005  0.83965850  0.33965850  1
  O  O19  1  0.03446869  0.01641159  0.32591422  1
  O  O20  1  0.50000000  0.11864841  0.31841590  1
  O  O21  1  0.69049736  0.98194289  0.01641159  1
  O  O22  1  0.30950264  0.79144553  0.82591422  1
  O  O23  1  0.50000000  0.13160845  0.83965850  1
  O  O24  1  0.30950264  0.32591422  0.29144553  1
  O  O25  1  0.29194995  0.63160845  0.13160845  1
  O  O26  1  0.80023251  0.61864841  0.11864841  1
  O  O27  1  0.50000000  0.81841590  0.61864841  1
