# generated using pymatgen
data_Sr3In4Pb
_symmetry_space_group_name_H-M   'P 1'
_cell_length_a   5.06111039
_cell_length_b   6.60081537
_cell_length_c   16.94866779
_cell_angle_alpha   90.00000000
_cell_angle_beta   90.00000000
_cell_angle_gamma   112.54259085
_symmetry_Int_Tables_number   1
_chemical_formula_structural   Sr3In4Pb
_chemical_formula_sum   'Sr6 In8 Pb2'
_cell_volume   522.95033532
_cell_formula_units_Z   2
loop_
 _symmetry_equiv_pos_site_id
 _symmetry_equiv_pos_as_xyz
  1  'x, y, z'
loop_
 _atom_site_type_symbol
 _atom_site_label
 _atom_site_symmetry_multiplicity
 _atom_site_fract_x
 _atom_site_fract_y
 _atom_site_fract_z
 _atom_site_occupancy
  Sr  Sr0  1  0.91165744  0.82331488  0.38893210  1
  Sr  Sr1  1  0.36390275  0.72780550  0.75000000  1
  Sr  Sr2  1  0.63609725  0.27219450  0.25000000  1
  Sr  Sr3  1  0.08834256  0.17668512  0.61106790  1
  Sr  Sr4  1  0.08834256  0.17668512  0.88893210  1
  Sr  Sr5  1  0.91165744  0.82331488  0.11106790  1
  In  In6  1  0.79302557  0.58605113  0.90289838  1
  In  In7  1  0.20697443  0.41394887  0.40289838  1
  In  In8  1  0.61305179  0.22610359  0.46404187  1
  In  In9  1  0.38694821  0.77389641  0.96404187  1
  In  In10  1  0.79302557  0.58605113  0.59710162  1
  In  In11  1  0.38694821  0.77389641  0.53595813  1
  In  In12  1  0.61305179  0.22610359  0.03595813  1
  In  In13  1  0.20697443  0.41394887  0.09710162  1
  Pb  Pb14  1  0.65408873  0.30817746  0.75000000  1
  Pb  Pb15  1  0.34591127  0.69182254  0.25000000  1
