# generated using pymatgen
data_Co3P2H2O9
_symmetry_space_group_name_H-M   'P 1'
_cell_length_a   4.92648339
_cell_length_b   8.79472601
_cell_length_c   17.07390643
_cell_angle_alpha   96.05094364
_cell_angle_beta   90.00000000
_cell_angle_gamma   90.00000000
_symmetry_Int_Tables_number   1
_chemical_formula_structural   Co3P2H2O9
_chemical_formula_sum   'Co12 P8 H8 O36'
_cell_volume   735.64082669
_cell_formula_units_Z   4
loop_
 _symmetry_equiv_pos_site_id
 _symmetry_equiv_pos_as_xyz
  1  'x, y, z'
loop_
 _atom_site_type_symbol
 _atom_site_label
 _atom_site_symmetry_multiplicity
 _atom_site_fract_x
 _atom_site_fract_y
 _atom_site_fract_z
 _atom_site_occupancy
  Co  Co0  1  0.71257159  0.57027689  0.34770159  1
  Co  Co1  1  0.78742841  0.57027689  0.84770159  1
  Co  Co2  1  0.29494316  0.33276963  0.44195901  1
  Co  Co3  1  0.50503464  0.06580914  0.17736317  1
  Co  Co4  1  0.79494316  0.66723037  0.05804099  1
  Co  Co5  1  0.00503464  0.93419086  0.32263683  1
  Co  Co6  1  0.99496536  0.06580914  0.67736317  1
  Co  Co7  1  0.49496536  0.93419086  0.82263683  1
  Co  Co8  1  0.70505684  0.66723037  0.55804099  1
  Co  Co9  1  0.28742841  0.42972311  0.65229841  1
  Co  Co10  1  0.21257159  0.42972311  0.15229841  1
  Co  Co11  1  0.20505684  0.33276963  0.94195901  1
  P  P12  1  0.21110144  0.68714306  0.44585276  1
  P  P13  1  0.78889856  0.31285694  0.55414724  1
  P  P14  1  0.51386920  0.76261527  0.22015106  1
  P  P15  1  0.48613080  0.23738473  0.77984894  1
  P  P16  1  0.98613080  0.76261527  0.72015106  1
  P  P17  1  0.28889856  0.68714306  0.94585276  1
  P  P18  1  0.01386920  0.23738473  0.27984894  1
  P  P19  1  0.71110144  0.31285694  0.05414724  1
  H  H20  1  0.79648981  0.08714659  0.93276486  1
  H  H21  1  0.70351019  0.08714659  0.43276486  1
  H  H22  1  0.44793991  0.07257324  0.59341688  1
  H  H23  1  0.55206009  0.92742676  0.40658312  1
  H  H24  1  0.05206009  0.07257324  0.09341688  1
  H  H25  1  0.94793991  0.92742676  0.90658312  1
  H  H26  1  0.20351019  0.91285341  0.06723514  1
  H  H27  1  0.29648981  0.91285341  0.56723514  1
  O  O28  1  0.90377107  0.64235990  0.45314270  1
  O  O29  1  0.26226177  0.25500806  0.71551424  1
  O  O30  1  0.25164885  0.81960905  0.89635552  1
  O  O31  1  0.24835115  0.81960905  0.39635552  1
  O  O32  1  0.64522664  0.38721726  0.79070815  1
  O  O33  1  0.14392128  0.53977586  0.90390867  1
  O  O34  1  0.85607872  0.46022414  0.09609133  1
  O  O35  1  0.09622893  0.35764010  0.54685730  1
  O  O36  1  0.35477336  0.61278274  0.20929185  1
  O  O37  1  0.76809899  0.97785615  0.91380428  1
  O  O38  1  0.33015546  0.72277825  0.52963192  1
  O  O39  1  0.67075314  0.09622563  0.75542840  1
  O  O40  1  0.40377107  0.35764010  0.04685730  1
  O  O41  1  0.26809899  0.02214385  0.58619572  1
  O  O42  1  0.23190101  0.02214385  0.08619572  1
  O  O43  1  0.15816057  0.19243385  0.35562817  1
  O  O44  1  0.35607872  0.53977586  0.40390867  1
  O  O45  1  0.65816057  0.80756615  0.14437183  1
  O  O46  1  0.59622893  0.64235990  0.95314270  1
  O  O47  1  0.75164885  0.18039095  0.60364448  1
  O  O48  1  0.85477336  0.38721726  0.29070815  1
  O  O49  1  0.82924686  0.09622563  0.25542840  1
  O  O50  1  0.32924686  0.90377437  0.24457160  1
  O  O51  1  0.66984454  0.27722175  0.47036808  1
  O  O52  1  0.84183943  0.80756615  0.64437183  1
  O  O53  1  0.64392128  0.46022414  0.59609133  1
  O  O54  1  0.73190101  0.97785615  0.41380428  1
  O  O55  1  0.16984454  0.72277825  0.02963192  1
  O  O56  1  0.23773823  0.25500806  0.21551424  1
  O  O57  1  0.17075314  0.90377437  0.74457160  1
  O  O58  1  0.34183943  0.19243385  0.85562817  1
  O  O59  1  0.83015546  0.27722175  0.97036808  1
  O  O60  1  0.14522664  0.61278274  0.70929185  1
  O  O61  1  0.73773823  0.74499194  0.28448576  1
  O  O62  1  0.76226177  0.74499194  0.78448576  1
  O  O63  1  0.74835115  0.18039095  0.10364448  1
