# generated using pymatgen
data_CrHO2
_symmetry_space_group_name_H-M   'P 1'
_cell_length_a   4.52403488
_cell_length_b   9.95017213
_cell_length_c   3.04000999
_cell_angle_alpha   90.00000000
_cell_angle_beta   90.00000000
_cell_angle_gamma   90.00000000
_symmetry_Int_Tables_number   1
_chemical_formula_structural   CrHO2
_chemical_formula_sum   'Cr4 H4 O8'
_cell_volume   136.84582406
_cell_formula_units_Z   4
loop_
 _symmetry_equiv_pos_site_id
 _symmetry_equiv_pos_as_xyz
  1  'x, y, z'
loop_
 _atom_site_type_symbol
 _atom_site_label
 _atom_site_symmetry_multiplicity
 _atom_site_fract_x
 _atom_site_fract_y
 _atom_site_fract_z
 _atom_site_occupancy
  Cr  Cr0  1  0.55172565  0.63943485  0.25000000  1
  Cr  Cr1  1  0.94827435  0.13943485  0.25000000  1
  Cr  Cr2  1  0.44827435  0.36056515  0.75000000  1
  Cr  Cr3  1  0.05172565  0.86056515  0.75000000  1
  H  H4  1  0.90837264  0.40098354  0.25000000  1
  H  H5  1  0.59162736  0.90098354  0.25000000  1
  H  H6  1  0.09162736  0.59901646  0.75000000  1
  H  H7  1  0.40837264  0.09901646  0.75000000  1
  O  O8  1  0.18620519  0.30740458  0.25000000  1
  O  O9  1  0.31379481  0.80740458  0.25000000  1
  O  O10  1  0.81379481  0.69259542  0.75000000  1
  O  O11  1  0.68620519  0.19259542  0.75000000  1
  O  O12  1  0.69912853  0.44073313  0.25000000  1
  O  O13  1  0.80087147  0.94073313  0.25000000  1
  O  O14  1  0.30087147  0.55926687  0.75000000  1
  O  O15  1  0.19912853  0.05926687  0.75000000  1
