# generated using pymatgen
data_Na17In12Ga29
_symmetry_space_group_name_H-M   'P 1'
_cell_length_a   15.56943576
_cell_length_b   15.56943580
_cell_length_c   15.56943489
_cell_angle_alpha   59.99999977
_cell_angle_beta   59.99999967
_cell_angle_gamma   59.99999859
_symmetry_Int_Tables_number   1
_chemical_formula_structural   Na17In12Ga29
_chemical_formula_sum   'Na34 In24 Ga58'
_cell_volume   2668.72358742
_cell_formula_units_Z   2
loop_
 _symmetry_equiv_pos_site_id
 _symmetry_equiv_pos_as_xyz
  1  'x, y, z'
loop_
 _atom_site_type_symbol
 _atom_site_label
 _atom_site_symmetry_multiplicity
 _atom_site_fract_x
 _atom_site_fract_y
 _atom_site_fract_z
 _atom_site_occupancy
  Na  Na0  1  0.12890766  0.12890766  0.50150819  1
  Na  Na1  1  0.34988351  0.71670550  0.71670550  1
  Na  Na2  1  0.12890766  0.12890766  0.74067650  1
  Na  Na3  1  0.50150819  0.12890766  0.12890766  1
  Na  Na4  1  0.49849181  0.25932350  0.87109234  1
  Na  Na5  1  0.25932350  0.87109234  0.49849181  1
  Na  Na6  1  0.50150819  0.12890766  0.74067650  1
  Na  Na7  1  0.37500000  0.37500000  0.37500000  1
  Na  Na8  1  0.65011649  0.28329450  0.28329450  1
  Na  Na9  1  0.28329450  0.28329450  0.28329450  1
  Na  Na10  1  0.28329450  0.28329450  0.65011649  1
  Na  Na11  1  0.87109234  0.25932350  0.87109234  1
  Na  Na12  1  0.25932350  0.49849181  0.87109234  1
  Na  Na13  1  0.74067650  0.50150819  0.12890766  1
  Na  Na14  1  0.12890766  0.74067650  0.50150819  1
  Na  Na15  1  0.12890766  0.50150819  0.12890766  1
  Na  Na16  1  0.87109234  0.87109234  0.49849181  1
  Na  Na17  1  0.49849181  0.87109234  0.87109234  1
  Na  Na18  1  0.71670550  0.71670550  0.71670550  1
  Na  Na19  1  0.87109234  0.25932350  0.49849181  1
  Na  Na20  1  0.87109234  0.49849181  0.87109234  1
  Na  Na21  1  0.12890766  0.74067650  0.12890766  1
  Na  Na22  1  0.87109234  0.87109234  0.25932350  1
  Na  Na23  1  0.62500000  0.62500000  0.62500000  1
  Na  Na24  1  0.50150819  0.74067650  0.12890766  1
  Na  Na25  1  0.71670550  0.34988351  0.71670550  1
  Na  Na26  1  0.74067650  0.12890766  0.12890766  1
  Na  Na27  1  0.49849181  0.87109234  0.25932350  1
  Na  Na28  1  0.12890766  0.50150819  0.74067650  1
  Na  Na29  1  0.28329450  0.65011649  0.28329450  1
  Na  Na30  1  0.87109234  0.49849181  0.25932350  1
  Na  Na31  1  0.71670550  0.71670550  0.34988351  1
  Na  Na32  1  0.74067650  0.12890766  0.50150819  1
  Na  Na33  1  0.25932350  0.87109234  0.87109234  1
  In  In34  1  0.88232610  0.07425547  0.27170921  1
  In  In35  1  0.72829079  0.92574453  0.11767390  1
  In  In36  1  0.11767390  0.72829079  0.72829079  1
  In  In37  1  0.27170921  0.27170921  0.88232610  1
  In  In38  1  0.27170921  0.88232610  0.27170921  1
  In  In39  1  0.27170921  0.07425547  0.88232610  1
  In  In40  1  0.27170921  0.27170921  0.07425547  1
  In  In41  1  0.88232610  0.27170921  0.27170921  1
  In  In42  1  0.11767390  0.92574453  0.72829079  1
  In  In43  1  0.72829079  0.72829079  0.92574453  1
  In  In44  1  0.92574453  0.11767390  0.72829079  1
  In  In45  1  0.07425547  0.88232610  0.27170921  1
  In  In46  1  0.07425547  0.27170921  0.88232610  1
  In  In47  1  0.88232610  0.27170921  0.07425547  1
  In  In48  1  0.07425547  0.27170921  0.27170921  1
  In  In49  1  0.72829079  0.92574453  0.72829079  1
  In  In50  1  0.72829079  0.11767390  0.72829079  1
  In  In51  1  0.72829079  0.72829079  0.11767390  1
  In  In52  1  0.11767390  0.72829079  0.92574453  1
  In  In53  1  0.27170921  0.07425547  0.27170921  1
  In  In54  1  0.27170921  0.88232610  0.07425547  1
  In  In55  1  0.92574453  0.72829079  0.11767390  1
  In  In56  1  0.92574453  0.72829079  0.72829079  1
  In  In57  1  0.72829079  0.11767390  0.92574453  1
  Ga  Ga58  1  0.39012681  0.03744418  0.39012681  1
  Ga  Ga59  1  0.49382669  0.49382669  0.67101429  1
  Ga  Ga60  1  0.03982162  0.03982162  0.03982162  1
  Ga  Ga61  1  0.60987319  0.60987319  0.31769780  1
  Ga  Ga62  1  0.49382669  0.84133232  0.67101429  1
  Ga  Ga63  1  0.39012681  0.39012681  0.03744418  1
  Ga  Ga64  1  0.60987319  0.31769780  0.96255582  1
  Ga  Ga65  1  0.61946485  0.96017838  0.96017838  1
  Ga  Ga66  1  0.84133232  0.49382669  0.49382669  1
  Ga  Ga67  1  0.49382669  0.67101429  0.49382669  1
  Ga  Ga68  1  0.68230220  0.39012681  0.39012681  1
  Ga  Ga69  1  0.50617331  0.32898571  0.15866768  1
  Ga  Ga70  1  0.84133232  0.49382669  0.67101429  1
  Ga  Ga71  1  0.03982162  0.38053515  0.03982162  1
  Ga  Ga72  1  0.32898571  0.15866768  0.50617331  1
  Ga  Ga73  1  0.49382669  0.84133232  0.49382669  1
  Ga  Ga74  1  0.03744418  0.39012681  0.68230220  1
  Ga  Ga75  1  0.96255582  0.60987319  0.31769780  1
  Ga  Ga76  1  0.96017838  0.96017838  0.61946485  1
  Ga  Ga77  1  0.32898571  0.50617331  0.50617331  1
  Ga  Ga78  1  0.50617331  0.32898571  0.50617331  1
  Ga  Ga79  1  0.50617331  0.50617331  0.32898571  1
  Ga  Ga80  1  0.49382669  0.67101429  0.84133232  1
  Ga  Ga81  1  0.31769780  0.96255582  0.60987319  1
  Ga  Ga82  1  0.15866768  0.50617331  0.32898571  1
  Ga  Ga83  1  0.87500000  0.87500000  0.87500000  1
  Ga  Ga84  1  0.39012681  0.68230220  0.03744418  1
  Ga  Ga85  1  0.38053515  0.03982162  0.03982162  1
  Ga  Ga86  1  0.60987319  0.60987319  0.96255582  1
  Ga  Ga87  1  0.96017838  0.61946485  0.96017838  1
  Ga  Ga88  1  0.03744418  0.68230220  0.39012681  1
  Ga  Ga89  1  0.49382669  0.49382669  0.84133232  1
  Ga  Ga90  1  0.67101429  0.84133232  0.49382669  1
  Ga  Ga91  1  0.84133232  0.67101429  0.49382669  1
  Ga  Ga92  1  0.96017838  0.96017838  0.96017838  1
  Ga  Ga93  1  0.60987319  0.31769780  0.60987319  1
  Ga  Ga94  1  0.50617331  0.15866768  0.32898571  1
  Ga  Ga95  1  0.03982162  0.03982162  0.38053515  1
  Ga  Ga96  1  0.96255582  0.60987319  0.60987319  1
  Ga  Ga97  1  0.60987319  0.96255582  0.31769780  1
  Ga  Ga98  1  0.15866768  0.32898571  0.50617331  1
  Ga  Ga99  1  0.03744418  0.39012681  0.39012681  1
  Ga  Ga100  1  0.68230220  0.03744418  0.39012681  1
  Ga  Ga101  1  0.96255582  0.31769780  0.60987319  1
  Ga  Ga102  1  0.39012681  0.68230220  0.39012681  1
  Ga  Ga103  1  0.31769780  0.60987319  0.60987319  1
  Ga  Ga104  1  0.15866768  0.50617331  0.50617331  1
  Ga  Ga105  1  0.50617331  0.15866768  0.50617331  1
  Ga  Ga106  1  0.67101429  0.49382669  0.49382669  1
  Ga  Ga107  1  0.39012681  0.39012681  0.68230220  1
  Ga  Ga108  1  0.68230220  0.39012681  0.03744418  1
  Ga  Ga109  1  0.50617331  0.50617331  0.15866768  1
  Ga  Ga110  1  0.12500000  0.12500000  0.12500000  1
  Ga  Ga111  1  0.32898571  0.50617331  0.15866768  1
  Ga  Ga112  1  0.67101429  0.49382669  0.84133232  1
  Ga  Ga113  1  0.31769780  0.60987319  0.96255582  1
  Ga  Ga114  1  0.39012681  0.03744418  0.68230220  1
  Ga  Ga115  1  0.60987319  0.96255582  0.60987319  1
