# generated using pymatgen
data_LiIn(SiO3)2
_symmetry_space_group_name_H-M   'P 1'
_cell_length_a   5.45931372
_cell_length_b   6.79448585
_cell_length_c   6.79448584
_cell_angle_alpha   85.52600516
_cell_angle_beta   74.86111911
_cell_angle_gamma   74.86111913
_symmetry_Int_Tables_number   1
_chemical_formula_structural   LiIn(SiO3)2
_chemical_formula_sum   'Li2 In2 Si4 O12'
_cell_volume   234.82692825
_cell_formula_units_Z   2
loop_
 _symmetry_equiv_pos_site_id
 _symmetry_equiv_pos_as_xyz
  1  'x, y, z'
loop_
 _atom_site_type_symbol
 _atom_site_label
 _atom_site_symmetry_multiplicity
 _atom_site_fract_x
 _atom_site_fract_y
 _atom_site_fract_z
 _atom_site_occupancy
  Li  Li0  1  0.75000000  0.24289421  0.75710579  1
  Li  Li1  1  0.25000000  0.75710579  0.24289421  1
  O  O2  1  0.95298833  0.36887862  0.33448035  1
  O  O3  1  0.45298833  0.33448035  0.36887862  1
  O  O4  1  0.04701167  0.63112138  0.66551965  1
  O  O5  1  0.54701167  0.66551965  0.63112138  1
  O  O6  1  0.16395559  0.79430543  0.96083502  1
  O  O7  1  0.13166107  0.13185221  0.61502497  1
  O  O8  1  0.83604441  0.20569457  0.03916498  1
  O  O9  1  0.66395559  0.96083502  0.79430543  1
  O  O10  1  0.33604441  0.03916498  0.20569457  1
  O  O11  1  0.86833893  0.86814779  0.38497503  1
  O  O12  1  0.63166107  0.61502497  0.13185221  1
  O  O13  1  0.36833893  0.38497503  0.86814779  1
  Si  Si14  1  0.78071574  0.78352202  0.61449750  1
  Si  Si15  1  0.21928426  0.21647798  0.38550250  1
  Si  Si16  1  0.28071574  0.61449750  0.78352202  1
  Si  Si17  1  0.71928426  0.38550250  0.21647798  1
  In  In18  1  0.75000000  0.89021603  0.10978397  1
  In  In19  1  0.25000000  0.10978397  0.89021603  1
