# generated using pymatgen
data_Cs6Si2NiO8
_symmetry_space_group_name_H-M   'P 1'
_cell_length_a   6.99877999
_cell_length_b   7.16153190
_cell_length_c   8.09770160
_cell_angle_alpha   87.48593609
_cell_angle_beta   88.52951790
_cell_angle_gamma   69.32839460
_symmetry_Int_Tables_number   1
_chemical_formula_structural   Cs6Si2NiO8
_chemical_formula_sum   'Cs6 Si2 Ni1 O8'
_cell_volume   379.35442657
_cell_formula_units_Z   1
loop_
 _symmetry_equiv_pos_site_id
 _symmetry_equiv_pos_as_xyz
  1  'x, y, z'
loop_
 _atom_site_type_symbol
 _atom_site_label
 _atom_site_symmetry_multiplicity
 _atom_site_fract_x
 _atom_site_fract_y
 _atom_site_fract_z
 _atom_site_occupancy
  Cs  Cs0  1  0.20194920  0.70246778  0.01087983  1
  Cs  Cs1  1  0.72085038  0.20934140  0.47781434  1
  Cs  Cs2  1  0.79805080  0.29753222  0.98912017  1
  Cs  Cs3  1  0.65975092  0.83050769  0.16729173  1
  Cs  Cs4  1  0.34024908  0.16949231  0.83270827  1
  Cs  Cs5  1  0.27914962  0.79065860  0.52218566  1
  Si  Si6  1  0.77885182  0.73650396  0.72241848  1
  Si  Si7  1  0.22114818  0.26349604  0.27758152  1
  Ni  Ni8  1  0.00000000  0.50000000  0.50000000  1
  O  O9  1  0.00832293  0.47003685  0.26403321  1
  O  O10  1  0.76608967  0.74369208  0.51398231  1
  O  O11  1  0.99167707  0.52996315  0.73596679  1
  O  O12  1  0.42098970  0.29690261  0.18838385  1
  O  O13  1  0.81575511  0.93305990  0.79253192  1
  O  O14  1  0.23391033  0.25630792  0.48601769  1
  O  O15  1  0.57901030  0.70309739  0.81161615  1
  O  O16  1  0.18424489  0.06694010  0.20746808  1
