# generated using pymatgen
data_KYb3F10
_symmetry_space_group_name_H-M   'P 1'
_cell_length_a   8.23443565
_cell_length_b   8.23818003
_cell_length_c   8.23605921
_cell_angle_alpha   60.00674786
_cell_angle_beta   59.98830630
_cell_angle_gamma   60.02011117
_symmetry_Int_Tables_number   1
_chemical_formula_structural   KYb3F10
_chemical_formula_sum   'K2 Yb6 F20'
_cell_volume   395.11114837
_cell_formula_units_Z   2
loop_
 _symmetry_equiv_pos_site_id
 _symmetry_equiv_pos_as_xyz
  1  'x, y, z'
loop_
 _atom_site_type_symbol
 _atom_site_label
 _atom_site_symmetry_multiplicity
 _atom_site_fract_x
 _atom_site_fract_y
 _atom_site_fract_z
 _atom_site_occupancy
  Yb  Yb0  1  0.77154439  0.77213409  0.22831959  1
  Yb  Yb1  1  0.77209950  0.22816423  0.77205452  1
  Yb  Yb2  1  0.77215508  0.22772600  0.22780735  1
  Yb  Yb3  1  0.22781627  0.22782821  0.77212168  1
  Yb  Yb4  1  0.22832170  0.77207696  0.77164717  1
  Yb  Yb5  1  0.22803033  0.77231752  0.22789633  1
  K  K6  1  0.74997977  0.74993060  0.74995019  1
  K  K7  1  0.25003118  0.24982012  0.24999791  1
  F  F8  1  0.16357906  0.83635351  0.50010511  1
  F  F9  1  0.16348431  0.49990791  0.83652044  1
  F  F10  1  0.16366395  0.49997047  0.49991729  1
  F  F11  1  0.49994599  0.50001155  0.83659701  1
  F  F12  1  0.34058536  0.88647910  0.88645831  1
  F  F13  1  0.11362544  0.11362210  0.11353760  1
  F  F14  1  0.88637510  0.88642076  0.34070697  1
  F  F15  1  0.50003753  0.83646339  0.49999023  1
  F  F16  1  0.88645155  0.34075731  0.88641224  1
  F  F17  1  0.88647880  0.88656162  0.88644360  1
  F  F18  1  0.11351557  0.65947593  0.11349489  1
  F  F19  1  0.83634111  0.16363446  0.50007700  1
  F  F20  1  0.49992445  0.49998156  0.16357013  1
  F  F21  1  0.50004809  0.83626224  0.16366051  1
  F  F22  1  0.50004509  0.16364306  0.83628532  1
  F  F23  1  0.83653332  0.49997417  0.49993277  1
  F  F24  1  0.65935478  0.11345653  0.11356294  1
  F  F25  1  0.83650078  0.49988336  0.16354081  1
  F  F26  1  0.11351207  0.11344917  0.65943329  1
  F  F27  1  0.50001942  0.16369407  0.49995880  1
