# generated using pymatgen
data_V2P4S13
_symmetry_space_group_name_H-M   'P 1'
_cell_length_a   9.50727324
_cell_length_b   9.91189595
_cell_length_c   11.99678145
_cell_angle_alpha   72.33340080
_cell_angle_beta   72.40654660
_cell_angle_gamma   70.22186699
_symmetry_Int_Tables_number   1
_chemical_formula_structural   V2P4S13
_chemical_formula_sum   'V4 P8 S26'
_cell_volume   988.22917977
_cell_formula_units_Z   2
loop_
 _symmetry_equiv_pos_site_id
 _symmetry_equiv_pos_as_xyz
  1  'x, y, z'
loop_
 _atom_site_type_symbol
 _atom_site_label
 _atom_site_symmetry_multiplicity
 _atom_site_fract_x
 _atom_site_fract_y
 _atom_site_fract_z
 _atom_site_occupancy
  V  V0  1  0.60160980  0.00519496  0.60977053  1
  V  V1  1  0.10404816  0.50394559  0.10883941  1
  V  V2  1  0.39839020  0.99480504  0.39022947  1
  V  V3  1  0.89595184  0.49605441  0.89116059  1
  P  P4  1  0.24190686  0.56984249  0.27313583  1
  P  P5  1  0.49874378  0.25462744  0.39460529  1
  P  P6  1  0.75809314  0.43015751  0.72686417  1
  P  P7  1  0.22816355  0.93420573  0.24800677  1
  P  P8  1  0.12614227  0.23521411  0.02298100  1
  P  P9  1  0.87385773  0.76478589  0.97701900  1
  P  P10  1  0.50125622  0.74537256  0.60539471  1
  P  P11  1  0.77183645  0.06579427  0.75199323  1
  S  S12  1  0.14392170  0.00585610  0.08657099  1
  S  S13  1  0.85607830  0.99414390  0.91342901  1
  S  S14  1  0.88478827  0.23663518  0.65746441  1
  S  S15  1  0.92563951  0.36669699  0.10612086  1
  S  S16  1  0.51564266  0.17314399  0.25239598  1
  S  S17  1  0.30506667  0.79612938  0.55298224  1
  S  S18  1  0.45634356  0.87104437  0.22298805  1
  S  S19  1  0.85779205  0.92269169  0.64250953  1
  S  S20  1  0.48435734  0.82685601  0.74760402  1
  S  S21  1  0.35552038  0.14991526  0.53467457  1
  S  S22  1  0.08850108  0.45102870  0.32239765  1
  S  S23  1  0.42236482  0.48846995  0.36914854  1
  S  S24  1  0.11521173  0.76336482  0.34253559  1
  S  S25  1  0.07436049  0.63330301  0.89387914  1
  S  S26  1  0.54365644  0.12895563  0.77701195  1
  S  S27  1  0.64447962  0.85008474  0.46532543  1
  S  S28  1  0.68469214  0.39314877  0.90541656  1
  S  S29  1  0.69493333  0.20387062  0.44701776  1
  S  S30  1  0.70581371  0.69804596  0.95402890  1
  S  S31  1  0.11069965  0.27332935  0.85239010  1
  S  S32  1  0.91149892  0.54897130  0.67760235  1
  S  S33  1  0.31530786  0.60685123  0.09458344  1
  S  S34  1  0.88930035  0.72667065  0.14760990  1
  S  S35  1  0.29418629  0.30195404  0.04597110  1
  S  S36  1  0.57763518  0.51153005  0.63085146  1
  S  S37  1  0.14220795  0.07730831  0.35749047  1
