# generated using pymatgen
data_H5BrO2
_symmetry_space_group_name_H-M   'P 1'
_cell_length_a   4.15756927
_cell_length_b   12.58211988
_cell_length_c   7.03511415
_cell_angle_alpha   89.69328565
_cell_angle_beta   103.33754189
_cell_angle_gamma   89.47285772
_symmetry_Int_Tables_number   1
_chemical_formula_structural   H5BrO2
_chemical_formula_sum   'H20 Br4 O8'
_cell_volume   358.06227538
_cell_formula_units_Z   4
loop_
 _symmetry_equiv_pos_site_id
 _symmetry_equiv_pos_as_xyz
  1  'x, y, z'
loop_
 _atom_site_type_symbol
 _atom_site_label
 _atom_site_symmetry_multiplicity
 _atom_site_fract_x
 _atom_site_fract_y
 _atom_site_fract_z
 _atom_site_occupancy
  H  H0  1  0.74928676  0.32218610  0.57436685  1
  H  H1  1  0.46331683  0.40605573  0.65701874  1
  H  H2  1  0.41836424  0.36096029  0.41602549  1
  H  H3  1  0.24047803  0.82486409  0.92347402  1
  H  H4  1  0.56818232  0.86310293  0.08466145  1
  H  H5  1  0.52690179  0.90449918  0.84200851  1
  H  H6  1  0.24524402  0.67865007  0.42455198  1
  H  H7  1  0.57711315  0.63744233  0.58465890  1
  H  H8  1  0.52507945  0.59507185  0.34535607  1
  H  H9  1  0.41518754  0.13022128  0.92845767  1
  H  H10  1  0.71072152  0.18618188  0.08701436  1
  H  H11  1  0.30225879  0.39380409  0.90391482  1
  H  H12  1  0.22383464  0.50845341  0.80007325  1
  H  H13  1  0.69318893  0.89235944  0.59109426  1
  H  H14  1  0.77634894  0.00372322  0.69803119  1
  H  H15  1  0.71132472  0.60718774  0.09755812  1
  H  H16  1  0.77243570  0.49134631  0.19639417  1
  H  H17  1  0.29489651  0.10434540  0.42159354  1
  H  H18  1  0.16900387  0.00236168  0.29163727  1
  H  H19  1  0.45797767  0.09438477  0.17674565  1
  Br  Br20  1  0.04404908  0.16116262  0.66219994  1
  Br  Br21  1  0.96336852  0.66265295  0.84159044  1
  Br  Br22  1  0.93332669  0.83060556  0.33894019  1
  Br  Br23  1  0.02453191  0.33299903  0.15694863  1
  O  O24  1  0.59031154  0.38263897  0.53591833  1
  O  O25  1  0.39661150  0.88511361  0.96147691  1
  O  O26  1  0.40187632  0.61703902  0.46415008  1
  O  O27  1  0.58529260  0.11818993  0.05539298  1
  O  O28  1  0.29503201  0.43419350  0.78216460  1
  O  O29  1  0.69883052  0.93115569  0.71465636  1
  O  O30  1  0.67914566  0.56316134  0.20836239  1
  O  O31  1  0.34241423  0.05721499  0.31812885  1
