# generated using pymatgen
data_CaAlH5
_symmetry_space_group_name_H-M   'P 1'
_cell_length_a   12.16085651
_cell_length_b   4.96128184
_cell_length_c   4.32729147
_cell_angle_alpha   90.00000000
_cell_angle_beta   90.00000000
_cell_angle_gamma   90.00000000
_symmetry_Int_Tables_number   1
_chemical_formula_structural   CaAlH5
_chemical_formula_sum   'Ca4 Al4 H20'
_cell_volume   261.08036539
_cell_formula_units_Z   4
loop_
 _symmetry_equiv_pos_site_id
 _symmetry_equiv_pos_as_xyz
  1  'x, y, z'
loop_
 _atom_site_type_symbol
 _atom_site_label
 _atom_site_symmetry_multiplicity
 _atom_site_fract_x
 _atom_site_fract_y
 _atom_site_fract_z
 _atom_site_occupancy
  Ca  Ca0  1  0.91075323  0.10963569  0.04209217  1
  Ca  Ca1  1  0.58924677  0.89036431  0.54209217  1
  Ca  Ca2  1  0.41075323  0.39036431  0.95790783  1
  Ca  Ca3  1  0.08924677  0.60963569  0.45790783  1
  Al  Al4  1  0.83547839  0.62538278  0.43836542  1
  Al  Al5  1  0.66452161  0.37461722  0.93836542  1
  Al  Al6  1  0.33547839  0.87461722  0.56163458  1
  Al  Al7  1  0.16452161  0.12538278  0.06163458  1
  H  H8  1  0.75891282  0.87017171  0.27041405  1
  H  H9  1  0.74108718  0.12982829  0.77041405  1
  H  H10  1  0.25891282  0.62982829  0.72958595  1
  H  H11  1  0.24108718  0.37017171  0.22958595  1
  H  H12  1  0.92493959  0.86075798  0.58481007  1
  H  H13  1  0.57506041  0.13924202  0.08481007  1
  H  H14  1  0.42493959  0.63924202  0.41518993  1
  H  H15  1  0.07506041  0.36075798  0.91518993  1
  H  H16  1  0.58555229  0.63419999  0.07141440  1
  H  H17  1  0.91444771  0.36580001  0.57141440  1
  H  H18  1  0.08555229  0.86580001  0.92858560  1
  H  H19  1  0.41444771  0.13419999  0.42858560  1
  H  H20  1  0.92360636  0.62025005  0.12131182  1
  H  H21  1  0.57639364  0.37974995  0.62131182  1
  H  H22  1  0.42360636  0.87974995  0.87868818  1
  H  H23  1  0.07639364  0.12025005  0.37868818  1
  H  H24  1  0.74350602  0.63161409  0.75004652  1
  H  H25  1  0.75649398  0.36838591  0.25004652  1
  H  H26  1  0.24350602  0.86838591  0.24995348  1
  H  H27  1  0.25649398  0.13161409  0.74995348  1
