# generated using pymatgen
data_V3H5O8
_symmetry_space_group_name_H-M   'P 1'
_cell_length_a   9.81970953
_cell_length_b   9.81970953
_cell_length_c   4.81111533
_cell_angle_alpha   75.85826129
_cell_angle_beta   104.14173871
_cell_angle_gamma   161.80204316
_symmetry_Int_Tables_number   1
_chemical_formula_structural   V3H5O8
_chemical_formula_sum   'V3 H5 O8'
_cell_volume   140.37748279
_cell_formula_units_Z   1
loop_
 _symmetry_equiv_pos_site_id
 _symmetry_equiv_pos_as_xyz
  1  'x, y, z'
loop_
 _atom_site_type_symbol
 _atom_site_label
 _atom_site_symmetry_multiplicity
 _atom_site_fract_x
 _atom_site_fract_y
 _atom_site_fract_z
 _atom_site_occupancy
  V  V0  1  0.00125196  0.99874804  0.51845397  1
  V  V1  1  0.81925913  0.18074087  0.62230215  1
  V  V2  1  0.17951326  0.82048674  0.37716034  1
  H  H3  1  0.58315295  0.41684705  0.90261828  1
  H  H4  1  0.49533843  0.50466157  0.04266347  1
  H  H5  1  0.41321274  0.58678726  0.09423535  1
  H  H6  1  0.31159186  0.68840814  0.07428346  1
  H  H7  1  0.68856267  0.31143733  0.92781390  1
  O  O8  1  0.53033611  0.46966389  0.79923462  1
  O  O9  1  0.46786561  0.53213439  0.20574187  1
  O  O10  1  0.90609792  0.09390208  0.58060636  1
  O  O11  1  0.09286391  0.90713609  0.42264556  1
  O  O12  1  0.33910588  0.66089412  0.91991754  1
  O  O13  1  0.66274349  0.33725651  0.08759840  1
  O  O14  1  0.71699916  0.28300084  0.64284433  1
  O  O15  1  0.28270191  0.71729809  0.35961540  1
