# generated using pymatgen
data_Ta2O5
_symmetry_space_group_name_H-M   'P 1'
_cell_length_a   5.30387459
_cell_length_b   6.08614675
_cell_length_c   6.08614675
_cell_angle_alpha   51.65510827
_cell_angle_beta   64.16803088
_cell_angle_gamma   64.16803088
_symmetry_Int_Tables_number   1
_chemical_formula_structural   Ta2O5
_chemical_formula_sum   'Ta2 O5'
_cell_volume   134.82558702
_cell_formula_units_Z   1
loop_
 _symmetry_equiv_pos_site_id
 _symmetry_equiv_pos_as_xyz
  1  'x, y, z'
loop_
 _atom_site_type_symbol
 _atom_site_label
 _atom_site_symmetry_multiplicity
 _atom_site_fract_x
 _atom_site_fract_y
 _atom_site_fract_z
 _atom_site_occupancy
  Ta  Ta0  1  0.55191081  0.44808919  0.44808919  1
  Ta  Ta1  1  0.94808919  0.05191081  0.05191081  1
  O  O2  1  0.75000000  0.25000000  0.25000000  1
  O  O3  1  0.25000000  0.25000000  0.75000000  1
  O  O4  1  0.75000000  0.75000000  0.25000000  1
  O  O5  1  0.75000000  0.25000000  0.75000000  1
  O  O6  1  0.25000000  0.75000000  0.25000000  1
