# generated using pymatgen
data_Sr2EuGaCu2O7
_symmetry_space_group_name_H-M   'P 1'
_cell_length_a   5.43614850
_cell_length_b   5.54398700
_cell_length_c   12.33260788
_cell_angle_alpha   103.05912962
_cell_angle_beta   102.73899370
_cell_angle_gamma   89.99858386
_symmetry_Int_Tables_number   1
_chemical_formula_structural   Sr2EuGaCu2O7
_chemical_formula_sum   'Sr4 Eu2 Ga2 Cu4 O14'
_cell_volume   352.66895669
_cell_formula_units_Z   2
loop_
 _symmetry_equiv_pos_site_id
 _symmetry_equiv_pos_as_xyz
  1  'x, y, z'
loop_
 _atom_site_type_symbol
 _atom_site_label
 _atom_site_symmetry_multiplicity
 _atom_site_fract_x
 _atom_site_fract_y
 _atom_site_fract_z
 _atom_site_occupancy
  Sr  Sr0  1  0.15166717  0.17123855  0.30401265  1
  Sr  Sr1  1  0.34670970  0.36571732  0.69578810  1
  Sr  Sr2  1  0.65175319  0.63610456  0.30366358  1
  Sr  Sr3  1  0.84679114  0.83034369  0.69549359  1
  Eu  Eu4  1  0.50031735  0.50130484  0.99983528  1
  Eu  Eu5  1  0.00034567  0.00131191  0.99988050  1
  Ga  Ga6  1  0.71256860  0.17863507  0.49990564  1
  Ga  Ga7  1  0.21305969  0.82200414  0.49932473  1
  Cu  Cu8  1  0.07646538  0.57820619  0.14978080  1
  Cu  Cu9  1  0.57602496  0.07546593  0.14914480  1
  Cu  Cu10  1  0.42654129  0.92713476  0.85061896  1
  Cu  Cu11  1  0.92600514  0.42428530  0.85004598  1
  O  O12  1  0.85133525  0.36554146  0.64590763  1
  O  O13  1  0.68440532  0.68342556  0.86982996  1
  O  O14  1  0.81922595  0.82008024  0.13552545  1
  O  O15  1  0.68380231  0.18261092  0.86521100  1
  O  O16  1  0.31887139  0.82062518  0.13524823  1
  O  O17  1  0.20719642  0.63581228  0.35364918  1
  O  O18  1  0.86085598  0.86486572  0.49986427  1
  O  O19  1  0.18303126  0.18176042  0.86353950  1
  O  O20  1  0.70646632  0.22006226  0.35456079  1
  O  O21  1  0.31526777  0.31561070  0.12939392  1
  O  O22  1  0.18439831  0.68675451  0.86944768  1
  O  O23  1  0.35998713  0.13633074  0.49974915  1
  O  O24  1  0.35311135  0.78003255  0.64473417  1
  O  O25  1  0.81540598  0.31930622  0.13069545  1
