# generated using pymatgen
data_KEuAsS3
_symmetry_space_group_name_H-M   'P 1'
_cell_length_a   8.36529119
_cell_length_b   8.80229370
_cell_length_c   8.98523090
_cell_angle_alpha   104.30673199
_cell_angle_beta   90.00000000
_cell_angle_gamma   90.00000000
_symmetry_Int_Tables_number   1
_chemical_formula_structural   KEuAsS3
_chemical_formula_sum   'K4 Eu4 As4 S12'
_cell_volume   641.09734427
_cell_formula_units_Z   4
loop_
 _symmetry_equiv_pos_site_id
 _symmetry_equiv_pos_as_xyz
  1  'x, y, z'
loop_
 _atom_site_type_symbol
 _atom_site_label
 _atom_site_symmetry_multiplicity
 _atom_site_fract_x
 _atom_site_fract_y
 _atom_site_fract_z
 _atom_site_occupancy
  Eu  Eu0  1  0.71586281  0.97262528  0.43492177  1
  Eu  Eu1  1  0.78413719  0.47262528  0.43492177  1
  Eu  Eu2  1  0.21586281  0.52737472  0.56507823  1
  Eu  Eu3  1  0.28413719  0.02737472  0.56507823  1
  K  K4  1  0.57904357  0.77694852  0.90770813  1
  K  K5  1  0.92095643  0.27694852  0.90770813  1
  K  K6  1  0.07904357  0.72305148  0.09229187  1
  K  K7  1  0.42095643  0.22305148  0.09229187  1
  As  As8  1  0.54745222  0.35235826  0.72999032  1
  As  As9  1  0.95254778  0.85235826  0.72999032  1
  As  As10  1  0.04745222  0.14764174  0.27000968  1
  As  As11  1  0.45254778  0.64764174  0.27000968  1
  S  S12  1  0.69292089  0.57950836  0.16173036  1
  S  S13  1  0.51815031  0.71604454  0.52919396  1
  S  S14  1  0.41401084  0.89545253  0.24660583  1
  S  S15  1  0.30707911  0.42049164  0.83826964  1
  S  S16  1  0.01815031  0.78395546  0.47080604  1
  S  S17  1  0.91401084  0.60454747  0.75339417  1
  S  S18  1  0.58598916  0.10454747  0.75339417  1
  S  S19  1  0.19292089  0.92049164  0.83826964  1
  S  S20  1  0.48184969  0.28395546  0.47080604  1
  S  S21  1  0.98184969  0.21604454  0.52919396  1
  S  S22  1  0.80707911  0.07950836  0.16173036  1
  S  S23  1  0.08598916  0.39545253  0.24660583  1
