# generated using pymatgen
data_Cu2Bi4Pb2S9
_symmetry_space_group_name_H-M   'P 1'
_cell_length_a   4.04120909
_cell_length_b   11.84662828
_cell_length_c   33.61324592
_cell_angle_alpha   90.00000000
_cell_angle_beta   90.00000000
_cell_angle_gamma   90.00000000
_symmetry_Int_Tables_number   1
_chemical_formula_structural   Cu2Bi4Pb2S9
_chemical_formula_sum   'Cu8 Bi16 Pb8 S36'
_cell_volume   1609.22412801
_cell_formula_units_Z   4
loop_
 _symmetry_equiv_pos_site_id
 _symmetry_equiv_pos_as_xyz
  1  'x, y, z'
loop_
 _atom_site_type_symbol
 _atom_site_label
 _atom_site_symmetry_multiplicity
 _atom_site_fract_x
 _atom_site_fract_y
 _atom_site_fract_z
 _atom_site_occupancy
  Cu  Cu0  1  0.75000000  0.26759550  0.06806034  1
  Cu  Cu1  1  0.25000000  0.23026037  0.90308158  1
  Cu  Cu2  1  0.75000000  0.76759550  0.43193966  1
  Cu  Cu3  1  0.25000000  0.23240450  0.56806034  1
  Cu  Cu4  1  0.25000000  0.73026037  0.59691842  1
  Cu  Cu5  1  0.25000000  0.73240450  0.93193966  1
  Cu  Cu6  1  0.75000000  0.76973963  0.09691842  1
  Cu  Cu7  1  0.75000000  0.26973963  0.40308158  1
  Bi  Bi8  1  0.75000000  0.47965134  0.89251298  1
  Bi  Bi9  1  0.25000000  0.01454105  0.06345099  1
  Bi  Bi10  1  0.25000000  0.51454105  0.43654901  1
  Bi  Bi11  1  0.75000000  0.48545895  0.56345099  1
  Bi  Bi12  1  0.25000000  0.52034866  0.10748702  1
  Bi  Bi13  1  0.25000000  0.02034866  0.39251298  1
  Bi  Bi14  1  0.25000000  0.51631397  0.77561941  1
  Bi  Bi15  1  0.25000000  0.34663195  0.32068523  1
  Bi  Bi16  1  0.25000000  0.01631397  0.72438059  1
  Bi  Bi17  1  0.25000000  0.84663195  0.17931477  1
  Bi  Bi18  1  0.75000000  0.98368603  0.27561941  1
  Bi  Bi19  1  0.75000000  0.48368603  0.22438059  1
  Bi  Bi20  1  0.75000000  0.97965134  0.60748702  1
  Bi  Bi21  1  0.75000000  0.98545895  0.93654901  1
  Bi  Bi22  1  0.75000000  0.15336805  0.82068523  1
  Bi  Bi23  1  0.75000000  0.65336805  0.67931477  1
  Pb  Pb24  1  0.75000000  0.17395127  0.16562786  1
  Pb  Pb25  1  0.75000000  0.16956544  0.49753020  1
  Pb  Pb26  1  0.25000000  0.33043456  0.99753020  1
  Pb  Pb27  1  0.25000000  0.82604873  0.83437214  1
  Pb  Pb28  1  0.25000000  0.83043456  0.50246980  1
  Pb  Pb29  1  0.25000000  0.32604873  0.66562786  1
  Pb  Pb30  1  0.75000000  0.67395127  0.33437214  1
  Pb  Pb31  1  0.75000000  0.66956544  0.00246980  1
  S  S32  1  0.75000000  0.77948284  0.56653335  1
  S  S33  1  0.25000000  0.54779983  0.62408396  1
  S  S34  1  0.75000000  0.28563719  0.60050069  1
  S  S35  1  0.25000000  0.71436281  0.39949931  1
  S  S36  1  0.25000000  0.71117175  0.73138712  1
  S  S37  1  0.25000000  0.87199438  0.64924431  1
  S  S38  1  0.25000000  0.04532970  0.54885732  1
  S  S39  1  0.75000000  0.11809463  0.02057577  1
  S  S40  1  0.75000000  0.45220017  0.37591604  1
  S  S41  1  0.75000000  0.95220017  0.12408396  1
  S  S42  1  0.75000000  0.45467030  0.04885732  1
  S  S43  1  0.25000000  0.04779983  0.87591604  1
  S  S44  1  0.75000000  0.12800562  0.35075569  1
  S  S45  1  0.25000000  0.72051716  0.06653335  1
  S  S46  1  0.75000000  0.61809463  0.47942423  1
  S  S47  1  0.75000000  0.62800562  0.14924431  1
  S  S48  1  0.25000000  0.88113354  0.31701412  1
  S  S49  1  0.25000000  0.54532970  0.95114268  1
  S  S50  1  0.75000000  0.95467030  0.45114268  1
  S  S51  1  0.25000000  0.54594156  0.28641795  1
  S  S52  1  0.75000000  0.61886646  0.81701412  1
  S  S53  1  0.25000000  0.04594156  0.21358205  1
  S  S54  1  0.75000000  0.27948284  0.93346665  1
  S  S55  1  0.75000000  0.11886646  0.68298588  1
  S  S56  1  0.25000000  0.37199438  0.85075569  1
  S  S57  1  0.25000000  0.88190537  0.97942423  1
  S  S58  1  0.75000000  0.28882825  0.26861288  1
  S  S59  1  0.25000000  0.38190537  0.52057577  1
  S  S60  1  0.25000000  0.21436281  0.10050069  1
  S  S61  1  0.75000000  0.95405844  0.78641795  1
  S  S62  1  0.75000000  0.78563719  0.89949931  1
  S  S63  1  0.25000000  0.21117175  0.76861288  1
  S  S64  1  0.75000000  0.78882825  0.23138712  1
  S  S65  1  0.75000000  0.45405844  0.71358205  1
  S  S66  1  0.25000000  0.22051716  0.43346665  1
  S  S67  1  0.25000000  0.38113354  0.18298588  1
