# generated using pymatgen
data_SmCo2Cu3
_symmetry_space_group_name_H-M   'P 1'
_cell_length_a   4.11776008
_cell_length_b   4.94680625
_cell_length_c   4.94680537
_cell_angle_alpha   60.03847195
_cell_angle_beta   90.00000000
_cell_angle_gamma   90.00000000
_symmetry_Int_Tables_number   1
_chemical_formula_structural   SmCo2Cu3
_chemical_formula_sum   'Sm1 Co2 Cu3'
_cell_volume   87.29907190
_cell_formula_units_Z   1
loop_
 _symmetry_equiv_pos_site_id
 _symmetry_equiv_pos_as_xyz
  1  'x, y, z'
loop_
 _atom_site_type_symbol
 _atom_site_label
 _atom_site_symmetry_multiplicity
 _atom_site_fract_x
 _atom_site_fract_y
 _atom_site_fract_z
 _atom_site_occupancy
  Sm  Sm0  1  -0.00000000  0.99997887  0.00002113  1
  Co  Co1  1  -0.00000000  0.33305916  0.33310068  1
  Co  Co2  1  -0.00000000  0.66689932  0.66694084  1
  Cu  Cu3  1  0.50000000  0.49998808  0.50001192  1
  Cu  Cu4  1  0.50000000  0.49998781  0.00001323  1
  Cu  Cu5  1  0.50000000  0.99998677  0.50001219  1
