# generated using pymatgen
data_Re2N2ClF9
_symmetry_space_group_name_H-M   'P 1'
_cell_length_a   8.09398175
_cell_length_b   8.84369016
_cell_length_c   14.50625978
_cell_angle_alpha   90.00000000
_cell_angle_beta   90.00000000
_cell_angle_gamma   90.00000000
_symmetry_Int_Tables_number   1
_chemical_formula_structural   Re2N2ClF9
_chemical_formula_sum   'Re8 N8 Cl4 F36'
_cell_volume   1038.36774721
_cell_formula_units_Z   4
loop_
 _symmetry_equiv_pos_site_id
 _symmetry_equiv_pos_as_xyz
  1  'x, y, z'
loop_
 _atom_site_type_symbol
 _atom_site_label
 _atom_site_symmetry_multiplicity
 _atom_site_fract_x
 _atom_site_fract_y
 _atom_site_fract_z
 _atom_site_occupancy
  Re  Re0  1  0.85408752  0.75000000  0.94172354  1
  Re  Re1  1  0.35408752  0.25000000  0.55827646  1
  Re  Re2  1  0.09104140  0.75000000  0.27854381  1
  Re  Re3  1  0.64591248  0.75000000  0.44172354  1
  Re  Re4  1  0.90895860  0.25000000  0.72145619  1
  Re  Re5  1  0.59104140  0.25000000  0.22145619  1
  Re  Re6  1  0.14591248  0.25000000  0.05827646  1
  Re  Re7  1  0.40895860  0.75000000  0.77854381  1
  N  N8  1  0.75088689  0.25000000  0.30173985  1
  N  N9  1  0.25088689  0.75000000  0.19826015  1
  N  N10  1  0.52635829  0.25000000  0.49535460  1
  N  N11  1  0.97364171  0.25000000  0.99535460  1
  N  N12  1  0.02635829  0.75000000  0.00464540  1
  N  N13  1  0.24911311  0.75000000  0.69826015  1
  N  N14  1  0.47364171  0.75000000  0.50464540  1
  N  N15  1  0.74911311  0.25000000  0.80173985  1
  Cl  Cl16  1  0.59569669  0.25000000  0.86782057  1
  Cl  Cl17  1  0.90430331  0.25000000  0.36782057  1
  Cl  Cl18  1  0.09569669  0.75000000  0.63217943  1
  Cl  Cl19  1  0.40430331  0.75000000  0.13217943  1
  F  F20  1  0.31662243  0.60188921  0.85632013  1
  F  F21  1  0.69682730  0.75000000  0.03899250  1
  F  F22  1  0.68337757  0.10188921  0.14367987  1
  F  F23  1  0.67742217  0.95966426  0.42576393  1
  F  F24  1  0.94692228  0.75000000  0.82182120  1
  F  F25  1  0.81662243  0.39811079  0.64367987  1
  F  F26  1  0.41212249  0.25000000  0.12763798  1
  F  F27  1  0.82257783  0.95966426  0.92576393  1
  F  F28  1  0.03816720  0.09845294  0.77725997  1
  F  F29  1  0.18337757  0.89811079  0.35632013  1
  F  F30  1  0.44692228  0.25000000  0.67817880  1
  F  F31  1  0.96183280  0.90154706  0.22274003  1
  F  F32  1  0.46183280  0.09845294  0.27725997  1
  F  F33  1  0.53816720  0.90154706  0.72274003  1
  F  F34  1  0.31662243  0.89811079  0.85632013  1
  F  F35  1  0.81662243  0.10188921  0.64367987  1
  F  F36  1  0.17742217  0.04033574  0.07423607  1
  F  F37  1  0.91212249  0.75000000  0.37236202  1
  F  F38  1  0.19682730  0.25000000  0.46100750  1
  F  F39  1  0.32257783  0.45966426  0.57423607  1
  F  F40  1  0.55307772  0.75000000  0.32182120  1
  F  F41  1  0.03816720  0.40154706  0.77725997  1
  F  F42  1  0.32257783  0.04033574  0.57423607  1
  F  F43  1  0.58787751  0.75000000  0.87236202  1
  F  F44  1  0.96183280  0.59845294  0.22274003  1
  F  F45  1  0.30317270  0.25000000  0.96100750  1
  F  F46  1  0.08787751  0.25000000  0.62763798  1
  F  F47  1  0.82257783  0.54033574  0.92576393  1
  F  F48  1  0.17742217  0.45966426  0.07423607  1
  F  F49  1  0.67742217  0.54033574  0.42576393  1
  F  F50  1  0.68337757  0.39811079  0.14367987  1
  F  F51  1  0.53816720  0.59845294  0.72274003  1
  F  F52  1  0.05307772  0.25000000  0.17817880  1
  F  F53  1  0.80317270  0.75000000  0.53899250  1
  F  F54  1  0.46183280  0.40154706  0.27725997  1
  F  F55  1  0.18337757  0.60188921  0.35632013  1
