# generated using pymatgen
data_Na2V2ZnO7
_symmetry_space_group_name_H-M   'P 1'
_cell_length_a   5.19202495
_cell_length_b   8.40488345
_cell_length_c   8.40488345
_cell_angle_alpha   90.00000000
_cell_angle_beta   90.00000000
_cell_angle_gamma   90.00000000
_symmetry_Int_Tables_number   1
_chemical_formula_structural   Na2V2ZnO7
_chemical_formula_sum   'Na4 V4 Zn2 O14'
_cell_volume   366.77536820
_cell_formula_units_Z   2
loop_
 _symmetry_equiv_pos_site_id
 _symmetry_equiv_pos_as_xyz
  1  'x, y, z'
loop_
 _atom_site_type_symbol
 _atom_site_label
 _atom_site_symmetry_multiplicity
 _atom_site_fract_x
 _atom_site_fract_y
 _atom_site_fract_z
 _atom_site_occupancy
  Na  Na0  1  0.49194783  0.16481741  0.66481741  1
  Na  Na1  1  0.50805217  0.33518259  0.16481741  1
  Na  Na2  1  0.50805217  0.66481741  0.83518259  1
  Na  Na3  1  0.49194783  0.83518259  0.33518259  1
  V  V4  1  0.92328777  0.14496907  0.35503093  1
  V  V5  1  0.07671223  0.64496907  0.14496907  1
  V  V6  1  0.07671223  0.35503093  0.85503093  1
  V  V7  1  0.92328777  0.85503093  0.64496907  1
  Zn  Zn8  1  0.00000000  0.00000000  0.00000000  1
  Zn  Zn9  1  0.00000000  0.50000000  0.50000000  1
  O  O10  1  0.75362521  0.64757984  0.14757984  1
  O  O11  1  0.79843581  0.00000000  0.50000000  1
  O  O12  1  0.20592974  0.82919321  0.09534792  1
  O  O13  1  0.20592974  0.40465208  0.67080679  1
  O  O14  1  0.24637479  0.14757984  0.35242016  1
  O  O15  1  0.20592974  0.17080679  0.90465208  1
  O  O16  1  0.24637479  0.85242016  0.64757984  1
  O  O17  1  0.20156419  0.50000000  0.00000000  1
  O  O18  1  0.20592974  0.59534792  0.32919321  1
  O  O19  1  0.79407026  0.67080679  0.59534792  1
  O  O20  1  0.79407026  0.90465208  0.82919321  1
  O  O21  1  0.75362521  0.35242016  0.85242016  1
  O  O22  1  0.79407026  0.32919321  0.40465208  1
  O  O23  1  0.79407026  0.09534792  0.17080679  1
