# generated using pymatgen
data_Ce6In5Pd12
_symmetry_space_group_name_H-M   'P 1'
_cell_length_a   8.27848401
_cell_length_b   8.27848432
_cell_length_c   16.31880478
_cell_angle_alpha   90.00000000
_cell_angle_beta   90.00000000
_cell_angle_gamma   119.99999881
_symmetry_Int_Tables_number   1
_chemical_formula_structural   Ce6In5Pd12
_chemical_formula_sum   'Ce12 In10 Pd24'
_cell_volume   968.54684025
_cell_formula_units_Z   2
loop_
 _symmetry_equiv_pos_site_id
 _symmetry_equiv_pos_as_xyz
  1  'x, y, z'
loop_
 _atom_site_type_symbol
 _atom_site_label
 _atom_site_symmetry_multiplicity
 _atom_site_fract_x
 _atom_site_fract_y
 _atom_site_fract_z
 _atom_site_occupancy
  Ce  Ce0  1  0.72301686  0.72301686  0.62215848  1
  Ce  Ce1  1  0.27698314  0.00000000  0.62215848  1
  Ce  Ce2  1  1.00000000  0.72301686  0.37784152  1
  Ce  Ce3  1  0.00000000  0.27698314  0.62215848  1
  Ce  Ce4  1  0.72301686  0.00000000  0.12215848  1
  Ce  Ce5  1  0.72301686  0.00000000  0.37784152  1
  Ce  Ce6  1  0.27698314  0.27698314  0.12215848  1
  Ce  Ce7  1  0.00000000  0.27698314  0.87784152  1
  Ce  Ce8  1  0.72301686  0.72301686  0.87784152  1
  Ce  Ce9  1  1.00000000  0.72301686  0.12215848  1
  Ce  Ce10  1  0.27698314  0.00000000  0.87784152  1
  Ce  Ce11  1  0.27698314  0.27698314  0.37784152  1
  In  In12  1  0.63169279  0.63169279  0.25000000  1
  In  In13  1  0.63169279  0.00000000  0.75000000  1
  In  In14  1  0.66666700  0.33333300  0.00000000  1
  In  In15  1  0.00000000  0.36830721  0.25000000  1
  In  In16  1  0.33333300  0.66666700  0.00000000  1
  In  In17  1  0.36830721  0.36830721  0.75000000  1
  In  In18  1  0.66666700  0.33333300  0.50000000  1
  In  In19  1  0.36830721  0.00000000  0.25000000  1
  In  In20  1  0.33333300  0.66666700  0.50000000  1
  In  In21  1  1.00000000  0.63169279  0.75000000  1
  Pd  Pd22  1  0.38340913  0.38340913  0.57100807  1
  Pd  Pd23  1  0.66666700  0.33333300  0.33325825  1
  Pd  Pd24  1  0.38340913  0.00000000  0.07100807  1
  Pd  Pd25  1  0.38340913  0.00000000  0.42899193  1
  Pd  Pd26  1  0.33333300  0.66666700  0.33325825  1
  Pd  Pd27  1  1.00000000  0.61659087  0.92899193  1
  Pd  Pd28  1  0.66666700  0.33333300  0.66674175  1
  Pd  Pd29  1  0.61659087  0.00000000  0.57100807  1
  Pd  Pd30  1  0.33333300  0.66666700  0.66674175  1
  Pd  Pd31  1  0.33333300  0.66666700  0.16674175  1
  Pd  Pd32  1  0.61659087  0.00000000  0.92899193  1
  Pd  Pd33  1  0.33333300  0.66666700  0.83325825  1
  Pd  Pd34  1  0.38340913  0.38340913  0.92899193  1
  Pd  Pd35  1  0.66666700  0.33333300  0.83325825  1
  Pd  Pd36  1  0.61659087  0.61659087  0.42899193  1
  Pd  Pd37  1  1.00000000  0.61659087  0.57100807  1
  Pd  Pd38  1  0.00000000  0.00000000  0.00000000  1
  Pd  Pd39  1  0.61659087  0.61659087  0.07100807  1
  Pd  Pd40  1  0.00000000  0.38340913  0.42899193  1
  Pd  Pd41  1  0.00000000  0.38340913  0.07100807  1
  Pd  Pd42  1  0.00000000  0.00000000  0.50000000  1
  Pd  Pd43  1  0.66666700  0.33333300  0.16674175  1
  Pd  Pd44  1  0.00000000  0.00000000  0.75000000  1
  Pd  Pd45  1  0.00000000  0.00000000  0.25000000  1
