# generated using pymatgen
data_ZnCoP2O7
_symmetry_space_group_name_H-M   'P 1'
_cell_length_a   7.06567596
_cell_length_b   8.41778712
_cell_length_c   9.08961617
_cell_angle_alpha   90.00000000
_cell_angle_beta   112.37405590
_cell_angle_gamma   90.00000000
_symmetry_Int_Tables_number   1
_chemical_formula_structural   ZnCoP2O7
_chemical_formula_sum   'Zn4 Co4 P8 O28'
_cell_volume   499.92717166
_cell_formula_units_Z   4
loop_
 _symmetry_equiv_pos_site_id
 _symmetry_equiv_pos_as_xyz
  1  'x, y, z'
loop_
 _atom_site_type_symbol
 _atom_site_label
 _atom_site_symmetry_multiplicity
 _atom_site_fract_x
 _atom_site_fract_y
 _atom_site_fract_z
 _atom_site_occupancy
  Zn  Zn0  1  0.12133882  0.94159290  0.81880083  1
  Zn  Zn1  1  0.37866118  0.44159290  0.68119917  1
  Zn  Zn2  1  0.62133882  0.55840710  0.31880083  1
  Zn  Zn3  1  0.87866118  0.05840710  0.18119917  1
  Co  Co4  1  0.37466919  0.07110877  0.60748581  1
  Co  Co5  1  0.62533081  0.92889123  0.39251419  1
  Co  Co6  1  0.12533081  0.57110877  0.89251419  1
  Co  Co7  1  0.87466919  0.42889123  0.10748581  1
  P  P8  1  0.18105218  0.73337683  0.24052620  1
  P  P9  1  0.43627432  0.22610601  0.96877771  1
  P  P10  1  0.68105218  0.76662317  0.74052620  1
  P  P11  1  0.93627432  0.27389399  0.46877771  1
  P  P12  1  0.31894782  0.23337683  0.25947380  1
  P  P13  1  0.06372568  0.72610601  0.53122229  1
  P  P14  1  0.56372568  0.77389399  0.03122229  1
  P  P15  1  0.81894782  0.26662317  0.75947380  1
  O  O16  1  0.35306713  0.17438238  0.10190161  1
  O  O17  1  0.57514713  0.60985878  0.68375093  1
  O  O18  1  0.07514713  0.89014122  0.18375093  1
  O  O19  1  0.34504326  0.38891613  0.89896106  1
  O  O20  1  0.64693287  0.82561762  0.89809839  1
  O  O21  1  0.40324737  0.09677206  0.37943596  1
  O  O22  1  0.65495674  0.61108387  0.10103894  1
  O  O23  1  0.36122310  0.09161589  0.84582176  1
  O  O24  1  0.17175619  0.26506372  0.54785703  1
  O  O25  1  0.59675263  0.90322794  0.62056404  1
  O  O26  1  0.90324737  0.40322794  0.87943596  1
  O  O27  1  0.91638591  0.75677094  0.79693491  1
  O  O28  1  0.58361409  0.25677094  0.70306509  1
  O  O29  1  0.85306713  0.32561762  0.60190161  1
  O  O30  1  0.09675263  0.59677206  0.12056404  1
  O  O31  1  0.92485287  0.10985878  0.81624907  1
  O  O32  1  0.08361409  0.24322906  0.20306509  1
  O  O33  1  0.63877690  0.90838411  0.15417824  1
  O  O34  1  0.67175619  0.23493628  0.04785703  1
  O  O35  1  0.32824381  0.76506372  0.95214297  1
  O  O36  1  0.15495674  0.88891613  0.60103894  1
  O  O37  1  0.86122310  0.40838411  0.34582176  1
  O  O38  1  0.13877690  0.59161589  0.65417824  1
  O  O39  1  0.42485287  0.39014122  0.31624907  1
  O  O40  1  0.41638591  0.74322906  0.29693491  1
  O  O41  1  0.84504326  0.11108387  0.39896106  1
  O  O42  1  0.82824381  0.73493628  0.45214297  1
  O  O43  1  0.14693287  0.67438238  0.39809839  1
