# generated using pymatgen
data_BaSm2ZnO5
_symmetry_space_group_name_H-M   'P 1'
_cell_length_a   5.85958533
_cell_length_b   7.29040795
_cell_length_c   12.67919188
_cell_angle_alpha   90.00000000
_cell_angle_beta   90.00000000
_cell_angle_gamma   90.00000000
_symmetry_Int_Tables_number   1
_chemical_formula_structural   BaSm2ZnO5
_chemical_formula_sum   'Ba4 Sm8 Zn4 O20'
_cell_volume   541.63944967
_cell_formula_units_Z   4
loop_
 _symmetry_equiv_pos_site_id
 _symmetry_equiv_pos_as_xyz
  1  'x, y, z'
loop_
 _atom_site_type_symbol
 _atom_site_label
 _atom_site_symmetry_multiplicity
 _atom_site_fract_x
 _atom_site_fract_y
 _atom_site_fract_z
 _atom_site_occupancy
  O  O0  1  0.25000000  0.43138828  0.59855219  1
  O  O1  1  0.75000000  0.56861172  0.40144781  1
  O  O2  1  0.75000000  0.93138828  0.90144781  1
  O  O3  1  0.25000000  0.06861172  0.09855219  1
  O  O4  1  0.00347575  0.85307214  0.27548501  1
  O  O5  1  0.50347575  0.14692786  0.72451499  1
  O  O6  1  0.99652425  0.35307214  0.22451499  1
  O  O7  1  0.49652425  0.64692786  0.77548501  1
  O  O8  1  0.99652425  0.14692786  0.72451499  1
  O  O9  1  0.49652425  0.85307214  0.27548501  1
  O  O10  1  0.00347575  0.64692786  0.77548501  1
  O  O11  1  0.50347575  0.35307214  0.22451499  1
  O  O12  1  0.49497033  0.66602342  0.06586281  1
  O  O13  1  0.99497033  0.33397658  0.93413719  1
  O  O14  1  0.50502967  0.16602342  0.43413719  1
  O  O15  1  0.00502967  0.83397658  0.56586281  1
  O  O16  1  0.99497033  0.16602342  0.43413719  1
  O  O17  1  0.49497033  0.83397658  0.56586281  1
  O  O18  1  0.00502967  0.66602342  0.06586281  1
  O  O19  1  0.50502967  0.33397658  0.93413719  1
  Zn  Zn20  1  0.25000000  0.80822298  0.14968485  1
  Zn  Zn21  1  0.75000000  0.19177702  0.85031515  1
  Zn  Zn22  1  0.75000000  0.30822298  0.35031515  1
  Zn  Zn23  1  0.25000000  0.69177702  0.64968485  1
  Ba  Ba24  1  0.75000000  0.07660278  0.09993845  1
  Ba  Ba25  1  0.75000000  0.42339722  0.59993845  1
  Ba  Ba26  1  0.25000000  0.57660278  0.40006155  1
  Ba  Ba27  1  0.25000000  0.92339722  0.90006155  1
  Sm  Sm28  1  0.25000000  0.39846377  0.07468212  1
  Sm  Sm29  1  0.75000000  0.61716770  0.20778460  1
  Sm  Sm30  1  0.75000000  0.88283230  0.70778460  1
  Sm  Sm31  1  0.25000000  0.11716770  0.29221540  1
  Sm  Sm32  1  0.75000000  0.60153623  0.92531788  1
  Sm  Sm33  1  0.75000000  0.89846377  0.42531788  1
  Sm  Sm34  1  0.25000000  0.10153623  0.57468212  1
  Sm  Sm35  1  0.25000000  0.38283230  0.79221540  1
