# generated using pymatgen
data_NaNO3
_symmetry_space_group_name_H-M   'P 1'
_cell_length_a   6.47355886
_cell_length_b   6.49230268
_cell_length_c   26.02143860
_cell_angle_alpha   47.03932418
_cell_angle_beta   47.15051752
_cell_angle_gamma   46.60601110
_symmetry_Int_Tables_number   1
_chemical_formula_structural   NaNO3
_chemical_formula_sum   'Na8 N8 O24'
_cell_volume   533.41319513
_cell_formula_units_Z   8
loop_
 _symmetry_equiv_pos_site_id
 _symmetry_equiv_pos_as_xyz
  1  'x, y, z'
loop_
 _atom_site_type_symbol
 _atom_site_label
 _atom_site_symmetry_multiplicity
 _atom_site_fract_x
 _atom_site_fract_y
 _atom_site_fract_z
 _atom_site_occupancy
  Na  Na0  1  0.98921963  0.00555178  0.00054327  1
  Na  Na1  1  0.49239964  0.48064168  0.12612519  1
  Na  Na2  1  0.00576800  0.99677701  0.25000719  1
  Na  Na3  1  0.49946616  0.49935707  0.37529281  1
  Na  Na4  1  0.99956487  0.99901719  0.50039162  1
  Na  Na5  1  0.49941395  0.49964883  0.62539208  1
  Na  Na6  1  -0.00005937  0.99812518  0.75035019  1
  Na  Na7  1  0.50666127  0.50559177  0.86847476  1
  N  N8  1  0.30157804  0.25590330  0.05003069  1
  N  N9  1  0.25075241  0.24907252  0.31253395  1
  N  N10  1  0.74897830  0.74870590  0.18833490  1
  N  N11  1  0.25025024  0.25011553  0.56238823  1
  N  N12  1  0.75009291  0.75007573  0.43742235  1
  N  N13  1  0.25739222  0.24844493  0.81096990  1
  N  N14  1  0.75085210  0.75052766  0.68700019  1
  N  N15  1  0.74990856  0.75017335  0.93726185  1
  O  O16  1  0.01635633  0.40771737  0.08149417  1
  O  O17  1  0.44050032  0.97612255  0.08872782  1
  O  O18  1  0.45524360  0.38483756  0.98024417  1
  O  O19  1  0.00658786  0.24930759  0.37355568  1
  O  O20  1  0.24789995  0.49471753  0.25159600  1
  O  O21  1  0.49965049  0.00262409  0.31200144  1
  O  O22  1  0.50057996  0.99499295  0.18972048  1
  O  O23  1  0.75190363  0.50016991  0.24823950  1
  O  O24  1  0.99255973  0.75301512  0.12718733  1
  O  O25  1  0.00506652  0.25182935  0.62326768  1
  O  O26  1  0.24856475  0.49557775  0.50146080  1
  O  O27  1  0.49771095  0.00278342  0.56232462  1
  O  O28  1  0.50288236  0.99753140  0.43735651  1
  O  O29  1  0.75203112  0.50490837  0.49824984  1
  O  O30  1  0.99563915  0.74844800  0.37643130  1
  O  O31  1  0.01304010  0.24890866  0.87181468  1
  O  O32  1  0.25392499  0.49513298  0.75029143  1
  O  O33  1  0.50530540  0.00158098  0.81062292  1
  O  O34  1  0.50308743  0.99731172  0.68738059  1
  O  O35  1  0.75338328  0.50416600  0.74770509  1
  O  O36  1  0.99579399  0.74934496  0.62616377  1
  O  O37  1  0.50049402  0.99547392  0.93716909  1
  O  O38  1  0.75393756  0.50526689  0.99815596  1
  O  O39  1  0.99531754  0.75050149  0.87639495  1
