# generated using pymatgen
data_SiO2
_symmetry_space_group_name_H-M   'P 1'
_cell_length_a   8.55015742
_cell_length_b   12.56760496
_cell_length_c   29.31916701
_cell_angle_alpha   90.00000000
_cell_angle_beta   90.00000000
_cell_angle_gamma   90.00000000
_symmetry_Int_Tables_number   1
_chemical_formula_structural   SiO2
_chemical_formula_sum   'Si56 O112'
_cell_volume   3150.49111453
_cell_formula_units_Z   56
loop_
 _symmetry_equiv_pos_site_id
 _symmetry_equiv_pos_as_xyz
  1  'x, y, z'
loop_
 _atom_site_type_symbol
 _atom_site_label
 _atom_site_symmetry_multiplicity
 _atom_site_fract_x
 _atom_site_fract_y
 _atom_site_fract_z
 _atom_site_occupancy
  Si  Si0  1  0.18895983  0.72272420  0.29881324  1
  Si  Si1  1  0.31158740  0.03598667  0.70050010  1
  Si  Si2  1  0.31104017  0.72272420  0.20118676  1
  Si  Si3  1  0.18841260  0.96401333  0.20050010  1
  Si  Si4  1  0.81446946  0.96131471  0.60766573  1
  Si  Si5  1  0.68222107  0.79333979  0.53800676  1
  Si  Si6  1  0.31158740  0.96401333  0.29949990  1
  Si  Si7  1  0.81400509  0.43998355  0.45331915  1
  Si  Si8  1  0.18553054  0.03868529  0.39233427  1
  Si  Si9  1  0.18437434  0.38310744  0.88895384  1
  Si  Si10  1  0.68553054  0.03868529  0.10766573  1
  Si  Si11  1  0.18599491  0.43998355  0.45331915  1
  Si  Si12  1  0.31446946  0.03868529  0.10766573  1
  Si  Si13  1  0.81158740  0.96401333  0.20050010  1
  Si  Si14  1  0.68895983  0.72272420  0.20118676  1
  Si  Si15  1  0.68214797  0.18562155  0.94092429  1
  Si  Si16  1  0.81104017  0.27727580  0.70118676  1
  Si  Si17  1  0.68553054  0.96131471  0.89233427  1
  Si  Si18  1  0.68214797  0.81437845  0.05907571  1
  Si  Si19  1  0.81562566  0.61689256  0.11104616  1
  Si  Si20  1  0.81785203  0.81437845  0.44092429  1
  Si  Si21  1  0.31562566  0.61689256  0.38895384  1
  Si  Si22  1  0.18214797  0.81437845  0.44092429  1
  Si  Si23  1  0.81785203  0.18562155  0.55907571  1
  Si  Si24  1  0.81777893  0.20666021  0.03800676  1
  Si  Si25  1  0.31400509  0.43998355  0.04668085  1
  Si  Si26  1  0.68599491  0.43998355  0.04668085  1
  Si  Si27  1  0.18214797  0.18562155  0.55907571  1
  Si  Si28  1  0.18841260  0.03598667  0.79949990  1
  Si  Si29  1  0.18895983  0.27727580  0.70118676  1
  Si  Si30  1  0.18222107  0.79333979  0.96199324  1
  Si  Si31  1  0.81446946  0.03868529  0.39233427  1
  Si  Si32  1  0.18553054  0.96131471  0.60766573  1
  Si  Si33  1  0.81562566  0.38310744  0.88895384  1
  Si  Si34  1  0.31400509  0.56001645  0.95331915  1
  Si  Si35  1  0.68599491  0.56001645  0.95331915  1
  Si  Si36  1  0.31562566  0.38310744  0.61104616  1
  Si  Si37  1  0.18599491  0.56001645  0.54668085  1
  Si  Si38  1  0.31446946  0.96131471  0.89233427  1
  Si  Si39  1  0.81400509  0.56001645  0.54668085  1
  Si  Si40  1  0.31777893  0.79333979  0.53800676  1
  Si  Si41  1  0.81777893  0.79333979  0.96199324  1
  Si  Si42  1  0.31777893  0.20666021  0.46199324  1
  Si  Si43  1  0.31785203  0.81437845  0.05907571  1
  Si  Si44  1  0.68222107  0.20666021  0.46199324  1
  Si  Si45  1  0.68841260  0.96401333  0.29949990  1
  Si  Si46  1  0.68437434  0.38310744  0.61104616  1
  Si  Si47  1  0.18437434  0.61689256  0.11104616  1
  Si  Si48  1  0.18222107  0.20666021  0.03800676  1
  Si  Si49  1  0.31104017  0.27727580  0.79881324  1
  Si  Si50  1  0.31785203  0.18562155  0.94092429  1
  Si  Si51  1  0.81158740  0.03598667  0.79949990  1
  Si  Si52  1  0.68437434  0.61689256  0.38895384  1
  Si  Si53  1  0.68895983  0.27727580  0.79881324  1
  Si  Si54  1  0.81104017  0.72272420  0.29881324  1
  Si  Si55  1  0.68841260  0.03598667  0.70050010  1
  O  O56  1  0.00000000  0.02655335  0.80159384  1
  O  O57  1  0.00000000  0.73001603  0.29844667  1
  O  O58  1  0.28180121  0.32945674  0.44832906  1
  O  O59  1  0.74013838  0.50000000  0.00000000  1
  O  O60  1  0.27646677  0.51475012  0.09047015  1
  O  O61  1  0.00000000  0.06280327  0.39673343  1
  O  O62  1  0.78180121  0.32945674  0.05167094  1
  O  O63  1  0.25456523  0.64260268  0.16132142  1
  O  O64  1  0.28255197  0.86912157  0.58156477  1
  O  O65  1  0.75986162  0.50000000  0.50000000  1
  O  O66  1  0.70666961  0.71906069  0.42249072  1
  O  O67  1  0.00000000  0.58903217  0.11513262  1
  O  O68  1  0.21744803  0.13087843  0.08156477  1
  O  O69  1  0.73932201  0.84066108  0.30788418  1
  O  O70  1  0.50000000  0.78352527  0.06888655  1
  O  O71  1  0.22353323  0.48524988  0.59047015  1
  O  O72  1  0.72720236  0.07626356  0.91474932  1
  O  O73  1  0.23527242  0.03857961  0.33877666  1
  O  O74  1  0.29333039  0.28093931  0.57750928  1
  O  O75  1  0.25986162  0.50000000  0.00000000  1
  O  O76  1  0.78255197  0.86912157  0.91843523  1
  O  O77  1  0.25456523  0.35739732  0.83867858  1
  O  O78  1  0.24543477  0.64260268  0.33867858  1
  O  O79  1  0.50000000  0.41096783  0.61513262  1
  O  O80  1  0.71819879  0.32945674  0.44832906  1
  O  O81  1  0.29215928  0.82986889  0.00458654  1
  O  O82  1  0.50000000  0.80515102  0.52329220  1
  O  O83  1  0.27279764  0.92373644  0.08525068  1
  O  O84  1  0.25000000  0.32269004  0.75000000  1
  O  O85  1  0.23932201  0.84066108  0.19211582  1
  O  O86  1  0.00000000  0.41435776  0.45518555  1
  O  O87  1  0.26472758  0.96142039  0.83877666  1
  O  O88  1  0.75000000  0.32269004  0.75000000  1
  O  O89  1  0.75456523  0.35739732  0.66132142  1
  O  O90  1  0.00000000  0.80515102  0.97670780  1
  O  O91  1  0.00000000  0.41096783  0.88486738  1
  O  O92  1  0.25000000  0.67730996  0.25000000  1
  O  O93  1  0.50000000  0.06280327  0.10326657  1
  O  O94  1  0.70784072  0.82986889  0.00458654  1
  O  O95  1  0.70666961  0.28093931  0.57750928  1
  O  O96  1  0.50000000  0.19484898  0.47670780  1
  O  O97  1  0.27646677  0.48524988  0.90952985  1
  O  O98  1  0.71819879  0.67054326  0.55167094  1
  O  O99  1  0.75000000  0.00467596  0.25000000  1
  O  O100  1  0.77279764  0.07626356  0.58525068  1
  O  O101  1  0.76067799  0.84066108  0.19211582  1
  O  O102  1  0.20666961  0.28093931  0.92249072  1
  O  O103  1  0.72353323  0.51475012  0.09047015  1
  O  O104  1  0.50000000  0.97344665  0.30159384  1
  O  O105  1  0.79215928  0.82986889  0.49541346  1
  O  O106  1  0.28180121  0.67054326  0.55167094  1
  O  O107  1  0.78255197  0.13087843  0.08156477  1
  O  O108  1  0.73932201  0.15933892  0.69211582  1
  O  O109  1  0.50000000  0.58903217  0.38486738  1
  O  O110  1  0.21819879  0.32945674  0.05167094  1
  O  O111  1  0.74543477  0.35739732  0.83867858  1
  O  O112  1  0.76472758  0.03857961  0.33877666  1
  O  O113  1  0.75456523  0.64260268  0.33867858  1
  O  O114  1  0.50000000  0.02655335  0.69840616  1
  O  O115  1  0.79333039  0.28093931  0.92249072  1
  O  O116  1  0.25000000  0.99532404  0.75000000  1
  O  O117  1  0.50000000  0.93719673  0.89673343  1
  O  O118  1  0.70784072  0.17013111  0.99541346  1
  O  O119  1  0.79333039  0.71906069  0.07750928  1
  O  O120  1  0.50000000  0.41435776  0.04481445  1
  O  O121  1  0.50000000  0.21647473  0.93111345  1
  O  O122  1  0.20784072  0.82986889  0.49541346  1
  O  O123  1  0.20666961  0.71906069  0.07750928  1
  O  O124  1  0.77279764  0.92373644  0.41474932  1
  O  O125  1  0.29333039  0.71906069  0.42249072  1
  O  O126  1  0.24543477  0.35739732  0.66132142  1
  O  O127  1  0.73527242  0.96142039  0.83877666  1
  O  O128  1  0.76067799  0.15933892  0.80788418  1
  O  O129  1  0.50000000  0.58564224  0.95518555  1
  O  O130  1  0.50000000  0.26998397  0.79844667  1
  O  O131  1  0.21819879  0.67054326  0.94832906  1
  O  O132  1  0.29215928  0.17013111  0.99541346  1
  O  O133  1  0.23932201  0.15933892  0.80788418  1
  O  O134  1  0.23527242  0.96142039  0.66122334  1
  O  O135  1  0.26067799  0.15933892  0.69211582  1
  O  O136  1  0.71744803  0.13087843  0.41843523  1
  O  O137  1  0.71744803  0.86912157  0.58156477  1
  O  O138  1  0.00000000  0.97344665  0.19840616  1
  O  O139  1  0.77646677  0.48524988  0.59047015  1
  O  O140  1  0.20784072  0.17013111  0.50458654  1
  O  O141  1  0.26067799  0.84066108  0.30788418  1
  O  O142  1  0.73527242  0.03857961  0.16122334  1
  O  O143  1  0.22720236  0.07626356  0.58525068  1
  O  O144  1  0.00000000  0.26998397  0.70155333  1
  O  O145  1  0.00000000  0.58564224  0.54481445  1
  O  O146  1  0.00000000  0.19484898  0.02329220  1
  O  O147  1  0.22720236  0.92373644  0.41474932  1
  O  O148  1  0.79215928  0.17013111  0.50458654  1
  O  O149  1  0.50000000  0.73001603  0.20155333  1
  O  O150  1  0.27279764  0.07626356  0.91474932  1
  O  O151  1  0.77646677  0.51475012  0.40952985  1
  O  O152  1  0.75000000  0.67730996  0.25000000  1
  O  O153  1  0.72720236  0.92373644  0.08525068  1
  O  O154  1  0.72353323  0.48524988  0.90952985  1
  O  O155  1  0.22353323  0.51475012  0.40952985  1
  O  O156  1  0.25000000  0.00467596  0.25000000  1
  O  O157  1  0.74543477  0.64260268  0.16132142  1
  O  O158  1  0.28255197  0.13087843  0.41843523  1
  O  O159  1  0.00000000  0.21647473  0.56888655  1
  O  O160  1  0.76472758  0.96142039  0.66122334  1
  O  O161  1  0.26472758  0.03857961  0.16122334  1
  O  O162  1  0.21744803  0.86912157  0.91843523  1
  O  O163  1  0.75000000  0.99532404  0.75000000  1
  O  O164  1  0.00000000  0.78352527  0.43111345  1
  O  O165  1  0.00000000  0.93719673  0.60326657  1
  O  O166  1  0.24013838  0.50000000  0.50000000  1
  O  O167  1  0.78180121  0.67054326  0.94832906  1
