# generated using pymatgen
data_Cs3Cu2(BiS2)5
_symmetry_space_group_name_H-M   'P 1'
_cell_length_a   4.11449963
_cell_length_b   15.21054544
_cell_length_c   18.19946480
_cell_angle_alpha   90.00000000
_cell_angle_beta   90.00000000
_cell_angle_gamma   90.00000000
_symmetry_Int_Tables_number   1
_chemical_formula_structural   Cs3Cu2(BiS2)5
_chemical_formula_sum   'Cs6 Cu4 Bi10 S20'
_cell_volume   1138.99136641
_cell_formula_units_Z   2
loop_
 _symmetry_equiv_pos_site_id
 _symmetry_equiv_pos_as_xyz
  1  'x, y, z'
loop_
 _atom_site_type_symbol
 _atom_site_label
 _atom_site_symmetry_multiplicity
 _atom_site_fract_x
 _atom_site_fract_y
 _atom_site_fract_z
 _atom_site_occupancy
  Cs  Cs0  1  0.00000000  0.00000000  0.50000000  1
  Cs  Cs1  1  0.00000000  0.52243951  0.75231985  1
  Cs  Cs2  1  0.50000000  0.97756049  0.25231985  1
  Cs  Cs3  1  0.00000000  0.47756049  0.24768015  1
  Cs  Cs4  1  0.50000000  0.02243951  0.74768015  1
  Cs  Cs5  1  0.50000000  0.50000000  0.00000000  1
  Cu  Cu6  1  0.00000000  0.77950811  0.75965729  1
  Cu  Cu7  1  0.50000000  0.27950811  0.74034271  1
  Cu  Cu8  1  0.00000000  0.22049189  0.24034271  1
  Cu  Cu9  1  0.50000000  0.72049189  0.25965729  1
  Bi  Bi10  1  0.00000000  0.71131585  0.40974849  1
  Bi  Bi11  1  0.50000000  0.24424485  0.39434165  1
  Bi  Bi12  1  0.00000000  0.28868415  0.59025151  1
  Bi  Bi13  1  0.50000000  0.75575515  0.60565835  1
  Bi  Bi14  1  0.00000000  0.25575515  0.89434165  1
  Bi  Bi15  1  0.50000000  0.21131585  0.09025151  1
  Bi  Bi16  1  0.50000000  0.78868415  0.90974849  1
  Bi  Bi17  1  0.00000000  0.74424485  0.10565835  1
  Bi  Bi18  1  0.00000000  0.00000000  0.00000000  1
  Bi  Bi19  1  0.50000000  0.50000000  0.50000000  1
  S  S20  1  0.50000000  0.36139502  0.84921005  1
  S  S21  1  0.50000000  0.59686200  0.36570076  1
  S  S22  1  0.00000000  0.38556159  0.44157073  1
  S  S23  1  0.00000000  0.86139502  0.65078995  1
  S  S24  1  0.50000000  0.82199751  0.47091199  1
  S  S25  1  0.50000000  0.40313800  0.63429924  1
  S  S26  1  0.00000000  0.90313800  0.86570076  1
  S  S27  1  0.00000000  0.79280618  0.27917962  1
  S  S28  1  0.00000000  0.09686200  0.13429924  1
  S  S29  1  0.50000000  0.70719382  0.77917962  1
  S  S30  1  0.50000000  0.11443841  0.94157073  1
  S  S31  1  0.50000000  0.29280618  0.22082038  1
  S  S32  1  0.00000000  0.20719382  0.72082038  1
  S  S33  1  0.00000000  0.32199751  0.02908801  1
  S  S34  1  0.00000000  0.67800249  0.97091199  1
  S  S35  1  0.50000000  0.88556159  0.05842927  1
  S  S36  1  0.50000000  0.63860498  0.15078995  1
  S  S37  1  0.00000000  0.13860498  0.34921005  1
  S  S38  1  0.50000000  0.17800249  0.52908801  1
  S  S39  1  0.00000000  0.61443841  0.55842927  1
