# generated using pymatgen
data_SiO2
_symmetry_space_group_name_H-M   'P 1'
_cell_length_a   8.54330698
_cell_length_b   12.60387083
_cell_length_c   15.83677417
_cell_angle_alpha   105.32705529
_cell_angle_beta   105.64820581
_cell_angle_gamma   89.99999727
_symmetry_Int_Tables_number   1
_chemical_formula_structural   SiO2
_chemical_formula_sum   'Si28 O56'
_cell_volume   1579.00089463
_cell_formula_units_Z   28
loop_
 _symmetry_equiv_pos_site_id
 _symmetry_equiv_pos_as_xyz
  1  'x, y, z'
loop_
 _atom_site_type_symbol
 _atom_site_label
 _atom_site_symmetry_multiplicity
 _atom_site_fract_x
 _atom_site_fract_y
 _atom_site_fract_z
 _atom_site_occupancy
  Si  Si0  1  0.97582894  0.23692898  0.58088232  1
  Si  Si1  1  0.51851920  0.52640893  0.40824504  1
  Si  Si2  1  0.62664256  0.87462962  0.61780350  1
  Si  Si3  1  0.86493397  0.92859050  0.10325261  1
  Si  Si4  1  0.11027415  0.47359107  0.59175496  1
  Si  Si5  1  0.02417106  0.76307102  0.41911768  1
  Si  Si6  1  0.17447535  0.10801728  0.71821927  1
  Si  Si7  1  0.64005935  0.84027624  0.90645540  1
  Si  Si8  1  0.26639605  0.84027624  0.90645540  1
  Si  Si9  1  0.00883906  0.12537038  0.38219650  1
  Si  Si10  1  0.23831864  0.92859050  0.10325261  1
  Si  Si11  1  0.39494662  0.76307102  0.41911768  1
  Si  Si12  1  0.60505338  0.23692898  0.58088232  1
  Si  Si13  1  0.04666561  0.68915400  0.72455143  1
  Si  Si14  1  0.37335744  0.12537038  0.38219650  1
  Si  Si15  1  0.99116094  0.87462962  0.61780350  1
  Si  Si16  1  0.76168136  0.07140950  0.89674739  1
  Si  Si17  1  0.73360395  0.15972376  0.09354460  1
  Si  Si18  1  0.88972585  0.52640893  0.40824504  1
  Si  Si19  1  0.54374393  0.10801728  0.71821927  1
  Si  Si20  1  0.35994065  0.15972376  0.09354460  1
  Si  Si21  1  0.32211418  0.31084600  0.27544857  1
  Si  Si22  1  0.95333439  0.31084600  0.27544857  1
  Si  Si23  1  0.67788582  0.68915400  0.72455143  1
  Si  Si24  1  0.45625607  0.89198272  0.28178073  1
  Si  Si25  1  0.48148080  0.47359107  0.59175496  1
  Si  Si26  1  0.82552465  0.89198272  0.28178073  1
  Si  Si27  1  0.13506603  0.07140950  0.89674739  1
  O  O28  1  0.34109357  0.04513509  0.12069392  1
  O  O29  1  0.76193819  0.15394024  0.99499073  1
  O  O30  1  0.12454682  0.97969593  0.65947471  1
  O  O31  1  0.78019461  0.21602795  0.56038923  1
  O  O32  1  0.63322974  0.86365833  0.26645948  1
  O  O33  1  0.76694747  0.84605976  0.00500927  1
  O  O34  1  0.46507211  0.02030407  0.34052529  1
  O  O35  1  0.32060030  0.26241111  0.16940638  1
  O  O36  1  0.38280465  0.21937788  0.33042146  1
  O  O37  1  0.77960035  0.04513509  0.12069392  1
  O  O38  1  0.55304716  0.57953310  0.67928979  1
  O  O39  1  0.53892068  0.82585744  0.50980971  1
  O  O40  1  0.40367829  0.81114322  0.33517065  1
  O  O41  1  0.41774172  0.63165178  0.39213755  1
  O  O42  1  0.29029345  0.44578351  0.58058689  1
  O  O43  1  0.13898203  0.12888180  0.81716104  1
  O  O44  1  0.85957712  0.65703253  0.71915425  1
  O  O45  1  0.14042288  0.34296747  0.28084575  1
  O  O46  1  0.87545318  0.02030407  0.34052529  1
  O  O47  1  0.15119392  0.73758889  0.83059362  1
  O  O48  1  0.05231256  0.95323155  0.10462511  1
  O  O49  1  0.67939970  0.73758889  0.83059362  1
  O  O50  1  0.59632171  0.18885678  0.66482935  1
  O  O51  1  0.46107932  0.17414256  0.49019029  1
  O  O52  1  0.02560418  0.36834822  0.60786245  1
  O  O53  1  0.23305253  0.15394024  0.99499073  1
  O  O54  1  0.81640577  0.91394049  0.63281153  1
  O  O55  1  0.22039965  0.95486491  0.87930608  1
  O  O56  1  0.94768744  0.04676845  0.89537489  1
  O  O57  1  0.70970655  0.55421649  0.41941311  1
  O  O58  1  0.97439582  0.63165178  0.39213755  1
  O  O59  1  0.65890643  0.95486491  0.87930608  1
  O  O60  1  0.21980539  0.78397205  0.43961077  1
  O  O61  1  0.97088903  0.82585744  0.50980971  1
  O  O62  1  0.00000000  0.50000000  0.50000000  1
  O  O63  1  0.93149236  0.81114322  0.33517065  1
  O  O64  1  0.36677026  0.13634167  0.73354052  1
  O  O65  1  0.58225828  0.36834822  0.60786245  1
  O  O66  1  0.67817901  0.12888180  0.81716104  1
  O  O67  1  0.86101797  0.87111820  0.18283896  1
  O  O68  1  0.45547546  0.82138391  0.91095091  1
  O  O69  1  0.18359423  0.08605951  0.36718847  1
  O  O70  1  0.53492789  0.97969593  0.65947471  1
  O  O71  1  0.87375737  0.42046690  0.32071021  1
  O  O72  1  0.05238318  0.78062212  0.66957854  1
  O  O73  1  0.84880608  0.26241111  0.16940638  1
  O  O74  1  0.44695284  0.42046690  0.32071021  1
  O  O75  1  0.02911097  0.17414256  0.49019029  1
  O  O76  1  0.54452454  0.17861609  0.08904909  1
  O  O77  1  0.12624263  0.57953310  0.67928979  1
  O  O78  1  0.94761682  0.21937788  0.33042146  1
  O  O79  1  0.06850764  0.18885678  0.66482935  1
  O  O80  1  0.23806181  0.84605976  0.00500927  1
  O  O81  1  0.32182099  0.87111820  0.18283896  1
  O  O82  1  0.50000000  0.50000000  0.50000000  1
  O  O83  1  0.61719535  0.78062212  0.66957854  1
