# generated using pymatgen
data_Tl6PbI10
_symmetry_space_group_name_H-M   'P 1'
_cell_length_a   10.88990179
_cell_length_b   10.88990151
_cell_length_c   13.53067440
_cell_angle_alpha   90.00000000
_cell_angle_beta   90.00000000
_cell_angle_gamma   120.00000081
_symmetry_Int_Tables_number   1
_chemical_formula_structural   Tl6PbI10
_chemical_formula_sum   'Tl12 Pb2 I20'
_cell_volume   1389.62617791
_cell_formula_units_Z   2
loop_
 _symmetry_equiv_pos_site_id
 _symmetry_equiv_pos_as_xyz
  1  'x, y, z'
loop_
 _atom_site_type_symbol
 _atom_site_label
 _atom_site_symmetry_multiplicity
 _atom_site_fract_x
 _atom_site_fract_y
 _atom_site_fract_z
 _atom_site_occupancy
  Tl  Tl0  1  0.03058276  0.64073579  0.25113184  1
  Tl  Tl1  1  0.99968627  0.36796407  0.99981374  1
  Tl  Tl2  1  0.00031373  0.36827781  0.49981374  1
  Tl  Tl3  1  0.61015303  0.96941724  0.25113184  1
  Tl  Tl4  1  0.35926421  0.38984697  0.25113184  1
  Tl  Tl5  1  0.38984697  0.35926421  0.75113184  1
  Tl  Tl6  1  0.63172219  0.63203593  0.49981374  1
  Tl  Tl7  1  0.63203593  0.63172219  0.99981374  1
  Tl  Tl8  1  0.36827781  0.00031373  0.99981374  1
  Tl  Tl9  1  0.36796407  0.99968627  0.49981374  1
  Tl  Tl10  1  0.64073579  0.03058276  0.75113184  1
  Tl  Tl11  1  0.96941724  0.61015303  0.75113184  1
  Pb  Pb12  1  0.00000000  0.00000000  0.37780008  1
  Pb  Pb13  1  0.00000000  0.00000000  0.87780008  1
  I  I14  1  0.99992918  0.74307185  0.99956312  1
  I  I15  1  0.00007082  0.74314267  0.49956312  1
  I  I16  1  0.25597587  0.99971585  0.75277764  1
  I  I17  1  0.00028415  0.25626002  0.75277764  1
  I  I18  1  0.33333300  0.66666700  0.10330394  1
  I  I19  1  0.33333300  0.66666700  0.39627624  1
  I  I20  1  0.33333300  0.66666700  0.85871501  1
  I  I21  1  0.33333300  0.66666700  0.64204570  1
  I  I22  1  0.25692815  0.25685733  0.99956312  1
  I  I23  1  0.25685733  0.25692815  0.49956312  1
  I  I24  1  0.25626002  0.00028415  0.25277764  1
  I  I25  1  0.74373998  0.74402413  0.75277764  1
  I  I26  1  0.74402413  0.74373998  0.25277764  1
  I  I27  1  0.66666700  0.33333300  0.35871501  1
  I  I28  1  0.66666700  0.33333300  0.60330394  1
  I  I29  1  0.66666700  0.33333300  0.14204570  1
  I  I30  1  0.66666700  0.33333300  0.89627624  1
  I  I31  1  0.74307185  0.99992918  0.49956312  1
  I  I32  1  0.74314267  0.00007082  0.99956312  1
  I  I33  1  0.99971585  0.25597587  0.25277764  1
