# generated using pymatgen
data_Li5GeP3
_symmetry_space_group_name_H-M   'P 1'
_cell_length_a   8.54754914
_cell_length_b   12.59399114
_cell_length_c   10.40015754
_cell_angle_alpha   34.63251701
_cell_angle_beta   34.74255877
_cell_angle_gamma   59.22212062
_symmetry_Int_Tables_number   1
_chemical_formula_structural   Li5GeP3
_chemical_formula_sum   'Li10 Ge2 P6'
_cell_volume   312.40041683
_cell_formula_units_Z   2
loop_
 _symmetry_equiv_pos_site_id
 _symmetry_equiv_pos_as_xyz
  1  'x, y, z'
loop_
 _atom_site_type_symbol
 _atom_site_label
 _atom_site_symmetry_multiplicity
 _atom_site_fract_x
 _atom_site_fract_y
 _atom_site_fract_z
 _atom_site_occupancy
  Li  Li0  1  0.99492902  0.32279876  0.25742825  1
  Li  Li1  1  0.51565613  0.34570319  0.23393516  1
  Li  Li2  1  0.00039953  0.99641319  0.25627840  1
  Li  Li3  1  0.49521823  0.99971519  0.24461071  1
  Li  Li4  1  0.51759658  0.34600806  0.73184279  1
  Li  Li5  1  0.01801472  0.66447952  0.24504435  1
  Li  Li6  1  0.97503956  0.32250700  0.77742485  1
  Li  Li7  1  0.48154856  0.00024655  0.75769546  1
  Li  Li8  1  0.99869487  0.66493052  0.76387778  1
  Li  Li9  1  0.99919989  0.99574952  0.75808657  1
  Ge  Ge10  1  0.41946965  0.66571867  0.29261027  1
  Ge  Ge11  1  0.49904200  0.66544211  0.71378329  1
  P  P12  1  0.96349230  0.98394087  0.04577544  1
  P  P13  1  0.03763227  0.34705240  0.95878742  1
  P  P14  1  0.50430760  0.98418972  0.00466249  1
  P  P15  1  0.03558434  0.66590052  0.98813455  1
  P  P16  1  0.49325392  0.34674265  0.00351372  1
  P  P17  1  0.50686782  0.66614655  0.01641649  1
