# generated using pymatgen
data_RbTeNO3F4
_symmetry_space_group_name_H-M   'P 1'
_cell_length_a   8.20974308
_cell_length_b   8.36746425
_cell_length_c   10.79590110
_cell_angle_alpha   70.61130921
_cell_angle_beta   89.31481522
_cell_angle_gamma   71.98071726
_symmetry_Int_Tables_number   1
_chemical_formula_structural   RbTeNO3F4
_chemical_formula_sum   'Rb4 Te4 N4 O12 F16'
_cell_volume   661.83906437
_cell_formula_units_Z   4
loop_
 _symmetry_equiv_pos_site_id
 _symmetry_equiv_pos_as_xyz
  1  'x, y, z'
loop_
 _atom_site_type_symbol
 _atom_site_label
 _atom_site_symmetry_multiplicity
 _atom_site_fract_x
 _atom_site_fract_y
 _atom_site_fract_z
 _atom_site_occupancy
  Rb  Rb0  1  0.88271897  0.25904593  0.22224332  1
  Rb  Rb1  1  0.40119028  0.23382254  0.14800934  1
  Rb  Rb2  1  0.59880972  0.76617746  0.85199066  1
  Rb  Rb3  1  0.11728103  0.74095407  0.77775668  1
  Te  Te4  1  0.81989673  0.75970959  0.46115922  1
  Te  Te5  1  0.31585768  0.75841406  0.17052046  1
  Te  Te6  1  0.68414232  0.24158594  0.82947954  1
  Te  Te7  1  0.18010327  0.24029041  0.53884078  1
  N  N8  1  0.98408948  0.67378870  0.12744742  1
  N  N9  1  0.51753803  0.32977589  0.46144440  1
  N  N10  1  0.48246197  0.67022411  0.53855560  1
  N  N11  1  0.01591052  0.32621130  0.87255258  1
  O  O12  1  0.63086408  0.39391294  0.41248144  1
  O  O13  1  0.36913592  0.60608706  0.58751856  1
  O  O14  1  0.85114203  0.64045287  0.10602793  1
  O  O15  1  0.98096481  0.79514287  0.17409789  1
  O  O16  1  0.63183330  0.61763887  0.60823758  1
  O  O17  1  0.53631638  0.21668906  0.57585675  1
  O  O18  1  0.86815925  0.41565172  0.89772608  1
  O  O19  1  0.36816670  0.38236113  0.39176242  1
  O  O20  1  0.01903519  0.20485713  0.82590211  1
  O  O21  1  0.14885797  0.35954713  0.89397207  1
  O  O22  1  0.46368362  0.78331094  0.42414325  1
  O  O23  1  0.13184075  0.58434828  0.10227392  1
  F  F24  1  0.98559273  0.15556107  0.57518598  1
  F  F25  1  0.73228456  0.14347628  0.01794446  1
  F  F26  1  0.01104783  0.43950992  0.39509231  1
  F  F27  1  0.98895217  0.56049008  0.60490769  1
  F  F28  1  0.21572567  0.13920041  0.40159158  1
  F  F29  1  0.69089369  0.01589057  0.34988997  1
  F  F30  1  0.18762772  0.01264273  0.15430602  1
  F  F31  1  0.01440727  0.84443893  0.42481402  1
  F  F32  1  0.81237228  0.98735727  0.84569398  1
  F  F33  1  0.49056127  0.56484582  0.12132258  1
  F  F34  1  0.26771544  0.85652372  0.98205554  1
  F  F35  1  0.50523625  0.85258052  0.15364024  1
  F  F36  1  0.49476375  0.14741948  0.84635976  1
  F  F37  1  0.30910631  0.98410943  0.65011003  1
  F  F38  1  0.50943873  0.43515418  0.87867742  1
  F  F39  1  0.78427433  0.86079959  0.59840842  1
