# generated using pymatgen
data_Tm2Ga8Fe
_symmetry_space_group_name_H-M   'P 1'
_cell_length_a   4.21313651
_cell_length_b   4.21318840
_cell_length_c   11.16336672
_cell_angle_alpha   90.00130139
_cell_angle_beta   89.99991371
_cell_angle_gamma   90.00107230
_symmetry_Int_Tables_number   1
_chemical_formula_structural   Tm2Ga8Fe
_chemical_formula_sum   'Tm2 Ga8 Fe1'
_cell_volume   198.15799637
_cell_formula_units_Z   1
loop_
 _symmetry_equiv_pos_site_id
 _symmetry_equiv_pos_as_xyz
  1  'x, y, z'
loop_
 _atom_site_type_symbol
 _atom_site_label
 _atom_site_symmetry_multiplicity
 _atom_site_fract_x
 _atom_site_fract_y
 _atom_site_fract_z
 _atom_site_occupancy
  Tm  Tm0  1  -0.00000151  -0.00000375  0.69439785  1
  Tm  Tm1  1  0.00000526  0.00000359  0.30560296  1
  Ga  Ga2  1  0.50000039  0.00000324  0.88453185  1
  Ga  Ga3  1  0.49999889  0.50000090  0.30113398  1
  Ga  Ga4  1  0.49999838  -0.00000487  0.11546734  1
  Ga  Ga5  1  0.00000546  0.50000474  0.88453414  1
  Ga  Ga6  1  -0.00000563  0.50000147  0.11546826  1
  Ga  Ga7  1  0.00000010  0.49999925  0.50000065  1
  Ga  Ga8  1  0.50000008  0.49999680  0.69886379  1
  Ga  Ga9  1  0.49999969  -0.00000122  0.49999967  1
  Fe  Fe10  1  -0.00000111  -0.00000015  -0.00000047  1
