# generated using pymatgen
data_LiNbO3
_symmetry_space_group_name_H-M   'P 1'
_cell_length_a   5.58868087
_cell_length_b   5.58339689
_cell_length_c   27.93286543
_cell_angle_alpha   56.04576214
_cell_angle_beta   56.04462463
_cell_angle_gamma   56.05783522
_symmetry_Int_Tables_number   1
_chemical_formula_structural   LiNbO3
_chemical_formula_sum   'Li10 Nb10 O30'
_cell_volume   559.92737985
_cell_formula_units_Z   10
loop_
 _symmetry_equiv_pos_site_id
 _symmetry_equiv_pos_as_xyz
  1  'x, y, z'
loop_
 _atom_site_type_symbol
 _atom_site_label
 _atom_site_symmetry_multiplicity
 _atom_site_fract_x
 _atom_site_fract_y
 _atom_site_fract_z
 _atom_site_occupancy
  Li  Li0  1  0.21727177  0.21861311  0.04555825  1
  Li  Li1  1  0.28999783  0.28977774  0.25866890  1
  Li  Li2  1  0.71916355  0.71912932  0.14390343  1
  Li  Li3  1  0.29232078  0.29141626  0.45773058  1
  Li  Li4  1  0.79143541  0.79257733  0.35786530  1
  Li  Li5  1  0.29217114  0.29115527  0.65790035  1
  Li  Li6  1  0.79103760  0.79203618  0.55794013  1
  Li  Li7  1  0.29184544  0.29157721  0.85798108  1
  Li  Li8  1  0.79164649  0.79240952  0.75775293  1
  Li  Li9  1  0.78890327  0.78797335  0.95808257  1
  Nb  Nb10  1  0.01201407  0.00404115  0.00319194  1
  Nb  Nb11  1  0.01140340  0.00750520  0.20357675  1
  Nb  Nb12  1  0.49651707  0.50412668  0.10490781  1
  Nb  Nb13  1  0.01617625  0.01774621  0.40292029  1
  Nb  Nb14  1  0.51806828  0.51655307  0.30230026  1
  Nb  Nb15  1  0.01689299  0.01788305  0.60307501  1
  Nb  Nb16  1  0.51783393  0.51691974  0.50303411  1
  Nb  Nb17  1  0.01621154  0.01746739  0.80279664  1
  Nb  Nb18  1  0.51782601  0.51673395  0.70302470  1
  Nb  Nb19  1  0.51604085  0.51625540  0.90220263  1
  O  O20  1  0.12505852  0.37381124  0.14901880  1
  O  O21  1  0.37294905  0.76073252  0.02502478  1
  O  O22  1  0.75549621  0.12415859  0.07476740  1
  O  O23  1  0.25648362  0.87078045  0.12559060  1
  O  O24  1  0.62806674  0.25996729  0.17453852  1
  O  O25  1  0.12816916  0.37482984  0.34747051  1
  O  O26  1  0.86646649  0.62919778  0.04885661  1
  O  O27  1  0.37233689  0.73414023  0.22565493  1
  O  O28  1  0.73920616  0.12798226  0.27459222  1
  O  O29  1  0.23817252  0.87316679  0.32528761  1
  O  O30  1  0.62848746  0.23793866  0.37423162  1
  O  O31  1  0.12759950  0.37526639  0.54753049  1
  O  O32  1  0.87632596  0.62646895  0.24948475  1
  O  O33  1  0.37319693  0.73794687  0.42561841  1
  O  O34  1  0.73729510  0.12828402  0.47463580  1
  O  O35  1  0.23729333  0.87410013  0.52569367  1
  O  O36  1  0.62821618  0.23703672  0.57478786  1
  O  O37  1  0.12779953  0.37507812  0.74743282  1
  O  O38  1  0.87508219  0.62786439  0.44742114  1
  O  O39  1  0.37399810  0.73733635  0.62569139  1
  O  O40  1  0.73692808  0.12810698  0.67483415  1
  O  O41  1  0.23771875  0.87464382  0.72542929  1
  O  O42  1  0.62861333  0.23691095  0.77468024  1
  O  O43  1  0.12603924  0.36821458  0.94973157  1
  O  O44  1  0.87514151  0.62735356  0.64754028  1
  O  O45  1  0.37411309  0.73666091  0.82522743  1
  O  O46  1  0.73735881  0.12836267  0.87420751  1
  O  O47  1  0.23861852  0.87594961  0.92447753  1
  O  O48  1  0.62517222  0.23608118  0.97400303  1
  O  O49  1  0.87481917  0.62673104  0.84752534  1
