# generated using pymatgen
data_Yb2Te5O13
_symmetry_space_group_name_H-M   'P 1'
_cell_length_a   7.14985078
_cell_length_b   8.85988168
_cell_length_c   10.34643679
_cell_angle_alpha   90.87746207
_cell_angle_beta   88.48573687
_cell_angle_gamma   75.66813148
_symmetry_Int_Tables_number   1
_chemical_formula_structural   Yb2Te5O13
_chemical_formula_sum   'Yb4 Te10 O26'
_cell_volume   634.63292928
_cell_formula_units_Z   2
loop_
 _symmetry_equiv_pos_site_id
 _symmetry_equiv_pos_as_xyz
  1  'x, y, z'
loop_
 _atom_site_type_symbol
 _atom_site_label
 _atom_site_symmetry_multiplicity
 _atom_site_fract_x
 _atom_site_fract_y
 _atom_site_fract_z
 _atom_site_occupancy
  Yb  Yb0  1  0.00700208  0.73484555  0.24043134  1
  Yb  Yb1  1  0.55225697  0.52073852  0.17860505  1
  Yb  Yb2  1  0.44774303  0.47926148  0.82139495  1
  Yb  Yb3  1  0.99299792  0.26515445  0.75956866  1
  Te  Te4  1  0.74011560  0.60574673  0.51727472  1
  Te  Te5  1  0.29517551  0.85899001  0.97577463  1
  Te  Te6  1  0.13735662  0.80744313  0.63959805  1
  Te  Te7  1  0.86264338  0.19255687  0.36040195  1
  Te  Te8  1  0.54342870  0.11438482  0.69659441  1
  Te  Te9  1  0.70482449  0.14100999  0.02422537  1
  Te  Te10  1  0.45657130  0.88561518  0.30340559  1
  Te  Te11  1  0.12424774  0.36110300  0.09413725  1
  Te  Te12  1  0.25988440  0.39425327  0.48272528  1
  Te  Te13  1  0.87575226  0.63889700  0.90586275  1
  O  O14  1  0.23512071  0.49557459  0.18892156  1
  O  O15  1  0.96617030  0.64862515  0.44374002  1
  O  O16  1  0.31742085  0.22159200  0.78104491  1
  O  O17  1  0.67205516  0.48562319  0.38417361  1
  O  O18  1  0.87338709  0.50836867  0.09550177  1
  O  O19  1  0.12661291  0.49163133  0.90449823  1
  O  O20  1  0.35199865  0.98627074  0.11994892  1
  O  O21  1  0.52743183  0.32910206  0.00075087  1
  O  O22  1  0.67993607  0.22828979  0.21655047  1
  O  O23  1  0.93987261  0.17627194  0.97037042  1
  O  O24  1  0.44685740  0.18874324  0.51611329  1
  O  O25  1  0.93942309  0.73159772  0.72731983  1
  O  O26  1  0.68257915  0.77840800  0.21895509  1
  O  O27  1  0.32794484  0.51437681  0.61582639  1
  O  O28  1  0.47256817  0.67089794  0.99924913  1
  O  O29  1  0.68070285  0.26522518  0.71150184  1
  O  O30  1  0.95645411  0.98105377  0.32704199  1
  O  O31  1  0.06012739  0.82372806  0.02962958  1
  O  O32  1  0.03382970  0.35137485  0.55625998  1
  O  O33  1  0.64800135  0.01372926  0.88005108  1
  O  O34  1  0.32006393  0.77171021  0.78344953  1
  O  O35  1  0.76487929  0.50442541  0.81107844  1
  O  O36  1  0.55314260  0.81125676  0.48388671  1
  O  O37  1  0.06057691  0.26840228  0.27268017  1
  O  O38  1  0.04354589  0.01894623  0.67295801  1
  O  O39  1  0.31929715  0.73477482  0.28849816  1
