# generated using pymatgen
data_Tl7Bi3I16
_symmetry_space_group_name_H-M   'P 1'
_cell_length_a   14.66633683
_cell_length_b   14.66633720
_cell_length_c   36.88744442
_cell_angle_alpha   90.00000000
_cell_angle_beta   90.00000000
_cell_angle_gamma   119.56255385
_symmetry_Int_Tables_number   1
_chemical_formula_structural   Tl7Bi3I16
_chemical_formula_sum   'Tl42 Bi18 I96'
_cell_volume   6901.60439353
_cell_formula_units_Z   6
loop_
 _symmetry_equiv_pos_site_id
 _symmetry_equiv_pos_as_xyz
  1  'x, y, z'
loop_
 _atom_site_type_symbol
 _atom_site_label
 _atom_site_symmetry_multiplicity
 _atom_site_fract_x
 _atom_site_fract_y
 _atom_site_fract_z
 _atom_site_occupancy
  Tl  Tl0  1  0.62711352  0.62711352  0.54428351  1
  Tl  Tl1  1  0.37593912  0.67279283  0.11999697  1
  Tl  Tl2  1  0.38502073  0.66871999  0.25000000  1
  Tl  Tl3  1  0.66961481  0.00486198  0.62026886  1
  Tl  Tl4  1  0.67279283  0.37593912  0.11999697  1
  Tl  Tl5  1  0.67204277  0.99883871  0.75000000  1
  Tl  Tl6  1  0.33038519  0.99513802  0.37973114  1
  Tl  Tl7  1  0.62406088  0.32720717  0.61999697  1
  Tl  Tl8  1  0.32720717  0.62406088  0.61999697  1
  Tl  Tl9  1  0.66871999  0.38502073  0.25000000  1
  Tl  Tl10  1  0.03990873  0.33686219  0.97166682  1
  Tl  Tl11  1  0.03990873  0.33686219  0.52833318  1
  Tl  Tl12  1  0.33038519  0.99513802  0.12026886  1
  Tl  Tl13  1  0.32720717  0.62406088  0.88000303  1
  Tl  Tl14  1  0.62406088  0.32720717  0.88000303  1
  Tl  Tl15  1  0.32795723  0.00116129  0.25000000  1
  Tl  Tl16  1  0.66961481  0.00486198  0.87973114  1
  Tl  Tl17  1  0.62711352  0.62711352  0.95571649  1
  Tl  Tl18  1  0.96009127  0.66313781  0.02833318  1
  Tl  Tl19  1  0.33686219  0.03990873  0.97166682  1
  Tl  Tl20  1  0.94818175  0.94818175  0.11588967  1
  Tl  Tl21  1  0.96009127  0.66313781  0.47166682  1
  Tl  Tl22  1  0.37288648  0.37288648  0.45571649  1
  Tl  Tl23  1  0.94757366  0.94757366  0.25000000  1
  Tl  Tl24  1  0.94818175  0.94818175  0.38411033  1
  Tl  Tl25  1  0.05181825  0.05181825  0.88411033  1
  Tl  Tl26  1  0.00486198  0.66961481  0.62026886  1
  Tl  Tl27  1  0.99513802  0.33038519  0.37973114  1
  Tl  Tl28  1  0.00116129  0.32795723  0.25000000  1
  Tl  Tl29  1  0.37288648  0.37288648  0.04428351  1
  Tl  Tl30  1  0.99883871  0.67204277  0.75000000  1
  Tl  Tl31  1  0.00486198  0.66961481  0.87973114  1
  Tl  Tl32  1  0.99513802  0.33038519  0.12026886  1
  Tl  Tl33  1  0.33128001  0.61497927  0.75000000  1
  Tl  Tl34  1  0.37593912  0.67279283  0.38000303  1
  Tl  Tl35  1  0.05181825  0.05181825  0.61588967  1
  Tl  Tl36  1  0.05242634  0.05242634  0.75000000  1
  Tl  Tl37  1  0.66313781  0.96009127  0.02833318  1
  Tl  Tl38  1  0.67279283  0.37593912  0.38000303  1
  Tl  Tl39  1  0.61497927  0.33128001  0.75000000  1
  Tl  Tl40  1  0.66313781  0.96009127  0.47166682  1
  Tl  Tl41  1  0.33686219  0.03990873  0.52833318  1
  Bi  Bi42  1  0.32741768  0.00275897  0.81656281  1
  Bi  Bi43  1  0.33553592  0.66446408  0.00000000  1
  Bi  Bi44  1  0.99724103  0.67258232  0.18343719  1
  Bi  Bi45  1  0.33942862  0.33942862  0.31577824  1
  Bi  Bi46  1  0.99724103  0.67258232  0.31656281  1
  Bi  Bi47  1  0.66446408  0.33553592  0.00000000  1
  Bi  Bi48  1  0.32741768  0.00275897  0.68343719  1
  Bi  Bi49  1  0.00000000  0.00000000  0.50000000  1
  Bi  Bi50  1  0.00275897  0.32741768  0.81656281  1
  Bi  Bi51  1  0.66446408  0.33553592  0.50000000  1
  Bi  Bi52  1  0.33553592  0.66446408  0.50000000  1
  Bi  Bi53  1  0.66057138  0.66057138  0.68422176  1
  Bi  Bi54  1  0.66057138  0.66057138  0.81577824  1
  Bi  Bi55  1  0.33942862  0.33942862  0.18422176  1
  Bi  Bi56  1  0.67258232  0.99724103  0.18343719  1
  Bi  Bi57  1  0.67258232  0.99724103  0.31656281  1
  Bi  Bi58  1  0.00000000  0.00000000  0.00000000  1
  Bi  Bi59  1  0.00275897  0.32741768  0.68343719  1
  I  I60  1  0.08281763  0.88582720  0.81523916  1
  I  I61  1  0.95013999  0.13533071  0.44687983  1
  I  I62  1  0.48779662  0.33259646  0.54325665  1
  I  I63  1  0.66740354  0.51220338  0.45674335  1
  I  I64  1  0.33259646  0.48779662  0.95674335  1
  I  I65  1  0.32114953  0.85253479  0.75000000  1
  I  I66  1  0.87823744  0.42628585  0.31382044  1
  I  I67  1  0.87823744  0.42628585  0.18617956  1
  I  I68  1  0.91718237  0.11417280  0.31523916  1
  I  I69  1  0.80719149  0.51572546  0.55369522  1
  I  I70  1  0.19088906  0.19088906  0.53080848  1
  I  I71  1  0.33319760  0.16068528  0.86888019  1
  I  I72  1  0.20877167  0.20877167  0.12193317  1
  I  I73  1  0.88582720  0.08281763  0.68476084  1
  I  I74  1  0.20877167  0.20877167  0.37806683  1
  I  I75  1  0.49676758  0.49676758  0.36659460  1
  I  I76  1  0.15266504  0.33182800  0.75000000  1
  I  I77  1  0.51220338  0.66740354  0.04325665  1
  I  I78  1  0.33182800  0.15266504  0.75000000  1
  I  I79  1  0.46463285  0.21716995  0.18555121  1
  I  I80  1  0.14746521  0.67885047  0.25000000  1
  I  I81  1  0.53536715  0.78283005  0.81444879  1
  I  I82  1  0.51298652  0.51298652  0.75000000  1
  I  I83  1  0.12176256  0.57371415  0.81382044  1
  I  I84  1  0.86466929  0.04986001  0.55312017  1
  I  I85  1  0.67827261  0.13038775  0.37923498  1
  I  I86  1  0.13038775  0.67827261  0.12076502  1
  I  I87  1  0.38129913  0.86470804  0.04574472  1
  I  I88  1  0.86466929  0.04986001  0.94687983  1
  I  I89  1  0.12176256  0.57371415  0.68617956  1
  I  I90  1  0.80911094  0.80911094  0.03080848  1
  I  I91  1  0.83931472  0.66680240  0.13111981  1
  I  I92  1  0.53536715  0.78283005  0.68555121  1
  I  I93  1  0.11417280  0.91718237  0.31523916  1
  I  I94  1  0.46463285  0.21716995  0.31444879  1
  I  I95  1  0.88582720  0.08281763  0.81523916  1
  I  I96  1  0.83931472  0.66680240  0.36888019  1
  I  I97  1  0.33319760  0.16068528  0.63111981  1
  I  I98  1  0.19280851  0.48427454  0.05369522  1
  I  I99  1  0.57371415  0.12176256  0.68617956  1
  I  I100  1  0.19088906  0.19088906  0.96919152  1
  I  I101  1  0.11417280  0.91718237  0.18476084  1
  I  I102  1  0.13533071  0.95013999  0.05312017  1
  I  I103  1  0.48427454  0.19280851  0.44630478  1
  I  I104  1  0.33259646  0.48779662  0.54325665  1
  I  I105  1  0.21716995  0.46463285  0.18555121  1
  I  I106  1  0.08281763  0.88582720  0.68476084  1
  I  I107  1  0.16068528  0.33319760  0.63111981  1
  I  I108  1  0.51220338  0.66740354  0.45674335  1
  I  I109  1  0.67885047  0.14746521  0.25000000  1
  I  I110  1  0.42628585  0.87823744  0.18617956  1
  I  I111  1  0.80911094  0.80911094  0.46919152  1
  I  I112  1  0.66680240  0.83931472  0.36888019  1
  I  I113  1  0.13533071  0.95013999  0.44687983  1
  I  I114  1  0.78283005  0.53536715  0.81444879  1
  I  I115  1  0.21716995  0.46463285  0.31444879  1
  I  I116  1  0.50323242  0.50323242  0.63340540  1
  I  I117  1  0.91718237  0.11417280  0.18476084  1
  I  I118  1  0.49676758  0.49676758  0.13340540  1
  I  I119  1  0.79122833  0.79122833  0.87806683  1
  I  I120  1  0.48427454  0.19280851  0.05369522  1
  I  I121  1  0.51572546  0.80719149  0.55369522  1
  I  I122  1  0.66740354  0.51220338  0.04325665  1
  I  I123  1  0.85253479  0.32114953  0.75000000  1
  I  I124  1  0.13038775  0.67827261  0.37923498  1
  I  I125  1  0.04986001  0.86466929  0.94687983  1
  I  I126  1  0.61870087  0.13529196  0.95425528  1
  I  I127  1  0.86961225  0.32172739  0.62076502  1
  I  I128  1  0.48701348  0.48701348  0.25000000  1
  I  I129  1  0.32172739  0.86961225  0.87923498  1
  I  I130  1  0.32172739  0.86961225  0.62076502  1
  I  I131  1  0.19217545  0.19217545  0.25000000  1
  I  I132  1  0.13529196  0.61870087  0.95425528  1
  I  I133  1  0.80782455  0.80782455  0.75000000  1
  I  I134  1  0.86961225  0.32172739  0.87923498  1
  I  I135  1  0.61870087  0.13529196  0.54574472  1
  I  I136  1  0.04986001  0.86466929  0.55312017  1
  I  I137  1  0.57371415  0.12176256  0.81382044  1
  I  I138  1  0.66680240  0.83931472  0.13111981  1
  I  I139  1  0.13529196  0.61870087  0.54574472  1
  I  I140  1  0.48779662  0.33259646  0.95674335  1
  I  I141  1  0.67827261  0.13038775  0.12076502  1
  I  I142  1  0.51572546  0.80719149  0.94630478  1
  I  I143  1  0.79122833  0.79122833  0.62193317  1
  I  I144  1  0.19280851  0.48427454  0.44630478  1
  I  I145  1  0.42628585  0.87823744  0.31382044  1
  I  I146  1  0.84733496  0.66817200  0.25000000  1
  I  I147  1  0.50323242  0.50323242  0.86659460  1
  I  I148  1  0.78283005  0.53536715  0.68555121  1
  I  I149  1  0.66817200  0.84733496  0.25000000  1
  I  I150  1  0.95013999  0.13533071  0.05312017  1
  I  I151  1  0.86470804  0.38129913  0.04574472  1
  I  I152  1  0.38129913  0.86470804  0.45425528  1
  I  I153  1  0.80719149  0.51572546  0.94630478  1
  I  I154  1  0.16068528  0.33319760  0.86888019  1
  I  I155  1  0.86470804  0.38129913  0.45425528  1
