# generated using pymatgen
data_In4Br7
_symmetry_space_group_name_H-M   'P 1'
_cell_length_a   7.71192732
_cell_length_b   7.81043381
_cell_length_c   31.91832984
_cell_angle_alpha   83.48731682
_cell_angle_beta   83.06130686
_cell_angle_gamma   60.41633268
_symmetry_Int_Tables_number   1
_chemical_formula_structural   In4Br7
_chemical_formula_sum   'In16 Br28'
_cell_volume   1656.45128990
_cell_formula_units_Z   4
loop_
 _symmetry_equiv_pos_site_id
 _symmetry_equiv_pos_as_xyz
  1  'x, y, z'
loop_
 _atom_site_type_symbol
 _atom_site_label
 _atom_site_symmetry_multiplicity
 _atom_site_fract_x
 _atom_site_fract_y
 _atom_site_fract_z
 _atom_site_occupancy
  In  In0  1  0.17705368  0.66897555  0.47275595  1
  In  In1  1  0.45800748  0.95816183  0.62501159  1
  In  In2  1  0.04118090  0.54183817  0.87498841  1
  In  In3  1  0.68121482  0.16897555  0.97275595  1
  In  In4  1  0.36938959  0.90094450  0.81532914  1
  In  In5  1  0.19952629  0.75000000  0.25000000  1
  In  In6  1  0.54199252  0.04183817  0.37498841  1
  In  In7  1  0.82294632  0.33102445  0.52724405  1
  In  In8  1  0.63061041  0.09905550  0.18467086  1
  In  In9  1  0.50000000  0.00000000  0.50000000  1
  In  In10  1  0.91433676  0.40094450  0.31532914  1
  In  In11  1  0.95881910  0.45816183  0.12501159  1
  In  In12  1  0.31878518  0.83102445  0.02724405  1
  In  In13  1  0.00000000  0.50000000  0.00000000  1
  In  In14  1  0.80047371  0.25000000  0.75000000  1
  In  In15  1  0.08566324  0.59905550  0.68467086  1
  Br  Br16  1  0.32359106  0.94781427  0.73620495  1
  Br  Br17  1  0.49852681  0.46117125  0.16170661  1
  Br  Br18  1  0.99238972  0.44781427  0.23620495  1
  Br  Br19  1  0.72370713  0.13410374  0.45034921  1
  Br  Br20  1  0.03234235  0.60541074  0.34810379  1
  Br  Br21  1  0.12140467  0.03882875  0.33829339  1
  Br  Br22  1  0.54732549  0.52348411  0.33570558  1
  Br  Br23  1  0.00761028  0.55218573  0.76379505  1
  Br  Br24  1  0.13692062  0.72344390  0.95144665  1
  Br  Br25  1  0.63069074  0.69226955  0.45068826  1
  Br  Br26  1  0.22635145  0.19226955  0.95068826  1
  Br  Br27  1  0.59348481  0.02348412  0.83570558  1
  Br  Br28  1  0.50147319  0.53882875  0.83829339  1
  Br  Br29  1  0.98585689  0.89458926  0.15189621  1
  Br  Br30  1  0.01414311  0.10541074  0.84810379  1
  Br  Br31  1  0.81181117  0.77655610  0.54855335  1
  Br  Br32  1  0.87859533  0.96117125  0.66170661  1
  Br  Br33  1  0.77364855  0.80773045  0.04931174  1
  Br  Br34  1  0.86307938  0.27655610  0.04855335  1
  Br  Br35  1  0.45267451  0.47651589  0.66429442  1
  Br  Br36  1  0.69183991  0.63410374  0.95034921  1
  Br  Br37  1  0.96765765  0.39458926  0.65189621  1
  Br  Br38  1  0.36930926  0.30773045  0.54931174  1
  Br  Br39  1  0.30816009  0.36589626  0.04965079  1
  Br  Br40  1  0.40651519  0.97651588  0.16429442  1
  Br  Br41  1  0.27629287  0.86589626  0.54965079  1
  Br  Br42  1  0.67640894  0.05218573  0.26379505  1
  Br  Br43  1  0.18818883  0.22344390  0.45144665  1
