# generated using pymatgen
data_Mg2TiO4
_symmetry_space_group_name_H-M   'P 1'
_cell_length_a   6.08037166
_cell_length_b   12.16609853
_cell_length_c   10.32729070
_cell_angle_alpha   53.91203447
_cell_angle_beta   90.12853173
_cell_angle_gamma   90.00000000
_symmetry_Int_Tables_number   1
_chemical_formula_structural   Mg2TiO4
_chemical_formula_sum   'Mg16 Ti8 O32'
_cell_volume   617.36017645
_cell_formula_units_Z   8
loop_
 _symmetry_equiv_pos_site_id
 _symmetry_equiv_pos_as_xyz
  1  'x, y, z'
loop_
 _atom_site_type_symbol
 _atom_site_label
 _atom_site_symmetry_multiplicity
 _atom_site_fract_x
 _atom_site_fract_y
 _atom_site_fract_z
 _atom_site_occupancy
  Mg  Mg0  1  0.00000000  0.62224245  0.00000000  1
  Mg  Mg1  1  0.00093076  0.12570010  0.49932530  1
  Mg  Mg2  1  0.24886819  0.12582445  0.75101046  1
  Mg  Mg3  1  0.24877155  0.62463073  0.74866418  1
  Mg  Mg4  1  0.24318247  0.30967632  0.12774661  1
  Mg  Mg5  1  0.24677876  0.81236738  0.12209457  1
  Mg  Mg6  1  0.25566561  0.43736014  0.37625359  1
  Mg  Mg7  1  0.25930990  0.94108646  0.37274465  1
  Mg  Mg8  1  0.50000000  0.12554410  0.00000000  1
  Mg  Mg9  1  0.74069010  0.31383111  0.62725535  1
  Mg  Mg10  1  0.75681753  0.43742292  0.87225339  1
  Mg  Mg11  1  0.74433439  0.81361373  0.62374641  1
  Mg  Mg12  1  0.75322124  0.93446195  0.87790543  1
  Mg  Mg13  1  0.75122845  0.37329491  0.25133582  1
  Mg  Mg14  1  0.75113181  0.87683491  0.24898954  1
  Mg  Mg15  1  -0.00093076  0.62502540  0.50067470  1
  Ti  Ti16  1  0.00000000  0.11946945  0.00000000  1
  Ti  Ti17  1  0.25429705  0.37710535  0.75002441  1
  Ti  Ti18  1  0.23255590  0.87286316  0.75002263  1
  Ti  Ti19  1  0.50231237  0.12813686  0.50828448  1
  Ti  Ti20  1  0.49768763  0.63642134  0.49171552  1
  Ti  Ti21  1  0.50000000  0.61622916  0.00000000  1
  Ti  Ti22  1  0.74570295  0.12712976  0.24997559  1
  Ti  Ti23  1  0.76744410  0.62288579  0.24997737  1
  O  O24  1  0.01624475  0.25119352  0.76154216  1
  O  O25  1  0.03140984  0.49688974  0.74511868  1
  O  O26  1  0.02709175  0.75610920  0.74886481  1
  O  O27  1  0.03089685  0.99285993  0.75010641  1
  O  O28  1  0.24095906  0.24839464  -0.01409140  1
  O  O29  1  0.26035521  0.74624137  -0.01442966  1
  O  O30  1  0.26366259  0.00093044  0.51623885  1
  O  O31  1  0.25862788  0.50424096  0.51213332  1
  O  O32  1  0.26389034  0.23431233  0.50095735  1
  O  O33  1  0.26274252  0.51312748  0.00053993  1
  O  O34  1  0.23511156  0.01513216  0.00113419  1
  O  O35  1  0.26363668  0.73740379  0.49742612  1
  O  O36  1  0.46668893  0.25475905  0.75492257  1
  O  O37  1  0.47980790  0.74730809  0.76447289  1
  O  O38  1  0.51624680  0.74037460  0.26059382  1
  O  O39  1  0.51777153  0.23660609  0.26354524  1
  O  O40  1  0.53331107  0.00968162  0.24507743  1
  O  O41  1  0.48222847  0.50015133  0.73645476  1
  O  O42  1  0.52019210  0.51178099  0.23552711  1
  O  O43  1  0.48375320  0.00096843  0.73940618  1
  O  O44  1  0.76488844  0.01626635  0.99886581  1
  O  O45  1  0.73725748  0.51366742  0.99946007  1
  O  O46  1  0.73636332  0.23482991  0.50257388  1
  O  O47  1  0.73610966  0.73526968  0.49904265  1
  O  O48  1  0.73633741  0.51716928  0.48376115  1
  O  O49  1  0.73964479  0.73181171  0.01442966  1
  O  O50  1  0.75904094  0.23430324  0.01409140  1
  O  O51  1  0.74137212  0.01637428  0.48786668  1
  O  O52  1  0.98375525  0.01273568  0.23845784  1
  O  O53  1  0.96859016  0.24200842  0.25488132  1
  O  O54  1  0.97290825  0.50497401  0.25113519  1
  O  O55  1  0.96910315  0.74296633  0.24989359  1
