# generated using pymatgen
data_ZnCuTeCl2O3
_symmetry_space_group_name_H-M   'P 1'
_cell_length_a   7.51924304
_cell_length_b   10.25924123
_cell_length_c   15.79716217
_cell_angle_alpha   90.00000000
_cell_angle_beta   90.00000000
_cell_angle_gamma   90.00000000
_symmetry_Int_Tables_number   1
_chemical_formula_structural   ZnCuTeCl2O3
_chemical_formula_sum   'Zn8 Cu8 Te8 Cl16 O24'
_cell_volume   1218.62039068
_cell_formula_units_Z   8
loop_
 _symmetry_equiv_pos_site_id
 _symmetry_equiv_pos_as_xyz
  1  'x, y, z'
loop_
 _atom_site_type_symbol
 _atom_site_label
 _atom_site_symmetry_multiplicity
 _atom_site_fract_x
 _atom_site_fract_y
 _atom_site_fract_z
 _atom_site_occupancy
  Zn  Zn0  1  0.84258967  0.49173808  0.61756417  1
  Zn  Zn1  1  0.84258967  0.00826192  0.88243583  1
  Zn  Zn2  1  0.65741033  0.50826192  0.11756417  1
  Zn  Zn3  1  0.34258967  0.49173808  0.88243583  1
  Zn  Zn4  1  0.15741033  0.50826192  0.38243583  1
  Zn  Zn5  1  0.15741033  0.99173808  0.11756417  1
  Zn  Zn6  1  0.34258967  0.00826192  0.61756417  1
  Zn  Zn7  1  0.65741033  0.99173808  0.38243583  1
  Cu  Cu8  1  0.88577743  0.23653978  0.45310179  1
  Cu  Cu9  1  0.88577743  0.26346022  0.04689821  1
  Cu  Cu10  1  0.38577743  0.23653978  0.04689821  1
  Cu  Cu11  1  0.61422257  0.73653978  0.54689821  1
  Cu  Cu12  1  0.11422257  0.73653978  0.95310179  1
  Cu  Cu13  1  0.38577743  0.26346022  0.45310179  1
  Cu  Cu14  1  0.61422257  0.76346022  0.95310179  1
  Cu  Cu15  1  0.11422257  0.76346022  0.54689821  1
  Te  Te16  1  0.69957580  0.01323520  0.09453440  1
  Te  Te17  1  0.69957580  0.48676480  0.40546560  1
  Te  Te18  1  0.80042420  0.98676480  0.59453440  1
  Te  Te19  1  0.19957580  0.48676480  0.09453440  1
  Te  Te20  1  0.30042420  0.98676480  0.90546560  1
  Te  Te21  1  0.80042420  0.51323520  0.90546560  1
  Te  Te22  1  0.19957580  0.01323520  0.40546560  1
  Te  Te23  1  0.30042420  0.51323520  0.59453440  1
  Cl  Cl24  1  0.54035277  0.70868000  0.12404577  1
  Cl  Cl25  1  0.33366740  0.42287225  0.28263734  1
  Cl  Cl26  1  0.45964723  0.29132000  0.87595423  1
  Cl  Cl27  1  0.16633260  0.57712775  0.78263734  1
  Cl  Cl28  1  0.66633260  0.57712775  0.71736266  1
  Cl  Cl29  1  0.16633260  0.92287225  0.71736266  1
  Cl  Cl30  1  0.54035277  0.79132000  0.37595423  1
  Cl  Cl31  1  0.66633260  0.92287225  0.78263734  1
  Cl  Cl32  1  0.45964723  0.20868000  0.62404577  1
  Cl  Cl33  1  0.95964723  0.29132000  0.62404577  1
  Cl  Cl34  1  0.04035277  0.70868000  0.37595423  1
  Cl  Cl35  1  0.04035277  0.79132000  0.12404577  1
  Cl  Cl36  1  0.33366740  0.07712775  0.21736266  1
  Cl  Cl37  1  0.95964723  0.20868000  0.87595423  1
  Cl  Cl38  1  0.83366740  0.42287225  0.21736266  1
  Cl  Cl39  1  0.83366740  0.07712775  0.28263734  1
  O  O40  1  0.68794601  0.94223956  0.98042065  1
  O  O41  1  0.31205399  0.44223956  0.48042065  1
  O  O42  1  0.18794601  0.94223956  0.51957935  1
  O  O43  1  0.06584473  0.58480422  0.58159389  1
  O  O44  1  0.36279542  0.81091031  0.94034555  1
  O  O45  1  0.13720458  0.31091031  0.05965445  1
  O  O46  1  0.68794601  0.55776044  0.51957935  1
  O  O47  1  0.43415527  0.08480422  0.41840611  1
  O  O48  1  0.63720458  0.18908969  0.05965445  1
  O  O49  1  0.81205399  0.05776044  0.48042065  1
  O  O50  1  0.31205399  0.05776044  0.01957935  1
  O  O51  1  0.56584473  0.58480422  0.91840611  1
  O  O52  1  0.63720458  0.31091031  0.44034555  1
  O  O53  1  0.86279542  0.68908969  0.94034555  1
  O  O54  1  0.18794601  0.55776044  0.98042065  1
  O  O55  1  0.43415527  0.41519578  0.08159389  1
  O  O56  1  0.13720458  0.18908969  0.44034555  1
  O  O57  1  0.36279542  0.68908969  0.55965445  1
  O  O58  1  0.93415527  0.08480422  0.08159389  1
  O  O59  1  0.86279542  0.81091031  0.55965445  1
  O  O60  1  0.56584473  0.91519578  0.58159389  1
  O  O61  1  0.06584473  0.91519578  0.91840611  1
  O  O62  1  0.93415527  0.41519578  0.41840611  1
  O  O63  1  0.81205399  0.44223956  0.01957935  1
