# generated using pymatgen
data_Ti8S3
_symmetry_space_group_name_H-M   'P 1'
_cell_length_a   3.33585396
_cell_length_b   12.60875231
_cell_length_c   16.34427231
_cell_angle_alpha   82.05327212
_cell_angle_beta   84.14640468
_cell_angle_gamma   82.39065121
_symmetry_Int_Tables_number   1
_chemical_formula_structural   Ti8S3
_chemical_formula_sum   'Ti32 S12'
_cell_volume   672.40219150
_cell_formula_units_Z   4
loop_
 _symmetry_equiv_pos_site_id
 _symmetry_equiv_pos_as_xyz
  1  'x, y, z'
loop_
 _atom_site_type_symbol
 _atom_site_label
 _atom_site_symmetry_multiplicity
 _atom_site_fract_x
 _atom_site_fract_y
 _atom_site_fract_z
 _atom_site_occupancy
  Ti  Ti0  1  0.40594749  0.77486173  0.41398625  1
  Ti  Ti1  1  0.99170241  0.59667409  0.42450904  1
  Ti  Ti2  1  0.06478449  0.15946484  0.71893337  1
  Ti  Ti3  1  0.45157741  0.37952345  0.72126667  1
  Ti  Ti4  1  0.15237217  0.89743165  0.79671932  1
  Ti  Ti5  1  0.16671352  0.51771438  0.15363388  1
  Ti  Ti6  1  0.98967063  0.10721692  0.91082858  1
  Ti  Ti7  1  0.84252604  0.48209186  0.84505171  1
  Ti  Ti8  1  0.67451448  0.99617202  0.65996060  1
  Ti  Ti9  1  0.01475025  0.40488334  0.57382113  1
  Ti  Ti10  1  0.42247486  0.58687347  0.57173426  1
  Ti  Ti11  1  0.28424304  0.82836852  0.60645226  1
  Ti  Ti12  1  0.30034405  0.28128014  0.12679111  1
  Ti  Ti13  1  0.56526487  0.92019142  0.94322200  1
  Ti  Ti14  1  0.20117923  0.06894099  0.53235751  1
  Ti  Ti15  1  0.55444116  0.62111426  0.27658702  1
  Ti  Ti16  1  0.84977895  0.10249698  0.20240347  1
  Ti  Ti17  1  0.70153355  0.71968329  0.87242143  1
  Ti  Ti18  1  0.23690191  0.57317218  0.95851483  1
  Ti  Ti19  1  0.76965908  0.42775281  0.03893009  1
  Ti  Ti20  1  0.94177355  0.84077106  0.27981319  1
  Ti  Ti21  1  0.43396175  0.08091704  0.05514220  1
  Ti  Ti22  1  0.32922421  0.00266924  0.33909987  1
  Ti  Ti23  1  0.00896959  0.89272012  0.08794964  1
  Ti  Ti24  1  0.62104284  0.68833812  0.06758737  1
  Ti  Ti25  1  0.59825282  0.22728101  0.58549947  1
  Ti  Ti26  1  0.58470203  0.41434743  0.42743653  1
  Ti  Ti27  1  0.30704538  0.64127008  0.74889628  1
  Ti  Ti28  1  0.72143555  0.17121897  0.39309601  1
  Ti  Ti29  1  0.69940012  0.35802342  0.25034069  1
  Ti  Ti30  1  0.79851640  0.93317212  0.46877140  1
  Ti  Ti31  1  0.38191341  0.31226191  0.93110836  1
  S  S32  1  0.05549167  0.71500225  0.17578549  1
  S  S33  1  0.25967511  0.20613071  0.27962638  1
  S  S34  1  0.87316237  0.22424258  0.03202436  1
  S  S35  1  0.94796888  0.28551839  0.82308168  1
  S  S36  1  0.89534892  0.52943307  0.68489962  1
  S  S37  1  0.87159827  0.73165484  0.52691109  1
  S  S38  1  0.11188224  0.47128577  0.31396516  1
  S  S39  1  0.57379326  0.04628950  0.80826086  1
  S  S40  1  0.13541693  0.26947805  0.47168949  1
  S  S41  1  0.74496003  0.79350238  0.71946857  1
  S  S42  1  0.43016441  0.95343856  0.19066058  1
  S  S43  1  0.12500567  0.77590107  0.96724315  1
