# generated using pymatgen
data_Ba5Ho8Zn4O21
_symmetry_space_group_name_H-M   'P 1'
_cell_length_a   5.73978941
_cell_length_b   10.20909242
_cell_length_c   10.20909243
_cell_angle_alpha   85.46754674
_cell_angle_beta   73.67343800
_cell_angle_gamma   73.67343797
_symmetry_Int_Tables_number   1
_chemical_formula_structural   Ba5Ho8Zn4O21
_chemical_formula_sum   'Ba5 Ho8 Zn4 O21'
_cell_volume   550.95821021
_cell_formula_units_Z   1
loop_
 _symmetry_equiv_pos_site_id
 _symmetry_equiv_pos_as_xyz
  1  'x, y, z'
loop_
 _atom_site_type_symbol
 _atom_site_label
 _atom_site_symmetry_multiplicity
 _atom_site_fract_x
 _atom_site_fract_y
 _atom_site_fract_z
 _atom_site_occupancy
  O  O0  1  0.10000351  0.89149192  0.40551508  1
  O  O1  1  0.50551859  0.59448492  0.89149192  1
  O  O2  1  0.99149543  0.40551508  0.10850808  1
  O  O3  1  0.39701051  0.10850808  0.59448492  1
  O  O4  1  0.89999649  0.10850808  0.59448492  1
  O  O5  1  0.49448141  0.40551508  0.10850808  1
  O  O6  1  0.00850457  0.59448492  0.89149192  1
  O  O7  1  0.60298949  0.89149192  0.40551508  1
  O  O8  1  0.92713894  0.87050611  0.77425182  1
  O  O9  1  0.70139077  0.22574818  0.87050611  1
  O  O10  1  0.79764505  0.77425182  0.12949389  1
  O  O11  1  0.57189687  0.12949389  0.22574818  1
  O  O12  1  0.07286106  0.12949389  0.22574818  1
  O  O13  1  0.29860923  0.77425182  0.12949389  1
  O  O14  1  0.20235495  0.22574818  0.87050611  1
  O  O15  1  0.42810313  0.87050611  0.77425182  1
  O  O16  1  0.37151316  0.66656359  0.59041008  1
  O  O17  1  0.50000000  0.00000000  0.00000000  1
  O  O18  1  0.62848684  0.33343641  0.40958992  1
  O  O19  1  0.03807676  0.59041008  0.33343641  1
  O  O20  1  0.96192324  0.40958992  0.66656359  1
  Zn  Zn21  1  0.95948415  0.79018151  0.29085019  1
  Zn  Zn22  1  0.25033434  0.70914981  0.79018151  1
  Zn  Zn23  1  0.74966566  0.29085019  0.20981849  1
  Zn  Zn24  1  0.04051585  0.20981849  0.70914981  1
  Ba  Ba25  1  0.46464212  0.39580408  0.67491168  1
  Ba  Ba26  1  0.13955380  0.32508832  0.39580408  1
  Ba  Ba27  1  0.86044620  0.67491168  0.60419592  1
  Ba  Ba28  1  0.53535788  0.60419592  0.32508832  1
  Ba  Ba29  1  0.00000000  0.00000000  0.00000000  1
  Ho  Ho30  1  0.58868615  0.05323951  0.76938819  1
  Ho  Ho31  1  0.35807434  0.23061181  0.05323951  1
  Ho  Ho32  1  0.64192566  0.76938819  0.94676049  1
  Ho  Ho33  1  0.41131385  0.94676049  0.23061181  1
  Ho  Ho34  1  0.75259335  0.07932437  0.41548893  1
  Ho  Ho35  1  0.16808228  0.58451107  0.07932437  1
  Ho  Ho36  1  0.83191772  0.41548893  0.92067563  1
  Ho  Ho37  1  0.24740665  0.92067563  0.58451107  1
