# generated using pymatgen
data_KCaNb2O6F
_symmetry_space_group_name_H-M   'P 1'
_cell_length_a   7.59240239
_cell_length_b   7.59240223
_cell_length_c   7.65035061
_cell_angle_alpha   59.74719883
_cell_angle_beta   59.74719950
_cell_angle_gamma   59.08952958
_symmetry_Int_Tables_number   1
_chemical_formula_structural   KCaNb2O6F
_chemical_formula_sum   'K2 Ca2 Nb4 O12 F2'
_cell_volume   308.46055943
_cell_formula_units_Z   2
loop_
 _symmetry_equiv_pos_site_id
 _symmetry_equiv_pos_as_xyz
  1  'x, y, z'
loop_
 _atom_site_type_symbol
 _atom_site_label
 _atom_site_symmetry_multiplicity
 _atom_site_fract_x
 _atom_site_fract_y
 _atom_site_fract_z
 _atom_site_occupancy
  K  K0  1  0.50000000  0.00000000  0.50000000  1
  K  K1  1  0.00000000  0.50000000  0.50000000  1
  Ca  Ca2  1  0.50000000  0.50000000  0.00000000  1
  Ca  Ca3  1  0.50000000  0.50000000  0.50000000  1
  Nb  Nb4  1  0.00000000  0.00000000  0.50000000  1
  Nb  Nb5  1  0.50000000  0.00000000  0.00000000  1
  Nb  Nb6  1  0.00000000  0.00000000  0.00000000  1
  Nb  Nb7  1  0.00000000  0.50000000  0.00000000  1
  O  O8  1  0.07207008  0.68304579  0.05815271  1
  O  O9  1  0.05875471  0.05875471  0.69124529  1
  O  O10  1  0.68304579  0.07207008  0.05815271  1
  O  O11  1  0.07207008  0.68304579  0.68673142  1
  O  O12  1  0.31695421  0.92792992  0.31326858  1
  O  O13  1  0.31880650  0.31880650  0.93119350  1
  O  O14  1  0.68119350  0.68119350  0.06880650  1
  O  O15  1  0.68304579  0.07207008  0.68673142  1
  O  O16  1  0.92792992  0.31695421  0.31326858  1
  O  O17  1  0.31695421  0.92792992  0.94184729  1
  O  O18  1  0.94124529  0.94124529  0.30875471  1
  O  O19  1  0.92792992  0.31695421  0.94184729  1
  F  F20  1  0.40319755  0.40319755  0.34680245  1
  F  F21  1  0.59680245  0.59680245  0.65319755  1
