# generated using pymatgen
data_K2UF6
_symmetry_space_group_name_H-M   'P 1'
_cell_length_a   8.65866952
_cell_length_b   12.61260054
_cell_length_c   7.27441537
_cell_angle_alpha   30.10168237
_cell_angle_beta   53.78823464
_cell_angle_gamma   59.26300653
_symmetry_Int_Tables_number   1
_chemical_formula_structural   K2UF6
_chemical_formula_sum   'K4 U2 F12'
_cell_volume   321.47190694
_cell_formula_units_Z   2
loop_
 _symmetry_equiv_pos_site_id
 _symmetry_equiv_pos_as_xyz
  1  'x, y, z'
loop_
 _atom_site_type_symbol
 _atom_site_label
 _atom_site_symmetry_multiplicity
 _atom_site_fract_x
 _atom_site_fract_y
 _atom_site_fract_z
 _atom_site_occupancy
  K  K0  1  0.00000000  0.99011049  0.01483426  1
  K  K1  1  1.00000000  0.65473386  0.01789971  1
  K  K2  1  0.50000000  0.34322251  0.98516574  1
  K  K3  1  0.50000000  0.67860014  0.98210029  1
  U  U4  1  0.00000000  0.32705162  0.00942206  1
  U  U5  1  0.50000000  0.00628138  0.99057794  1
  F  F6  1  0.11738709  0.32005361  0.21959600  1
  F  F7  1  0.38261291  0.01327939  0.78040400  1
  F  F8  1  0.12639810  0.61151482  0.35722904  1
  F  F9  1  0.63988431  0.30301872  0.31042304  1
  F  F10  1  0.36011569  0.30301872  0.78051979  1
  F  F11  1  0.13988431  0.03031428  0.21948021  1
  F  F12  1  0.86011569  0.03031428  0.68957696  1
  F  F13  1  0.62639810  0.72181918  0.19177250  1
  F  F14  1  0.37360190  0.72181918  0.64277096  1
  F  F15  1  0.88261291  0.32005361  0.82024218  1
  F  F16  1  0.61738709  0.01327939  0.17975782  1
  F  F17  1  0.87360190  0.61151482  0.80822750  1
