# generated using pymatgen
data_NaSr2LaTi4O12
_symmetry_space_group_name_H-M   'P 1'
_cell_length_a   5.53073562
_cell_length_b   5.53074061
_cell_length_c   33.29409267
_cell_angle_alpha   119.88985285
_cell_angle_beta   119.88989366
_cell_angle_gamma   89.99965302
_symmetry_Int_Tables_number   1
_chemical_formula_structural   NaSr2LaTi4O12
_chemical_formula_sum   'Na3 Sr6 La3 Ti12 O36'
_cell_volume   722.53536133
_cell_formula_units_Z   3
loop_
 _symmetry_equiv_pos_site_id
 _symmetry_equiv_pos_as_xyz
  1  'x, y, z'
loop_
 _atom_site_type_symbol
 _atom_site_label
 _atom_site_symmetry_multiplicity
 _atom_site_fract_x
 _atom_site_fract_y
 _atom_site_fract_z
 _atom_site_occupancy
  Na  Na0  1  0.24916992  0.74917079  0.91640138  1
  Na  Na1  1  0.24999971  0.75000046  0.75000152  1
  Na  Na2  1  0.25091537  0.75091590  0.58362341  1
  Sr  Sr3  1  0.25071966  0.75071007  0.41689711  1
  Sr  Sr4  1  0.24999810  0.74999362  0.24999654  1
  Sr  Sr5  1  0.75299632  0.25299930  0.41766331  1
  Sr  Sr6  1  0.24928394  0.74929091  0.08310070  1
  Sr  Sr7  1  0.74998985  0.24997978  0.24999925  1
  Sr  Sr8  1  0.74699086  0.24699292  0.08233254  1
  La  La9  1  0.74867274  0.24867611  0.91621606  1
  La  La10  1  0.75003424  0.25003167  0.75000172  1
  La  La11  1  0.75134797  0.25134283  0.58378213  1
  Ti  Ti12  1  0.00151843  0.00152717  0.66717303  1
  Ti  Ti13  1  0.49850985  0.49850065  0.83283055  1
  Ti  Ti14  1  0.00502296  0.00503985  0.50167619  1
  Ti  Ti15  1  0.50152632  0.50151703  0.66717317  1
  Ti  Ti16  1  0.99850195  0.99851181  0.83283082  1
  Ti  Ti17  1  0.00120566  0.00120548  0.33373135  1
  Ti  Ti18  1  0.50503915  0.50502615  0.50167699  1
  Ti  Ti19  1  0.99876250  0.99877381  0.16625922  1
  Ti  Ti20  1  0.50120626  0.50120868  0.33373179  1
  Ti  Ti21  1  0.99494847  0.99496555  0.99831419  1
  Ti  Ti22  1  0.49877502  0.49876601  0.16625955  1
  Ti  Ti23  1  0.49497052  0.49495476  0.99831513  1
  O  O24  1  0.24802001  0.24800801  0.91602173  1
  O  O25  1  0.20731114  0.70730831  0.83129233  1
  O  O26  1  0.29048110  0.21842091  0.83482903  1
  O  O27  1  0.24999204  0.24997486  0.74999679  1
  O  O28  1  0.74800584  0.74801730  0.91602174  1
  O  O29  1  0.20948181  0.70947964  0.66516213  1
  O  O30  1  0.71841997  0.79047969  0.83482944  1
  O  O31  1  0.29266309  0.21956772  0.66870208  1
  O  O32  1  0.78044224  0.28044564  0.83130634  1
  O  O33  1  0.25198212  0.25196076  0.58397688  1
  O  O34  1  0.74996990  0.74998939  0.74999591  1
  O  O35  1  0.22960466  0.72960557  0.50089862  1
  O  O36  1  0.71955825  0.79265963  0.66870150  1
  O  O37  1  0.29398845  0.22215229  0.50268989  1
  O  O38  1  0.78157204  0.28157578  0.66517804  1
  O  O39  1  0.25224399  0.25222669  0.41742636  1
  O  O40  1  0.75196107  0.75197974  0.58397673  1
  O  O41  1  0.22519270  0.72519369  0.33326121  1
  O  O42  1  0.72215144  0.79398913  0.50268931  1
  O  O43  1  0.27607774  0.22632441  0.33374825  1
  O  O44  1  0.77578243  0.27578224  0.50089855  1
  O  O45  1  0.25002128  0.24999087  0.25000234  1
  O  O46  1  0.75223101  0.75224580  0.41742713  1
  O  O47  1  0.22390943  0.72390892  0.16624834  1
  O  O48  1  0.72632628  0.77607876  0.33374814  1
  O  O49  1  0.27479006  0.22571994  0.16673658  1
  O  O50  1  0.77429651  0.27429464  0.33327134  1
  O  O51  1  0.24778950  0.24775766  0.08257801  1
  O  O52  1  0.74999468  0.75002393  0.25000313  1
  O  O53  1  0.20599452  0.70599392  0.99730489  1
  O  O54  1  0.72571907  0.77478914  0.16673621  1
  O  O55  1  0.27038740  0.22421408  0.99910224  1
  O  O56  1  0.77371195  0.27371407  0.16625964  1
  O  O57  1  0.74775385  0.74778910  0.08257792  1
  O  O58  1  0.72421697  0.77038888  0.99910288  1
  O  O59  1  0.77784967  0.27784758  0.99731072  1
