# generated using pymatgen
data_LiFePO4
_symmetry_space_group_name_H-M   'P 1'
_cell_length_a   9.95300140
_cell_length_b   10.15055255
_cell_length_c   17.35436972
_cell_angle_alpha   105.25498216
_cell_angle_beta   106.66394714
_cell_angle_gamma   60.64173922
_symmetry_Int_Tables_number   1
_chemical_formula_structural   LiFePO4
_chemical_formula_sum   'Li16 Fe16 P16 O64'
_cell_volume   1448.08912413
_cell_formula_units_Z   16
loop_
 _symmetry_equiv_pos_site_id
 _symmetry_equiv_pos_as_xyz
  1  'x, y, z'
loop_
 _atom_site_type_symbol
 _atom_site_label
 _atom_site_symmetry_multiplicity
 _atom_site_fract_x
 _atom_site_fract_y
 _atom_site_fract_z
 _atom_site_occupancy
  Li  Li0  1  0.50439112  0.06131745  0.68704415  1
  Li  Li1  1  0.06118571  0.99518578  0.68702715  1
  Li  Li2  1  0.62707718  0.99946067  0.18480563  1
  Li  Li3  1  0.63065567  0.49518578  0.18702715  1
  Li  Li4  1  0.12133559  0.56131745  0.18704415  1
  Li  Li5  1  0.55826878  0.49946067  0.68480563  1
  Li  Li6  1  0.24030268  0.31838060  0.93716756  1
  Li  Li7  1  0.00531967  0.55551368  0.68704954  1
  Li  Li8  1  0.37848428  0.81838060  0.43716756  1
  Li  Li9  1  0.74100920  0.87823909  0.93678455  1
  Li  Li10  1  0.24069535  0.81855021  0.93720537  1
  Li  Li11  1  0.31753627  0.37823909  0.43678455  1
  Li  Li12  1  0.12621619  0.05551368  0.18704954  1
  Li  Li13  1  0.81871818  0.87740413  0.43666502  1
  Li  Li14  1  0.74054272  0.37740413  0.93666502  1
  Li  Li15  1  0.87795881  0.31855021  0.43720537  1
  Fe  Fe16  1  0.18661597  0.12068962  0.56313686  1
  Fe  Fe17  1  0.86919916  0.94524551  0.81207793  1
  Fe  Fe18  1  0.25586483  0.11967705  0.06295536  1
  Fe  Fe19  1  0.36862070  0.50271832  0.81265647  1
  Fe  Fe20  1  0.37367284  0.99711935  0.81344440  1
  Fe  Fe21  1  0.75736159  0.67883903  0.06186684  1
  Fe  Fe22  1  0.94131845  0.00271832  0.31265647  1
  Fe  Fe23  1  0.49606374  0.94143241  0.31132427  1
  Fe  Fe24  1  0.87382912  0.44143241  0.81132427  1
  Fe  Fe25  1  0.44265322  0.49711935  0.31344440  1
  Fe  Fe26  1  0.75393607  0.18087433  0.06218496  1
  Fe  Fe27  1  0.12737456  0.68087433  0.56218496  1
  Fe  Fe28  1  0.62566622  0.17883903  0.56186684  1
  Fe  Fe29  1  0.99763326  0.44524551  0.31207793  1
  Fe  Fe30  1  0.68741349  0.61967705  0.56295536  1
  Fe  Fe31  1  0.25583126  0.62068962  0.06313686  1
  P  P32  1  0.56498467  0.67975687  0.87297419  1
  P  P33  1  0.43786520  0.81428104  0.12443926  1
  P  P34  1  0.06155816  0.62919560  0.87524002  1
  P  P35  1  0.81501627  0.87019281  0.62345519  1
  P  P36  1  0.12766319  0.68394924  0.37316337  1
  P  P37  1  0.43507455  0.31663204  0.12455846  1
  P  P38  1  0.93773865  0.87148939  0.12277609  1
  P  P39  1  0.06435996  0.12587525  0.87470950  1
  P  P40  1  0.18448625  0.12919560  0.37524002  1
  P  P41  1  0.68447428  0.62587525  0.37470950  1
  P  P42  1  0.87229302  0.31428104  0.62443926  1
  P  P43  1  0.93824612  0.37019281  0.12345519  1
  P  P44  1  0.56155095  0.18394924  0.87316337  1
  P  P45  1  0.31354705  0.37148939  0.62277609  1
  P  P46  1  0.37285187  0.81663204  0.62455846  1
  P  P47  1  0.62823165  0.17975687  0.37297419  1
  O  O48  1  0.55356337  0.84147712  0.88276955  1
  O  O49  1  0.63645889  0.57313481  0.79719974  1
  O  O50  1  0.67613765  0.60108769  0.94808168  1
  O  O51  1  0.32965992  0.88728981  0.04730003  1
  O  O52  1  0.60426882  0.80470124  0.13789236  1
  O  O53  1  0.91753345  0.91917874  0.70059916  1
  O  O54  1  0.17854871  0.66640960  0.94746317  1
  O  O55  1  0.04386530  0.99271088  0.88935909  1
  O  O56  1  0.89824876  0.77066309  0.86346904  1
  O  O57  1  0.36226910  0.92233438  0.19906395  1
  O  O58  1  0.83035029  0.38728981  0.54730003  1
  O  O59  1  0.99024513  0.84742622  0.38407757  1
  O  O60  1  0.54640622  0.34742622  0.88407757  1
  O  O61  1  0.89279692  0.83213820  0.54936833  1
  O  O62  1  0.80912528  0.72844777  0.63833435  1
  O  O63  1  0.04343062  0.49473109  0.89012189  1
  O  O64  1  0.27153044  0.69522540  0.36273954  1
  O  O65  1  0.72892230  0.30470124  0.63789236  1
  O  O66  1  0.13172561  0.58345349  0.79685799  1
  O  O67  1  0.85893620  0.92180998  0.19818986  1
  O  O68  1  0.18020264  0.16377341  0.94729294  1
  O  O69  1  0.30643528  0.23148673  0.63901302  1
  O  O70  1  0.14494623  0.50436337  0.60776343  1
  O  O71  1  0.39674828  0.69685947  0.86262040  1
  O  O72  1  0.32816391  0.88834642  0.54640740  1
  O  O73  1  0.58209244  0.57759162  0.29733872  1
  O  O74  1  0.45062925  0.15389405  0.11557903  1
  O  O75  1  0.35584885  0.42512482  0.19759221  1
  O  O76  1  0.60331589  0.66377341  0.44729294  1
  O  O77  1  0.32989707  0.38834642  0.04640740  1
  O  O78  1  0.01069681  0.15163604  0.61583674  1
  O  O79  1  0.13765467  0.07759162  0.79733872  1
  O  O80  1  0.85278391  0.49271088  0.38935909  1
  O  O81  1  0.41744368  0.42180998  0.69818986  1
  O  O82  1  0.48772905  0.34147712  0.38276955  1
  O  O83  1  0.82750181  0.82984038  0.04801942  1
  O  O84  1  0.51105573  0.65389405  0.61557903  1
  O  O85  1  0.64656454  0.00216193  0.60862745  1
  O  O86  1  0.67551586  0.10347258  0.94746554  1
  O  O87  1  0.58760603  0.07313481  0.29719974  1
  O  O88  1  0.10250586  0.16640960  0.44746317  1
  O  O89  1  0.82443221  0.33213820  0.04936833  1
  O  O90  1  0.39067823  0.32984038  0.54801942  1
  O  O91  1  0.45350389  0.65163604  0.11583674  1
  O  O92  1  0.16847709  0.60347258  0.44746554  1
  O  O93  1  0.23099960  0.80535282  0.63889855  1
  O  O94  1  0.76901364  0.19685947  0.36262040  1
  O  O95  1  0.08167989  0.08345349  0.29685799  1
  O  O96  1  0.91446047  0.42233438  0.69906395  1
  O  O97  1  0.39598369  0.19522540  0.86273954  1
  O  O98  1  0.86388697  0.41917874  0.20059916  1
  O  O99  1  0.90144496  0.26823875  0.86279856  1
  O  O100  1  0.08222689  0.58185063  0.29646016  1
  O  O101  1  0.95845483  0.00436337  0.10776343  1
  O  O102  1  0.10109000  0.73148673  0.13901302  1
  O  O103  1  0.60254613  0.30535282  0.13889855  1
  O  O104  1  0.41661755  0.92512482  0.69759221  1
  O  O105  1  0.10076130  0.22844777  0.13833435  1
  O  O106  1  0.95989998  0.50216193  0.10862745  1
  O  O107  1  0.69311385  0.76823875  0.36279856  1
  O  O108  1  0.35196018  0.99473109  0.39012189  1
  O  O109  1  0.67085634  0.10108769  0.44808168  1
  O  O110  1  0.19455720  0.27066309  0.36346904  1
  O  O111  1  0.63238164  0.08185063  0.79646016  1
