# generated using pymatgen
data_Hg15(As2Cl3)4
_symmetry_space_group_name_H-M   'P 1'
_cell_length_a   12.55112808
_cell_length_b   12.53974998
_cell_length_c   25.06789212
_cell_angle_alpha   89.99968818
_cell_angle_beta   90.00037456
_cell_angle_gamma   90.00025438
_symmetry_Int_Tables_number   1
_chemical_formula_structural   Hg15(As2Cl3)4
_chemical_formula_sum   'Hg60 As32 Cl48'
_cell_volume   3945.38560769
_cell_formula_units_Z   4
loop_
 _symmetry_equiv_pos_site_id
 _symmetry_equiv_pos_as_xyz
  1  'x, y, z'
loop_
 _atom_site_type_symbol
 _atom_site_label
 _atom_site_symmetry_multiplicity
 _atom_site_fract_x
 _atom_site_fract_y
 _atom_site_fract_z
 _atom_site_occupancy
  Hg  Hg0  1  0.00001249  -0.00005880  0.99974380  1
  Hg  Hg1  1  0.00000898  0.50004807  0.74974411  1
  Hg  Hg2  1  0.02679906  0.29051891  0.10946323  1
  Hg  Hg3  1  0.02654102  0.21002909  0.35956898  1
  Hg  Hg4  1  0.02608689  0.28980185  0.60972143  1
  Hg  Hg5  1  0.02646353  0.20968667  0.85961648  1
  Hg  Hg6  1  0.21016141  0.71895379  0.01330059  1
  Hg  Hg7  1  0.20968236  0.71930847  0.51324927  1
  Hg  Hg8  1  0.20982081  0.78064332  0.26333080  1
  Hg  Hg9  1  0.21003316  0.78108338  0.76322202  1
  Hg  Hg10  1  0.21937480  0.47369139  0.39488277  1
  Hg  Hg11  1  0.21925986  0.02668075  0.14510960  1
  Hg  Hg12  1  0.21879607  0.47322174  0.89527225  1
  Hg  Hg13  1  0.21891703  0.02649518  0.64501379  1
  Hg  Hg14  1  0.28108475  0.52649427  0.14501452  1
  Hg  Hg15  1  0.28120177  0.97321811  0.39527242  1
  Hg  Hg16  1  0.28062477  0.97369543  0.89488358  1
  Hg  Hg17  1  0.28073874  0.52667891  0.64511070  1
  Hg  Hg18  1  0.28983858  0.21895287  0.51329910  1
  Hg  Hg19  1  0.29031682  0.21930861  0.01324908  1
  Hg  Hg20  1  0.28996788  0.28108355  0.26322172  1
  Hg  Hg21  1  0.29017862  0.28064293  0.76333044  1
  Hg  Hg22  1  0.47391344  0.78980220  0.10972240  1
  Hg  Hg23  1  0.47320068  0.79051913  0.60946321  1
  Hg  Hg24  1  0.47346091  0.71002919  0.85956961  1
  Hg  Hg25  1  0.47353174  0.70968841  0.35961680  1
  Hg  Hg26  1  0.50000616  0.50002810  0.74999906  1
  Hg  Hg27  1  0.49999276  0.00004712  0.24974598  1
  Hg  Hg28  1  0.50000543  0.50004938  0.00025423  1
  Hg  Hg29  1  0.49999287  0.00002627  0.50000059  1
  Hg  Hg30  1  0.50001281  -0.00005677  0.75025719  1
  Hg  Hg31  1  0.49998725  0.49994182  0.49974221  1
  Hg  Hg32  1  0.52608563  0.28980124  0.14027785  1
  Hg  Hg33  1  0.52679937  0.29051881  0.64053695  1
  Hg  Hg34  1  0.52653843  0.21002939  0.39043142  1
  Hg  Hg35  1  0.52646544  0.20968779  0.89038330  1
  Hg  Hg36  1  0.70968309  0.71930994  0.23675138  1
  Hg  Hg37  1  0.70982064  0.78064185  0.48666948  1
  Hg  Hg38  1  0.71016118  0.71895297  0.73670014  1
  Hg  Hg39  1  0.71003246  0.78108440  0.98677836  1
  Hg  Hg40  1  0.71891675  0.02649596  0.10498633  1
  Hg  Hg41  1  0.71937393  0.47369383  0.35511702  1
  Hg  Hg42  1  0.71926225  0.02667666  0.60488954  1
  Hg  Hg43  1  0.71879644  0.47321930  0.85472750  1
  Hg  Hg44  1  0.78120338  0.97321839  0.35472816  1
  Hg  Hg45  1  0.78073687  0.52667687  0.10489019  1
  Hg  Hg46  1  0.78062561  0.97369174  0.85511706  1
  Hg  Hg47  1  0.78108223  0.52649524  0.60498631  1
  Hg  Hg48  1  0.78983859  0.21895152  0.23670164  1
  Hg  Hg49  1  0.78996678  0.28108358  0.48677854  1
  Hg  Hg50  1  0.79031677  0.21930991  0.73675046  1
  Hg  Hg51  1  0.79017802  0.28064324  0.98666866  1
  Hg  Hg52  1  0.97353672  0.70968524  0.39038469  1
  Hg  Hg53  1  0.97320155  0.79051905  0.14053772  1
  Hg  Hg54  1  0.97345981  0.71002883  0.89043087  1
  Hg  Hg55  1  0.97391490  0.78980234  0.64027783  1
  Hg  Hg56  1  -0.00000717  0.00004800  0.50025484  1
  Hg  Hg57  1  -0.00001404  0.49994389  0.25025767  1
  Hg  Hg58  1  0.00000511  0.50002696  0.00000067  1
  Hg  Hg59  1  0.99999283  0.00002539  0.25000009  1
  As  As60  1  0.16714493  0.66702217  0.41644525  1
  As  As61  1  0.16750433  0.83251083  0.16628718  1
  As  As62  1  0.16699403  0.83285164  0.66644359  1
  As  As63  1  0.16732333  0.66753143  0.91627679  1
  As  As64  1  0.21869286  0.28134211  0.35929236  1
  As  As65  1  0.21880821  0.28096412  0.85948229  1
  As  As66  1  0.21901130  0.21899376  0.10942988  1
  As  As67  1  0.21847794  0.21867877  0.60937777  1
  As  As68  1  0.28119511  0.78096695  0.35948144  1
  As  As69  1  0.28151974  0.71867993  0.10937598  1
  As  As70  1  0.28130741  0.78135339  0.85928895  1
  As  As71  1  0.28098815  0.71899483  0.60942800  1
  As  As72  1  0.33267983  0.16753406  0.41627650  1
  As  As73  1  0.33285203  0.16702107  0.91644380  1
  As  As74  1  0.33300410  0.33285200  0.16644408  1
  As  As75  1  0.33249578  0.33251110  0.66628675  1
  As  As76  1  0.66714998  0.66702200  0.33355481  1
  As  As77  1  0.66699502  0.83285126  0.08355455  1
  As  As78  1  0.66750666  0.83251135  0.58371372  1
  As  As79  1  0.66732064  0.66753632  0.83372449  1
  As  As80  1  0.71848039  0.21867841  0.14062163  1
  As  As81  1  0.71869284  0.28135343  0.39071018  1
  As  As82  1  0.71901155  0.21899431  0.64057195  1
  As  As83  1  0.71880553  0.28096478  0.89051810  1
  As  As84  1  0.78119202  0.78096602  0.39051768  1
  As  As85  1  0.78098823  0.71899309  0.14057225  1
  As  As86  1  0.78130598  0.78135332  0.89071005  1
  As  As87  1  0.78151801  0.71867970  0.64062243  1
  As  As88  1  0.83267718  0.16753528  0.33372338  1
  As  As89  1  0.83249421  0.33251178  0.08371441  1
  As  As90  1  0.83300523  0.33285215  0.58355561  1
  As  As91  1  0.83285471  0.16702427  0.83355507  1
  Cl  Cl92  1  0.03435152  0.28876544  0.22910764  1
  Cl  Cl93  1  0.03426335  0.28657345  0.72939623  1
  Cl  Cl94  1  0.03410089  0.21336058  0.47929020  1
  Cl  Cl95  1  0.03450054  0.21126417  0.97921115  1
  Cl  Cl96  1  0.04152883  0.53457207  0.14430356  1
  Cl  Cl97  1  0.04169289  0.96551755  0.39430345  1
  Cl  Cl98  1  0.04134133  0.96602388  0.89344221  1
  Cl  Cl99  1  0.04152639  0.53387077  0.64344560  1
  Cl  Cl100  1  0.21336501  0.54158930  0.26698293  1
  Cl  Cl101  1  0.21324894  0.95872662  0.01704933  1
  Cl  Cl102  1  0.21111830  0.54145453  0.76722605  1
  Cl  Cl103  1  0.21123071  0.95824235  0.51717243  1
  Cl  Cl104  1  0.28888525  0.04145591  0.26722667  1
  Cl  Cl105  1  0.28675414  0.45872201  0.51704872  1
  Cl  Cl106  1  0.28877004  0.45824455  0.01717416  1
  Cl  Cl107  1  0.28663368  0.04158816  0.76698520  1
  Cl  Cl108  1  0.45847369  0.03386773  0.14344640  1
  Cl  Cl109  1  0.45847348  0.03456741  0.64430227  1
  Cl  Cl110  1  0.45865726  0.46601776  0.39343984  1
  Cl  Cl111  1  0.45830460  0.46552516  0.89430275  1
  Cl  Cl112  1  0.46549402  0.71126354  0.47921226  1
  Cl  Cl113  1  0.46573839  0.78657528  0.22939614  1
  Cl  Cl114  1  0.46590219  0.71336308  0.97928792  1
  Cl  Cl115  1  0.46564879  0.78876852  0.72910424  1
  Cl  Cl116  1  0.53409832  0.21335990  0.27071317  1
  Cl  Cl117  1  0.53426355  0.28657508  0.02060380  1
  Cl  Cl118  1  0.53450550  0.21126294  0.77078676  1
  Cl  Cl119  1  0.53434569  0.28876731  0.52089338  1
  Cl  Cl120  1  0.54151816  0.53387349  0.10655357  1
  Cl  Cl121  1  0.54153553  0.53457032  0.60569844  1
  Cl  Cl122  1  0.54169897  0.96552216  0.35569744  1
  Cl  Cl123  1  0.54134307  0.96602288  0.85655801  1
  Cl  Cl124  1  0.71336349  0.54158971  0.48301617  1
  Cl  Cl125  1  0.71111278  0.54145283  0.98277372  1
  Cl  Cl126  1  0.71123212  0.95824492  0.23282682  1
  Cl  Cl127  1  0.71324827  0.95872231  0.73294991  1
  Cl  Cl128  1  0.78888183  0.04146103  0.48277339  1
  Cl  Cl129  1  0.78675522  0.45872103  0.23294767  1
  Cl  Cl130  1  0.78663515  0.04159047  0.98301617  1
  Cl  Cl131  1  0.78876844  0.45824232  0.73282556  1
  Cl  Cl132  1  0.95847714  0.03456796  0.10569790  1
  Cl  Cl133  1  0.95865558  0.46602152  0.35655829  1
  Cl  Cl134  1  0.95847850  0.03387506  0.60655040  1
  Cl  Cl135  1  0.95830236  0.46551905  0.85569596  1
  Cl  Cl136  1  0.96565523  0.78876438  0.02089366  1
  Cl  Cl137  1  0.96573766  0.78657245  0.52060516  1
  Cl  Cl138  1  0.96549779  0.71127039  0.27078585  1
  Cl  Cl139  1  0.96590116  0.71335940  0.77071390  1
