# generated using pymatgen
data_NaSr8NdTi10O30
_symmetry_space_group_name_H-M   'P 1'
_cell_length_a   5.55391301
_cell_length_b   5.55392627
_cell_length_c   55.60795079
_cell_angle_alpha   119.95938031
_cell_angle_beta   119.95920351
_cell_angle_gamma   90.00003507
_symmetry_Int_Tables_number   1
_chemical_formula_structural   NaSr8NdTi10O30
_chemical_formula_sum   'Na2 Sr16 Nd2 Ti20 O60'
_cell_volume   1214.37974244
_cell_formula_units_Z   2
loop_
 _symmetry_equiv_pos_site_id
 _symmetry_equiv_pos_as_xyz
  1  'x, y, z'
loop_
 _atom_site_type_symbol
 _atom_site_label
 _atom_site_symmetry_multiplicity
 _atom_site_fract_x
 _atom_site_fract_y
 _atom_site_fract_z
 _atom_site_occupancy
  Na  Na0  1  0.74777925  0.24777988  0.94955996  1
  Na  Na1  1  0.75224203  0.25224178  0.85044204  1
  Sr  Sr2  1  0.25342190  0.75341862  0.75068425  1
  Sr  Sr3  1  0.25017481  0.75017853  0.65003625  1
  Sr  Sr4  1  0.75239656  0.25239771  0.75047940  1
  Sr  Sr5  1  0.24999536  0.74999438  0.54999982  1
  Sr  Sr6  1  0.75055855  0.25055753  0.65011124  1
  Sr  Sr7  1  0.24998481  0.74998364  0.44999731  1
  Sr  Sr8  1  0.74999276  0.24999283  0.54999759  1
  Sr  Sr9  1  0.25001238  0.75001487  0.35000283  1
  Sr  Sr10  1  0.74998589  0.24998666  0.44999650  1
  Sr  Sr11  1  0.24999281  0.74999257  0.24999940  1
  Sr  Sr12  1  0.75002247  0.25002260  0.35000357  1
  Sr  Sr13  1  0.24981280  0.74980984  0.14996288  1
  Sr  Sr14  1  0.75001550  0.25001479  0.25000247  1
  Sr  Sr15  1  0.24657433  0.74657384  0.04931534  1
  Sr  Sr16  1  0.74943929  0.24943854  0.14988783  1
  Sr  Sr17  1  0.74760995  0.24761326  0.04952027  1
  Nd  Nd18  1  0.24939521  0.74939423  0.94987434  1
  Nd  Nd19  1  0.25060493  0.75060362  0.85012567  1
  Ti  Ti20  1  0.00000342  0.00000405  0.90000104  1
  Ti  Ti21  1  0.00784796  0.00783347  0.80157011  1
  Ti  Ti22  1  0.50000767  0.50000469  0.90000110  1
  Ti  Ti23  1  0.00217429  0.00217228  0.70043435  1
  Ti  Ti24  1  0.50783565  0.50785480  0.80157079  1
  Ti  Ti25  1  0.00033541  0.00033625  0.60006764  1
  Ti  Ti26  1  0.50217301  0.50217235  0.70043444  1
  Ti  Ti27  1  0.00001074  0.00001161  0.50000273  1
  Ti  Ti28  1  0.50033779  0.50033739  0.60006754  1
  Ti  Ti29  1  0.00000262  0.00000488  0.40000032  1
  Ti  Ti30  1  0.50001279  0.50001238  0.50000270  1
  Ti  Ti31  1  -0.00001002  0.99998728  0.29999758  1
  Ti  Ti32  1  0.50000279  0.50000077  0.40000025  1
  Ti  Ti33  1  0.99965240  0.99965450  0.19993113  1
  Ti  Ti34  1  0.49998639  0.49998822  0.29999739  1
  Ti  Ti35  1  0.99781112  0.99781233  0.09956223  1
  Ti  Ti36  1  0.49965569  0.49965443  0.19993117  1
  Ti  Ti37  1  0.99216160  0.99214886  0.99842913  1
  Ti  Ti38  1  0.49781295  0.49781273  0.09956226  1
  Ti  Ti39  1  0.49214906  0.49216382  0.99842909  1
  O  O40  1  0.24778728  0.24777881  0.94955691  1
  O  O41  1  0.22701722  0.28826134  0.90152819  1
  O  O42  1  0.27297951  0.77298111  0.89847186  1
  O  O43  1  0.25219948  0.25221783  0.85044138  1
  O  O44  1  0.74777927  0.74778776  0.94955707  1
  O  O45  1  0.23254267  0.29245360  0.80250047  1
  O  O46  1  0.71172940  0.21172959  0.89847080  1
  O  O47  1  0.26915879  0.76915986  0.80096067  1
  O  O48  1  0.78826107  0.72701888  0.90152811  1
  O  O49  1  0.25351226  0.25351542  0.75070314  1
  O  O50  1  0.75221530  0.75219795  0.85044129  1
  O  O51  1  0.23602549  0.26759794  0.70036248  1
  O  O52  1  0.74043588  0.24043731  0.80096100  1
  O  O53  1  0.26579212  0.76579210  0.70011245  1
  O  O54  1  0.79245537  0.73254377  0.80250072  1
  O  O55  1  0.25076462  0.25076735  0.65015361  1
  O  O56  1  0.75351781  0.75350887  0.75070314  1
  O  O57  1  0.23476338  0.26558450  0.60003495  1
  O  O58  1  0.73533295  0.23533342  0.70011255  1
  O  O59  1  0.26547356  0.76547352  0.60001794  1
  O  O60  1  0.76760017  0.73602158  0.70036243  1
  O  O61  1  0.25018896  0.25019141  0.55003802  1
  O  O62  1  0.75076951  0.75076690  0.65015373  1
  O  O63  1  0.23460916  0.26540597  0.50000150  1
  O  O64  1  0.73470813  0.23470697  0.60001753  1
  O  O65  1  0.26540113  0.76540078  0.50000050  1
  O  O66  1  0.76558232  0.73476152  0.60003433  1
  O  O67  1  0.25003598  0.25003726  0.45000684  1
  O  O68  1  0.75019151  0.75018752  0.55003789  1
  O  O69  1  0.23460574  0.26540100  0.40000087  1
  O  O70  1  0.73460145  0.23460237  0.50000013  1
  O  O71  1  0.26539856  0.76539848  0.40000025  1
  O  O72  1  0.76540242  0.73460974  0.50000130  1
  O  O73  1  0.24996949  0.24997168  0.34999391  1
  O  O74  1  0.75003813  0.75003324  0.45000678  1
  O  O75  1  0.23460803  0.26540338  0.30000131  1
  O  O76  1  0.73460335  0.23460515  0.40000072  1
  O  O77  1  0.26538914  0.76538996  0.29999868  1
  O  O78  1  0.76540054  0.73460507  0.40000066  1
  O  O79  1  0.24980513  0.24980873  0.24996211  1
  O  O80  1  0.74997450  0.74997427  0.34999387  1
  O  O81  1  0.23452749  0.26528703  0.19998131  1
  O  O82  1  0.73459993  0.23460119  0.29999932  1
  O  O83  1  0.26523607  0.76523535  0.19996510  1
  O  O84  1  0.76540293  0.73460491  0.30000089  1
  O  O85  1  0.24923582  0.24924157  0.14984755  1
  O  O86  1  0.74980860  0.74981070  0.24996230  1
  O  O87  1  0.23420858  0.26466865  0.09988781  1
  O  O88  1  0.73441267  0.23441339  0.19996476  1
  O  O89  1  0.26397932  0.76397974  0.09963838  1
  O  O90  1  0.76529097  0.73452915  0.19998174  1
  O  O91  1  0.24649493  0.24649905  0.04929815  1
  O  O92  1  0.74924037  0.74923327  0.14984757  1
  O  O93  1  0.23083205  0.25955561  0.99903865  1
  O  O94  1  0.73240250  0.23240340  0.09963830  1
  O  O95  1  0.26745614  0.76745517  0.99749983  1
  O  O96  1  0.76467170  0.73421498  0.09988859  1
  O  O97  1  0.74650082  0.74649224  0.04929823  1
  O  O98  1  0.70754191  0.20754168  0.99749883  1
  O  O99  1  0.75955552  0.73083221  0.99903865  1
