# generated using pymatgen
data_Sr5La5Cu(NiO5)4
_symmetry_space_group_name_H-M   'P 1'
_cell_length_a   19.32603120
_cell_length_b   8.65338858
_cell_length_c   6.85316326
_cell_angle_alpha   112.30009225
_cell_angle_beta   106.43825676
_cell_angle_gamma   26.52498249
_symmetry_Int_Tables_number   1
_chemical_formula_structural   Sr5La5Cu(NiO5)4
_chemical_formula_sum   'Sr5 La5 Cu1 Ni4 O20'
_cell_volume   469.09758297
_cell_formula_units_Z   1
loop_
 _symmetry_equiv_pos_site_id
 _symmetry_equiv_pos_as_xyz
  1  'x, y, z'
loop_
 _atom_site_type_symbol
 _atom_site_label
 _atom_site_symmetry_multiplicity
 _atom_site_fract_x
 _atom_site_fract_y
 _atom_site_fract_z
 _atom_site_occupancy
  Sr  Sr0  1  0.12934191  0.35765969  0.71818372  1
  Sr  Sr1  1  0.32886750  0.35598367  0.71786436  1
  Sr  Sr2  1  0.52702773  0.36330435  0.71754258  1
  Sr  Sr3  1  0.72762665  0.35878576  0.71841783  1
  Sr  Sr4  1  0.87163964  0.64111120  0.28575065  1
  La  La5  1  0.07284699  0.63576378  0.27432636  1
  La  La6  1  0.27031518  0.64709126  0.27739379  1
  La  La7  1  0.47253477  0.63776862  0.27904764  1
  La  La8  1  0.67150099  0.64416287  0.27765370  1
  La  La9  1  0.92747085  0.36392255  0.72825626  1
  Cu  Cu10  1  0.00021160  0.99694277  0.99267404  1
  Ni  Ni11  1  0.20133170  0.99598427  0.99367747  1
  Ni  Ni12  1  0.40094798  0.99650609  0.99568716  1
  Ni  Ni13  1  0.59938974  0.99920246  0.99293668  1
  Ni  Ni14  1  0.80037422  0.99923444  0.00007063  1
  O  O15  1  0.09926853  0.00092029  0.99959633  1
  O  O16  1  0.99938331  0.50373687  0.00520082  1
  O  O17  1  0.17831121  0.14048576  0.32692297  1
  O  O18  1  0.30269800  0.00191514  0.01009734  1
  O  O19  1  0.03293990  0.83502571  0.65040290  1
  O  O20  1  0.19790457  0.50841717  0.01631668  1
  O  O21  1  0.37261406  0.14732393  0.32477847  1
  O  O22  1  0.49599127  0.00610413  0.00962642  1
  O  O23  1  0.22479660  0.84622628  0.65420434  1
  O  O24  1  0.39936943  0.50360280  0.00334279  1
  O  O25  1  0.55712385  0.17953712  0.32542709  1
  O  O26  1  0.70080188  0.00374882  0.00336423  1
  O  O27  1  0.43479916  0.82934521  0.65992010  1
  O  O28  1  0.60275639  0.49648532  0.01129200  1
  O  O29  1  0.76462571  0.16841650  0.32064237  1
  O  O30  1  0.89610610  0.00902223  0.01732032  1
  O  O31  1  0.64200029  0.81800982  0.65481538  1
  O  O32  1  0.79765620  0.50535780  0.00063507  1
  O  O33  1  0.96573710  0.16933866  0.35159706  1
  O  O34  1  0.83368900  0.83355665  0.68501444  1
