# generated using pymatgen
data_SmB7H7O17
_symmetry_space_group_name_H-M   'P 1'
_cell_length_a   6.91525677
_cell_length_b   7.22808113
_cell_length_c   14.09709584
_cell_angle_alpha   77.58880072
_cell_angle_beta   78.86701862
_cell_angle_gamma   100.99694812
_symmetry_Int_Tables_number   1
_chemical_formula_structural   SmB7H7O17
_chemical_formula_sum   'Sm2 B14 H14 O34'
_cell_volume   655.07966261
_cell_formula_units_Z   2
loop_
 _symmetry_equiv_pos_site_id
 _symmetry_equiv_pos_as_xyz
  1  'x, y, z'
loop_
 _atom_site_type_symbol
 _atom_site_label
 _atom_site_symmetry_multiplicity
 _atom_site_fract_x
 _atom_site_fract_y
 _atom_site_fract_z
 _atom_site_occupancy
  Sm  Sm0  1  0.72749356  0.22654825  0.54529278  1
  Sm  Sm1  1  0.27250644  0.77345175  0.45470722  1
  B  B2  1  0.34911109  0.91844045  0.75234809  1
  B  B3  1  0.10048048  0.67384332  0.24732555  1
  B  B4  1  0.65088891  0.08155955  0.24765191  1
  B  B5  1  0.89951952  0.32615668  0.75267445  1
  B  B6  1  0.23271272  0.23145689  0.53645831  1
  B  B7  1  0.76728728  0.76854311  0.46354169  1
  B  B8  1  0.54670392  0.78889374  0.62484177  1
  B  B9  1  0.17303809  0.41671013  0.37504999  1
  B  B10  1  0.45329608  0.21110626  0.37515823  1
  B  B11  1  0.82696191  0.58328987  0.62495001  1
  B  B12  1  0.84449149  0.34407478  0.31246389  1
  B  B13  1  0.15550851  0.65592522  0.68753611  1
  B  B14  1  0.91549304  0.71421533  0.99757049  1
  B  B15  1  0.08450696  0.28578467  0.00242951  1
  H  H16  1  0.63749004  0.64513967  0.75630288  1
  H  H17  1  0.36250996  0.35486033  0.24369712  1
  H  H18  1  0.01431606  0.98376698  0.62126548  1
  H  H19  1  0.63500906  0.60866930  0.37728231  1
  H  H20  1  0.98568394  0.01623302  0.37873452  1
  H  H21  1  0.36499094  0.39133070  0.62271769  1
  H  H22  1  0.98453479  0.73206572  0.84846698  1
  H  H23  1  0.83329967  0.60700391  0.14938894  1
  H  H24  1  0.01546521  0.26793428  0.15153302  1
  H  H25  1  0.16670033  0.39299609  0.85061106  1
  H  H26  1  0.25635602  0.98520705  0.88377883  1
  H  H27  1  0.15406141  0.85663398  0.11162544  1
  H  H28  1  0.74364398  0.01479295  0.11622117  1
  H  H29  1  0.84593859  0.14336602  0.88837456  1
  O  O30  1  0.36728654  0.01838251  0.82259815  1
  O  O31  1  0.18366879  0.84721854  0.17820132  1
  O  O32  1  0.63271346  0.98161749  0.17740185  1
  O  O33  1  0.81633121  0.15278146  0.82179868  1
  O  O34  1  0.87392419  0.67103868  0.91241109  1
  O  O35  1  0.77563539  0.64061919  0.08880740  1
  O  O36  1  0.12607581  0.32896132  0.08758891  1
  O  O37  1  0.22436461  0.35938081  0.91119260  1
  O  O38  1  0.65751228  0.65589449  0.68129448  1
  O  O39  1  0.34248772  0.34410551  0.31870552  1
  O  O40  1  0.17264299  0.79167089  0.75245431  1
  O  O41  1  0.92796689  0.54338304  0.24496491  1
  O  O42  1  0.82735701  0.20832911  0.24754569  1
  O  O43  1  0.07203311  0.45661696  0.75503509  1
  O  O44  1  0.09283514  0.83464413  0.99870356  1
  O  O45  1  0.90716486  0.16535587  0.00129644  1
  O  O46  1  0.02466200  0.12355220  0.59509463  1
  O  O47  1  0.61977901  0.72192549  0.40337086  1
  O  O48  1  0.97533800  0.87644780  0.40490537  1
  O  O49  1  0.38022099  0.27807451  0.59662914  1
  O  O50  1  0.67742411  0.88861584  0.52562897  1
  O  O51  1  0.20736934  0.41532548  0.47384845  1
  O  O52  1  0.32257589  0.11138416  0.47437103  1
  O  O53  1  0.79263066  0.58467452  0.52615155  1
  O  O54  1  0.97482200  0.29382000  0.38126670  1
  O  O55  1  0.35347476  0.67417245  0.61881683  1
  O  O56  1  0.02517800  0.70618000  0.61873330  1
  O  O57  1  0.64652524  0.32582755  0.38118317  1
  O  O58  1  0.52391305  0.94180939  0.67718323  1
  O  O59  1  0.19733737  0.62265854  0.32415145  1
  O  O60  1  0.47608695  0.05819061  0.32281677  1
  O  O61  1  0.80266263  0.37734146  0.67584855  1
  O  O62  1  0.57191077  0.64101967  0.87412290  1
  O  O63  1  0.42808923  0.35898033  0.12587710  1
