# generated using pymatgen
data_Na3Ca7Ta3Ti7O30
_symmetry_space_group_name_H-M   'P 1'
_cell_length_a   5.44935522
_cell_length_b   5.53918793
_cell_length_c   38.71743836
_cell_angle_alpha   90.06203042
_cell_angle_beta   89.97492015
_cell_angle_gamma   90.08351396
_symmetry_Int_Tables_number   1
_chemical_formula_structural   Na3Ca7Ta3Ti7O30
_chemical_formula_sum   'Na6 Ca14 Ta6 Ti14 O60'
_cell_volume   1168.68394316
_cell_formula_units_Z   2
loop_
 _symmetry_equiv_pos_site_id
 _symmetry_equiv_pos_as_xyz
  1  'x, y, z'
loop_
 _atom_site_type_symbol
 _atom_site_label
 _atom_site_symmetry_multiplicity
 _atom_site_fract_x
 _atom_site_fract_y
 _atom_site_fract_z
 _atom_site_occupancy
  Na  Na0  1  0.00798207  0.96478327  0.34847813  1
  Na  Na1  1  0.01591735  0.96683674  0.74741825  1
  Na  Na2  1  0.00633530  0.97936673  0.95076497  1
  Na  Na3  1  0.48519293  0.46603809  0.14820552  1
  Na  Na4  1  0.49114469  0.47148524  0.54719051  1
  Na  Na5  1  0.49118092  0.48596812  0.95131529  1
  Ca  Ca6  1  0.00512784  0.95239702  0.14825032  1
  Ca  Ca7  1  0.00716072  0.95444993  0.54747020  1
  Ca  Ca8  1  0.48666378  0.45963509  0.34773647  1
  Ca  Ca9  1  0.50214538  0.46457158  0.74669090  1
  Ca  Ca10  1  0.50432258  0.54107798  0.05228783  1
  Ca  Ca11  1  0.50350329  0.53780710  0.25227210  1
  Ca  Ca12  1  0.51540655  0.54173851  0.65138389  1
  Ca  Ca13  1  0.50501346  0.53202807  0.45194970  1
  Ca  Ca14  1  0.51062997  0.53751907  0.85034733  1
  Ca  Ca15  1  0.98430948  0.04659083  0.05163936  1
  Ca  Ca16  1  0.98681145  0.04907138  0.25211078  1
  Ca  Ca17  1  0.98816654  0.03933613  0.45190198  1
  Ca  Ca18  1  0.99549169  0.04700985  0.65154829  1
  Ca  Ca19  1  0.99193782  0.05182423  0.85046679  1
  Ta  Ta20  1  0.49255730  0.01065926  0.00068123  1
  Ta  Ta21  1  0.49757166  0.00107032  0.19969214  1
  Ta  Ta22  1  0.49881398  0.99545403  0.39913456  1
  Ta  Ta23  1  0.50285692  0.00681963  0.59908824  1
  Ta  Ta24  1  0.49632080  0.00652742  0.90119074  1
  Ta  Ta25  1  0.50162606  0.00155655  0.79802772  1
  Ti  Ti26  1  0.00172021  0.51403645  0.00025993  1
  Ti  Ti27  1  0.98343385  0.50031695  0.10004877  1
  Ti  Ti28  1  0.99786758  0.49887014  0.19914422  1
  Ti  Ti29  1  0.98692911  0.51236792  0.29957541  1
  Ti  Ti30  1  0.99651566  0.50033496  0.39916479  1
  Ti  Ti31  1  0.98776454  0.49763829  0.49974301  1
  Ti  Ti32  1  0.00879477  0.50308882  0.59894831  1
  Ti  Ti33  1  0.01840073  0.50187023  0.70100003  1
  Ti  Ti34  1  0.00657722  0.50856561  0.80011446  1
  Ti  Ti35  1  0.99924087  0.51164493  0.90295447  1
  Ti  Ti36  1  0.48115567  0.99875011  0.10154049  1
  Ti  Ti37  1  0.48357654  0.00175612  0.30102002  1
  Ti  Ti38  1  0.48511603  0.99718381  0.50043177  1
  Ti  Ti39  1  0.51372344  0.00269399  0.69895041  1
  O  O40  1  0.07814427  0.48254872  0.05033774  1
  O  O41  1  0.07927140  0.48092397  0.24991447  1
  O  O42  1  0.08064673  0.48055058  0.44985385  1
  O  O43  1  0.08056230  0.48145008  0.64927301  1
  O  O44  1  0.08134284  0.48135635  0.84870875  1
  O  O45  1  0.20116353  0.20324753  0.19256746  1
  O  O46  1  0.21000170  0.20639884  0.10748932  1
  O  O47  1  0.22609419  0.21669907  0.30711402  1
  O  O48  1  0.22091747  0.21540600  0.39224302  1
  O  O49  1  0.21409495  0.20837032  0.50677443  1
  O  O50  1  0.19892731  0.19962007  0.59226523  1
  O  O51  1  0.22017668  0.21958662  0.70667410  1
  O  O52  1  0.21480155  0.20751000  0.79241305  1
  O  O53  1  0.20929379  0.21086845  0.90586982  1
  O  O54  1  0.20740990  0.21284432  0.99394519  1
  O  O55  1  0.28750113  0.71123417  0.19238889  1
  O  O56  1  0.29496692  0.71091254  0.30718563  1
  O  O57  1  0.28711329  0.71925467  0.10783220  1
  O  O58  1  0.29816878  0.70274887  0.39182419  1
  O  O59  1  0.28612661  0.71112213  0.59178145  1
  O  O60  1  0.28201559  0.72196680  0.50708631  1
  O  O61  1  0.29086913  0.71096135  0.70702970  1
  O  O62  1  0.28591543  0.70992055  0.90657185  1
  O  O63  1  0.30442327  0.69824892  0.79169254  1
  O  O64  1  0.28206403  0.71246151  0.99382937  1
  O  O65  1  0.41779867  0.98059270  0.05077983  1
  O  O66  1  0.41993887  0.98016005  0.25026119  1
  O  O67  1  0.41861060  0.97823354  0.64979387  1
  O  O68  1  0.41997283  0.97805933  0.44976789  1
  O  O69  1  0.41779480  0.97653000  0.84959877  1
  O  O70  1  0.58131169  0.01901604  0.34981368  1
  O  O71  1  0.58227662  0.02167996  0.15026045  1
  O  O72  1  0.58167433  0.01979430  0.54971331  1
  O  O73  1  0.58052354  0.01817504  0.74935413  1
  O  O74  1  0.57633525  0.01395166  0.95034439  1
  O  O75  1  0.71361839  0.28154711  0.01022285  1
  O  O76  1  0.71805116  0.28431637  0.09104461  1
  O  O77  1  0.71893661  0.28611983  0.29202548  1
  O  O78  1  0.71072326  0.28750366  0.21040714  1
  O  O79  1  0.70981019  0.28603053  0.60998657  1
  O  O80  1  0.71883131  0.28263501  0.40922953  1
  O  O81  1  0.72138362  0.27752550  0.49053448  1
  O  O82  1  0.71707828  0.27798658  0.89011793  1
  O  O83  1  0.71291358  0.28307210  0.69163403  1
  O  O84  1  0.71418160  0.28467397  0.80866206  1
  O  O85  1  0.77865218  0.77820099  0.01008167  1
  O  O86  1  0.78944060  0.78537505  0.09249105  1
  O  O87  1  0.79212719  0.79065853  0.20847141  1
  O  O88  1  0.79078438  0.78158071  0.40972723  1
  O  O89  1  0.78876592  0.78776159  0.60819556  1
  O  O90  1  0.78722407  0.78069624  0.29080249  1
  O  O91  1  0.78391858  0.77966216  0.49201446  1
  O  O92  1  0.78000616  0.78277000  0.69052727  1
  O  O93  1  0.79199912  0.78436688  0.80947137  1
  O  O94  1  0.78090249  0.77784781  0.89033975  1
  O  O95  1  0.92829601  0.51643743  0.15076729  1
  O  O96  1  0.92369429  0.51449948  0.35058496  1
  O  O97  1  0.93037930  0.51502018  0.55016803  1
  O  O98  1  0.92744041  0.51537664  0.75008998  1
  O  O99  1  0.92758759  0.51519505  0.94990440  1
