# generated using pymatgen
data_MoCl4
_symmetry_space_group_name_H-M   'P 1'
_cell_length_a   6.39706315
_cell_length_b   12.85011966
_cell_length_c   11.97013198
_cell_angle_alpha   90.22160882
_cell_angle_beta   89.55483925
_cell_angle_gamma   119.85596210
_symmetry_Int_Tables_number   1
_chemical_formula_structural   MoCl4
_chemical_formula_sum   'Mo6 Cl24'
_cell_volume   853.36099429
_cell_formula_units_Z   6
loop_
 _symmetry_equiv_pos_site_id
 _symmetry_equiv_pos_as_xyz
  1  'x, y, z'
loop_
 _atom_site_type_symbol
 _atom_site_label
 _atom_site_symmetry_multiplicity
 _atom_site_fract_x
 _atom_site_fract_y
 _atom_site_fract_z
 _atom_site_occupancy
  Mo  Mo0  1  0.00365321  0.50365321  0.75000000  1
  Mo  Mo1  1  0.34554391  0.84554391  0.75000000  1
  Mo  Mo2  1  0.99634679  0.99634679  0.25000000  1
  Mo  Mo3  1  0.65445609  0.65445609  0.25000000  1
  Mo  Mo4  1  0.32837808  0.32837808  0.75000000  1
  Mo  Mo5  1  0.67162192  0.17162192  0.25000000  1
  Cl  Cl6  1  0.02516399  0.81920908  0.64562546  1
  Cl  Cl7  1  0.33111573  0.97997482  0.86815880  1
  Cl  Cl8  1  0.02787176  0.66412649  0.86611667  1
  Cl  Cl9  1  0.30038122  0.66412649  0.63388333  1
  Cl  Cl10  1  0.03338092  0.35088338  0.63468175  1
  Cl  Cl11  1  0.38674582  0.68079092  0.14562546  1
  Cl  Cl12  1  0.62883392  0.97997482  0.63184120  1
  Cl  Cl13  1  0.31513642  0.49175157  0.85894557  1
  Cl  Cl14  1  0.37116608  0.52002518  0.36815880  1
  Cl  Cl15  1  0.61325418  0.81920908  0.85437454  1
  Cl  Cl16  1  0.69961878  0.83587351  0.36611667  1
  Cl  Cl17  1  0.04840576  0.19178602  0.86844020  1
  Cl  Cl18  1  0.97212824  0.83587351  0.13388333  1
  Cl  Cl19  1  0.33516627  0.19178602  0.63155980  1
  Cl  Cl20  1  0.33161416  0.14911662  0.13468175  1
  Cl  Cl21  1  0.66888427  0.52002518  0.13184120  1
  Cl  Cl22  1  0.66836673  0.49175157  0.64105443  1
  Cl  Cl23  1  0.33163327  0.00824843  0.35894557  1
  Cl  Cl24  1  0.66838584  0.35088338  0.86531825  1
  Cl  Cl25  1  0.97483601  0.68079092  0.35437454  1
  Cl  Cl26  1  0.66483373  0.30821398  0.36844020  1
  Cl  Cl27  1  0.95159424  0.30821398  0.13155980  1
  Cl  Cl28  1  0.68486358  0.00824843  0.14105443  1
  Cl  Cl29  1  0.96661908  0.14911662  0.36531825  1
