# generated using pymatgen
data_Na3Sr14Nd3Ti20O60
_symmetry_space_group_name_H-M   'P 1'
_cell_length_a   5.53353728
_cell_length_b   5.53353708
_cell_length_c   55.57971284
_cell_angle_alpha   119.83743584
_cell_angle_beta   119.83743462
_cell_angle_gamma   90.02448887
_symmetry_Int_Tables_number   1
_chemical_formula_structural   Na3Sr14Nd3Ti20O60
_chemical_formula_sum   'Na3 Sr14 Nd3 Ti20 O60'
_cell_volume   1209.02765262
_cell_formula_units_Z   1
loop_
 _symmetry_equiv_pos_site_id
 _symmetry_equiv_pos_as_xyz
  1  'x, y, z'
loop_
 _atom_site_type_symbol
 _atom_site_label
 _atom_site_symmetry_multiplicity
 _atom_site_fract_x
 _atom_site_fract_y
 _atom_site_fract_z
 _atom_site_occupancy
  Na  Na0  1  0.74155836  0.24155836  0.94831057  1
  Na  Na1  1  0.75148413  0.25148413  0.85028692  1
  Na  Na2  1  0.76488223  0.26488223  0.75299258  1
  Sr  Sr3  1  0.25898149  0.75898149  0.75179891  1
  Sr  Sr4  1  0.25818840  0.75818840  0.65163909  1
  Sr  Sr5  1  0.24960800  0.74960800  0.54992202  1
  Sr  Sr6  1  0.24892912  0.74892912  0.44978393  1
  Sr  Sr7  1  0.74715325  0.24715325  0.54943132  1
  Sr  Sr8  1  0.24830337  0.74830337  0.34965810  1
  Sr  Sr9  1  0.74929413  0.24929413  0.44985899  1
  Sr  Sr10  1  0.24732271  0.74732271  0.24946363  1
  Sr  Sr11  1  0.74828575  0.24828575  0.34965660  1
  Sr  Sr12  1  0.24567615  0.74567615  0.14913405  1
  Sr  Sr13  1  0.74738698  0.24738698  0.24947817  1
  Sr  Sr14  1  0.24268837  0.74268837  0.04853598  1
  Sr  Sr15  1  0.74534013  0.24534013  0.14906821  1
  Sr  Sr16  1  0.74378051  0.24378051  0.04875476  1
  Nd  Nd17  1  0.24631031  0.74631031  0.94925239  1
  Nd  Nd18  1  0.24304047  0.74304047  0.84860989  1
  Nd  Nd19  1  0.76035390  0.26035390  0.65208369  1
  Ti  Ti20  1  0.00348659  0.00349371  0.80070146  1
  Ti  Ti21  1  0.49476677  0.49472326  0.89894282  1
  Ti  Ti22  1  0.01250908  0.01249668  0.70250610  1
  Ti  Ti23  1  0.50349371  0.50348659  0.80070146  1
  Ti  Ti24  1  0.99472326  0.99476677  0.89894282  1
  Ti  Ti25  1  0.00250667  0.00251040  0.60050406  1
  Ti  Ti26  1  0.51249668  0.51250908  0.70250610  1
  Ti  Ti27  1  0.99812298  0.99812122  0.49962426  1
  Ti  Ti28  1  0.50251040  0.50250667  0.60050406  1
  Ti  Ti29  1  0.99624729  0.99624653  0.39924804  1
  Ti  Ti30  1  0.49812122  0.49812298  0.49962426  1
  Ti  Ti31  1  0.99538998  0.99539603  0.29907656  1
  Ti  Ti32  1  0.49624653  0.49624729  0.39924804  1
  Ti  Ti33  1  0.99388236  0.99388135  0.19877669  1
  Ti  Ti34  1  0.49539603  0.49538998  0.29907656  1
  Ti  Ti35  1  0.99122960  0.99123237  0.09824506  1
  Ti  Ti36  1  0.49388135  0.49388236  0.19877669  1
  Ti  Ti37  1  0.98734531  0.98736350  0.99746166  1
  Ti  Ti38  1  0.49123237  0.49122960  0.09824506  1
  Ti  Ti39  1  0.48736350  0.48734531  0.99746166  1
  O  O40  1  0.24677818  0.24674997  0.94935761  1
  O  O41  1  0.20733605  0.31274805  0.90201289  1
  O  O42  1  0.29289269  0.79289269  0.89796229  1
  O  O43  1  0.25340333  0.25344967  0.85068561  1
  O  O44  1  0.74674997  0.74677818  0.94935761  1
  O  O45  1  0.22568133  0.29858251  0.80242689  1
  O  O46  1  0.68667575  0.18667575  0.89795788  1
  O  O47  1  0.28546989  0.78546989  0.80145228  1
  O  O48  1  0.81274805  0.70733605  0.90201289  1
  O  O49  1  0.25160422  0.25160957  0.75032069  1
  O  O50  1  0.75344967  0.75340333  0.85068561  1
  O  O51  1  0.20690925  0.27366205  0.69805438  1
  O  O52  1  0.72903751  0.22903751  0.80144635  1
  O  O53  1  0.26403543  0.76403543  0.69896238  1
  O  O54  1  0.79858251  0.72568133  0.80242689  1
  O  O55  1  0.25092235  0.25089820  0.65017687  1
  O  O56  1  0.75160957  0.75160422  0.75032069  1
  O  O57  1  0.21947981  0.28783673  0.60073041  1
  O  O58  1  0.72559922  0.22559922  0.69895809  1
  O  O59  1  0.30496658  0.80496658  0.60259580  1
  O  O60  1  0.77366205  0.70690925  0.69805438  1
  O  O61  1  0.25583947  0.25584316  0.55116737  1
  O  O62  1  0.75089820  0.75092235  0.65017687  1
  O  O63  1  0.23259584  0.27422525  0.50068191  1
  O  O64  1  0.72101351  0.22101351  0.60259753  1
  O  O65  1  0.27492364  0.77492364  0.50079850  1
  O  O66  1  0.78783673  0.71947981  0.60073041  1
  O  O67  1  0.25388801  0.25389689  0.45077888  1
  O  O68  1  0.75584316  0.75583947  0.55116737  1
  O  O69  1  0.23173001  0.27324874  0.40049789  1
  O  O70  1  0.73305146  0.23305146  0.50079689  1
  O  O71  1  0.27332253  0.77332253  0.40051892  1
  O  O72  1  0.77422525  0.73259584  0.50068191  1
  O  O73  1  0.25250041  0.25251042  0.35050158  1
  O  O74  1  0.75389689  0.75388801  0.45077888  1
  O  O75  1  0.23077459  0.27246866  0.30032456  1
  O  O76  1  0.73185220  0.23185220  0.40051636  1
  O  O77  1  0.27242802  0.77242802  0.30031953  1
  O  O78  1  0.77324874  0.73173001  0.40049789  1
  O  O79  1  0.25133575  0.25134151  0.25026813  1
  O  O80  1  0.75251042  0.75250041  0.35050158  1
  O  O81  1  0.22972907  0.27149672  0.20012232  1
  O  O82  1  0.73075391  0.23075391  0.30031772  1
  O  O83  1  0.27133681  0.77133681  0.20009365  1
  O  O84  1  0.77246866  0.73077459  0.30032456  1
  O  O85  1  0.24954944  0.24955458  0.14991062  1
  O  O86  1  0.75134151  0.75133575  0.25026813  1
  O  O87  1  0.22749238  0.26987909  0.09973747  1
  O  O88  1  0.72958976  0.22958976  0.20009168  1
  O  O89  1  0.26836055  0.76836055  0.09940290  1
  O  O90  1  0.77149672  0.72972907  0.20012232  1
  O  O91  1  0.24633447  0.24633600  0.04926845  1
  O  O92  1  0.74955458  0.74954944  0.14991062  1
  O  O93  1  0.21837910  0.27629603  0.99947081  1
  O  O94  1  0.72565703  0.22565703  0.09940066  1
  O  O95  1  0.27855235  0.77855235  0.99746228  1
  O  O96  1  0.76987909  0.72749238  0.09973747  1
  O  O97  1  0.74633600  0.74633447  0.04926845  1
  O  O98  1  0.69606484  0.19606484  0.99746449  1
  O  O99  1  0.77629603  0.71837910  0.99947081  1
