# generated using pymatgen
data_Sr2Cu2BiO7
_symmetry_space_group_name_H-M   'P 1'
_cell_length_a   5.12826287
_cell_length_b   5.17464719
_cell_length_c   14.23755495
_cell_angle_alpha   100.49513329
_cell_angle_beta   100.22689889
_cell_angle_gamma   89.95877797
_symmetry_Int_Tables_number   1
_chemical_formula_structural   Sr2Cu2BiO7
_chemical_formula_sum   'Sr4 Cu4 Bi2 O14'
_cell_volume   365.40297129
_cell_formula_units_Z   2
loop_
 _symmetry_equiv_pos_site_id
 _symmetry_equiv_pos_as_xyz
  1  'x, y, z'
loop_
 _atom_site_type_symbol
 _atom_site_label
 _atom_site_symmetry_multiplicity
 _atom_site_fract_x
 _atom_site_fract_y
 _atom_site_fract_z
 _atom_site_occupancy
  Sr  Sr0  1  0.33601073  0.35887763  0.71828774  1
  Sr  Sr1  1  0.62073964  0.64080152  0.28183409  1
  Sr  Sr2  1  0.83611477  0.85894814  0.71827314  1
  Sr  Sr3  1  0.12101335  0.14045223  0.28185281  1
  Cu  Cu4  1  0.91764351  0.43964654  0.87885517  1
  Cu  Cu5  1  0.04426357  0.56011628  0.12135320  1
  Cu  Cu6  1  0.41670207  0.93868920  0.87896432  1
  Cu  Cu7  1  0.54409672  0.06125984  0.12165261  1
  Bi  Bi8  1  0.25159452  0.73820443  0.50067736  1
  Bi  Bi9  1  0.75128293  0.26167859  0.50047818  1
  O  O10  1  0.17892611  0.31815832  0.50017970  1
  O  O11  1  0.67900162  0.68102466  0.50020236  1
  O  O12  1  0.15330119  0.17580585  0.85058390  1
  O  O13  1  0.30881981  0.82475912  0.15016651  1
  O  O14  1  0.65406117  0.17538834  0.85068272  1
  O  O15  1  0.80828451  0.82546477  0.15020818  1
  O  O16  1  0.65215958  0.67408027  0.84948523  1
  O  O17  1  0.80763745  0.32536663  0.15133383  1
  O  O18  1  0.15244420  0.67534126  0.84952736  1
  O  O19  1  0.30881098  0.32426751  0.15128745  1
  O  O20  1  0.30411358  0.83548304  0.65924085  1
  O  O21  1  0.64736580  0.16402264  0.34136277  1
  O  O22  1  0.80402940  0.32275997  0.65906466  1
  O  O23  1  0.14728580  0.67664523  0.34135186  1
