# generated using pymatgen
data_Ca4La4Mn7NiO24
_symmetry_space_group_name_H-M   'P 1'
_cell_length_a   5.47686057
_cell_length_b   10.94957468
_cell_length_c   9.45473619
_cell_angle_alpha   54.68526911
_cell_angle_beta   89.95949170
_cell_angle_gamma   90.02744290
_symmetry_Int_Tables_number   1
_chemical_formula_structural   Ca4La4Mn7NiO24
_chemical_formula_sum   'Ca4 La4 Mn7 Ni1 O24'
_cell_volume   462.66035416
_cell_formula_units_Z   1
loop_
 _symmetry_equiv_pos_site_id
 _symmetry_equiv_pos_as_xyz
  1  'x, y, z'
loop_
 _atom_site_type_symbol
 _atom_site_label
 _atom_site_symmetry_multiplicity
 _atom_site_fract_x
 _atom_site_fract_y
 _atom_site_fract_z
 _atom_site_occupancy
  Ca  Ca0  1  0.46825308  0.86615130  0.75358076  1
  Ca  Ca1  1  0.53323339  0.63266495  0.24663389  1
  Ca  Ca2  1  0.96941526  0.12832570  0.75205853  1
  Ca  Ca3  1  0.96817926  0.63002023  0.75113926  1
  La  La4  1  0.02009520  0.37595415  0.24705779  1
  La  La5  1  0.02248239  0.87281467  0.24785486  1
  La  La6  1  0.47777191  0.37099920  0.75261339  1
  La  La7  1  0.52242938  0.12762403  0.24867941  1
  Mn  Mn8  1  0.00104821  0.50031184  0.50152355  1
  Mn  Mn9  1  -0.00002481  0.99594595  0.50700051  1
  Mn  Mn10  1  0.49990008  0.24802165  0.50403679  1
  Mn  Mn11  1  0.50014603  0.74827803  0.50366195  1
  Mn  Mn12  1  0.49931375  -0.00058943  0.99202791  1
  Mn  Mn13  1  0.50090945  0.50359235  0.00094760  1
  Mn  Mn14  1  0.00122617  0.75223323  0.99539677  1
  Ni  Ni15  1  0.00085220  0.25191415  0.99647727  1
  O  O16  1  0.01186498  0.41867535  0.74119050  1
  O  O17  1  0.02176383  0.91529734  0.75200631  1
  O  O18  1  0.23424426  0.12508849  0.96140906  1
  O  O19  1  0.21548473  0.63119739  0.95917906  1
  O  O20  1  0.22376840  0.33899671  0.54397721  1
  O  O21  1  0.22141444  0.84241062  0.53702085  1
  O  O22  1  0.28116330  0.35003304  0.03810145  1
  O  O23  1  0.27890041  0.63101461  0.45794579  1
  O  O24  1  0.27250615  0.13682878  0.45728678  1
  O  O25  1  0.27636498  0.83666703  0.04431239  1
  O  O26  1  0.49077725  0.41432609  0.25067249  1
  O  O27  1  0.49395344  0.90869841  0.24787230  1
  O  O28  1  0.52013689  0.08240463  0.75034738  1
  O  O29  1  0.51445638  0.58933572  0.75169633  1
  O  O30  1  0.71909551  0.14764032  0.96538687  1
  O  O31  1  0.72809443  0.36501314  0.54105592  1
  O  O32  1  0.72462894  0.66180936  0.95790361  1
  O  O33  1  0.72120057  0.87079610  0.53783076  1
  O  O34  1  0.77069672  0.15810162  0.45715676  1
  O  O35  1  0.77447542  0.65503086  0.46191415  1
  O  O36  1  0.76181850  0.37122206  0.03834083  1
  O  O37  1  0.77883975  0.86548888  0.04012218  1
  O  O38  1  0.99443636  0.08801046  0.25856077  1
  O  O39  1  0.98468339  0.59165099  0.24802001  1
