# generated using pymatgen
data_Sr14Fe14O39
_symmetry_space_group_name_H-M   'P 1'
_cell_length_a   5.57343700
_cell_length_b   38.90547950
_cell_length_c   14.70648829
_cell_angle_alpha   19.07174600
_cell_angle_beta   55.28207064
_cell_angle_gamma   59.82543285
_symmetry_Int_Tables_number   1
_chemical_formula_structural   Sr14Fe14O39
_chemical_formula_sum   'Sr14 Fe14 O39'
_cell_volume   848.90133803
_cell_formula_units_Z   1
loop_
 _symmetry_equiv_pos_site_id
 _symmetry_equiv_pos_as_xyz
  1  'x, y, z'
loop_
 _atom_site_type_symbol
 _atom_site_label
 _atom_site_symmetry_multiplicity
 _atom_site_fract_x
 _atom_site_fract_y
 _atom_site_fract_z
 _atom_site_occupancy
  Sr  Sr0  1  0.24738246  0.11588693  0.23011077  1
  Sr  Sr1  1  0.25575096  0.25638148  0.22697070  1
  Sr  Sr2  1  0.25428594  0.39365495  0.24085050  1
  Sr  Sr3  1  0.77047475  0.03709610  0.73617003  1
  Sr  Sr4  1  0.73484575  0.18207225  0.74762417  1
  Sr  Sr5  1  0.24085680  0.53723195  0.25524483  1
  Sr  Sr6  1  0.73515880  0.31751339  0.76506954  1
  Sr  Sr7  1  0.25475648  0.66820249  0.27187386  1
  Sr  Sr8  1  0.75286916  0.46603033  0.74355163  1
  Sr  Sr9  1  0.25437875  0.82114555  0.24895562  1
  Sr  Sr10  1  0.24518512  0.95822693  0.27061332  1
  Sr  Sr11  1  0.77094038  0.61157481  0.72979884  1
  Sr  Sr12  1  0.74457913  0.74545193  0.76457398  1
  Sr  Sr13  1  0.74987164  0.89230029  0.75198508  1
  Fe  Fe14  1  0.98183330  0.99231326  0.01354452  1
  Fe  Fe15  1  0.50739672  0.07245641  0.49424313  1
  Fe  Fe16  1  0.00125298  0.13973764  0.00842156  1
  Fe  Fe17  1  0.00233321  0.42994274  0.99696583  1
  Fe  Fe18  1  0.51818795  0.22070729  0.48629157  1
  Fe  Fe19  1  0.99452041  0.28646337  0.99838506  1
  Fe  Fe20  1  0.52297919  0.35114555  0.51241128  1
  Fe  Fe21  1  0.50492036  0.49897257  0.50085343  1
  Fe  Fe22  1  0.97611132  0.58056192  0.97831505  1
  Fe  Fe23  1  0.98414472  0.85452583  0.01729738  1
  Fe  Fe24  1  0.50955411  0.64324936  0.49616132  1
  Fe  Fe25  1  0.99608662  0.71444721  0.00179225  1
  Fe  Fe26  1  0.48055694  0.78565549  0.50409328  1
  Fe  Fe27  1  0.52456237  0.93285509  0.47634905  1
  O  O28  1  0.24535208  0.03191596  0.26967286  1
  O  O29  1  0.24938521  0.18091416  0.24123540  1
  O  O30  1  0.71452914  0.02515970  0.29290370  1
  O  O31  1  0.75352499  0.10978076  0.24360589  1
  O  O32  1  0.26682735  0.03951111  0.74085840  1
  O  O33  1  0.22675112  0.30822785  0.28938253  1
  O  O34  1  0.75760598  0.18042139  0.24213761  1
  O  O35  1  0.71039136  0.23778763  0.28768861  1
  O  O36  1  0.23930559  0.16157809  0.78630911  1
  O  O37  1  0.75724327  0.10855130  0.74302910  1
  O  O38  1  0.25087516  0.26142845  0.71689637  1
  O  O39  1  0.74641433  0.32500949  0.24628476  1
  O  O40  1  0.24206812  0.33462880  0.70944236  1
  O  O41  1  0.72152260  0.40389013  0.23062385  1
  O  O42  1  0.75799279  0.24512885  0.75694124  1
  O  O43  1  0.75786485  0.46421066  0.24654994  1
  O  O44  1  0.26662192  0.60877147  0.23903910  1
  O  O45  1  0.24035996  0.39084222  0.75757009  1
  O  O46  1  0.25373424  0.46322185  0.75202411  1
  O  O47  1  0.78160503  0.52507288  0.26805547  1
  O  O48  1  0.74478976  0.39081960  0.75773539  1
  O  O49  1  0.25852592  0.75412216  0.23215899  1
  O  O50  1  0.75473130  0.60666297  0.24865108  1
  O  O51  1  0.25116217  0.53225907  0.75951489  1
  O  O52  1  0.26489570  0.60490749  0.75740007  1
  O  O53  1  0.75564038  0.67577898  0.25471185  1
  O  O54  1  0.75667195  0.53858547  0.74162040  1
  O  O55  1  0.25467255  0.90199846  0.22770920  1
  O  O56  1  0.78336907  0.75785769  0.21749033  1
  O  O57  1  0.24827742  0.67235556  0.76667958  1
  O  O58  1  0.23254364  0.75533884  0.74162684  1
  O  O59  1  0.73372189  0.81952242  0.25843181  1
  O  O60  1  0.73275176  0.68135369  0.74780574  1
  O  O61  1  0.25057047  0.82735007  0.74141552  1
  O  O62  1  0.73772566  0.89014241  0.25740021  1
  O  O63  1  0.79208286  0.98102032  0.20080972  1
  O  O64  1  0.72053823  0.82239264  0.76002010  1
  O  O65  1  0.25484161  0.96212418  0.74736965  1
  O  O66  1  0.78106124  0.96324013  0.73886957  1
