# generated using pymatgen
data_CaMg2H24(ClO2)6
_symmetry_space_group_name_H-M   'P 1'
_cell_length_a   8.37462798
_cell_length_b   8.37462798
_cell_length_c   8.37462780
_cell_angle_alpha   75.49029772
_cell_angle_beta   75.49029771
_cell_angle_gamma   75.49030060
_symmetry_Int_Tables_number   1
_chemical_formula_structural   CaMg2H24(ClO2)6
_chemical_formula_sum   'Ca1 Mg2 H24 Cl6 O12'
_cell_volume   539.31909944
_cell_formula_units_Z   1
loop_
 _symmetry_equiv_pos_site_id
 _symmetry_equiv_pos_as_xyz
  1  'x, y, z'
loop_
 _atom_site_type_symbol
 _atom_site_label
 _atom_site_symmetry_multiplicity
 _atom_site_fract_x
 _atom_site_fract_y
 _atom_site_fract_z
 _atom_site_occupancy
  Ca  Ca0  1  0.00000000  0.00000000  0.00000000  1
  Mg  Mg1  1  0.67733476  0.67733476  0.67733476  1
  Mg  Mg2  1  0.32266524  0.32266524  0.32266524  1
  H  H3  1  0.94113869  0.83623941  0.61074396  1
  H  H4  1  0.83623941  0.61074396  0.94113869  1
  H  H5  1  0.61074396  0.94113869  0.83623941  1
  H  H6  1  0.05886131  0.16376059  0.38925604  1
  H  H7  1  0.16376059  0.38925604  0.05886131  1
  H  H8  1  0.38925604  0.05886131  0.16376059  1
  H  H9  1  0.83829803  0.92117799  0.46543624  1
  H  H10  1  0.92117799  0.46543624  0.83829803  1
  H  H11  1  0.46543624  0.83829803  0.92117799  1
  H  H12  1  0.16170197  0.07882201  0.53456376  1
  H  H13  1  0.07882201  0.53456376  0.16170197  1
  H  H14  1  0.53456376  0.16170197  0.07882201  1
  H  H15  1  0.36279842  0.59390158  0.79080230  1
  H  H16  1  0.59390158  0.79080230  0.36279842  1
  H  H17  1  0.79080230  0.36279842  0.59390158  1
  H  H18  1  0.63720158  0.40609842  0.20919770  1
  H  H19  1  0.40609842  0.20919770  0.63720158  1
  H  H20  1  0.20919770  0.63720158  0.40609842  1
  H  H21  1  0.50156735  0.42508957  0.81868767  1
  H  H22  1  0.42508957  0.81868767  0.50156735  1
  H  H23  1  0.81868767  0.50156735  0.42508957  1
  H  H24  1  0.49843265  0.57491043  0.18131233  1
  H  H25  1  0.57491043  0.18131233  0.49843265  1
  H  H26  1  0.18131233  0.49843265  0.57491043  1
  Cl  Cl27  1  0.15504667  0.83689879  0.72435818  1
  Cl  Cl28  1  0.83689879  0.72435818  0.15504667  1
  Cl  Cl29  1  0.72435818  0.15504667  0.83689879  1
  Cl  Cl30  1  0.84495333  0.16310121  0.27564182  1
  Cl  Cl31  1  0.16310121  0.27564182  0.84495333  1
  Cl  Cl32  1  0.27564182  0.84495333  0.16310121  1
  O  O33  1  0.85830843  0.81957153  0.55389313  1
  O  O34  1  0.81957153  0.55389313  0.85830843  1
  O  O35  1  0.55389313  0.85830843  0.81957153  1
  O  O36  1  0.14169157  0.18042847  0.44610687  1
  O  O37  1  0.18042847  0.44610687  0.14169157  1
  O  O38  1  0.44610687  0.14169157  0.18042847  1
  O  O39  1  0.48164563  0.54802300  0.79586134  1
  O  O40  1  0.54802300  0.79586134  0.48164563  1
  O  O41  1  0.79586134  0.48164563  0.54802300  1
  O  O42  1  0.51835437  0.45197700  0.20413866  1
  O  O43  1  0.45197700  0.20413866  0.51835437  1
  O  O44  1  0.20413866  0.51835437  0.45197700  1
