# generated using pymatgen
data_Sc2Cu2O5
_symmetry_space_group_name_H-M   'P 1'
_cell_length_a   3.42003705
_cell_length_b   5.90888453
_cell_length_c   5.67923665
_cell_angle_alpha   73.05960926
_cell_angle_beta   89.99666168
_cell_angle_gamma   89.99647228
_symmetry_Int_Tables_number   1
_chemical_formula_structural   Sc2Cu2O5
_chemical_formula_sum   'Sc2 Cu2 O5'
_cell_volume   109.78941625
_cell_formula_units_Z   1
loop_
 _symmetry_equiv_pos_site_id
 _symmetry_equiv_pos_as_xyz
  1  'x, y, z'
loop_
 _atom_site_type_symbol
 _atom_site_label
 _atom_site_symmetry_multiplicity
 _atom_site_fract_x
 _atom_site_fract_y
 _atom_site_fract_z
 _atom_site_occupancy
  Sc  Sc0  1  0.00002398  0.53227247  0.48972470  1
  Sc  Sc1  1  0.50002186  0.48013967  0.00484206  1
  Cu  Cu2  1  0.00005671  0.99324890  0.00623095  1
  Cu  Cu3  1  0.50001596  0.99659746  0.48413201  1
  O  O4  1  0.49999358  0.66869737  0.62883965  1
  O  O5  1  0.00001423  0.66472017  0.09383610  1
  O  O6  1  0.50000001  0.33310852  0.39240338  1
  O  O7  1  0.00001533  0.31893028  0.87559522  1
  O  O8  1  -0.00009167  0.96008516  0.37514593  1
