# generated using pymatgen
data_Li3Al3P3H2O14F
_symmetry_space_group_name_H-M   'P 1'
_cell_length_a   5.08846309
_cell_length_b   15.72959843
_cell_length_c   7.46905004
_cell_angle_alpha   64.49170072
_cell_angle_beta   113.85587880
_cell_angle_gamma   98.09863249
_symmetry_Int_Tables_number   1
_chemical_formula_structural   Li3Al3P3H2O14F
_chemical_formula_sum   'Li6 Al6 P6 H4 O28 F2'
_cell_volume   493.04807032
_cell_formula_units_Z   2
loop_
 _symmetry_equiv_pos_site_id
 _symmetry_equiv_pos_as_xyz
  1  'x, y, z'
loop_
 _atom_site_type_symbol
 _atom_site_label
 _atom_site_symmetry_multiplicity
 _atom_site_fract_x
 _atom_site_fract_y
 _atom_site_fract_z
 _atom_site_occupancy
  Li  Li0  1  0.26320947  0.96783050  0.71311474  1
  Li  Li1  1  0.26134189  0.63573611  0.71588001  1
  Li  Li2  1  0.26010256  0.29806884  0.71124066  1
  Li  Li3  1  0.74411874  0.70807545  0.27148614  1
  Li  Li4  1  0.75174303  0.36772737  0.29234914  1
  Li  Li5  1  0.75652445  0.04177469  0.27041079  1
  Al  Al6  1  -0.00069180  0.83581030  0.49815844  1
  Al  Al7  1  0.00180151  0.50085858  0.50253862  1
  Al  Al8  1  0.01077652  0.16816980  0.49856558  1
  Al  Al9  1  0.99809337  0.66650513  0.00564958  1
  Al  Al10  1  0.00686949  0.33391701  -0.00000150  1
  Al  Al11  1  0.00479519  0.99953237  0.00424785  1
  P  P12  1  0.32666483  0.79434884  0.26433729  1
  P  P13  1  0.67672922  0.87084158  0.74099500  1
  P  P14  1  0.32745146  0.46208581  0.26410619  1
  P  P15  1  0.67613283  0.53935726  0.73820283  1
  P  P16  1  0.33939037  0.12618043  0.26705786  1
  P  P17  1  0.68514344  0.20380944  0.74193985  1
  H  H18  1  0.34770233  0.40603536  0.84437033  1
  H  H19  1  0.65942869  0.92918235  0.15459805  1
  H  H20  1  0.65555079  0.59536589  0.15876871  1
  H  H21  1  0.67056702  0.25978342  0.15766462  1
  O  O22  1  0.28183839  0.23168553  0.10876506  1
  O  O23  1  0.12368123  0.76451242  0.38973692  1
  O  O24  1  0.35898101  0.88567271  0.58229990  1
  O  O25  1  0.11619364  0.43259843  0.38181515  1
  O  O26  1  0.27143068  0.89996234  0.10302317  1
  O  O27  1  0.36071836  0.55587959  0.57607009  1
  O  O28  1  0.13948648  0.09559122  0.39547782  1
  O  O29  1  0.70382349  0.93920104  0.84701595  1
  O  O30  1  0.29761363  0.72855123  0.15256196  1
  O  O31  1  0.27269299  0.56778518  0.10259756  1
  O  O32  1  0.36696650  0.21863458  0.58324173  1
  O  O33  1  0.86188375  0.60623547  0.23039507  1
  O  O34  1  0.70128648  0.60470610  0.85075340  1
  O  O35  1  0.30333980  0.39611507  0.15336768  1
  O  O36  1  0.14196897  0.39361255  0.77412261  1
  O  O37  1  0.64470113  0.77904822  0.42006787  1
  O  O38  1  0.87394196  0.27256920  0.22784814  1
  O  O39  1  0.70917505  0.27192034  0.84768017  1
  O  O40  1  0.30828189  0.06036656  0.15495276  1
  O  O41  1  0.88540192  0.90053173  0.62025327  1
  O  O42  1  0.64253532  0.44574258  0.42629810  1
  O  O43  1  0.86561985  0.93967871  0.22761616  1
  O  O44  1  0.89078392  0.56831385  0.62398769  1
  O  O45  1  0.75186697  0.10084643  0.90600997  1
  O  O46  1  0.65916068  0.11098540  0.42060141  1
  O  O47  1  0.88962845  0.23382590  0.61753514  1
  O  O48  1  0.74004718  0.76727754  0.90460088  1
  O  O49  1  0.72812332  0.43353267  0.89761099  1
  F  F50  1  0.10791123  0.72660226  0.76615890  1
  F  F51  1  0.11947034  0.05968564  0.76785366  1
