# generated using pymatgen
data_Sr9NdFe5(MoO6)5
_symmetry_space_group_name_H-M   'P 1'
_cell_length_a   5.63749514
_cell_length_b   28.26218692
_cell_length_c   9.79783581
_cell_angle_alpha   30.13916345
_cell_angle_beta   106.68709395
_cell_angle_gamma   89.99323943
_symmetry_Int_Tables_number   1
_chemical_formula_structural   Sr9NdFe5(MoO6)5
_chemical_formula_sum   'Sr9 Nd1 Fe5 Mo5 O30'
_cell_volume   642.87935332
_cell_formula_units_Z   1
loop_
 _symmetry_equiv_pos_site_id
 _symmetry_equiv_pos_as_xyz
  1  'x, y, z'
loop_
 _atom_site_type_symbol
 _atom_site_label
 _atom_site_symmetry_multiplicity
 _atom_site_fract_x
 _atom_site_fract_y
 _atom_site_fract_z
 _atom_site_occupancy
  Sr  Sr0  1  0.25073891  0.14592471  0.49980199  1
  Sr  Sr1  1  0.25125555  0.34981948  0.50312087  1
  Sr  Sr2  1  0.24818573  0.55252742  0.49292678  1
  Sr  Sr3  1  0.24100102  0.75326228  0.48419753  1
  Sr  Sr4  1  0.26251687  0.94860234  0.52117141  1
  Sr  Sr5  1  0.75180166  0.04672971  0.51046569  1
  Sr  Sr6  1  0.75428494  0.24888576  0.50456819  1
  Sr  Sr7  1  0.74774096  0.45161119  0.49293744  1
  Sr  Sr8  1  0.75396471  0.84394159  0.50902659  1
  Nd  Nd9  1  0.74201526  0.66625772  0.47186585  1
  Fe  Fe10  1  0.00429825  0.19760172  0.00577005  1
  Fe  Fe11  1  0.99733337  0.40076805  0.00008056  1
  Fe  Fe12  1  0.99909565  0.60215970  0.99435992  1
  Fe  Fe13  1  0.00096500  0.79981744  0.00252528  1
  Fe  Fe14  1  0.49783420  0.90094366  0.99570046  1
  Mo  Mo15  1  0.00442668  0.99777444  0.00671595  1
  Mo  Mo16  1  0.50164241  0.10066985  0.00094576  1
  Mo  Mo17  1  0.49404928  0.30365442  0.98860502  1
  Mo  Mo18  1  0.50057249  0.49901555  0.00078623  1
  Mo  Mo19  1  0.50327108  0.69698583  0.01086546  1
  O  O20  1  0.24298950  0.05105601  0.49707357  1
  O  O21  1  0.25692631  0.24679301  0.51119152  1
  O  O22  1  0.24380189  0.45129216  0.49131983  1
  O  O23  1  0.24974073  0.64859367  0.50223636  1
  O  O24  1  0.26695738  0.84350375  0.52741406  1
  O  O25  1  0.21130998  0.14332784  0.99574933  1
  O  O26  1  0.22113256  0.34585132  0.99044707  1
  O  O27  1  0.19162797  0.54458994  0.98172109  1
  O  O28  1  0.20546960  0.74083610  0.00190056  1
  O  O29  1  0.21829006  0.93991826  0.01107742  1
  O  O30  1  0.29147149  0.04279027  0.99747001  1
  O  O31  1  0.28021014  0.24569788  0.99310906  1
  O  O32  1  0.30605545  0.43982651  0.00829870  1
  O  O33  1  0.29766655  0.83537642  0.01876165  1
  O  O34  1  0.29250758  0.64173077  0.99904282  1
  O  O35  1  0.74690129  0.15262588  0.49142055  1
  O  O36  1  0.74549228  0.34924434  0.49958299  1
  O  O37  1  0.75123247  0.55300436  0.49007439  1
  O  O38  1  0.75005875  0.74362597  0.50518381  1
  O  O39  1  0.74000249  0.95468754  0.48348530  1
  O  O40  1  0.70670416  0.15861887  0.99797235  1
  O  O41  1  0.71139708  0.36150406  0.99088283  1
  O  O42  1  0.69618491  0.55718710  0.99223772  1
  O  O43  1  0.71396498  0.75075797  0.03191475  1
  O  O44  1  0.72057256  0.95388695  0.01352261  1
  O  O45  1  0.79334954  0.05793697  0.00194817  1
  O  O46  1  0.77023308  0.26243882  0.98924239  1
  O  O47  1  0.79572546  0.46583868  0.97963040  1
  O  O48  1  0.79120030  0.65627655  0.00464625  1
  O  O49  1  0.78382943  0.85422917  0.00500539  1
