# generated using pymatgen
data_Na3Sr4La3Ti10O30
_symmetry_space_group_name_H-M   'P 1'
_cell_length_a   5.54360780
_cell_length_b   27.71979130
_cell_length_c   7.87340275
_cell_angle_alpha   44.76076715
_cell_angle_beta   135.19180740
_cell_angle_gamma   120.23723372
_symmetry_Int_Tables_number   1
_chemical_formula_structural   Na3Sr4La3Ti10O30
_chemical_formula_sum   'Na3 Sr4 La3 Ti10 O30'
_cell_volume   600.39241528
_cell_formula_units_Z   1
loop_
 _symmetry_equiv_pos_site_id
 _symmetry_equiv_pos_as_xyz
  1  'x, y, z'
loop_
 _atom_site_type_symbol
 _atom_site_label
 _atom_site_symmetry_multiplicity
 _atom_site_fract_x
 _atom_site_fract_y
 _atom_site_fract_z
 _atom_site_occupancy
  Na  Na0  1  0.50826893  0.69988419  0.25730795  1
  Na  Na1  1  0.50656402  0.50095728  0.25073609  1
  Na  Na2  1  0.50167536  0.30150775  0.24583957  1
  Sr  Sr3  1  0.50069554  0.89946766  0.75067338  1
  Sr  Sr4  1  0.49944830  0.90106990  0.24689889  1
  Sr  Sr5  1  0.49647128  0.10267912  0.73936005  1
  Sr  Sr6  1  0.49644939  0.10110041  0.24359461  1
  La  La7  1  0.50985004  0.70033954  0.75838437  1
  La  La8  1  0.50692351  0.50146101  0.75004098  1
  La  La9  1  0.50094207  0.30272883  0.74169946  1
  Ti  Ti10  1  0.00791613  0.79951770  0.50623938  1
  Ti  Ti11  1  0.01229961  0.60079258  0.50744435  1
  Ti  Ti12  1  0.00528152  0.79893556  0.00720350  1
  Ti  Ti13  1  0.00517930  0.40233791  0.49581761  1
  Ti  Ti14  1  0.01131657  0.60028184  0.00783885  1
  Ti  Ti15  1  0.00767933  0.40191739  0.99745566  1
  Ti  Ti16  1  0.00088516  0.20372275  0.98680001  1
  Ti  Ti17  1  0.99715051  0.00171459  0.99245478  1
  Ti  Ti18  1  0.99244460  0.20381973  0.48253029  1
  Ti  Ti19  1  0.99611311  0.00151545  0.49226808  1
  O  O20  1  0.99569545  0.99965987  0.74936609  1
  O  O21  1  0.04416328  0.89851153  0.77494731  1
  O  O22  1  0.06808227  0.69834255  0.78207730  1
  O  O23  1  0.00483475  0.79753034  0.25796579  1
  O  O24  1  0.49818673  0.99087791  0.27200582  1
  O  O25  1  0.49484282  0.80930216  0.71963843  1
  O  O26  1  0.07697833  0.49972263  0.78157150  1
  O  O27  1  0.00315451  0.59854805  0.25364351  1
  O  O28  1  0.49395800  0.61529094  0.71772835  1
  O  O29  1  0.49461114  0.78571944  0.29058049  1
  O  O30  1  0.98358553  0.79718863  0.74826972  1
  O  O31  1  0.95028855  0.89863611  0.22839002  1
  O  O32  1  0.07090511  0.30097355  0.77865006  1
  O  O33  1  0.00414330  0.20186194  0.74831515  1
  O  O34  1  0.00633090  0.39983840  0.25258417  1
  O  O35  1  0.49334473  0.58378803  0.28720986  1
  O  O36  1  0.49614535  0.41621817  0.71634359  1
  O  O37  1  0.98291443  0.59871719  0.74279661  1
  O  O38  1  0.92139753  0.69849726  0.20768480  1
  O  O39  1  0.04539821  0.10059138  0.77008124  1
  O  O40  1  0.99162488  0.20193528  0.24207317  1
  O  O41  1  0.49611155  0.38463975  0.28698079  1
  O  O42  1  0.49789118  0.21386230  0.72586606  1
  O  O43  1  0.98730633  0.40000693  0.74266682  1
  O  O44  1  0.91416846  0.49957280  0.19966952  1
  O  O45  1  0.49771804  0.19006514  0.26977961  1
  O  O46  1  0.49788516  0.00891206  0.72924471  1
  O  O47  1  0.92351348  0.30099677  0.20429087  1
  O  O48  1  0.95140820  0.10061749  0.22354703  1
  O  O49  1  0.00121155  0.99987621  0.25148977  1
