# generated using pymatgen
data_Ca2B5H2ClO10
_symmetry_space_group_name_H-M   'P 1'
_cell_length_a   11.53456546
_cell_length_b   6.53458445
_cell_length_c   6.53458445
_cell_angle_alpha   121.75276926
_cell_angle_beta   90.03129192
_cell_angle_gamma   90.03129192
_symmetry_Int_Tables_number   1
_chemical_formula_structural   Ca2B5H2ClO10
_chemical_formula_sum   'Ca4 B10 H4 Cl2 O20'
_cell_volume   418.81552915
_cell_formula_units_Z   2
loop_
 _symmetry_equiv_pos_site_id
 _symmetry_equiv_pos_as_xyz
  1  'x, y, z'
loop_
 _atom_site_type_symbol
 _atom_site_label
 _atom_site_symmetry_multiplicity
 _atom_site_fract_x
 _atom_site_fract_y
 _atom_site_fract_z
 _atom_site_occupancy
  Ca  Ca0  1  0.49951753  0.74828846  0.25097154  1
  Ca  Ca1  1  0.99951753  0.25097154  0.74828846  1
  Ca  Ca2  1  0.77390256  0.37150193  0.31282211  1
  Ca  Ca3  1  0.27390256  0.31282211  0.37150193  1
  B  B4  1  0.76056555  0.45044341  0.84150963  1
  B  B5  1  0.26056555  0.84150963  0.45044341  1
  B  B6  1  0.77171950  0.85507272  0.91083507  1
  B  B7  1  0.27171950  0.91083507  0.85507272  1
  B  B8  1  0.72519033  0.01411529  0.62687517  1
  B  B9  1  0.22519033  0.62687517  0.01411529  1
  B  B10  1  0.83606017  0.77883638  0.23754982  1
  B  B11  1  0.33606017  0.23754982  0.77883638  1
  B  B12  1  0.56012844  0.28400796  0.79825261  1
  B  B13  1  0.06012844  0.79825261  0.28400796  1
  H  H14  1  0.53530632  0.75475007  0.80421866  1
  H  H15  1  0.03530632  0.80421866  0.75475007  1
  H  H16  1  0.54020562  0.02653587  0.01586593  1
  H  H17  1  0.04020562  0.01586593  0.02653587  1
  Cl  Cl18  1  0.52429142  0.40921249  0.39225860  1
  Cl  Cl19  1  0.02429142  0.39225860  0.40921249  1
  O  O20  1  0.76675310  0.61291526  0.74300327  1
  O  O21  1  0.26675310  0.74300327  0.61291526  1
  O  O22  1  0.84573078  0.52479741  0.03785079  1
  O  O23  1  0.34573078  0.03785079  0.52479741  1
  O  O24  1  0.64136497  0.46161033  0.93483102  1
  O  O25  1  0.14136497  0.93483102  0.46161033  1
  O  O26  1  0.78951650  0.21485091  0.63947656  1
  O  O27  1  0.28951650  0.63947656  0.21485091  1
  O  O28  1  0.79505098  0.93748493  0.14895531  1
  O  O29  1  0.29505098  0.14895531  0.93748493  1
  O  O30  1  0.94907994  0.86993601  0.35739749  1
  O  O31  1  0.44907994  0.35739749  0.86993601  1
  O  O32  1  0.75288127  0.78511650  0.41329565  1
  O  O33  1  0.25288127  0.41329565  0.78511650  1
  O  O34  1  0.74740681  0.03008373  0.86256159  1
  O  O35  1  0.24740681  0.86256159  0.03008373  1
  O  O36  1  0.59493967  0.05543062  0.62194492  1
  O  O37  1  0.09493967  0.62194492  0.05543062  1
  O  O38  1  0.50909853  0.86787199  0.96802197  1
  O  O39  1  0.00909853  0.96802197  0.86787199  1
