# generated using pymatgen
data_NaP(HO)6
_symmetry_space_group_name_H-M   'P 1'
_cell_length_a   7.25128360
_cell_length_b   11.40523371
_cell_length_c   6.69630570
_cell_angle_alpha   90.00000000
_cell_angle_beta   90.00000000
_cell_angle_gamma   90.00000000
_symmetry_Int_Tables_number   1
_chemical_formula_structural   NaP(HO)6
_chemical_formula_sum   'Na4 P4 H24 O24'
_cell_volume   553.80178569
_cell_formula_units_Z   4
loop_
 _symmetry_equiv_pos_site_id
 _symmetry_equiv_pos_as_xyz
  1  'x, y, z'
loop_
 _atom_site_type_symbol
 _atom_site_label
 _atom_site_symmetry_multiplicity
 _atom_site_fract_x
 _atom_site_fract_y
 _atom_site_fract_z
 _atom_site_occupancy
  Na  Na0  1  0.61296928  0.92099979  0.72002356  1
  Na  Na1  1  0.88703072  0.07900021  0.22002356  1
  Na  Na2  1  0.11296928  0.57900021  0.27997644  1
  Na  Na3  1  0.38703072  0.42099979  0.77997644  1
  P  P4  1  0.28134760  0.15073502  0.54477204  1
  P  P5  1  0.21865240  0.84926498  0.04477204  1
  P  P6  1  0.78134760  0.34926498  0.45522796  1
  P  P7  1  0.71865240  0.65073502  0.95522796  1
  H  H8  1  0.59457350  0.15471833  0.51631940  1
  H  H9  1  0.90542650  0.84528167  0.01631940  1
  H  H10  1  0.09457350  0.34528167  0.48368060  1
  H  H11  1  0.40542650  0.65471833  0.98368060  1
  H  H12  1  0.26665832  0.03124899  0.27960822  1
  H  H13  1  0.23334168  0.96875101  0.77960822  1
  H  H14  1  0.76665832  0.46875101  0.72039178  1
  H  H15  1  0.73334168  0.53124899  0.22039178  1
  H  H16  1  0.01742213  0.18087537  0.85100084  1
  H  H17  1  0.48257787  0.81912463  0.35100084  1
  H  H18  1  0.51742213  0.31912463  0.14899916  1
  H  H19  1  0.98257787  0.68087537  0.64899916  1
  H  H20  1  0.84327008  0.25803660  0.88775174  1
  H  H21  1  0.65672992  0.74196340  0.38775174  1
  H  H22  1  0.34327008  0.24196340  0.11224826  1
  H  H23  1  0.15672992  0.75803660  0.61224826  1
  H  H24  1  0.97964571  0.00359637  0.59662471  1
  H  H25  1  0.52035429  0.99640363  0.09662471  1
  H  H26  1  0.47964571  0.49640363  0.40337529  1
  H  H27  1  0.02035429  0.50359637  0.90337529  1
  H  H28  1  0.93645390  0.87873589  0.51113907  1
  H  H29  1  0.56354610  0.12126411  0.01113907  1
  H  H30  1  0.43645390  0.62126411  0.48886093  1
  H  H31  1  0.06354610  0.37873589  0.98886093  1
  O  O32  1  0.26531258  0.28304139  0.55469850  1
  O  O33  1  0.23468742  0.71695861  0.05469850  1
  O  O34  1  0.76531258  0.21695861  0.44530150  1
  O  O35  1  0.73468742  0.78304139  0.94530150  1
  O  O36  1  0.16443229  0.08494177  0.69973976  1
  O  O37  1  0.33556771  0.91505823  0.19973976  1
  O  O38  1  0.66443229  0.41505823  0.30026024  1
  O  O39  1  0.83556771  0.58494177  0.80026024  1
  O  O40  1  0.48613959  0.10498135  0.57308498  1
  O  O41  1  0.01386041  0.89501865  0.07308498  1
  O  O42  1  0.98613959  0.39501865  0.42691502  1
  O  O43  1  0.51386041  0.60498135  0.92691502  1
  O  O44  1  0.22014999  0.11352176  0.32333653  1
  O  O45  1  0.27985001  0.88647824  0.82333653  1
  O  O46  1  0.72014999  0.38647824  0.67666347  1
  O  O47  1  0.77985001  0.61352176  0.17666347  1
  O  O48  1  0.95022053  0.22473518  0.95683294  1
  O  O49  1  0.54977947  0.77526482  0.45683294  1
  O  O50  1  0.45022053  0.27526482  0.04316706  1
  O  O51  1  0.04977947  0.72473518  0.54316706  1
  O  O52  1  0.88256153  0.95782485  0.52614744  1
  O  O53  1  0.61743847  0.04217515  0.02614744  1
  O  O54  1  0.38256153  0.54217515  0.47385256  1
  O  O55  1  0.11743847  0.45782485  0.97385256  1
