# generated using pymatgen
data_Al2NiO4
_symmetry_space_group_name_H-M   'P 1'
_cell_length_a   5.76069239
_cell_length_b   5.76545323
_cell_length_c   28.66334403
_cell_angle_alpha   59.81165064
_cell_angle_beta   59.75783045
_cell_angle_gamma   59.96945922
_symmetry_Int_Tables_number   1
_chemical_formula_structural   Al2NiO4
_chemical_formula_sum   'Al20 Ni10 O40'
_cell_volume   670.80979101
_cell_formula_units_Z   10
loop_
 _symmetry_equiv_pos_site_id
 _symmetry_equiv_pos_as_xyz
  1  'x, y, z'
loop_
 _atom_site_type_symbol
 _atom_site_label
 _atom_site_symmetry_multiplicity
 _atom_site_fract_x
 _atom_site_fract_y
 _atom_site_fract_z
 _atom_site_occupancy
  Al  Al0  1  0.49685920  0.49612483  0.00219490  1
  Al  Al1  1  0.49332516  0.49742332  0.10049789  1
  Al  Al2  1  0.49331439  0.00680893  0.10051285  1
  Al  Al3  1  0.49275136  0.49778480  0.20234482  1
  Al  Al4  1  0.12949954  0.11644546  0.42753571  1
  Al  Al5  1  0.49296585  0.49975498  0.30058589  1
  Al  Al6  1  0.85646232  0.88189743  0.17596943  1
  Al  Al7  1  0.49300675  0.00436564  0.30059793  1
  Al  Al8  1  0.13428556  0.11751949  0.62612035  1
  Al  Al9  1  0.50021285  0.50014234  0.49978607  1
  Al  Al10  1  0.86478260  0.88479556  0.37317490  1
  Al  Al11  1  0.50018445  0.00067893  0.49979233  1
  Al  Al12  1  0.14321718  0.11721561  0.82444414  1
  Al  Al13  1  0.50312330  0.50021356  0.69925440  1
  Al  Al14  1  0.50309453  0.00026772  0.69925455  1
  Al  Al15  1  0.86861862  0.88317473  0.57301087  1
  Al  Al16  1  0.50836376  0.49762477  0.89847671  1
  Al  Al17  1  0.87142913  0.88224367  0.77279680  1
  Al  Al18  1  0.50840023  0.00153815  0.89847064  1
  Al  Al19  1  0.86293246  0.87809878  0.97616070  1
  Ni  Ni20  1  0.13055871  0.12684851  0.02317350  1
  Ni  Ni21  1  0.12019632  0.12147764  0.22738651  1
  Ni  Ni22  1  0.00102381  0.49869148  0.10032701  1
  Ni  Ni23  1  0.49829615  0.50174633  0.39965662  1
  Ni  Ni24  1  0.99687213  0.49984560  0.30070866  1
  Ni  Ni25  1  0.50058927  0.50031088  0.59974502  1
  Ni  Ni26  1  0.99979009  0.50011242  0.50001697  1
  Ni  Ni27  1  0.00902045  0.49801120  0.89897773  1
  Ni  Ni28  1  0.50470160  0.49851451  0.79963456  1
  Ni  Ni29  1  0.00205920  0.50023370  0.69949318  1
  O  O30  1  0.28273114  0.25120773  0.05034917  1
  O  O31  1  0.28273997  0.71441329  0.05034053  1
  O  O32  1  0.27944862  0.25078893  0.14381152  1
  O  O33  1  0.71188227  0.26092694  0.05325390  1
  O  O34  1  0.28001449  0.25289886  0.25136569  1
  O  O35  1  0.26037334  0.74672483  0.14925177  1
  O  O36  1  0.72163797  0.27162426  0.15072922  1
  O  O37  1  0.72406916  0.75287869  0.05404015  1
  O  O38  1  0.27999138  0.71032002  0.25136067  1
  O  O39  1  0.26064164  0.24401944  0.35027692  1
  O  O40  1  0.69935220  0.26566333  0.25385645  1
  O  O41  1  0.72167428  0.75311398  0.15072917  1
  O  O42  1  0.26482509  0.23258080  0.45361277  1
  O  O43  1  0.25587859  0.75854797  0.34542873  1
  O  O44  1  0.72384128  0.75427509  0.25352177  1
  O  O45  1  0.73096308  0.26520442  0.34657786  1
  O  O46  1  0.26999767  0.24542579  0.54783323  1
  O  O47  1  0.26480165  0.73458585  0.45361678  1
  O  O48  1  0.73657795  0.24597914  0.45429767  1
  O  O49  1  0.73102252  0.77102178  0.34658232  1
  O  O50  1  0.26044703  0.75396216  0.54632612  1
  O  O51  1  0.26677453  0.23181047  0.65308033  1
  O  O52  1  0.72910760  0.75469040  0.45230709  1
  O  O53  1  0.73387391  0.26413283  0.54691565  1
  O  O54  1  0.27550817  0.24643266  0.74631309  1
  O  O55  1  0.26676434  0.73593693  0.65308331  1
  O  O56  1  0.73383748  0.76743174  0.54692306  1
  O  O57  1  0.74171650  0.24531235  0.65351109  1
  O  O58  1  0.27150863  0.22878971  0.85228225  1
  O  O59  1  0.26308253  0.75287176  0.74621862  1
  O  O60  1  0.73636870  0.26337352  0.74666048  1
  O  O61  1  0.73088643  0.75415061  0.65214079  1
  O  O62  1  0.30021876  0.25237902  0.93898836  1
  O  O63  1  0.27150298  0.73816499  0.85228399  1
  O  O64  1  0.75632688  0.24068410  0.85243982  1
  O  O65  1  0.73631819  0.76688880  0.74666701  1
  O  O66  1  0.26914757  0.74137857  0.94960672  1
  O  O67  1  0.73024309  0.26924720  0.95045006  1
  O  O68  1  0.73369602  0.75205772  0.85241695  1
  O  O69  1  0.73026940  0.74819232  0.95044726  1
