# generated using pymatgen
data_Co8Te(AsO8)2
_symmetry_space_group_name_H-M   'P 1'
_cell_length_a   6.04118548
_cell_length_b   8.70424338
_cell_length_c   12.31426170
_cell_angle_alpha   90.00000000
_cell_angle_beta   104.19910012
_cell_angle_gamma   90.00000000
_symmetry_Int_Tables_number   1
_chemical_formula_structural   Co8Te(AsO8)2
_chemical_formula_sum   'Co16 Te2 As4 O32'
_cell_volume   627.74987132
_cell_formula_units_Z   2
loop_
 _symmetry_equiv_pos_site_id
 _symmetry_equiv_pos_as_xyz
  1  'x, y, z'
loop_
 _atom_site_type_symbol
 _atom_site_label
 _atom_site_symmetry_multiplicity
 _atom_site_fract_x
 _atom_site_fract_y
 _atom_site_fract_z
 _atom_site_occupancy
  Co  Co0  1  0.82291797  0.25000000  0.14583595  1
  Co  Co1  1  0.94096189  0.37184594  0.88192378  1
  Co  Co2  1  0.05705346  0.75000000  0.61410692  1
  Co  Co3  1  0.13591998  0.97219925  0.27183995  1
  Co  Co4  1  0.44096189  0.12815406  0.88192378  1
  Co  Co5  1  0.05903811  0.62815406  0.11807622  1
  Co  Co6  1  0.86408002  0.02780075  0.72816005  1
  Co  Co7  1  0.67708203  0.75000000  0.85416405  1
  Co  Co8  1  0.17708203  0.75000000  0.85416405  1
  Co  Co9  1  0.55705346  0.75000000  0.61410692  1
  Co  Co10  1  0.55903811  0.87184594  0.11807622  1
  Co  Co11  1  0.44294654  0.25000000  0.38589308  1
  Co  Co12  1  0.94294654  0.25000000  0.38589308  1
  Co  Co13  1  0.36408002  0.47219925  0.72816005  1
  Co  Co14  1  0.32291797  0.25000000  0.14583595  1
  Co  Co15  1  0.63591998  0.52780075  0.27183995  1
  Te  Te16  1  0.00000000  0.00000000  0.00000000  1
  Te  Te17  1  0.50000000  0.50000000  0.00000000  1
  As  As18  1  0.30935406  0.10872063  0.61870812  1
  As  As19  1  0.80935406  0.39127937  0.61870812  1
  As  As20  1  0.69064594  0.89127937  0.38129188  1
  As  As21  1  0.19064594  0.60872063  0.38129188  1
  O  O22  1  0.71662121  0.00370965  0.88139688  1
  O  O23  1  0.36929483  0.71497800  0.73858965  1
  O  O24  1  0.28337879  0.99629035  0.11860312  1
  O  O25  1  0.25211768  0.22959862  0.50423535  1
  O  O26  1  0.86805949  0.26801276  0.73611898  1
  O  O27  1  0.75211768  0.27040138  0.50423535  1
  O  O28  1  0.21662121  0.49629035  0.88139688  1
  O  O29  1  0.99201387  0.77350212  0.98402775  1
  O  O30  1  0.08148902  0.99611965  0.62738103  1
  O  O31  1  0.63070517  0.28502200  0.26141035  1
  O  O32  1  0.49201387  0.72649788  0.98402775  1
  O  O33  1  0.91851098  0.00388035  0.37261897  1
  O  O34  1  0.95410799  0.49611965  0.37261897  1
  O  O35  1  0.41851098  0.49611965  0.37261897  1
  O  O36  1  0.45410799  0.00388035  0.37261897  1
  O  O37  1  0.50798613  0.27350212  0.01597225  1
  O  O38  1  0.33522432  0.50370965  0.11860312  1
  O  O39  1  0.13194051  0.73198724  0.26388102  1
  O  O40  1  0.24788232  0.72959862  0.49576465  1
  O  O41  1  0.16477568  0.00370965  0.88139688  1
  O  O42  1  0.36805949  0.23198724  0.73611898  1
  O  O43  1  0.83522432  0.99629035  0.11860312  1
  O  O44  1  0.78337879  0.50370965  0.11860312  1
  O  O45  1  0.86929483  0.78502200  0.73858965  1
  O  O46  1  0.00798613  0.22649788  0.01597225  1
  O  O47  1  0.58148902  0.50388035  0.62738103  1
  O  O48  1  0.54589201  0.99611965  0.62738103  1
  O  O49  1  0.66477568  0.49629035  0.88139688  1
  O  O50  1  0.04589201  0.50388035  0.62738103  1
  O  O51  1  0.74788232  0.77040138  0.49576465  1
  O  O52  1  0.63194051  0.76801276  0.26388102  1
  O  O53  1  0.13070517  0.21497800  0.26141035  1
