# generated using pymatgen
data_Ca6Mg5Al2Si11O36
_symmetry_space_group_name_H-M   'P 1'
_cell_length_a   15.97132491
_cell_length_b   6.65476201
_cell_length_c   6.65053103
_cell_angle_alpha   84.42866145
_cell_angle_beta   78.21072627
_cell_angle_gamma   78.01366656
_symmetry_Int_Tables_number   1
_chemical_formula_structural   Ca6Mg5Al2Si11O36
_chemical_formula_sum   'Ca6 Mg5 Al2 Si11 O36'
_cell_volume   675.75379055
_cell_formula_units_Z   1
loop_
 _symmetry_equiv_pos_site_id
 _symmetry_equiv_pos_as_xyz
  1  'x, y, z'
loop_
 _atom_site_type_symbol
 _atom_site_label
 _atom_site_symmetry_multiplicity
 _atom_site_fract_x
 _atom_site_fract_y
 _atom_site_fract_z
 _atom_site_occupancy
  Ca  Ca0  1  0.08135396  0.69843792  0.30000772  1
  Ca  Ca1  1  0.24948442  0.30229887  0.70412023  1
  Ca  Ca2  1  0.41673293  0.69922822  0.30258144  1
  Ca  Ca3  1  0.58486361  0.29772940  0.69803920  1
  Ca  Ca4  1  0.74965107  0.69584628  0.30078141  1
  Ca  Ca5  1  0.91479830  0.30645313  0.70042825  1
  Mg  Mg6  1  0.08345722  0.09485582  0.90746554  1
  Mg  Mg7  1  0.24999472  0.90689911  0.09449642  1
  Mg  Mg8  1  0.41685594  0.09176986  0.90918726  1
  Mg  Mg9  1  0.58330072  0.90897322  0.09254333  1
  Mg  Mg10  1  0.75175967  0.09197885  0.90902353  1
  Al  Al11  1  0.91750433  0.90824037  0.08650095  1
  Al  Al12  1  0.90840158  0.81272178  0.61128378  1
  Si  Si13  1  0.08949676  0.19196976  0.37976670  1
  Si  Si14  1  0.07466847  0.61980168  0.80306851  1
  Si  Si15  1  0.25566269  0.37983224  0.19433672  1
  Si  Si16  1  0.24402369  0.80678206  0.62331201  1
  Si  Si17  1  0.42230107  0.19269466  0.38136544  1
  Si  Si18  1  0.41094110  0.61932273  0.80846704  1
  Si  Si19  1  0.58957185  0.37820683  0.19290179  1
  Si  Si20  1  0.57638375  0.80565931  0.62123964  1
  Si  Si21  1  0.75944138  0.19164646  0.37638430  1
  Si  Si22  1  0.74254056  0.62035575  0.80647425  1
  Si  Si23  1  0.92413121  0.38424481  0.18947011  1
  O  O24  1  0.00114975  0.36867995  0.32900515  1
  O  O25  1  0.05760456  0.11391115  0.61380909  1
  O  O26  1  0.11939949  0.02680368  0.20373105  1
  O  O27  1  0.03959420  0.80258492  0.96881556  1
  O  O28  1  0.10661765  0.39072337  0.89767050  1
  O  O29  1  0.16759115  0.33026992  0.37026208  1
  O  O30  1  0.16643236  0.66688979  0.63847410  1
  O  O31  1  0.22455929  0.61322081  0.11293316  1
  O  O32  1  0.28650271  0.20291642  0.02951798  1
  O  O33  1  0.21352364  0.97329420  0.79830852  1
  O  O34  1  0.27457675  0.88548477  0.38905832  1
  O  O35  1  0.33385829  0.36998963  0.33336460  1
  O  O36  1  0.33241783  0.62926528  0.67111064  1
  O  O37  1  0.39143342  0.11330102  0.61518753  1
  O  O38  1  0.45264822  0.02720058  0.20544440  1
  O  O39  1  0.38098969  0.79547138  0.97393457  1
  O  O40  1  0.44307386  0.38587244  0.88780333  1
  O  O41  1  0.50102113  0.33039230  0.36952861  1
  O  O42  1  0.49771653  0.66984451  0.62819285  1
  O  O43  1  0.55923467  0.61374550  0.11854100  1
  O  O44  1  0.61973994  0.20314691  0.02652227  1
  O  O45  1  0.54710810  0.97223886  0.79643367  1
  O  O46  1  0.60952791  0.88769834  0.38871402  1
  O  O47  1  0.66848992  0.35967308  0.33216607  1
  O  O48  1  0.66161542  0.62323694  0.67476963  1
  O  O49  1  0.73185957  0.11398187  0.61178588  1
  O  O50  1  0.79322816  0.02230587  0.20083908  1
  O  O51  1  0.71289667  0.79958951  0.97104194  1
  O  O52  1  0.77296702  0.39002074  0.90060932  1
  O  O53  1  0.83416248  0.34041387  0.35909266  1
  O  O54  1  0.82594682  0.66334187  0.62356595  1
  O  O55  1  0.89586437  0.62220809  0.10880189  1
  O  O56  1  0.95112111  0.20029684  0.02983642  1
  O  O57  1  0.88347319  0.97169994  0.82184953  1
  O  O58  1  0.94076898  0.89073137  0.35193208  1
  O  O59  1  0.00396416  0.62360519  0.65410094  1
