# generated using pymatgen
data_Mo(PO4)2
_symmetry_space_group_name_H-M   'P 1'
_cell_length_a   16.49300833
_cell_length_b   11.91095616
_cell_length_c   9.98171506
_cell_angle_alpha   90.00000000
_cell_angle_beta   101.85715114
_cell_angle_gamma   90.00000000
_symmetry_Int_Tables_number   1
_chemical_formula_structural   Mo(PO4)2
_chemical_formula_sum   'Mo12 P24 O96'
_cell_volume   1919.04344814
_cell_formula_units_Z   12
loop_
 _symmetry_equiv_pos_site_id
 _symmetry_equiv_pos_as_xyz
  1  'x, y, z'
loop_
 _atom_site_type_symbol
 _atom_site_label
 _atom_site_symmetry_multiplicity
 _atom_site_fract_x
 _atom_site_fract_y
 _atom_site_fract_z
 _atom_site_occupancy
  Mo  Mo0  1  0.40787475  0.30262895  0.70149728  1
  Mo  Mo1  1  0.07516508  0.28762289  0.70440285  1
  Mo  Mo2  1  0.59212525  0.69737105  0.29850272  1
  Mo  Mo3  1  0.57516508  0.21237711  0.20440285  1
  Mo  Mo4  1  0.90787475  0.19737105  0.20149728  1
  Mo  Mo5  1  0.23905926  0.19441679  0.19562641  1
  Mo  Mo6  1  0.09212525  0.80262895  0.79850272  1
  Mo  Mo7  1  0.42483492  0.78762289  0.79559715  1
  Mo  Mo8  1  0.73905926  0.30558321  0.69562641  1
  Mo  Mo9  1  0.92483492  0.71237711  0.29559715  1
  Mo  Mo10  1  0.76094074  0.80558321  0.80437359  1
  Mo  Mo11  1  0.26094074  0.69441679  0.30437359  1
  P  P12  1  0.34420979  0.95175390  0.31142892  1
  P  P13  1  0.37681972  0.17223089  0.97456559  1
  P  P14  1  0.87681972  0.32776911  0.47456559  1
  P  P15  1  0.38484812  0.79370535  0.11652254  1
  P  P16  1  0.62318028  0.82776911  0.02543441  1
  P  P17  1  0.47854916  0.46195587  0.18626653  1
  P  P18  1  0.12318028  0.67223089  0.52543441  1
  P  P19  1  0.93912293  0.19990279  0.88444253  1
  P  P20  1  0.61515188  0.20629465  0.88347746  1
  P  P21  1  0.65579021  0.04824610  0.68857108  1
  P  P22  1  0.16151369  0.53943423  0.78089745  1
  P  P23  1  0.33848631  0.03943423  0.71910255  1
  P  P24  1  0.11515188  0.29370535  0.38347746  1
  P  P25  1  0.06087707  0.80009721  0.11555747  1
  P  P26  1  0.56087707  0.69990279  0.61555747  1
  P  P27  1  0.15579021  0.45175390  0.18857108  1
  P  P28  1  0.83848631  0.46056577  0.21910255  1
  P  P29  1  0.88484812  0.70629465  0.61652254  1
  P  P30  1  0.52145084  0.53804413  0.81373347  1
  P  P31  1  0.84420979  0.54824610  0.81142892  1
  P  P32  1  0.66151369  0.96056577  0.28089745  1
  P  P33  1  0.43912293  0.30009721  0.38444253  1
  P  P34  1  0.97854916  0.03804413  0.68626653  1
  P  P35  1  0.02145084  0.96195587  0.31373347  1
  O  O36  1  0.12490437  0.29939293  0.54024039  1
  O  O37  1  0.00252006  0.27932209  0.83673839  1
  O  O38  1  0.45958751  0.42258270  0.33484720  1
  O  O39  1  0.02606752  0.14108071  0.64212760  1
  O  O40  1  0.66294796  0.26408795  0.30362083  1
  O  O41  1  0.66509754  0.92746742  0.12260034  1
  O  O42  1  0.46334510  0.30468995  0.54243279  1
  O  O43  1  0.47393248  0.64108071  0.85787240  1
  O  O44  1  0.33705204  0.73591205  0.69637917  1
  O  O45  1  0.50252006  0.22067791  0.33673839  1
  O  O46  1  0.65743780  0.36307400  0.58553174  1
  O  O47  1  0.35046337  0.26992911  0.33114002  1
  O  O48  1  0.38247450  0.14274798  0.66817824  1
  O  O49  1  0.24226029  0.50783511  0.86302178  1
  O  O50  1  0.87512210  0.22471122  0.37787995  1
  O  O51  1  0.90477605  0.00149233  0.58816038  1
  O  O52  1  0.95365232  0.05302277  0.26244820  1
  O  O53  1  0.81486866  0.78388674  0.64770584  1
  O  O54  1  0.03665490  0.80468995  0.95756721  1
  O  O55  1  0.78984767  0.64852780  0.84622351  1
  O  O56  1  0.84256220  0.86307400  0.91446826  1
  O  O57  1  0.68573077  0.80424998  0.93396578  1
  O  O58  1  0.96334510  0.19531005  0.04243279  1
  O  O59  1  0.75773971  0.49216489  0.13697822  1
  O  O60  1  0.62490437  0.20060707  0.04024039  1
  O  O61  1  0.61752550  0.85725202  0.33182176  1
  O  O62  1  0.64065005  0.08334688  0.84163542  1
  O  O63  1  0.21642338  0.55275938  0.22729736  1
  O  O64  1  0.33490246  0.07253258  0.87739966  1
  O  O65  1  0.85934995  0.58334688  0.65836458  1
  O  O66  1  0.09388177  0.44350290  0.75104928  1
  O  O67  1  0.21015233  0.35147220  0.15377549  1
  O  O68  1  0.07922538  0.47414849  0.08921917  1
  O  O69  1  0.81683867  0.14566063  0.11296430  1
  O  O70  1  0.11752550  0.64274798  0.83182176  1
  O  O71  1  0.04041249  0.92258270  0.16515280  1
  O  O72  1  0.40477605  0.49850767  0.08816038  1
  O  O73  1  0.42077462  0.97414849  0.41078083  1
  O  O74  1  0.87509563  0.70060707  0.45975961  1
  O  O75  1  0.18316133  0.85433937  0.88703570  1
  O  O76  1  0.37509563  0.79939293  0.95975961  1
  O  O77  1  0.31426923  0.19575002  0.06603422  1
  O  O78  1  0.81426923  0.30424998  0.56603422  1
  O  O79  1  0.96970272  0.73729500  0.69233992  1
  O  O80  1  0.34256220  0.63692600  0.41446826  1
  O  O81  1  0.28357662  0.05275938  0.27270264  1
  O  O82  1  0.64953663  0.73007089  0.66885998  1
  O  O83  1  0.78357662  0.44724062  0.77270264  1
  O  O84  1  0.97393248  0.85891929  0.35787240  1
  O  O85  1  0.53847883  0.85742602  0.94573586  1
  O  O86  1  0.53029728  0.23729500  0.80766008  1
  O  O87  1  0.45365232  0.44697723  0.76244820  1
  O  O88  1  0.99747994  0.72067791  0.16326161  1
  O  O89  1  0.54041249  0.57741730  0.66515280  1
  O  O90  1  0.37512210  0.27528878  0.87787995  1
  O  O91  1  0.68513134  0.28388674  0.85229416  1
  O  O92  1  0.59522395  0.50149233  0.91183962  1
  O  O93  1  0.15743780  0.13692600  0.08553174  1
  O  O94  1  0.83490246  0.42746742  0.37739966  1
  O  O95  1  0.83705204  0.76408795  0.19637917  1
  O  O96  1  0.03029728  0.26270500  0.30766008  1
  O  O97  1  0.49747994  0.77932209  0.66326161  1
  O  O98  1  0.46152117  0.14257398  0.05426414  1
  O  O99  1  0.90611823  0.55649710  0.24895072  1
  O  O100  1  0.14065005  0.41665312  0.34163542  1
  O  O101  1  0.18573077  0.69575002  0.43396578  1
  O  O102  1  0.71642338  0.94724062  0.72729736  1
  O  O103  1  0.52606752  0.35891929  0.14212760  1
  O  O104  1  0.74226029  0.99216489  0.36302178  1
  O  O105  1  0.28984767  0.85147220  0.34622351  1
  O  O106  1  0.18513134  0.21611326  0.35229416  1
  O  O107  1  0.12487790  0.77528878  0.62212005  1
  O  O108  1  0.35934995  0.91665312  0.15836458  1
  O  O109  1  0.68316133  0.64566063  0.38703570  1
  O  O110  1  0.62487790  0.72471122  0.12212005  1
  O  O111  1  0.31486866  0.71611326  0.14770584  1
  O  O112  1  0.85046337  0.23007089  0.83114002  1
  O  O113  1  0.71015233  0.14852780  0.65377649  1
  O  O114  1  0.92077462  0.52585151  0.91078083  1
  O  O115  1  0.25773971  0.00783511  0.63697822  1
  O  O116  1  0.53665490  0.69531005  0.45756721  1
  O  O117  1  0.57922538  0.02585151  0.58921917  1
  O  O118  1  0.16294796  0.23591205  0.80362083  1
  O  O119  1  0.88247450  0.35725202  0.16817824  1
  O  O120  1  0.59388177  0.05649710  0.25104928  1
  O  O121  1  0.04634768  0.94697723  0.73755180  1
  O  O122  1  0.31683867  0.35433937  0.61296430  1
  O  O123  1  0.96152117  0.35742602  0.55426414  1
  O  O124  1  0.95958751  0.07741730  0.83484720  1
  O  O125  1  0.40611823  0.94350290  0.74895072  1
  O  O126  1  0.14953663  0.76992911  0.16885998  1
  O  O127  1  0.09522395  0.99850767  0.41183962  1
  O  O128  1  0.03847883  0.64257398  0.44573586  1
  O  O129  1  0.46970272  0.76270500  0.19233992  1
  O  O130  1  0.54634768  0.55302277  0.23755180  1
  O  O131  1  0.16509754  0.57253258  0.62260034  1
