# generated using pymatgen
data_Ca6Nd6ScMn11O36
_symmetry_space_group_name_H-M   'P 1'
_cell_length_a   5.46031986
_cell_length_b   5.51565992
_cell_length_c   23.16753681
_cell_angle_alpha   90.01261751
_cell_angle_beta   89.93095617
_cell_angle_gamma   90.01322018
_symmetry_Int_Tables_number   1
_chemical_formula_structural   Ca6Nd6ScMn11O36
_chemical_formula_sum   'Ca6 Nd6 Sc1 Mn11 O36'
_cell_volume   697.74235969
_cell_formula_units_Z   1
loop_
 _symmetry_equiv_pos_site_id
 _symmetry_equiv_pos_as_xyz
  1  'x, y, z'
loop_
 _atom_site_type_symbol
 _atom_site_label
 _atom_site_symmetry_multiplicity
 _atom_site_fract_x
 _atom_site_fract_y
 _atom_site_fract_z
 _atom_site_occupancy
  Ca  Ca0  1  0.01044890  0.95901071  0.74410551  1
  Ca  Ca1  1  0.48996172  0.45835739  0.41600666  1
  Ca  Ca2  1  0.49127925  0.45795929  0.74520656  1
  Ca  Ca3  1  0.51007154  0.54075721  0.25570155  1
  Ca  Ca4  1  0.99030989  0.04168272  0.25492392  1
  Ca  Ca5  1  0.99032823  0.04148373  0.58389082  1
  Nd  Nd6  1  0.01328273  0.96231999  0.08939178  1
  Nd  Nd7  1  0.00861955  0.95882966  0.41705938  1
  Nd  Nd8  1  0.49266726  0.45962925  0.08914270  1
  Nd  Nd9  1  0.50897785  0.54132086  0.58311747  1
  Nd  Nd10  1  0.50750905  0.54086008  0.91098795  1
  Nd  Nd11  1  0.98649426  0.03827205  0.91037479  1
  Sc  Sc12  1  0.00011084  0.50006142  0.00002047  1
  Mn  Mn13  1  0.99775310  0.50107362  0.17224882  1
  Mn  Mn14  1  0.00079009  0.49842385  0.49977101  1
  Mn  Mn15  1  0.00245250  0.49877509  0.82767609  1
  Mn  Mn16  1  0.50325164  -0.00014007  0.17234471  1
  Mn  Mn17  1  0.50078964  0.00215898  0.50025648  1
  Mn  Mn18  1  0.49545935  0.99920651  0.82771348  1
  Mn  Mn19  1  0.49925331  0.00037692  0.00013545  1
  Mn  Mn20  1  0.49979929  -0.00001983  0.33414204  1
  Mn  Mn21  1  0.50068786  0.00159422  0.66585257  1
  Mn  Mn22  1  0.99806932  0.49896324  0.33428160  1
  Mn  Mn23  1  0.00189087  0.49945111  0.66577882  1
  O  O24  1  0.08565842  0.47613504  0.25174253  1
  O  O25  1  0.07882346  0.48267581  0.91215738  1
  O  O26  1  0.07871688  0.48138329  0.58305257  1
  O  O27  1  0.22151061  0.22065919  0.15340483  1
  O  O28  1  0.21358401  0.21390156  0.34862484  1
  O  O29  1  0.21681640  0.21585743  0.48600010  1
  O  O30  1  0.22437782  0.20551297  0.01685981  1
  O  O31  1  0.20582734  0.20443181  0.81788138  1
  O  O32  1  0.21673183  0.21670014  0.67914198  1
  O  O33  1  0.29741217  0.72197725  0.01628857  1
  O  O34  1  0.27990001  0.72053891  0.15319290  1
  O  O35  1  0.28480215  0.71597819  0.48566988  1
  O  O36  1  0.28046264  0.71847460  0.35027463  1
  O  O37  1  0.29025348  0.71250080  0.67799933  1
  O  O38  1  0.29226149  0.70545339  0.81856873  1
  O  O39  1  0.41552129  0.97396534  0.25323595  1
  O  O40  1  0.41870850  0.98181727  0.58240167  1
  O  O41  1  0.41604660  0.98305520  0.91398278  1
  O  O42  1  0.58366391  0.01733229  0.08594785  1
  O  O43  1  0.57924953  0.01935354  0.41766612  1
  O  O44  1  0.58584970  0.02370276  0.74678513  1
  O  O45  1  0.70830051  0.29395095  0.18151469  1
  O  O46  1  0.71510274  0.28319054  0.32080721  1
  O  O47  1  0.71652282  0.28349810  0.51421760  1
  O  O48  1  0.71473906  0.28632089  0.65139281  1
  O  O49  1  0.70280587  0.27823199  0.98358869  1
  O  O50  1  0.71841005  0.28023912  0.84652799  1
  O  O51  1  0.78882235  0.78785870  0.32209897  1
  O  O52  1  0.79282237  0.79381158  0.18188586  1
  O  O53  1  0.77587439  0.79492007  0.98307539  1
  O  O54  1  0.77801195  0.77959524  0.84667381  1
  O  O55  1  0.78427822  0.78427462  0.51438182  1
  O  O56  1  0.78137779  0.78129537  0.64982392  1
  O  O57  1  0.92120727  0.51692880  0.08772293  1
  O  O58  1  0.91961991  0.51747908  0.41705933  1
  O  O59  1  0.91566840  0.52659015  0.74821940  1
