# generated using pymatgen
data_Li13Mn21O48
_symmetry_space_group_name_H-M   'P 1'
_cell_length_a   5.86965196
_cell_length_b   5.86965228
_cell_length_c   35.22536335
_cell_angle_alpha   59.83006814
_cell_angle_beta   59.83006635
_cell_angle_gamma   59.64226112
_symmetry_Int_Tables_number   1
_chemical_formula_structural   Li13Mn21O48
_chemical_formula_sum   'Li13 Mn21 O48'
_cell_volume   853.61692104
_cell_formula_units_Z   1
loop_
 _symmetry_equiv_pos_site_id
 _symmetry_equiv_pos_as_xyz
  1  'x, y, z'
loop_
 _atom_site_type_symbol
 _atom_site_label
 _atom_site_symmetry_multiplicity
 _atom_site_fract_x
 _atom_site_fract_y
 _atom_site_fract_z
 _atom_site_occupancy
  Li  Li0  1  0.11698861  0.11698861  0.35796996  1
  Li  Li1  1  0.87967616  0.87967616  0.14478917  1
  Li  Li2  1  0.49962565  0.49962565  0.33338107  1
  Li  Li3  1  0.11294091  0.11294091  0.52281614  1
  Li  Li4  1  0.88448253  0.88448253  0.30755965  1
  Li  Li5  1  0.12819944  0.12819944  0.68475789  1
  Li  Li6  1  0.50004405  0.50004405  0.58329472  1
  Li  Li7  1  0.87193730  0.87193730  0.48182728  1
  Li  Li8  1  0.11988240  0.11988240  0.85695075  1
  Li  Li9  1  0.88715929  0.88715929  0.64375541  1
  Li  Li10  1  0.50124728  0.50124728  0.83284340  1
  Li  Li11  1  0.88274784  0.88274784  0.80881105  1
  Li  Li12  1  0.87603313  0.87603313  0.97947743  1
  Mn  Mn13  1  0.49823973  0.49823973  0.00069211  1
  Mn  Mn14  1  0.49843973  0.00196022  0.08326513  1
  Mn  Mn15  1  0.49844816  0.49844816  0.08361822  1
  Mn  Mn16  1  0.49850575  0.49850575  0.16784608  1
  Mn  Mn17  1  0.50161913  0.99573144  0.25014899  1
  Mn  Mn18  1  0.00196022  0.49843973  0.08326513  1
  Mn  Mn19  1  0.50158148  0.50158148  0.25017373  1
  Mn  Mn20  1  0.49708791  0.00304051  0.41669774  1
  Mn  Mn21  1  0.99573144  0.50161913  0.25014899  1
  Mn  Mn22  1  0.49779838  0.49779838  0.41654259  1
  Mn  Mn23  1  0.49628225  0.49628225  0.50185859  1
  Mn  Mn24  1  0.50009848  0.00004010  0.58330330  1
  Mn  Mn25  1  0.00304051  0.49708791  0.41669774  1
  Mn  Mn26  1  0.50383732  0.50383732  0.66472090  1
  Mn  Mn27  1  0.50308129  0.99695643  0.74990536  1
  Mn  Mn28  1  0.00004010  0.50009848  0.58330330  1
  Mn  Mn29  1  0.50232260  0.50232260  0.75005608  1
  Mn  Mn30  1  0.49732339  0.00608970  0.91666967  1
  Mn  Mn31  1  0.49748383  0.49748383  0.91658088  1
  Mn  Mn32  1  0.99695643  0.50308129  0.74990536  1
  Mn  Mn33  1  0.00608970  0.49732339  0.91666967  1
  O  O34  1  0.26490982  0.26490982  0.04387601  1
  O  O35  1  0.24423192  0.24423192  0.11919740  1
  O  O36  1  0.26125152  0.70239765  0.04421285  1
  O  O37  1  0.70239765  0.26125152  0.04421285  1
  O  O38  1  0.29224202  0.73896531  0.12270503  1
  O  O39  1  0.26906831  0.26906831  0.20992747  1
  O  O40  1  0.75323963  0.75323963  0.04699388  1
  O  O41  1  0.73896531  0.29224202  0.12270503  1
  O  O42  1  0.26300617  0.26300617  0.28517341  1
  O  O43  1  0.26706378  0.70341144  0.21036653  1
  O  O44  1  0.70341144  0.26706378  0.21036653  1
  O  O45  1  0.73712787  0.73712787  0.12274739  1
  O  O46  1  0.29108304  0.75159585  0.28447406  1
  O  O47  1  0.24903023  0.24903023  0.38208583  1
  O  O48  1  0.73808103  0.73808103  0.21421588  1
  O  O49  1  0.75159585  0.29108304  0.28447406  1
  O  O50  1  0.26151298  0.26151298  0.45237703  1
  O  O51  1  0.24625235  0.70869806  0.38228686  1
  O  O52  1  0.70869806  0.24625235  0.38228686  1
  O  O53  1  0.75007968  0.75007968  0.28465317  1
  O  O54  1  0.29166355  0.73496981  0.45572372  1
  O  O55  1  0.26025160  0.26025160  0.54384845  1
  O  O56  1  0.73617566  0.73617566  0.38171892  1
  O  O57  1  0.73496981  0.29166355  0.45572372  1
  O  O58  1  0.25498342  0.25498342  0.61770975  1
  O  O59  1  0.25241808  0.71128875  0.54064311  1
  O  O60  1  0.71128875  0.25241808  0.54064311  1
  O  O61  1  0.73213309  0.73213309  0.45705890  1
  O  O62  1  0.26785525  0.26785525  0.70958432  1
  O  O63  1  0.28872822  0.74763787  0.62598619  1
  O  O64  1  0.74507435  0.74507435  0.54890252  1
  O  O65  1  0.74763787  0.28872822  0.62598619  1
  O  O66  1  0.26386956  0.26386956  0.78493356  1
  O  O67  1  0.26501007  0.70841060  0.71091932  1
  O  O68  1  0.70841060  0.26501007  0.71091932  1
  O  O69  1  0.73977491  0.73977491  0.62276214  1
  O  O70  1  0.29119575  0.75347766  0.78446328  1
  O  O71  1  0.24901853  0.24901853  0.88214025  1
  O  O72  1  0.73856550  0.73856550  0.71420792  1
  O  O73  1  0.75347766  0.29119575  0.78446328  1
  O  O74  1  0.26356819  0.26356819  0.95178606  1
  O  O75  1  0.24747184  0.71044825  0.88230898  1
  O  O76  1  0.75073911  0.75073911  0.78466276  1
  O  O77  1  0.71044825  0.24747184  0.88230898  1
  O  O78  1  0.29204108  0.73423898  0.95669846  1
  O  O79  1  0.73631333  0.73631333  0.88191730  1
  O  O80  1  0.73423898  0.29204108  0.95669846  1
  O  O81  1  0.73249592  0.73249592  0.95730639  1
