# generated using pymatgen
data_Ta2MnO6
_symmetry_space_group_name_H-M   'P 1'
_cell_length_a   5.19009356
_cell_length_b   22.70395583
_cell_length_c   9.63106412
_cell_angle_alpha   50.48330413
_cell_angle_beta   90.94015699
_cell_angle_gamma   90.59820875
_symmetry_Int_Tables_number   1
_chemical_formula_structural   Ta2MnO6
_chemical_formula_sum   'Ta16 Mn8 O48'
_cell_volume   875.37517807
_cell_formula_units_Z   8
loop_
 _symmetry_equiv_pos_site_id
 _symmetry_equiv_pos_as_xyz
  1  'x, y, z'
loop_
 _atom_site_type_symbol
 _atom_site_label
 _atom_site_symmetry_multiplicity
 _atom_site_fract_x
 _atom_site_fract_y
 _atom_site_fract_z
 _atom_site_occupancy
  Ta  Ta0  1  0.24414776  0.94201052  0.84200684  1
  Ta  Ta1  1  0.25000000  0.78144328  0.82783558  1
  Ta  Ta2  1  0.24444213  0.60921100  0.83270849  1
  Ta  Ta3  1  0.25585224  0.94201052  0.33196060  1
  Ta  Ta4  1  0.25775737  0.27946815  0.82673329  1
  Ta  Ta5  1  0.25555787  0.60921100  0.33965850  1
  Ta  Ta6  1  0.25000000  0.11294345  0.83058482  1
  Ta  Ta7  1  0.24224263  0.27946815  0.33486327  1
  Ta  Ta8  1  0.74444213  0.72412200  0.66034150  1
  Ta  Ta9  1  0.74414776  0.39132248  0.66803940  1
  Ta  Ta10  1  0.75555787  0.72412200  0.16729151  1
  Ta  Ta11  1  0.75000000  0.55189072  0.17216442  1
  Ta  Ta12  1  0.75775737  0.05386585  0.66513673  1
  Ta  Ta13  1  0.75585224  0.39132248  0.15799316  1
  Ta  Ta14  1  0.75000000  0.22038955  0.16941518  1
  Ta  Ta15  1  0.74224263  0.05386585  0.17326671  1
  Mn  Mn16  1  0.25000000  0.77941296  0.33088055  1
  Mn  Mn17  1  0.25000000  0.44516243  0.83225586  1
  Mn  Mn18  1  0.25000000  0.43745804  0.34381345  1
  Mn  Mn19  1  0.25000000  0.10801145  0.33798233  1
  Mn  Mn20  1  0.75000000  0.89587596  0.65618655  1
  Mn  Mn21  1  0.75000000  0.55392004  0.66911945  1
  Mn  Mn22  1  0.75000000  0.88817057  0.16774414  1
  Mn  Mn23  1  0.75000000  0.22532155  0.66201767  1
  O  O24  1  0.06376253  0.70039969  0.60185174  1
  O  O25  1  0.06179937  0.36403363  0.60276744  1
  O  O26  1  0.09860595  0.87524770  0.30885202  1
  O  O27  1  0.06106373  0.03679212  0.58576024  1
  O  O28  1  0.08162590  0.71077473  0.06265993  1
  O  O29  1  0.10923665  0.87154047  0.80852483  1
  O  O30  1  0.07563160  0.54569090  0.29365391  1
  O  O31  1  0.07084887  0.36886361  0.09019776  1
  O  O32  1  0.09928685  0.54110071  0.81372472  1
  O  O33  1  0.07674901  0.21223351  0.29337002  1
  O  O34  1  0.08413036  0.04276578  0.06846494  1
  O  O35  1  0.11683528  0.20223222  0.81659142  1
  O  O36  1  0.39076335  0.87154047  0.57685277  1
  O  O37  1  0.40071315  0.54110071  0.56297315  1
  O  O38  1  0.38316472  0.20223222  0.57671291  1
  O  O39  1  0.41837410  0.71077473  0.80501589  1
  O  O40  1  0.40139405  0.87524770  0.06540488  1
  O  O41  1  0.42915113  0.36886361  0.80321242  1
  O  O42  1  0.42436840  0.54569090  0.06927438  1
  O  O43  1  0.41586964  0.04276578  0.80323671  1
  O  O44  1  0.43623747  0.70039969  0.29694918  1
  O  O45  1  0.42325099  0.21223351  0.06992844  1
  O  O46  1  0.43820063  0.36403363  0.30513267  1
  O  O47  1  0.43893627  0.03679212  0.30386241  1
  O  O48  1  0.56179937  0.96930037  0.69486733  1
  O  O49  1  0.56376253  0.63293331  0.70305082  1
  O  O50  1  0.57563160  0.78764310  0.93072562  1
  O  O51  1  0.56106373  0.29654088  0.69613759  1
  O  O52  1  0.57084887  0.96447039  0.19678758  1
  O  O53  1  0.59860595  0.45808530  0.93459512  1
  O  O54  1  0.58162590  0.62255827  0.19498411  1
  O  O55  1  0.57674901  0.12109949  0.93007156  1
  O  O56  1  0.58413036  0.29056722  0.19676329  1
  O  O57  1  0.59928685  0.79223229  0.43702685  1
  O  O58  1  0.60923665  0.46179253  0.42314723  1
  O  O59  1  0.61683528  0.13110178  0.42328709  1
  O  O60  1  0.90071315  0.79223229  0.18627528  1
  O  O61  1  0.92915113  0.96447039  0.90980224  1
  O  O62  1  0.92436840  0.78764310  0.70634609  1
  O  O63  1  0.89076335  0.46179253  0.19147517  1
  O  O64  1  0.91837410  0.62255827  0.93734007  1
  O  O65  1  0.90139405  0.45808530  0.69114798  1
  O  O66  1  0.88316472  0.13110178  0.18340858  1
  O  O67  1  0.91586964  0.29056722  0.93153506  1
  O  O68  1  0.93820063  0.96930037  0.39723256  1
  O  O69  1  0.92325099  0.12109949  0.70662998  1
  O  O70  1  0.93623747  0.63293331  0.39814826  1
  O  O71  1  0.93893627  0.29654088  0.41423976  1
