# generated using pymatgen
data_FePO4
_symmetry_space_group_name_H-M   'P 1'
_cell_length_a   10.19020691
_cell_length_b   10.37544638
_cell_length_c   17.59726221
_cell_angle_alpha   105.59257796
_cell_angle_beta   106.83039265
_cell_angle_gamma   60.58886081
_symmetry_Int_Tables_number   1
_chemical_formula_structural   FePO4
_chemical_formula_sum   'Fe16 P16 O64'
_cell_volume   1533.32392611
_cell_formula_units_Z   16
loop_
 _symmetry_equiv_pos_site_id
 _symmetry_equiv_pos_as_xyz
  1  'x, y, z'
loop_
 _atom_site_type_symbol
 _atom_site_label
 _atom_site_symmetry_multiplicity
 _atom_site_fract_x
 _atom_site_fract_y
 _atom_site_fract_z
 _atom_site_occupancy
  Fe  Fe0  1  0.93650374  0.00300807  0.31125726  1
  Fe  Fe1  1  0.50018114  0.94132646  0.31268823  1
  Fe  Fe2  1  0.87093119  0.94406405  0.81413085  1
  Fe  Fe3  1  0.43674569  0.49902158  0.30991473  1
  Fe  Fe4  1  0.25280343  0.62013183  0.06179913  1
  Fe  Fe5  1  0.75379810  0.18595459  0.06118770  1
  Fe  Fe6  1  0.75849258  0.68245301  0.06046802  1
  Fe  Fe7  1  0.99913561  0.44406405  0.31413085  1
  Fe  Fe8  1  0.12143601  0.68595459  0.56118770  1
  Fe  Fe9  1  0.68788921  0.61792377  0.56160019  1
  Fe  Fe10  1  0.37414746  0.99902158  0.80991473  1
  Fe  Fe11  1  0.18886387  0.12013183  0.56179913  1
  Fe  Fe12  1  0.25578721  0.11792377  0.06160019  1
  Fe  Fe13  1  0.87118064  0.44132646  0.81268823  1
  Fe  Fe14  1  0.61952343  0.18245301  0.56046802  1
  Fe  Fe15  1  0.37174545  0.50300807  0.81125726  1
  P  P16  1  0.06669793  0.12458612  0.87472712  1
  P  P17  1  0.56282920  0.18687681  0.87391513  1
  P  P18  1  0.44360424  0.80811776  0.12490332  1
  P  P19  1  0.06357446  0.62708954  0.87487109  1
  P  P20  1  0.81047277  0.87014979  0.62356706  1
  P  P21  1  0.30868084  0.37314281  0.62282226  1
  P  P22  1  0.87318132  0.30811776  0.62490332  1
  P  P23  1  0.12420812  0.68687681  0.37391513  1
  P  P24  1  0.18420709  0.12708954  0.37487109  1
  P  P25  1  0.37170016  0.81401028  0.62462104  1
  P  P26  1  0.62337157  0.18602477  0.37391925  1
  P  P27  1  0.68344406  0.62458612  0.37472712  1
  P  P28  1  0.94294449  0.37014979  0.12356706  1
  P  P29  1  0.56452291  0.68602477  0.87391925  1
  P  P30  1  0.43891060  0.31401028  0.12462104  1
  P  P31  1  0.94099762  0.87314281  0.12282226  1
  O  O32  1  0.13625972  0.15881737  0.45596729  1
  O  O33  1  0.91216640  0.81941741  0.56038133  1
  O  O34  1  0.90975477  0.39550836  0.70796947  1
  O  O35  1  0.66049190  0.01008690  0.59954617  1
  O  O36  1  0.15740128  0.63945044  0.45619435  1
  O  O37  1  0.08047394  0.06617003  0.30918289  1
  O  O38  1  0.16491023  0.27126564  0.35309145  1
  O  O39  1  0.27165057  0.24937188  0.62925130  1
  O  O40  1  0.50427335  0.35223154  0.37592941  1
  O  O41  1  0.16413676  0.15710770  0.95576397  1
  O  O42  1  0.66219949  0.58234582  0.80862033  1
  O  O43  1  0.06121722  0.58562397  0.30908459  1
  O  O44  1  0.16253892  0.56617003  0.80918289  1
  O  O45  1  0.74889898  0.26569545  0.62786097  1
  O  O46  1  0.41493845  0.66892775  0.85428781  1
  O  O47  1  0.85542636  0.51162578  0.38130597  1
  O  O48  1  0.66070840  0.63777374  0.95605929  1
  O  O49  1  0.77318185  0.74468843  0.62703581  1
  O  O50  1  0.35564855  0.01285669  0.38004574  1
  O  O51  1  0.15867701  0.51240787  0.59776271  1
  O  O52  1  0.40270534  0.89550836  0.20796947  1
  O  O53  1  0.01759158  0.16463605  0.60441731  1
  O  O54  1  0.81529487  0.41010024  0.56018617  1
  O  O55  1  0.00737021  0.85409236  0.37619129  1
  O  O56  1  0.63452051  0.65710770  0.45576397  1
  O  O57  1  0.16088920  0.65881737  0.95596729  1
  O  O58  1  0.66413542  0.76815525  0.35208240  1
  O  O59  1  0.33479206  0.91010024  0.06018617  1
  O  O60  1  0.65757715  0.13777374  0.45605929  1
  O  O61  1  0.01425283  0.01162578  0.88130597  1
  O  O62  1  0.42219068  0.66463605  0.10441731  1
  O  O63  1  0.91691558  0.77126564  0.85309145  1
  O  O64  1  0.39915150  0.41472670  0.70477687  1
  O  O65  1  0.41996638  0.16901327  0.10616211  1
  O  O66  1  0.89989714  0.90501667  0.70753533  1
  O  O67  1  0.56407502  0.08234582  0.30862033  1
  O  O68  1  0.92667784  0.01240787  0.09776271  1
  O  O69  1  0.51472872  0.35409236  0.87619129  1
  O  O70  1  0.27208352  0.66595283  0.35358889  1
  O  O71  1  0.31197988  0.91044102  0.55697744  1
  O  O72  1  0.90262153  0.40501667  0.20753533  1
  O  O73  1  0.82879752  0.31941741  0.06038133  1
  O  O74  1  0.33455553  0.41044102  0.05697744  1
  O  O75  1  0.40755285  0.90840035  0.70474655  1
  O  O76  1  0.10916453  0.24468843  0.12703581  1
  O  O77  1  0.10822885  0.74937188  0.12925130  1
  O  O78  1  0.66224340  0.08562397  0.80908459  1
  O  O79  1  0.61326754  0.76569545  0.12786097  1
  O  O80  1  0.25020404  0.76970595  0.62984632  1
  O  O81  1  0.51718246  0.66901327  0.60616211  1
  O  O82  1  0.41555254  0.16595283  0.85358889  1
  O  O83  1  0.89089767  0.91472670  0.20477687  1
  O  O84  1  0.91979172  0.26815525  0.85208240  1
  O  O85  1  0.51942452  0.85223154  0.87592941  1
  O  O86  1  0.38879335  0.40840035  0.20474655  1
  O  O87  1  0.92896737  0.51008690  0.09954617  1
  O  O88  1  0.83233514  0.81618517  0.05846891  1
  O  O89  1  0.16534474  0.06201111  0.80893617  1
  O  O90  1  0.77042061  0.16892775  0.35428781  1
  O  O91  1  0.40994859  0.31618517  0.55846891  1
  O  O92  1  0.60993533  0.26970595  0.12984632  1
  O  O93  1  0.65934263  0.13945044  0.95619435  1
  O  O94  1  0.01154050  0.51285669  0.88004574  1
  O  O95  1  0.58157932  0.56201111  0.30893617  1
