# generated using pymatgen
data_Sb5O14
_symmetry_space_group_name_H-M   'P 1'
_cell_length_a   5.62616283
_cell_length_b   5.61086113
_cell_length_c   16.88951886
_cell_angle_alpha   90.00000000
_cell_angle_beta   90.00000000
_cell_angle_gamma   106.76393821
_symmetry_Int_Tables_number   1
_chemical_formula_structural   Sb5O14
_chemical_formula_sum   'Sb10 O28'
_cell_volume   510.50315784
_cell_formula_units_Z   2
loop_
 _symmetry_equiv_pos_site_id
 _symmetry_equiv_pos_as_xyz
  1  'x, y, z'
loop_
 _atom_site_type_symbol
 _atom_site_label
 _atom_site_symmetry_multiplicity
 _atom_site_fract_x
 _atom_site_fract_y
 _atom_site_fract_z
 _atom_site_occupancy
  Sb  Sb0  1  0.76736036  0.22964979  0.36051174  1
  Sb  Sb1  1  0.23263964  0.77035021  0.63948826  1
  Sb  Sb2  1  0.76736036  0.22964979  0.13948826  1
  Sb  Sb3  1  0.23263964  0.77035021  0.86051174  1
  Sb  Sb4  1  0.61374558  0.38615753  0.57902556  1
  Sb  Sb5  1  0.38625442  0.61384247  0.42097444  1
  Sb  Sb6  1  0.61374558  0.38615753  0.92097444  1
  Sb  Sb7  1  0.38625442  0.61384247  0.07902556  1
  Sb  Sb8  1  0.00000000  -0.00000000  0.50000000  1
  Sb  Sb9  1  0.00000000  -0.00000000  -0.00000000  1
  O  O10  1  0.01218962  0.98567550  0.61454546  1
  O  O11  1  0.98781038  0.01432450  0.38545454  1
  O  O12  1  0.01218962  0.98567550  0.88545454  1
  O  O13  1  0.98781038  0.01432450  0.11454546  1
  O  O14  1  0.17642695  0.82390934  0.75000000  1
  O  O15  1  0.82357305  0.17609066  0.25000000  1
  O  O16  1  0.55409915  0.44685059  0.34747669  1
  O  O17  1  0.44590085  0.55314941  0.65252331  1
  O  O18  1  0.55409915  0.44685059  0.15252331  1
  O  O19  1  0.44590085  0.55314941  0.84747669  1
  O  O20  1  0.31048315  0.31086351  0.49979341  1
  O  O21  1  0.31048315  0.31086351  0.00020659  1
  O  O22  1  0.68951685  0.68913649  0.50020659  1
  O  O23  1  0.68951685  0.68913649  0.99979341  1
  O  O24  1  0.22513622  0.77269974  0.51037083  1
  O  O25  1  0.77486378  0.22730026  0.48962917  1
  O  O26  1  0.22513622  0.77269974  0.98962917  1
  O  O27  1  0.77486378  0.22730026  0.01037083  1
  O  O28  1  0.93392077  0.47036457  0.63449961  1
  O  O29  1  0.47093086  0.93295625  0.36651731  1
  O  O30  1  0.93392077  0.47036457  0.86550039  1
  O  O31  1  0.47093086  0.93295625  0.13348269  1
  O  O32  1  0.06607923  0.52963543  0.36550039  1
  O  O33  1  0.52906914  0.06704375  0.63348269  1
  O  O34  1  0.06607923  0.52963543  0.13449961  1
  O  O35  1  0.52906914  0.06704375  0.86651731  1
  O  O36  1  0.91670372  0.17814031  0.75000000  1
  O  O37  1  0.08329628  0.82185969  0.25000000  1
