# generated using pymatgen
data_CdH8(NO5)2
_symmetry_space_group_name_H-M   'P 1'
_cell_length_a   13.29029272
_cell_length_b   14.10877211
_cell_length_c   6.32945954
_cell_angle_alpha   69.52889859
_cell_angle_beta   84.08127348
_cell_angle_gamma   26.46463283
_symmetry_Int_Tables_number   1
_chemical_formula_structural   CdH8(NO5)2
_chemical_formula_sum   'Cd2 H16 N4 O20'
_cell_volume   428.28369424
_cell_formula_units_Z   2
loop_
 _symmetry_equiv_pos_site_id
 _symmetry_equiv_pos_as_xyz
  1  'x, y, z'
loop_
 _atom_site_type_symbol
 _atom_site_label
 _atom_site_symmetry_multiplicity
 _atom_site_fract_x
 _atom_site_fract_y
 _atom_site_fract_z
 _atom_site_occupancy
  Cd  Cd0  1  0.25778858  0.24170504  0.24608502  1
  Cd  Cd1  1  0.00758131  0.99300621  0.99910438  1
  H  H2  1  0.48704196  0.62711919  0.98971475  1
  H  H3  1  0.88635933  0.99966798  0.62294187  1
  H  H4  1  0.24784783  0.36732173  0.75635706  1
  H  H5  1  0.62878429  0.75706757  0.35739848  1
  H  H6  1  0.49087304  0.50499369  0.05779759  1
  H  H7  1  0.94645766  0.05787801  0.50357179  1
  H  H8  1  0.19661652  0.30036572  0.75684529  1
  H  H9  1  0.74866317  0.75557422  0.30034534  1
  H  H10  1  0.14831325  0.18222706  0.63116036  1
  H  H11  1  0.03553366  0.63275998  0.18071005  1
  H  H12  1  0.61957405  0.21180324  0.10686599  1
  H  H13  1  0.07088291  0.09948078  0.21918630  1
  H  H14  1  0.43176459  0.96450345  0.76925531  1
  H  H15  1  0.83286762  0.76728235  0.96743418  1
  H  H16  1  0.48281269  0.41364922  0.82332808  1
  H  H17  1  0.28431655  0.81813182  0.41914468  1
  N  N18  1  0.83232713  0.48788286  0.01905286  1
  N  N19  1  0.66309250  0.01531122  0.49190171  1
  N  N20  1  0.23294018  0.58768528  0.41981590  1
  N  N21  1  0.76131886  0.41802620  0.59104309  1
  O  O22  1  0.78546884  0.61801039  0.00716921  1
  O  O23  1  0.59145734  0.00357665  0.62191993  1
  O  O24  1  0.24392023  0.66108498  0.46185179  1
  O  O25  1  0.62983952  0.46669868  0.66121570  1
  O  O26  1  0.06969865  0.23969376  0.15108082  1
  O  O27  1  0.54646749  0.14194120  0.24529879  1
  O  O28  1  0.10682574  0.70225697  0.18385460  1
  O  O29  1  0.00902965  0.17983995  0.71067566  1
  O  O30  1  0.64948396  0.60268647  0.90134368  1
  O  O31  1  0.84546771  0.90195440  0.60713691  1
  O  O32  1  0.34617220  0.40649428  0.60663716  1
  O  O33  1  0.64865534  0.59981960  0.40779057  1
  O  O34  1  0.43427687  0.61230318  0.08087888  1
  O  O35  1  0.87770576  0.07740630  0.61650817  1
  O  O36  1  0.17287859  0.37255782  0.81906048  1
  O  O37  1  0.63820161  0.81618537  0.37155908  1
  O  O38  1  0.24791855  0.15475058  0.63596195  1
  O  O39  1  0.96214051  0.63348174  0.15693869  1
  O  O40  1  0.61517615  0.28823369  0.00638119  1
  O  O41  1  0.09427962  0.00320015  0.29253869  1
