# generated using pymatgen
data_KPH3O3F
_symmetry_space_group_name_H-M   'P 1'
_cell_length_a   6.82918370
_cell_length_b   10.94555050
_cell_length_c   7.92774059
_cell_angle_alpha   90.00000000
_cell_angle_beta   128.06123835
_cell_angle_gamma   90.00000000
_symmetry_Int_Tables_number   1
_chemical_formula_structural   KPH3O3F
_chemical_formula_sum   'K4 P4 H12 O12 F4'
_cell_volume   466.57871513
_cell_formula_units_Z   4
loop_
 _symmetry_equiv_pos_site_id
 _symmetry_equiv_pos_as_xyz
  1  'x, y, z'
loop_
 _atom_site_type_symbol
 _atom_site_label
 _atom_site_symmetry_multiplicity
 _atom_site_fract_x
 _atom_site_fract_y
 _atom_site_fract_z
 _atom_site_occupancy
  K  K0  1  0.06521936  0.32071331  0.61536328  1
  K  K1  1  0.93478064  0.82071331  0.88463672  1
  K  K2  1  0.93478064  0.67928669  0.38463672  1
  K  K3  1  0.06521936  0.17928669  0.11536328  1
  P  P4  1  0.40444091  0.04749292  0.69824856  1
  P  P5  1  0.59555909  0.54749292  0.80175144  1
  P  P6  1  0.59555909  0.95250708  0.30175144  1
  P  P7  1  0.40444091  0.45250708  0.19824856  1
  H  H8  1  0.28498569  0.94747790  0.55791381  1
  H  H9  1  0.71501431  0.44747790  0.94208619  1
  H  H10  1  0.71501431  0.05252210  0.44208619  1
  H  H11  1  0.28498569  0.55252210  0.05791381  1
  H  H12  1  0.28311942  0.03965023  0.90381324  1
  H  H13  1  0.71688058  0.53965023  0.59618676  1
  H  H14  1  0.71688058  0.96034977  0.09618676  1
  H  H15  1  0.28311942  0.46034977  0.40381324  1
  H  H16  1  0.58971175  0.22138549  0.64045116  1
  H  H17  1  0.41028825  0.72138549  0.85954884  1
  H  H18  1  0.41028825  0.77861451  0.35954884  1
  H  H19  1  0.58971175  0.27861451  0.14045116  1
  O  O20  1  0.66623915  0.01048088  0.88855845  1
  O  O21  1  0.33376085  0.51048088  0.61144155  1
  O  O22  1  0.33376085  0.98951912  0.11144155  1
  O  O23  1  0.66623915  0.48951912  0.38855845  1
  O  O24  1  0.23460951  0.08037940  0.76583744  1
  O  O25  1  0.76539049  0.58037940  0.73416256  1
  O  O26  1  0.76539049  0.91962060  0.23416256  1
  O  O27  1  0.23460951  0.41962060  0.26583744  1
  O  O28  1  0.38440379  0.15621274  0.56589941  1
  O  O29  1  0.61559621  0.65621274  0.93410059  1
  O  O30  1  0.61559621  0.84378726  0.43410059  1
  O  O31  1  0.38440379  0.34378726  0.06589941  1
  F  F32  1  0.75080080  0.27286351  0.70204793  1
  F  F33  1  0.24919920  0.77286351  0.79795207  1
  F  F34  1  0.24919920  0.72713649  0.29795207  1
  F  F35  1  0.75080080  0.22713649  0.20204793  1
