# generated using pymatgen
data_Na3SiH11O9
_symmetry_space_group_name_H-M   'P 1'
_cell_length_a   11.89765123
_cell_length_b   10.98241728
_cell_length_c   13.01359593
_cell_angle_alpha   90.00000000
_cell_angle_beta   90.00000000
_cell_angle_gamma   90.00000000
_symmetry_Int_Tables_number   1
_chemical_formula_structural   Na3SiH11O9
_chemical_formula_sum   'Na24 Si8 H88 O72'
_cell_volume   1700.42112777
_cell_formula_units_Z   8
loop_
 _symmetry_equiv_pos_site_id
 _symmetry_equiv_pos_as_xyz
  1  'x, y, z'
loop_
 _atom_site_type_symbol
 _atom_site_label
 _atom_site_symmetry_multiplicity
 _atom_site_fract_x
 _atom_site_fract_y
 _atom_site_fract_z
 _atom_site_occupancy
  Na  Na0  1  0.82684002  0.63674939  0.13005491  1
  Na  Na1  1  0.32684002  0.86325061  0.86994509  1
  Na  Na2  1  0.17315998  0.13674939  0.36994509  1
  Na  Na3  1  0.67315998  0.36325061  0.63005491  1
  Na  Na4  1  0.17315998  0.36325061  0.86994509  1
  Na  Na5  1  0.67315998  0.13674939  0.13005491  1
  Na  Na6  1  0.82684002  0.86325061  0.63005491  1
  Na  Na7  1  0.32684002  0.63674939  0.36994509  1
  Na  Na8  1  0.68281430  0.60663954  0.91737059  1
  Na  Na9  1  0.18281430  0.89336046  0.08262941  1
  Na  Na10  1  0.31718570  0.10663954  0.58262941  1
  Na  Na11  1  0.81718570  0.39336046  0.41737059  1
  Na  Na12  1  0.31718570  0.39336046  0.08262941  1
  Na  Na13  1  0.81718570  0.10663954  0.91737059  1
  Na  Na14  1  0.68281430  0.89336046  0.41737059  1
  Na  Na15  1  0.18281430  0.60663954  0.58262941  1
  Na  Na16  1  0.84256978  0.37900676  0.81236974  1
  Na  Na17  1  0.34256978  0.12099324  0.18763026  1
  Na  Na18  1  0.15743022  0.87900676  0.68763026  1
  Na  Na19  1  0.65743022  0.62099324  0.31236974  1
  Na  Na20  1  0.15743022  0.62099324  0.18763026  1
  Na  Na21  1  0.65743022  0.87900676  0.81236974  1
  Na  Na22  1  0.84256978  0.12099324  0.31236974  1
  Na  Na23  1  0.34256978  0.37900676  0.68763026  1
  Si  Si24  1  0.97556554  0.62232928  0.87090132  1
  Si  Si25  1  0.47556554  0.87767072  0.12909868  1
  Si  Si26  1  0.02443446  0.12232928  0.62909868  1
  Si  Si27  1  0.52443446  0.37767072  0.37090132  1
  Si  Si28  1  0.02443446  0.37767072  0.12909868  1
  Si  Si29  1  0.52443446  0.12232928  0.87090132  1
  Si  Si30  1  0.97556554  0.87767072  0.37090132  1
  Si  Si31  1  0.47556554  0.62232928  0.62909868  1
  H  H32  1  0.92281354  0.50873278  0.27682662  1
  H  H33  1  0.42281354  0.99126722  0.72317338  1
  H  H34  1  0.07718646  0.00873278  0.22317338  1
  H  H35  1  0.57718646  0.49126722  0.77682662  1
  H  H36  1  0.07718646  0.49126722  0.72317338  1
  H  H37  1  0.57718646  0.00873278  0.27682662  1
  H  H38  1  0.92281354  0.99126722  0.77682662  1
  H  H39  1  0.42281354  0.50873278  0.22317338  1
  H  H40  1  0.90749130  0.63155362  0.34365495  1
  H  H41  1  0.40749130  0.86844638  0.65634505  1
  H  H42  1  0.09250870  0.13155362  0.15634505  1
  H  H43  1  0.59250870  0.36844638  0.84365495  1
  H  H44  1  0.09250870  0.36844638  0.65634505  1
  H  H45  1  0.59250870  0.13155362  0.34365495  1
  H  H46  1  0.90749130  0.86844638  0.84365495  1
  H  H47  1  0.40749130  0.63155362  0.15634505  1
  H  H48  1  0.81114679  0.65668800  0.74335226  1
  H  H49  1  0.31114679  0.84331200  0.25664774  1
  H  H50  1  0.18885321  0.15668800  0.75664774  1
  H  H51  1  0.68885321  0.34331200  0.24335226  1
  H  H52  1  0.18885321  0.34331200  0.25664774  1
  H  H53  1  0.68885321  0.15668800  0.74335226  1
  H  H54  1  0.81114679  0.84331200  0.24335226  1
  H  H55  1  0.31114679  0.65668800  0.75664774  1
  H  H56  1  0.68958428  0.64677226  0.68845812  1
  H  H57  1  0.18958428  0.85322774  0.31154188  1
  H  H58  1  0.31041572  0.14677226  0.81154188  1
  H  H59  1  0.81041572  0.35322774  0.18845812  1
  H  H60  1  0.31041572  0.35322774  0.31154188  1
  H  H61  1  0.81041572  0.14677226  0.68845812  1
  H  H62  1  0.68958428  0.85322774  0.18845812  1
  H  H63  1  0.18958428  0.64677226  0.81154188  1
  H  H64  1  0.82940779  0.69798379  0.46338434  1
  H  H65  1  0.32940779  0.80201621  0.53661566  1
  H  H66  1  0.17059221  0.19798379  0.03661566  1
  H  H67  1  0.67059221  0.30201621  0.96338434  1
  H  H68  1  0.17059221  0.30201621  0.53661566  1
  H  H69  1  0.67059221  0.19798379  0.46338434  1
  H  H70  1  0.82940779  0.80201621  0.96338434  1
  H  H71  1  0.32940779  0.69798379  0.03661566  1
  H  H72  1  0.71627647  0.65004190  0.52645729  1
  H  H73  1  0.21627647  0.84995810  0.47354271  1
  H  H74  1  0.28372353  0.15004190  0.97354271  1
  H  H75  1  0.78372353  0.34995810  0.02645729  1
  H  H76  1  0.28372353  0.34995810  0.47354271  1
  H  H77  1  0.78372353  0.15004190  0.52645729  1
  H  H78  1  0.71627647  0.84995810  0.02645729  1
  H  H79  1  0.21627647  0.65004190  0.97354271  1
  H  H80  1  0.98391629  0.81022256  0.16297195  1
  H  H81  1  0.48391629  0.68977744  0.83702805  1
  H  H82  1  0.01608371  0.31022256  0.33702805  1
  H  H83  1  0.51608371  0.18977744  0.66297195  1
  H  H84  1  0.01608371  0.18977744  0.83702805  1
  H  H85  1  0.51608371  0.31022256  0.16297195  1
  H  H86  1  0.98391629  0.68977744  0.66297195  1
  H  H87  1  0.48391629  0.81022256  0.33702805  1
  H  H88  1  0.99356189  0.76103077  0.04179775  1
  H  H89  1  0.49356189  0.73896923  0.95820225  1
  H  H90  1  0.00643811  0.26103077  0.45820225  1
  H  H91  1  0.50643811  0.23896923  0.54179775  1
  H  H92  1  0.00643811  0.23896923  0.95820225  1
  H  H93  1  0.50643811  0.26103077  0.04179775  1
  H  H94  1  0.99356189  0.73896923  0.54179775  1
  H  H95  1  0.49356189  0.76103077  0.45820225  1
  H  H96  1  0.92827249  0.36369475  0.60284408  1
  H  H97  1  0.42827249  0.13630525  0.39715592  1
  H  H98  1  0.07172751  0.86369475  0.89715592  1
  H  H99  1  0.57172751  0.63630525  0.10284408  1
  H  H100  1  0.07172751  0.63630525  0.39715592  1
  H  H101  1  0.57172751  0.86369475  0.60284408  1
  H  H102  1  0.92827249  0.13630525  0.10284408  1
  H  H103  1  0.42827249  0.36369475  0.89715592  1
  H  H104  1  0.89679398  0.49591375  0.64802503  1
  H  H105  1  0.39679398  0.00408625  0.35197497  1
  H  H106  1  0.10320602  0.99591375  0.85197497  1
  H  H107  1  0.60320602  0.50408625  0.14802503  1
  H  H108  1  0.10320602  0.50408625  0.35197497  1
  H  H109  1  0.60320602  0.99591375  0.64802503  1
  H  H110  1  0.89679398  0.00408625  0.14802503  1
  H  H111  1  0.39679398  0.49591375  0.85197497  1
  H  H112  1  0.89372573  0.49651115  0.00134208  1
  H  H113  1  0.39372573  0.00348885  0.99865792  1
  H  H114  1  0.10627427  0.99651115  0.49865792  1
  H  H115  1  0.60627427  0.50348885  0.50134208  1
  H  H116  1  0.10627427  0.50348885  0.99865792  1
  H  H117  1  0.60627427  0.99651115  0.00134208  1
  H  H118  1  0.89372573  0.00348885  0.50134208  1
  H  H119  1  0.39372573  0.49651115  0.49865792  1
  O  O120  1  0.87537677  0.54280129  0.93400637  1
  O  O121  1  0.37537677  0.95719871  0.06599363  1
  O  O122  1  0.12462323  0.04280129  0.56599363  1
  O  O123  1  0.62462323  0.45719871  0.43400637  1
  O  O124  1  0.12462323  0.45719871  0.06599363  1
  O  O125  1  0.62462323  0.04280129  0.93400637  1
  O  O126  1  0.87537677  0.95719871  0.43400637  1
  O  O127  1  0.37537677  0.54280129  0.56599363  1
  O  O128  1  0.96557023  0.76631204  0.90794551  1
  O  O129  1  0.46557023  0.73368796  0.09205449  1
  O  O130  1  0.03442977  0.26631204  0.59205449  1
  O  O131  1  0.53442977  0.23368796  0.40794551  1
  O  O132  1  0.03442977  0.23368796  0.09205449  1
  O  O133  1  0.53442977  0.26631204  0.90794551  1
  O  O134  1  0.96557023  0.73368796  0.40794551  1
  O  O135  1  0.46557023  0.76631204  0.59205449  1
  O  O136  1  0.10065085  0.56766995  0.89578129  1
  O  O137  1  0.60065085  0.93233005  0.10421871  1
  O  O138  1  0.89934915  0.06766995  0.60421871  1
  O  O139  1  0.39934915  0.43233005  0.39578129  1
  O  O140  1  0.89934915  0.43233005  0.10421871  1
  O  O141  1  0.39934915  0.06766995  0.89578129  1
  O  O142  1  0.10065085  0.93233005  0.39578129  1
  O  O143  1  0.60065085  0.56766995  0.60421871  1
  O  O144  1  0.94108693  0.59897402  0.74952697  1
  O  O145  1  0.44108693  0.90102598  0.25047303  1
  O  O146  1  0.05891307  0.09897402  0.75047303  1
  O  O147  1  0.55891307  0.40102598  0.24952697  1
  O  O148  1  0.05891307  0.40102598  0.25047303  1
  O  O149  1  0.55891307  0.09897402  0.74952697  1
  O  O150  1  0.94108693  0.90102598  0.24952697  1
  O  O151  1  0.44108693  0.59897402  0.75047303  1
  O  O152  1  0.86481269  0.56203118  0.30808638  1
  O  O153  1  0.36481269  0.93796882  0.69191362  1
  O  O154  1  0.13518731  0.06203118  0.19191362  1
  O  O155  1  0.63518731  0.43796882  0.80808638  1
  O  O156  1  0.13518731  0.43796882  0.69191362  1
  O  O157  1  0.63518731  0.06203118  0.30808638  1
  O  O158  1  0.86481269  0.93796882  0.80808638  1
  O  O159  1  0.36481269  0.56203118  0.19191362  1
  O  O160  1  0.73426648  0.69575736  0.73924530  1
  O  O161  1  0.23426648  0.80424264  0.26075470  1
  O  O162  1  0.26573352  0.19575736  0.76075470  1
  O  O163  1  0.76573352  0.30424264  0.23924530  1
  O  O164  1  0.26573352  0.30424264  0.26075470  1
  O  O165  1  0.76573352  0.19575736  0.73924530  1
  O  O166  1  0.73426648  0.80424264  0.23924530  1
  O  O167  1  0.23426648  0.69575736  0.76075470  1
  O  O168  1  0.75220358  0.71668336  0.48712565  1
  O  O169  1  0.25220358  0.78331664  0.51287435  1
  O  O170  1  0.24779642  0.21668336  0.01287435  1
  O  O171  1  0.74779642  0.28331664  0.98712565  1
  O  O172  1  0.24779642  0.28331664  0.51287435  1
  O  O173  1  0.74779642  0.21668336  0.48712565  1
  O  O174  1  0.75220358  0.78331664  0.98712565  1
  O  O175  1  0.25220358  0.71668336  0.01287435  1
  O  O176  1  0.01382801  0.74415150  0.11501572  1
  O  O177  1  0.51382801  0.75584850  0.88498428  1
  O  O178  1  0.98617199  0.24415150  0.38498428  1
  O  O179  1  0.48617199  0.25584850  0.61501572  1
  O  O180  1  0.98617199  0.25584850  0.88498428  1
  O  O181  1  0.48617199  0.24415150  0.11501572  1
  O  O182  1  0.01382801  0.75584850  0.61501572  1
  O  O183  1  0.51382801  0.74415150  0.38498428  1
  O  O184  1  0.86563104  0.42623982  0.60834123  1
  O  O185  1  0.36563104  0.07376018  0.39165877  1
  O  O186  1  0.13436896  0.92623982  0.89165877  1
  O  O187  1  0.63436896  0.57376018  0.10834123  1
  O  O188  1  0.13436896  0.57376018  0.39165877  1
  O  O189  1  0.63436896  0.92623982  0.60834123  1
  O  O190  1  0.86563104  0.07376018  0.10834123  1
  O  O191  1  0.36563104  0.42623982  0.89165877  1
