# generated using pymatgen
data_Ca5Ti3NbAl(SiO5)5
_symmetry_space_group_name_H-M   'P 1'
_cell_length_a   5.47282159
_cell_length_b   27.53166453
_cell_length_c   7.12746394
_cell_angle_alpha   104.37694314
_cell_angle_beta   103.69469944
_cell_angle_gamma   105.86812558
_symmetry_Int_Tables_number   1
_chemical_formula_structural   Ca5Ti3NbAl(SiO5)5
_chemical_formula_sum   'Ca10 Ti6 Nb2 Al2 Si10 O50'
_cell_volume   945.66859813
_cell_formula_units_Z   2
loop_
 _symmetry_equiv_pos_site_id
 _symmetry_equiv_pos_as_xyz
  1  'x, y, z'
loop_
 _atom_site_type_symbol
 _atom_site_label
 _atom_site_symmetry_multiplicity
 _atom_site_fract_x
 _atom_site_fract_y
 _atom_site_fract_z
 _atom_site_occupancy
  Ca  Ca0  1  0.17484718  0.96802897  0.76277739  1
  Ca  Ca1  1  0.18288721  0.76893473  0.77172830  1
  Ca  Ca2  1  0.17355378  0.56704164  0.75610764  1
  Ca  Ca3  1  0.16693611  0.36539704  0.75093157  1
  Ca  Ca4  1  0.81711279  0.83106527  0.22827170  1
  Ca  Ca5  1  0.16644935  0.16633691  0.74916519  1
  Ca  Ca6  1  0.82515282  0.63197103  0.23722261  1
  Ca  Ca7  1  0.83355065  0.43366309  0.25083481  1
  Ca  Ca8  1  0.83306389  0.23460296  0.24906843  1
  Ca  Ca9  1  0.82644622  0.03295836  0.24389236  1
  Ti  Ti10  1  0.49868280  0.49859473  0.99670151  1
  Ti  Ti11  1  0.50414207  0.50039626  0.50022093  1
  Ti  Ti12  1  0.50000000  0.30000000  0.00000000  1
  Ti  Ti13  1  0.50000000  0.30000000  0.50000000  1
  Ti  Ti14  1  0.50131720  0.10140527  0.00329849  1
  Ti  Ti15  1  0.49585793  0.09960374  0.49977907  1
  Nb  Nb16  1  0.49463914  0.89941531  0.49836836  1
  Nb  Nb17  1  0.50536086  0.70058469  0.50163164  1
  Al  Al18  1  0.50145301  0.90149515  0.00288761  1
  Al  Al19  1  0.49854699  0.69850485  0.99711239  1
  Si  Si20  1  0.17685301  0.96362953  0.24339175  1
  Si  Si21  1  0.17287183  0.76128692  0.23829191  1
  Si  Si22  1  0.18073014  0.56189618  0.24697308  1
  Si  Si23  1  0.82712817  0.83871308  0.76170809  1
  Si  Si24  1  0.18320543  0.36383593  0.25132449  1
  Si  Si25  1  0.82314699  0.63637047  0.75660825  1
  Si  Si26  1  0.18240670  0.16400498  0.25256380  1
  Si  Si27  1  0.81759330  0.43599502  0.74743620  1
  Si  Si28  1  0.81679457  0.23616407  0.74867551  1
  Si  Si29  1  0.81926986  0.03810382  0.75302692  1
  O  O30  1  0.12718317  0.85226111  0.91852386  1
  O  O31  1  0.18165550  0.92258981  0.38268794  1
  O  O32  1  0.42881458  0.91404386  0.75609422  1
  O  O33  1  0.12429434  0.65057933  0.91498840  1
  O  O34  1  0.24181089  0.82202049  0.40426046  1
  O  O35  1  0.39865822  0.96251240  0.12270411  1
  O  O36  1  0.18339952  0.72183442  0.38222388  1
  O  O37  1  0.60417155  0.83884874  0.88104749  1
  O  O38  1  0.75422371  0.97736556  0.59298696  1
  O  O39  1  0.43048517  0.71330343  0.75462952  1
  O  O40  1  0.11801237  0.44972430  0.91006859  1
  O  O41  1  0.56951483  0.88669657  0.24537048  1
  O  O42  1  0.24577629  0.62263444  0.40701304  1
  O  O43  1  0.39582845  0.76115126  0.11895251  1
  O  O44  1  0.18782307  0.52118014  0.38203371  1
  O  O45  1  0.81660048  0.87816558  0.61777612  1
  O  O46  1  0.60134178  0.63748760  0.87729589  1
  O  O47  1  0.75818911  0.77797951  0.59573954  1
  O  O48  1  0.43397474  0.51398421  0.75095998  1
  O  O49  1  0.87570566  0.94942067  0.08501160  1
  O  O50  1  0.11799355  0.25024737  0.91093515  1
  O  O51  1  0.57118542  0.68595614  0.24390578  1
  O  O52  1  0.25097077  0.42417445  0.41182766  1
  O  O53  1  0.39472563  0.56199375  0.11858927  1
  O  O54  1  0.18752567  0.32188080  0.38299227  1
  O  O55  1  0.81834450  0.67741019  0.61731206  1
  O  O56  1  0.60436281  0.43639424  0.87746981  1
  O  O57  1  0.75295987  0.57608201  0.58937911  1
  O  O58  1  0.43159431  0.31403497  0.75072441  1
  O  O59  1  0.87281683  0.74773889  0.08147614  1
  O  O60  1  0.11897600  0.05155177  0.91404429  1
  O  O61  1  0.56959329  0.48545844  0.24832484  1
  O  O62  1  0.24860859  0.22441134  0.41286271  1
  O  O63  1  0.39433391  0.36265117  0.11964498  1
  O  O64  1  0.18521450  0.12197101  0.38315994  1
  O  O65  1  0.81478550  0.47802899  0.61684006  1
  O  O66  1  0.60566609  0.23734883  0.88035502  1
  O  O67  1  0.75139141  0.37558866  0.58713729  1
  O  O68  1  0.43040671  0.11454156  0.75167516  1
  O  O69  1  0.88102400  0.54844823  0.08595571  1
  O  O70  1  0.56840569  0.28596503  0.24927559  1
  O  O71  1  0.24704013  0.02391799  0.41062089  1
  O  O72  1  0.39563719  0.16360576  0.12253019  1
  O  O73  1  0.81247433  0.27811920  0.61700773  1
  O  O74  1  0.60527437  0.03800625  0.88141073  1
  O  O75  1  0.74902923  0.17582555  0.58817234  1
  O  O76  1  0.88200645  0.34975263  0.08906485  1
  O  O77  1  0.56602526  0.08601579  0.24904002  1
  O  O78  1  0.81217693  0.07881986  0.61796629  1
  O  O79  1  0.88198763  0.15027570  0.08993141  1
