# generated using pymatgen
data_KAlP2H4O9
_symmetry_space_group_name_H-M   'P 1'
_cell_length_a   10.11100235
_cell_length_b   9.20816271
_cell_length_c   16.38954743
_cell_angle_alpha   90.00000000
_cell_angle_beta   100.06128285
_cell_angle_gamma   90.00000000
_symmetry_Int_Tables_number   1
_chemical_formula_structural   KAlP2H4O9
_chemical_formula_sum   'K8 Al8 P16 H32 O72'
_cell_volume   1502.46185096
_cell_formula_units_Z   8
loop_
 _symmetry_equiv_pos_site_id
 _symmetry_equiv_pos_as_xyz
  1  'x, y, z'
loop_
 _atom_site_type_symbol
 _atom_site_label
 _atom_site_symmetry_multiplicity
 _atom_site_fract_x
 _atom_site_fract_y
 _atom_site_fract_z
 _atom_site_occupancy
  K  K0  1  0.10917483  0.05304324  0.88897852  1
  K  K1  1  0.89082517  0.55304324  0.61102148  1
  K  K2  1  0.89082517  0.94695676  0.11102148  1
  K  K3  1  0.10917483  0.44695676  0.38897852  1
  K  K4  1  0.77172307  0.84446022  0.77072768  1
  K  K5  1  0.22827693  0.34446022  0.72927232  1
  K  K6  1  0.22827693  0.15553978  0.22927232  1
  K  K7  1  0.77172307  0.65553978  0.27072768  1
  Al  Al8  1  0.41011256  0.68789049  0.80432700  1
  Al  Al9  1  0.58988744  0.18789049  0.69567300  1
  Al  Al10  1  0.58988744  0.31210951  0.19567300  1
  Al  Al11  1  0.41011256  0.81210951  0.30432700  1
  Al  Al12  1  0.92711979  0.41724908  0.85093970  1
  Al  Al13  1  0.07288021  0.91724908  0.64906030  1
  Al  Al14  1  0.07288021  0.58275092  0.14906030  1
  Al  Al15  1  0.92711979  0.08275092  0.35093970  1
  P  P16  1  0.71367684  0.16990567  0.89096237  1
  P  P17  1  0.28632316  0.66990567  0.60903763  1
  P  P18  1  0.28632316  0.83009433  0.10903763  1
  P  P19  1  0.71367684  0.33009433  0.39096237  1
  P  P20  1  0.35793969  0.01599844  0.76111110  1
  P  P21  1  0.64206031  0.51599844  0.73888890  1
  P  P22  1  0.64206031  0.98400156  0.23888890  1
  P  P23  1  0.35793969  0.48400156  0.26111110  1
  P  P24  1  0.09733245  0.69408294  0.80328068  1
  P  P25  1  0.90266755  0.19408294  0.69671932  1
  P  P26  1  0.90266755  0.30591706  0.19671932  1
  P  P27  1  0.09733245  0.80591706  0.30328068  1
  P  P28  1  0.16865294  0.36203733  0.00832308  1
  P  P29  1  0.83134706  0.86203733  0.49167692  1
  P  P30  1  0.83134706  0.63796267  0.99167692  1
  P  P31  1  0.16865294  0.13796267  0.50832308  1
  H  H32  1  0.47578528  0.42577095  0.86235850  1
  H  H33  1  0.52421472  0.92577095  0.63764150  1
  H  H34  1  0.52421472  0.57422905  0.13764150  1
  H  H35  1  0.47578528  0.07422905  0.36235850  1
  H  H36  1  0.35999359  0.48620291  0.90888075  1
  H  H37  1  0.64000641  0.98620291  0.59111925  1
  H  H38  1  0.64000641  0.51379709  0.09111925  1
  H  H39  1  0.35999359  0.01379709  0.40888075  1
  H  H40  1  0.44524858  0.77728260  0.96242720  1
  H  H41  1  0.55475142  0.27728260  0.53757280  1
  H  H42  1  0.55475142  0.22271740  0.03757280  1
  H  H43  1  0.44524858  0.72271740  0.46242720  1
  H  H44  1  0.40996161  0.24027237  0.06664874  1
  H  H45  1  0.59003839  0.74027237  0.43335126  1
  H  H46  1  0.59003839  0.75972763  0.93335126  1
  H  H47  1  0.40996161  0.25972763  0.56664874  1
  H  H48  1  0.78954074  0.95181381  0.94155075  1
  H  H49  1  0.21045926  0.45181381  0.55844925  1
  H  H50  1  0.21045926  0.04818619  0.05844925  1
  H  H51  1  0.78954074  0.54818619  0.44155075  1
  H  H52  1  0.45899914  0.10878726  0.88372553  1
  H  H53  1  0.54100086  0.60878726  0.61627447  1
  H  H54  1  0.54100086  0.89121274  0.11627447  1
  H  H55  1  0.45899914  0.39121274  0.38372553  1
  H  H56  1  0.02056584  0.29669727  0.10071587  1
  H  H57  1  0.97943416  0.79669727  0.39928413  1
  H  H58  1  0.97943416  0.70330273  0.89928413  1
  H  H59  1  0.02056584  0.20330273  0.60071587  1
  H  H60  1  0.26483910  0.57147203  0.02966866  1
  H  H61  1  0.73516090  0.07147203  0.47033134  1
  H  H62  1  0.73516090  0.42852797  0.97033134  1
  H  H63  1  0.26483910  0.92852797  0.52966866  1
  O  O64  1  0.59328915  0.17835023  0.93568562  1
  O  O65  1  0.40671085  0.67835023  0.56431438  1
  O  O66  1  0.40671085  0.82164977  0.06431438  1
  O  O67  1  0.59328915  0.32164977  0.43568562  1
  O  O68  1  0.82339203  0.05304132  0.93461724  1
  O  O69  1  0.17660797  0.55304132  0.56538276  1
  O  O70  1  0.17660797  0.94695868  0.06538276  1
  O  O71  1  0.82339203  0.44695868  0.43461724  1
  O  O72  1  0.67434739  0.11628041  0.80074379  1
  O  O73  1  0.32565261  0.61628041  0.69925621  1
  O  O74  1  0.32565261  0.88371959  0.19925621  1
  O  O75  1  0.67434739  0.38371959  0.30074379  1
  O  O76  1  0.79135954  0.31560933  0.89916726  1
  O  O77  1  0.20864046  0.81560933  0.60083274  1
  O  O78  1  0.20864046  0.68439067  0.10083274  1
  O  O79  1  0.79135954  0.18439067  0.39916726  1
  O  O80  1  0.43339099  0.87160527  0.76113373  1
  O  O81  1  0.56660901  0.37160527  0.73886627  1
  O  O82  1  0.56660901  0.12839473  0.23886627  1
  O  O83  1  0.43339099  0.62839473  0.26113373  1
  O  O84  1  0.41988013  0.12860797  0.70924370  1
  O  O85  1  0.58011987  0.62860797  0.79075630  1
  O  O86  1  0.58011987  0.87139203  0.29075630  1
  O  O87  1  0.41988013  0.37139203  0.20924370  1
  O  O88  1  0.20609303  0.00624268  0.73122727  1
  O  O89  1  0.79390697  0.50624268  0.76877273  1
  O  O90  1  0.79390697  0.99375732  0.26877273  1
  O  O91  1  0.20609303  0.49375732  0.23122727  1
  O  O92  1  0.36635446  0.07855813  0.85260724  1
  O  O93  1  0.63364554  0.57855813  0.64739276  1
  O  O94  1  0.63364554  0.92144187  0.14739276  1
  O  O95  1  0.36635446  0.42144187  0.35260724  1
  O  O96  1  0.02081724  0.78034804  0.86618379  1
  O  O97  1  0.97918276  0.28034804  0.63381621  1
  O  O98  1  0.97918276  0.21965196  0.13381621  1
  O  O99  1  0.02081724  0.71965196  0.36618379  1
  O  O100  1  0.24649127  0.72092294  0.83530839  1
  O  O101  1  0.75350873  0.22092294  0.66469161  1
  O  O102  1  0.75350873  0.27907706  0.16469161  1
  O  O103  1  0.24649127  0.77907706  0.33530839  1
  O  O104  1  0.05763660  0.53350485  0.80504586  1
  O  O105  1  0.94236340  0.03350485  0.69495414  1
  O  O106  1  0.94236340  0.46649515  0.19495414  1
  O  O107  1  0.05763660  0.96649515  0.30504586  1
  O  O108  1  0.04627630  0.76017713  0.71758552  1
  O  O109  1  0.95372370  0.26017713  0.78241448  1
  O  O110  1  0.95372370  0.23982287  0.28241448  1
  O  O111  1  0.04627630  0.73982287  0.21758552  1
  O  O112  1  0.27810208  0.48321798  0.99541958  1
  O  O113  1  0.72189792  0.98321798  0.50458042  1
  O  O114  1  0.72189792  0.51678202  0.00458042  1
  O  O115  1  0.27810208  0.01678202  0.49541958  1
  O  O116  1  0.24351974  0.22210140  0.03827016  1
  O  O117  1  0.75648026  0.72210140  0.46172984  1
  O  O118  1  0.75648026  0.77789860  0.96172984  1
  O  O119  1  0.24351974  0.27789860  0.53827016  1
  O  O120  1  0.09162235  0.42648846  0.07374356  1
  O  O121  1  0.90837765  0.92648846  0.42625644  1
  O  O122  1  0.90837765  0.57351154  0.92625644  1
  O  O123  1  0.09162235  0.07351154  0.57374356  1
  O  O124  1  0.07360243  0.33437868  0.92669812  1
  O  O125  1  0.92639757  0.83437868  0.57330188  1
  O  O126  1  0.92639757  0.66562132  0.07330188  1
  O  O127  1  0.07360243  0.16562132  0.42669812  1
  O  O128  1  0.39360012  0.48348590  0.85528779  1
  O  O129  1  0.60639988  0.98348590  0.64471221  1
  O  O130  1  0.60639988  0.51651410  0.14471221  1
  O  O131  1  0.39360012  0.01651410  0.35528779  1
  O  O132  1  0.49049211  0.74997564  0.91564038  1
  O  O133  1  0.50950789  0.24997564  0.58435962  1
  O  O134  1  0.50950789  0.25002436  0.08435962  1
  O  O135  1  0.49049211  0.75002436  0.41564038  1
