# generated using pymatgen
data_NaB2H5O6
_symmetry_space_group_name_H-M   'P 1'
_cell_length_a   9.67183226
_cell_length_b   9.67183226
_cell_length_c   9.67183200
_cell_angle_alpha   71.39745147
_cell_angle_beta   71.39745147
_cell_angle_gamma   71.39745526
_symmetry_Int_Tables_number   1
_chemical_formula_structural   NaB2H5O6
_chemical_formula_sum   'Na6 B12 H30 O36'
_cell_volume   788.55098455
_cell_formula_units_Z   6
loop_
 _symmetry_equiv_pos_site_id
 _symmetry_equiv_pos_as_xyz
  1  'x, y, z'
loop_
 _atom_site_type_symbol
 _atom_site_label
 _atom_site_symmetry_multiplicity
 _atom_site_fract_x
 _atom_site_fract_y
 _atom_site_fract_z
 _atom_site_occupancy
  Na  Na0  1  0.50000000  0.17458700  0.82541300  1
  Na  Na1  1  0.82541300  0.50000000  0.17458700  1
  Na  Na2  1  0.17458700  0.82541300  0.50000000  1
  Na  Na3  1  0.50000000  0.50000000  0.50000000  1
  Na  Na4  1  0.91472007  0.91472007  0.91472007  1
  Na  Na5  1  0.08527993  0.08527993  0.08527993  1
  B  B6  1  0.52435098  0.88387950  0.44729797  1
  B  B7  1  0.44729797  0.52435098  0.88387950  1
  B  B8  1  0.88387950  0.44729797  0.52435098  1
  B  B9  1  0.55270203  0.11612050  0.47564902  1
  B  B10  1  0.11612050  0.47564902  0.55270203  1
  B  B11  1  0.47564902  0.55270203  0.11612050  1
  B  B12  1  0.46962342  0.76981566  0.89343785  1
  B  B13  1  0.89343785  0.46962342  0.76981566  1
  B  B14  1  0.76981566  0.89343785  0.46962342  1
  B  B15  1  0.10656215  0.23018434  0.53037658  1
  B  B16  1  0.23018434  0.53037658  0.10656215  1
  B  B17  1  0.53037658  0.10656215  0.23018434  1
  H  H18  1  0.43594364  0.73598283  0.61741339  1
  H  H19  1  0.61741339  0.43594364  0.73598283  1
  H  H20  1  0.73598283  0.61741339  0.43594364  1
  H  H21  1  0.38258661  0.26401717  0.56405636  1
  H  H22  1  0.26401717  0.56405636  0.38258661  1
  H  H23  1  0.56405636  0.38258661  0.26401717  1
  H  H24  1  0.47390774  0.94269673  0.71453107  1
  H  H25  1  0.71453107  0.47390774  0.94269673  1
  H  H26  1  0.94269673  0.71453107  0.47390774  1
  H  H27  1  0.28546893  0.05730327  0.52609226  1
  H  H28  1  0.05730327  0.52609226  0.28546893  1
  H  H29  1  0.52609226  0.28546893  0.05730327  1
  H  H30  1  0.76213568  0.05819229  0.64188368  1
  H  H31  1  0.64188368  0.76213568  0.05819229  1
  H  H32  1  0.05819229  0.64188368  0.76213568  1
  H  H33  1  0.35811632  0.94180771  0.23786432  1
  H  H34  1  0.94180771  0.23786432  0.35811632  1
  H  H35  1  0.23786432  0.35811632  0.94180771  1
  H  H36  1  0.83330662  0.16515661  0.66848171  1
  H  H37  1  0.66848171  0.83330662  0.16515661  1
  H  H38  1  0.16515661  0.66848171  0.83330662  1
  H  H39  1  0.33151829  0.83484339  0.16669338  1
  H  H40  1  0.83484339  0.16669338  0.33151829  1
  H  H41  1  0.16669338  0.33151829  0.83484339  1
  H  H42  1  0.97175543  0.84686583  0.25882181  1
  H  H43  1  0.25882181  0.97175543  0.84686583  1
  H  H44  1  0.84686583  0.25882181  0.97175543  1
  H  H45  1  0.74117819  0.15313417  0.02824457  1
  H  H46  1  0.15313417  0.02824457  0.74117819  1
  H  H47  1  0.02824457  0.74117819  0.15313417  1
  O  O48  1  1.00000000  0.53512806  0.46487194  1
  O  O49  1  0.46487194  0.00000000  0.53512806  1
  O  O50  1  0.53512806  0.46487194  0.00000000  1
  O  O51  1  0.71358489  0.04003614  0.48493981  1
  O  O52  1  0.48493981  0.71358489  0.04003614  1
  O  O53  1  0.04003614  0.48493981  0.71358489  1
  O  O54  1  0.51506019  0.95996386  0.28641511  1
  O  O55  1  0.95996386  0.28641511  0.51506019  1
  O  O56  1  0.28641511  0.51506019  0.95996386  1
  O  O57  1  0.44810153  0.68584103  0.81539617  1
  O  O58  1  0.81539617  0.44810153  0.68584103  1
  O  O59  1  0.68584103  0.81539617  0.44810153  1
  O  O60  1  0.18460383  0.31415897  0.55189847  1
  O  O61  1  0.31415897  0.55189847  0.18460383  1
  O  O62  1  0.55189847  0.18460383  0.31415897  1
  O  O63  1  0.43917070  0.76928165  0.50853435  1
  O  O64  1  0.50853435  0.43917070  0.76928165  1
  O  O65  1  0.76928165  0.50853435  0.43917070  1
  O  O66  1  0.49146565  0.23071835  0.56082930  1
  O  O67  1  0.23071835  0.56082930  0.49146565  1
  O  O68  1  0.56082930  0.49146565  0.23071835  1
  O  O69  1  0.47226202  0.91939674  0.82484046  1
  O  O70  1  0.82484046  0.47226202  0.91939674  1
  O  O71  1  0.91939674  0.82484046  0.47226202  1
  O  O72  1  0.17515954  0.08060326  0.52773798  1
  O  O73  1  0.08060326  0.52773798  0.17515954  1
  O  O74  1  0.52773798  0.17515954  0.08060326  1
  O  O75  1  0.77832169  0.08621874  0.72464706  1
  O  O76  1  0.72464706  0.77832169  0.08621874  1
  O  O77  1  0.08621874  0.72464706  0.77832169  1
  O  O78  1  0.27535294  0.91378126  0.22167831  1
  O  O79  1  0.91378126  0.22167831  0.27535294  1
  O  O80  1  0.22167831  0.27535294  0.91378126  1
  O  O81  1  0.00000000  0.84854140  0.15145860  1
  O  O82  1  0.15145860  1.00000000  0.84854140  1
  O  O83  1  0.84854140  0.15145860  0.00000000  1
