# generated using pymatgen
data_SiH14(O2F3)2
_symmetry_space_group_name_H-M   'P 1'
_cell_length_a   5.75596884
_cell_length_b   13.33617821
_cell_length_c   6.13651121
_cell_angle_alpha   90.00000000
_cell_angle_beta   108.56180823
_cell_angle_gamma   90.00000000
_symmetry_Int_Tables_number   1
_chemical_formula_structural   SiH14(O2F3)2
_chemical_formula_sum   'Si2 H28 O8 F12'
_cell_volume   446.55083088
_cell_formula_units_Z   2
loop_
 _symmetry_equiv_pos_site_id
 _symmetry_equiv_pos_as_xyz
  1  'x, y, z'
loop_
 _atom_site_type_symbol
 _atom_site_label
 _atom_site_symmetry_multiplicity
 _atom_site_fract_x
 _atom_site_fract_y
 _atom_site_fract_z
 _atom_site_occupancy
  Si  Si0  1  0.00000000  0.50000000  0.50000000  1
  Si  Si1  1  0.00000000  0.00000000  0.00000000  1
  H  H2  1  0.57271885  0.14166116  0.42035517  1
  H  H3  1  0.42728115  0.64166116  0.07964483  1
  H  H4  1  0.42728115  0.85833884  0.57964483  1
  H  H5  1  0.57271885  0.35833884  0.92035517  1
  H  H6  1  0.69352101  0.13649880  0.22231670  1
  H  H7  1  0.30647899  0.63649880  0.27768330  1
  H  H8  1  0.30647899  0.86350120  0.77768330  1
  H  H9  1  0.69352101  0.36350120  0.72231670  1
  H  H10  1  0.87415904  0.20805094  0.48633569  1
  H  H11  1  0.12584096  0.70805094  0.01366431  1
  H  H12  1  0.12584096  0.79194906  0.51366431  1
  H  H13  1  0.87415904  0.29194906  0.98633569  1
  H  H14  1  0.11527846  0.30075677  0.58349799  1
  H  H15  1  0.88472154  0.80075677  0.91650201  1
  H  H16  1  0.88472154  0.69924323  0.41650201  1
  H  H17  1  0.11527846  0.19924323  0.08349799  1
  H  H18  1  0.17621049  0.18083170  0.64658842  1
  H  H19  1  0.82378951  0.68083170  0.85341158  1
  H  H20  1  0.82378951  0.81916830  0.35341158  1
  H  H21  1  0.17621049  0.31916830  0.14658842  1
  H  H22  1  0.33463522  0.07102852  0.56861813  1
  H  H23  1  0.66536478  0.57102852  0.93138187  1
  H  H24  1  0.66536478  0.92897148  0.43138187  1
  H  H25  1  0.33463522  0.42897148  0.06861813  1
  H  H26  1  0.43741527  0.08662872  0.67627277  1
  H  H27  1  0.56258473  0.58662872  0.82372723  1
  H  H28  1  0.56258473  0.91337128  0.32372723  1
  H  H29  1  0.43741527  0.41337128  0.17627277  1
  O  O30  1  0.66492432  0.18135134  0.34261568  1
  O  O31  1  0.33507568  0.68135134  0.15738432  1
  O  O32  1  0.33507568  0.81864866  0.65738432  1
  O  O33  1  0.66492432  0.31864866  0.84261568  1
  O  O34  1  0.05207370  0.23304535  0.62183738  1
  O  O35  1  0.94792630  0.73304535  0.87816262  1
  O  O36  1  0.94792630  0.76695465  0.37816262  1
  O  O37  1  0.05207370  0.26695465  0.12183738  1
  F  F38  1  0.20842358  0.40047308  0.55433396  1
  F  F39  1  0.79157642  0.90047308  0.94566604  1
  F  F40  1  0.79157642  0.59952692  0.44566604  1
  F  F41  1  0.20842358  0.09952692  0.05433396  1
  F  F42  1  0.22666699  0.57933326  0.47108373  1
  F  F43  1  0.77333301  0.07933326  0.02891627  1
  F  F44  1  0.77333301  0.42066674  0.52891627  1
  F  F45  1  0.22666699  0.92066674  0.97108373  1
  F  F46  1  0.08438180  0.52672482  0.78356962  1
  F  F47  1  0.91561820  0.02672482  0.71643038  1
  F  F48  1  0.91561820  0.47327518  0.21643038  1
  F  F49  1  0.08438180  0.97327518  0.28356962  1
