# generated using pymatgen
data_K2Zn3P4(HO3)4
_symmetry_space_group_name_H-M   'P 1'
_cell_length_a   12.55645297
_cell_length_b   13.85102712
_cell_length_c   8.75424163
_cell_angle_alpha   90.00000000
_cell_angle_beta   90.75350094
_cell_angle_gamma   90.00000000
_symmetry_Int_Tables_number   1
_chemical_formula_structural   K2Zn3P4(HO3)4
_chemical_formula_sum   'K8 Zn12 P16 H16 O48'
_cell_volume   1522.40403585
_cell_formula_units_Z   4
loop_
 _symmetry_equiv_pos_site_id
 _symmetry_equiv_pos_as_xyz
  1  'x, y, z'
loop_
 _atom_site_type_symbol
 _atom_site_label
 _atom_site_symmetry_multiplicity
 _atom_site_fract_x
 _atom_site_fract_y
 _atom_site_fract_z
 _atom_site_occupancy
  K  K0  1  0.01885480  0.05389919  0.23890378  1
  K  K1  1  0.98114520  0.55389919  0.26109622  1
  K  K2  1  0.98114520  0.94610081  0.76109622  1
  K  K3  1  0.01885480  0.44610081  0.73890378  1
  K  K4  1  0.47401776  0.05438629  0.25657572  1
  K  K5  1  0.52598224  0.55438629  0.24342428  1
  K  K6  1  0.52598224  0.94561371  0.74342428  1
  K  K7  1  0.47401776  0.44561371  0.75657572  1
  Zn  Zn8  1  0.75017058  0.06325991  0.05675551  1
  Zn  Zn9  1  0.24982942  0.56325991  0.44324449  1
  Zn  Zn10  1  0.24982942  0.93674009  0.94324449  1
  Zn  Zn11  1  0.75017058  0.43674009  0.55675551  1
  Zn  Zn12  1  0.57582871  0.82420268  0.38226690  1
  Zn  Zn13  1  0.42417129  0.32420268  0.11773310  1
  Zn  Zn14  1  0.42417129  0.17579732  0.61773310  1
  Zn  Zn15  1  0.57582871  0.67579732  0.88226690  1
  Zn  Zn16  1  0.07166187  0.31499828  0.08736847  1
  Zn  Zn17  1  0.92833813  0.81499828  0.41263153  1
  Zn  Zn18  1  0.92833813  0.68500172  0.91263153  1
  Zn  Zn19  1  0.07166187  0.18500172  0.58736847  1
  P  P20  1  0.57670981  0.20118608  0.90420902  1
  P  P21  1  0.42329019  0.70118608  0.59579098  1
  P  P22  1  0.42329019  0.79881392  0.09579098  1
  P  P23  1  0.57670981  0.29881392  0.40420902  1
  P  P24  1  0.75645550  0.98961679  0.43113001  1
  P  P25  1  0.24354450  0.48961679  0.06886999  1
  P  P26  1  0.24354450  0.01038321  0.56886999  1
  P  P27  1  0.75645550  0.51038321  0.93113001  1
  P  P28  1  0.91873461  0.19713008  0.87155269  1
  P  P29  1  0.08126539  0.69713008  0.62844731  1
  P  P30  1  0.08126539  0.80286992  0.12844731  1
  P  P31  1  0.91873461  0.30286992  0.37155269  1
  P  P32  1  0.74402148  0.84355438  0.93024880  1
  P  P33  1  0.25597852  0.34355438  0.56975120  1
  P  P34  1  0.25597852  0.15644562  0.06975120  1
  P  P35  1  0.74402148  0.65644562  0.43024880  1
  H  H36  1  0.66214872  0.22778176  0.80968542  1
  H  H37  1  0.33785128  0.72778176  0.69031458  1
  H  H38  1  0.33785128  0.77221824  0.19031458  1
  H  H39  1  0.66214872  0.27221824  0.30968542  1
  H  H40  1  0.75940785  0.07155742  0.52694714  1
  H  H41  1  0.24059215  0.57155742  0.97305286  1
  H  H42  1  0.24059215  0.92844258  0.47305286  1
  H  H43  1  0.75940785  0.42844258  0.02694714  1
  H  H44  1  0.82846806  0.21853217  0.78053409  1
  H  H45  1  0.17153194  0.71853217  0.71946591  1
  H  H46  1  0.17153194  0.78146783  0.21946591  1
  H  H47  1  0.82846806  0.28146783  0.28053409  1
  H  H48  1  0.73184216  0.81950389  0.08570943  1
  H  H49  1  0.26815784  0.31950389  0.41429057  1
  H  H50  1  0.26815784  0.18049611  0.91429057  1
  H  H51  1  0.73184216  0.68049611  0.58570943  1
  O  O52  1  0.73716034  0.95403470  0.91308610  1
  O  O53  1  0.26283966  0.45403470  0.58691390  1
  O  O54  1  0.26283966  0.04596530  0.08691390  1
  O  O55  1  0.73716034  0.54596530  0.41308610  1
  O  O56  1  0.88251325  0.13208651  0.00409526  1
  O  O57  1  0.11748675  0.63208651  0.49590474  1
  O  O58  1  0.11748675  0.86791349  0.99590474  1
  O  O59  1  0.88251325  0.36791349  0.50409526  1
  O  O60  1  0.62101500  0.14247357  0.04097799  1
  O  O61  1  0.37898500  0.64247357  0.45902201  1
  O  O62  1  0.37898500  0.85752643  0.95902201  1
  O  O63  1  0.62101500  0.35752643  0.54097799  1
  O  O64  1  0.77728991  0.02390233  0.26796339  1
  O  O65  1  0.22271009  0.52390233  0.23203661  1
  O  O66  1  0.22271009  0.97609767  0.73203661  1
  O  O67  1  0.77728991  0.47609767  0.76796339  1
  O  O68  1  0.64349676  0.94605929  0.45188515  1
  O  O69  1  0.35650324  0.44605929  0.04811485  1
  O  O70  1  0.35650324  0.05394071  0.54811485  1
  O  O71  1  0.64349676  0.55394071  0.95188515  1
  O  O72  1  0.52749371  0.29784629  0.95348246  1
  O  O73  1  0.47250629  0.79784629  0.54651754  1
  O  O74  1  0.47250629  0.70215371  0.04651754  1
  O  O75  1  0.52749371  0.20215371  0.45348246  1
  O  O76  1  0.50099913  0.13741015  0.80639266  1
  O  O77  1  0.49900087  0.63741015  0.69360734  1
  O  O78  1  0.49900087  0.86258985  0.19360734  1
  O  O79  1  0.50099913  0.36258985  0.30639266  1
  O  O80  1  0.65110942  0.79577100  0.84077322  1
  O  O81  1  0.34889058  0.29577100  0.65922678  1
  O  O82  1  0.34889058  0.20422900  0.15922678  1
  O  O83  1  0.65110942  0.70422900  0.34077322  1
  O  O84  1  0.85336571  0.80641600  0.87976602  1
  O  O85  1  0.14663429  0.30641600  0.62023398  1
  O  O86  1  0.14663429  0.19358400  0.12023398  1
  O  O87  1  0.85336571  0.69358400  0.37976602  1
  O  O88  1  0.84729434  0.92496664  0.49332515  1
  O  O89  1  0.15270566  0.42496664  0.00667485  1
  O  O90  1  0.15270566  0.07503336  0.50667485  1
  O  O91  1  0.84729434  0.57503336  0.99332515  1
  O  O92  1  0.99613338  0.14067963  0.76915170  1
  O  O93  1  0.00386662  0.64067963  0.73084830  1
  O  O94  1  0.00386662  0.85932037  0.23084830  1
  O  O95  1  0.99613338  0.35932037  0.26915170  1
  O  O96  1  0.96177356  0.29562100  0.92516019  1
  O  O97  1  0.03822644  0.79562100  0.57483981  1
  O  O98  1  0.03822644  0.70437900  0.07483981  1
  O  O99  1  0.96177356  0.20437900  0.42516019  1
