# generated using pymatgen
data_NaH2SeO4
_symmetry_space_group_name_H-M   'P 1'
_cell_length_a   6.65592999
_cell_length_b   6.65592999
_cell_length_c   9.81744010
_cell_angle_alpha   90.00000000
_cell_angle_beta   90.00000000
_cell_angle_gamma   62.96359371
_symmetry_Int_Tables_number   1
_chemical_formula_structural   NaH2SeO4
_chemical_formula_sum   'Na4 H8 Se4 O16'
_cell_volume   387.39670102
_cell_formula_units_Z   4
loop_
 _symmetry_equiv_pos_site_id
 _symmetry_equiv_pos_as_xyz
  1  'x, y, z'
loop_
 _atom_site_type_symbol
 _atom_site_label
 _atom_site_symmetry_multiplicity
 _atom_site_fract_x
 _atom_site_fract_y
 _atom_site_fract_z
 _atom_site_occupancy
  Na  Na0  1  0.92913864  0.40398496  0.57688350  1
  Na  Na1  1  0.40398496  0.92913864  0.57688350  1
  Na  Na2  1  0.07086136  0.59601504  0.07688350  1
  Na  Na3  1  0.59601504  0.07086136  0.07688350  1
  H  H4  1  0.82532373  0.34780543  0.04700749  1
  H  H5  1  0.34780543  0.82532373  0.04700749  1
  H  H6  1  0.17467627  0.65219457  0.54700749  1
  H  H7  1  0.65219457  0.17467627  0.54700749  1
  H  H8  1  0.31597417  0.31597417  0.77281911  1
  H  H9  1  0.68402583  0.68402583  0.27281911  1
  H  H10  1  0.18644410  0.18644410  0.82019196  1
  H  H11  1  0.81355590  0.81355590  0.32019196  1
  Se  Se12  1  0.56406886  0.56406886  0.88113879  1
  Se  Se13  1  0.43593114  0.43593114  0.38113879  1
  Se  Se14  1  0.90411098  0.90411098  0.74941072  1
  Se  Se15  1  0.09588902  0.09588902  0.24941072  1
  O  O16  1  0.76811873  0.76811873  0.68345436  1
  O  O17  1  0.23188127  0.23188127  0.18345436  1
  O  O18  1  0.90124523  0.90124523  0.91836689  1
  O  O19  1  0.09875477  0.09875477  0.41836689  1
  O  O20  1  0.17331630  0.77670471  0.69289965  1
  O  O21  1  0.77670471  0.17331630  0.69289965  1
  O  O22  1  0.82668370  0.22329529  0.19289965  1
  O  O23  1  0.22329529  0.82668370  0.19289965  1
  O  O24  1  0.83540295  0.43683201  0.96476015  1
  O  O25  1  0.43683201  0.83540295  0.96476015  1
  O  O26  1  0.16459705  0.56316799  0.46476015  1
  O  O27  1  0.56316799  0.16459705  0.46476015  1
  O  O28  1  0.43210907  0.43210907  0.95741093  1
  O  O29  1  0.56789093  0.56789093  0.45741093  1
  O  O30  1  0.23463087  0.23463087  0.73803566  1
  O  O31  1  0.76536913  0.76536913  0.23803566  1
