# generated using pymatgen
data_AlPO4
_symmetry_space_group_name_H-M   'P 1'
_cell_length_a   12.87865673
_cell_length_b   12.84761059
_cell_length_c   5.32007997
_cell_angle_alpha   89.10813279
_cell_angle_beta   90.81361643
_cell_angle_gamma   62.71527172
_symmetry_Int_Tables_number   1
_chemical_formula_structural   AlPO4
_chemical_formula_sum   'Al6 P6 O24'
_cell_volume   782.00175364
_cell_formula_units_Z   6
loop_
 _symmetry_equiv_pos_site_id
 _symmetry_equiv_pos_as_xyz
  1  'x, y, z'
loop_
 _atom_site_type_symbol
 _atom_site_label
 _atom_site_symmetry_multiplicity
 _atom_site_fract_x
 _atom_site_fract_y
 _atom_site_fract_z
 _atom_site_occupancy
  Al  Al0  1  0.92040122  0.15698772  0.73404311  1
  Al  Al1  1  0.07959878  0.84301228  0.26595689  1
  Al  Al2  1  0.36900024  0.98641366  0.73243520  1
  Al  Al3  1  0.63099976  0.01358634  0.26756480  1
  Al  Al4  1  0.87395518  0.63983160  0.73016597  1
  Al  Al5  1  0.12604482  0.36016840  0.26983403  1
  P  P6  1  0.16149441  0.92017595  0.76625572  1
  P  P7  1  0.83850559  0.07982405  0.23374428  1
  P  P8  1  0.98353057  0.36649685  0.76270856  1
  P  P9  1  0.01646943  0.63350315  0.23729144  1
  P  P10  1  0.64100929  0.87016342  0.77286308  1
  P  P11  1  0.35899071  0.12983658  0.22713692  1
  O  O12  1  0.91724260  0.29408801  0.74078920  1
  O  O13  1  0.08275740  0.70591199  0.25921080  1
  O  O14  1  0.28217472  0.91559789  0.75715255  1
  O  O15  1  0.71782528  0.08440211  0.24284745  1
  O  O16  1  0.06670545  0.04937782  0.75234056  1
  O  O17  1  0.93329455  0.95062218  0.24765944  1
  O  O18  1  0.85387936  0.14759994  0.45360430  1
  O  O19  1  0.14612064  0.85240006  0.54639570  1
  O  O20  1  0.15477190  0.86074727  0.01292511  1
  O  O21  1  0.84522810  0.13925273  0.98707489  1
  O  O22  1  0.89171929  0.49632985  0.73742198  1
  O  O23  1  0.10828071  0.50367015  0.26257802  1
  O  O24  1  0.51663018  0.88179586  0.75397050  1
  O  O25  1  0.48336982  0.11820414  0.24602950  1
  O  O26  1  0.04744708  0.34131023  0.01952904  1
  O  O27  1  0.95255292  0.65868977  0.98047096  1
  O  O28  1  0.92468568  0.66550273  0.44365307  1
  O  O29  1  0.07531432  0.33449727  0.55634693  1
  O  O30  1  0.33932331  0.05709262  0.43673881  1
  O  O31  1  0.66067669  0.94290738  0.56326119  1
  O  O32  1  0.66225187  0.91278554  0.02743940  1
  O  O33  1  0.33774813  0.08721446  0.97256060  1
  O  O34  1  0.72607869  0.73960104  0.74990950  1
  O  O35  1  0.27392131  0.26039896  0.25009050  1
