# generated using pymatgen
data_Ca2CrH2I2O11
_symmetry_space_group_name_H-M   'P 1'
_cell_length_a   10.24708603
_cell_length_b   7.34115437
_cell_length_c   14.16053527
_cell_angle_alpha   90.00000000
_cell_angle_beta   106.57334496
_cell_angle_gamma   90.00000000
_symmetry_Int_Tables_number   1
_chemical_formula_structural   Ca2CrH2I2O11
_chemical_formula_sum   'Ca8 Cr4 H8 I8 O44'
_cell_volume   1020.97782001
_cell_formula_units_Z   4
loop_
 _symmetry_equiv_pos_site_id
 _symmetry_equiv_pos_as_xyz
  1  'x, y, z'
loop_
 _atom_site_type_symbol
 _atom_site_label
 _atom_site_symmetry_multiplicity
 _atom_site_fract_x
 _atom_site_fract_y
 _atom_site_fract_z
 _atom_site_occupancy
  Ca  Ca0  1  0.69984949  0.41458705  0.20376105  1
  Ca  Ca1  1  0.30015051  0.91458705  0.29623895  1
  Ca  Ca2  1  0.30015051  0.58541295  0.79623895  1
  Ca  Ca3  1  0.69984949  0.08541295  0.70376105  1
  Ca  Ca4  1  0.89928610  0.24280203  0.98848141  1
  Ca  Ca5  1  0.10071390  0.74280203  0.51151859  1
  Ca  Ca6  1  0.10071390  0.75719797  0.01151859  1
  Ca  Ca7  1  0.89928610  0.25719797  0.48848141  1
  Cr  Cr8  1  0.43055709  0.70395540  0.07835771  1
  Cr  Cr9  1  0.56944291  0.20395540  0.42164229  1
  Cr  Cr10  1  0.56944291  0.29604460  0.92164229  1
  Cr  Cr11  1  0.43055709  0.79604460  0.57835771  1
  H  H12  1  0.58336626  0.07470015  0.24292851  1
  H  H13  1  0.41663374  0.57470015  0.25707149  1
  H  H14  1  0.41663374  0.92529985  0.75707149  1
  H  H15  1  0.58336626  0.42529985  0.74292851  1
  H  H16  1  0.59952664  0.00586547  0.14148462  1
  H  H17  1  0.40047336  0.50586547  0.35851538  1
  H  H18  1  0.40047336  0.99413453  0.85851538  1
  H  H19  1  0.59952664  0.49413453  0.64148462  1
  I  I20  1  0.04987256  0.29653342  0.27312315  1
  I  I21  1  0.95012744  0.79653342  0.22687685  1
  I  I22  1  0.95012744  0.70346658  0.72687685  1
  I  I23  1  0.04987256  0.20346658  0.77312315  1
  I  I24  1  0.25642521  0.26082661  0.07502163  1
  I  I25  1  0.74357479  0.76082661  0.42497837  1
  I  I26  1  0.74357479  0.73917339  0.92497837  1
  I  I27  1  0.25642521  0.23917339  0.57502163  1
  O  O28  1  0.12619337  0.09212706  0.34052033  1
  O  O29  1  0.87380663  0.59212706  0.15947967  1
  O  O30  1  0.87380663  0.90787294  0.65947967  1
  O  O31  1  0.12619337  0.40787294  0.84052033  1
  O  O32  1  0.94976874  0.19368248  0.15823101  1
  O  O33  1  0.05023126  0.69368248  0.34176899  1
  O  O34  1  0.05023126  0.80631752  0.84176899  1
  O  O35  1  0.94976874  0.30631752  0.65823101  1
  O  O36  1  0.27396240  0.20079847  0.20333305  1
  O  O37  1  0.72603760  0.70079847  0.29666695  1
  O  O38  1  0.72603760  0.79920153  0.79666695  1
  O  O39  1  0.27396240  0.29920153  0.70333305  1
  O  O40  1  0.46557386  0.51004258  0.14589778  1
  O  O41  1  0.53442614  0.01004258  0.35410222  1
  O  O42  1  0.53442614  0.48995742  0.85410222  1
  O  O43  1  0.46557386  0.98995742  0.64589778  1
  O  O44  1  0.35192807  0.84564328  0.13553586  1
  O  O45  1  0.64807193  0.34564328  0.36446414  1
  O  O46  1  0.64807193  0.15435672  0.86446414  1
  O  O47  1  0.35192807  0.65435672  0.63553586  1
  O  O48  1  0.12939323  0.44098648  0.06404060  1
  O  O49  1  0.87060677  0.94098648  0.43595940  1
  O  O50  1  0.87060677  0.55901352  0.93595940  1
  O  O51  1  0.12939323  0.05901352  0.56404060  1
  O  O52  1  0.68101666  0.34598042  0.02997049  1
  O  O53  1  0.31898334  0.84598042  0.47002951  1
  O  O54  1  0.31898334  0.65401958  0.97002951  1
  O  O55  1  0.68101666  0.15401958  0.52997049  1
  O  O56  1  0.86601907  0.90923704  0.99495348  1
  O  O57  1  0.13398093  0.40923704  0.50504652  1
  O  O58  1  0.13398093  0.09076296  0.00504652  1
  O  O59  1  0.86601907  0.59076296  0.49495348  1
  O  O60  1  0.90549263  0.31605606  0.32508254  1
  O  O61  1  0.09450737  0.81605606  0.17491746  1
  O  O62  1  0.09450737  0.68394394  0.67491746  1
  O  O63  1  0.90549263  0.18394394  0.82508254  1
  O  O64  1  0.57126217  0.79469885  0.06627254  1
  O  O65  1  0.42873783  0.29469885  0.43372746  1
  O  O66  1  0.42873783  0.20530115  0.93372746  1
  O  O67  1  0.57126217  0.70530115  0.56627254  1
  O  O68  1  0.61027514  0.11414411  0.18460096  1
  O  O69  1  0.38972486  0.61414411  0.31539904  1
  O  O70  1  0.38972486  0.88585589  0.81539904  1
  O  O71  1  0.61027514  0.38585589  0.68460096  1
