# generated using pymatgen
data_H2Pb4C(Cl3O2)2
_symmetry_space_group_name_H-M   'P 1'
_cell_length_a   4.26059663
_cell_length_b   9.31296884
_cell_length_c   16.90555868
_cell_angle_alpha   90.00000000
_cell_angle_beta   92.03334171
_cell_angle_gamma   90.00000000
_symmetry_Int_Tables_number   1
_chemical_formula_structural   H2Pb4C(Cl3O2)2
_chemical_formula_sum   'H4 Pb8 C2 Cl12 O8'
_cell_volume   670.36997886
_cell_formula_units_Z   2
loop_
 _symmetry_equiv_pos_site_id
 _symmetry_equiv_pos_as_xyz
  1  'x, y, z'
loop_
 _atom_site_type_symbol
 _atom_site_label
 _atom_site_symmetry_multiplicity
 _atom_site_fract_x
 _atom_site_fract_y
 _atom_site_fract_z
 _atom_site_occupancy
  H  H0  1  0.75060669  0.83308887  0.90195574  1
  H  H1  1  0.24939331  0.33308887  0.09804426  1
  H  H2  1  0.24939331  0.16691113  0.09804426  1
  H  H3  1  0.75060669  0.66691113  0.90195574  1
  Pb  Pb4  1  0.26095050  0.75000000  0.04184695  1
  Pb  Pb5  1  0.73904950  0.25000000  0.95815305  1
  Pb  Pb6  1  0.25344965  0.75000000  0.51189067  1
  Pb  Pb7  1  0.74655035  0.25000000  0.48810933  1
  Pb  Pb8  1  0.81122964  0.98956762  0.26799339  1
  Pb  Pb9  1  0.18877036  0.48956762  0.73200661  1
  Pb  Pb10  1  0.18877036  0.01043238  0.73200661  1
  Pb  Pb11  1  0.81122964  0.51043238  0.26799339  1
  C  C12  1  0.41305282  0.25000000  0.24511222  1
  C  C13  1  0.58694718  0.75000000  0.75488778  1
  Cl  Cl14  1  0.28875861  0.75000000  0.21882908  1
  Cl  Cl15  1  0.71124139  0.25000000  0.78117092  1
  Cl  Cl16  1  0.76888724  0.96855440  0.08801671  1
  Cl  Cl17  1  0.23111276  0.46855440  0.91198329  1
  Cl  Cl18  1  0.23111276  0.03144560  0.91198329  1
  Cl  Cl19  1  0.76888724  0.53144560  0.08801671  1
  Cl  Cl20  1  0.74401736  0.75000000  0.39534703  1
  Cl  Cl21  1  0.25598264  0.25000000  0.60465297  1
  Cl  Cl22  1  0.76278494  0.94966645  0.58538091  1
  Cl  Cl23  1  0.23721506  0.44966645  0.41461909  1
  Cl  Cl24  1  0.23721506  0.05033355  0.41461909  1
  Cl  Cl25  1  0.76278494  0.55033355  0.58538091  1
  O  O26  1  0.67490486  0.25000000  0.28765863  1
  O  O27  1  0.32509514  0.75000000  0.71234137  1
  O  O28  1  0.75103477  0.75000000  0.93805531  1
  O  O29  1  0.24896523  0.25000000  0.06194469  1
  O  O30  1  0.29440382  0.12782238  0.22250095  1
  O  O31  1  0.70559618  0.62782238  0.77749905  1
  O  O32  1  0.70559618  0.87217762  0.77749905  1
  O  O33  1  0.29440382  0.37217762  0.22250095  1
