# generated using pymatgen
data_Mn3H24(O3F2)4
_symmetry_space_group_name_H-M   'P 1'
_cell_length_a   6.27509858
_cell_length_b   8.99772000
_cell_length_c   9.40801178
_cell_angle_alpha   110.61197132
_cell_angle_beta   103.36232961
_cell_angle_gamma   106.90465016
_symmetry_Int_Tables_number   1
_chemical_formula_structural   Mn3H24(O3F2)4
_chemical_formula_sum   'Mn3 H24 O12 F8'
_cell_volume   441.49336340
_cell_formula_units_Z   1
loop_
 _symmetry_equiv_pos_site_id
 _symmetry_equiv_pos_as_xyz
  1  'x, y, z'
loop_
 _atom_site_type_symbol
 _atom_site_label
 _atom_site_symmetry_multiplicity
 _atom_site_fract_x
 _atom_site_fract_y
 _atom_site_fract_z
 _atom_site_occupancy
  Mn  Mn0  1  0.00000000  0.00000000  0.00000000  1
  Mn  Mn1  1  0.85021435  0.30379207  0.62180872  1
  Mn  Mn2  1  0.14978565  0.69620793  0.37819128  1
  H  H3  1  0.80339300  0.63728150  0.82513046  1
  H  H4  1  0.19660700  0.36271850  0.17486954  1
  H  H5  1  0.89690369  0.67854782  0.01290708  1
  H  H6  1  0.10309631  0.32145218  0.98709292  1
  H  H7  1  0.55075594  0.91362414  0.77438840  1
  H  H8  1  0.44924406  0.08637586  0.22561160  1
  H  H9  1  0.61363928  0.08990896  0.93003968  1
  H  H10  1  0.38636072  0.91009104  0.06996032  1
  H  H11  1  0.21535150  0.44235762  0.52396398  1
  H  H12  1  0.78464850  0.55764238  0.47603602  1
  H  H13  1  0.32208067  0.36027552  0.63350209  1
  H  H14  1  0.67791933  0.63972448  0.36649791  1
  H  H15  1  0.88252614  0.12260633  0.29050259  1
  H  H16  1  0.11747386  0.87739367  0.70949741  1
  H  H17  1  0.02562923  0.00299986  0.29995322  1
  H  H18  1  0.97437077  0.99700014  0.70004678  1
  H  H19  1  0.35598829  0.11085058  0.57306192  1
  H  H20  1  0.64401171  0.88914942  0.42693808  1
  H  H21  1  0.51098803  0.23838218  0.76520388  1
  H  H22  1  0.48901197  0.76161782  0.23479612  1
  H  H23  1  0.46404045  0.29923552  0.01927107  1
  H  H24  1  0.53595955  0.70076448  0.98072893  1
  H  H25  1  0.73575706  0.38924254  0.04271262  1
  H  H26  1  0.26424294  0.61075746  0.95728738  1
  O  O27  1  0.81709395  0.71546780  0.93606085  1
  O  O28  1  0.18290605  0.28453220  0.06393915  1
  O  O29  1  0.65697546  0.98906839  0.89038048  1
  O  O30  1  0.34302454  0.01093161  0.10961952  1
  O  O31  1  0.21068482  0.41678301  0.61751048  1
  O  O32  1  0.78931518  0.58321699  0.38248952  1
  O  O33  1  0.96607250  0.05771875  0.23471266  1
  O  O34  1  0.03392750  0.94228125  0.76528734  1
  O  O35  1  0.48191428  0.22833628  0.65248137  1
  O  O36  1  0.51808572  0.77166372  0.34751863  1
  O  O37  1  0.58504877  0.28515116  0.97049484  1
  O  O38  1  0.41495123  0.71484884  0.02950516  1
  F  F39  1  0.81772272  0.51475203  0.64782077  1
  F  F40  1  0.18227728  0.48524797  0.35217923  1
  F  F41  1  0.00151891  0.39369023  0.85063681  1
  F  F42  1  0.99848109  0.60630977  0.14936319  1
  F  F43  1  0.85737399  0.08388576  0.59068104  1
  F  F44  1  0.14262601  0.91611424  0.40931896  1
  F  F45  1  0.70413286  0.20795633  0.39266244  1
  F  F46  1  0.29586714  0.79204367  0.60733756  1
