# generated using pymatgen
data_Sr2La6Mn7CuO24
_symmetry_space_group_name_H-M   'P 1'
_cell_length_a   5.50490944
_cell_length_b   22.06399668
_cell_length_c   19.82317494
_cell_angle_alpha   14.08031175
_cell_angle_beta   57.20106500
_cell_angle_gamma   60.87851185
_symmetry_Int_Tables_number   1
_chemical_formula_structural   Sr2La6Mn7CuO24
_chemical_formula_sum   'Sr2 La6 Mn7 Cu1 O24'
_cell_volume   483.45054333
_cell_formula_units_Z   1
loop_
 _symmetry_equiv_pos_site_id
 _symmetry_equiv_pos_as_xyz
  1  'x, y, z'
loop_
 _atom_site_type_symbol
 _atom_site_label
 _atom_site_symmetry_multiplicity
 _atom_site_fract_x
 _atom_site_fract_y
 _atom_site_fract_z
 _atom_site_occupancy
  Sr  Sr0  1  0.25278571  0.12549742  0.24810704  1
  Sr  Sr1  1  0.24718574  0.87208885  0.25432370  1
  La  La2  1  0.25245092  0.37560847  0.24929240  1
  La  La3  1  0.24695582  0.62975019  0.24523989  1
  La  La4  1  0.74871348  0.12751917  0.74649384  1
  La  La5  1  0.74395009  0.37113954  0.75677740  1
  La  La6  1  0.75564289  0.62767378  0.74443334  1
  La  La7  1  0.75090513  0.87166210  0.75424765  1
  Mn  Mn8  1  0.99885401  0.99843737  0.00167000  1
  Mn  Mn9  1  0.00028711  0.24943219  0.00057098  1
  Mn  Mn10  1  0.00089971  0.50141560  0.99847425  1
  Mn  Mn11  1  0.99936951  0.75123833  0.99872681  1
  Mn  Mn12  1  0.50241463  0.00019594  0.49900007  1
  Mn  Mn13  1  0.49756857  0.49972839  0.50113103  1
  Mn  Mn14  1  0.49948832  0.74895139  0.50113747  1
  Cu  Cu15  1  0.50028474  0.25112605  0.49880745  1
  O  O16  1  0.18831527  0.20652317  0.31267590  1
  O  O17  1  0.70644851  0.00652606  0.25563865  1
  O  O18  1  0.74794263  0.18749003  0.18850569  1
  O  O19  1  0.17131995  0.45464989  0.31237300  1
  O  O20  1  0.68933091  0.25935040  0.25786376  1
  O  O21  1  0.24485242  0.05803622  0.81981072  1
  O  O22  1  0.75940292  0.44369982  0.17867654  1
  O  O23  1  0.18698085  0.70046765  0.31346557  1
  O  O24  1  0.68705577  0.53227594  0.23318783  1
  O  O25  1  0.31196716  0.24505236  0.73588034  1
  O  O26  1  0.82832281  0.04645060  0.68674774  1
  O  O27  1  0.25273461  0.32661530  0.79788262  1
  O  O28  1  0.75252451  0.69180853  0.18201601  1
  O  O29  1  0.19394828  0.95840123  0.30640527  1
  O  O30  1  0.70302810  0.76080022  0.25083805  1
  O  O31  1  0.30618605  0.48797758  0.74724074  1
  O  O32  1  0.81053708  0.29372561  0.68897564  1
  O  O33  1  0.24684444  0.57511529  0.80073568  1
  O  O34  1  0.75219371  0.93984526  0.18395687  1
  O  O35  1  0.31334914  0.72867324  0.75740778  1
  O  O36  1  0.79328085  0.53090626  0.70706775  1
  O  O37  1  0.24586514  0.81007950  0.81573084  1
  O  O38  1  0.31338790  0.96953782  0.76472257  1
  O  O39  1  0.79642463  0.78452725  0.70376116  1
