# generated using pymatgen
data_Li3Cr13Ni3(SO4)24
_symmetry_space_group_name_H-M   'P 1'
_cell_length_a   8.83909084
_cell_length_b   8.84629397
_cell_length_c   35.46345964
_cell_angle_alpha   56.01959264
_cell_angle_beta   55.84692550
_cell_angle_gamma   55.96913559
_symmetry_Int_Tables_number   1
_chemical_formula_structural   Li3Cr13Ni3(SO4)24
_chemical_formula_sum   'Li3 Cr13 Ni3 S24 O96'
_cell_volume   1776.55963889
_cell_formula_units_Z   1
loop_
 _symmetry_equiv_pos_site_id
 _symmetry_equiv_pos_as_xyz
  1  'x, y, z'
loop_
 _atom_site_type_symbol
 _atom_site_label
 _atom_site_symmetry_multiplicity
 _atom_site_fract_x
 _atom_site_fract_y
 _atom_site_fract_z
 _atom_site_occupancy
  Li  Li0  1  0.81910500  0.56856439  0.30840035  1
  Li  Li1  1  0.81637694  0.56819270  0.55936287  1
  Li  Li2  1  0.81659545  0.56777336  0.80948986  1
  Cr  Cr3  1  0.15250050  0.15036736  0.03716396  1
  Cr  Cr4  1  0.35686860  0.35548655  0.08895820  1
  Cr  Cr5  1  0.35628212  0.35709959  0.33862868  1
  Cr  Cr6  1  0.64288625  0.64718783  0.16000660  1
  Cr  Cr7  1  0.15190932  0.14747360  0.53780870  1
  Cr  Cr8  1  0.84971207  0.85516641  0.21003538  1
  Cr  Cr9  1  0.64207420  0.64574014  0.41138171  1
  Cr  Cr10  1  0.15276733  0.14646756  0.78777866  1
  Cr  Cr11  1  0.85114669  0.85222358  0.46015149  1
  Cr  Cr12  1  0.64113091  0.64716293  0.66163072  1
  Cr  Cr13  1  0.84852094  0.85174422  0.71066308  1
  Cr  Cr14  1  0.64328784  0.64589636  0.91179746  1
  Cr  Cr15  1  0.84790973  0.84785182  0.96238836  1
  Ni  Ni16  1  0.15391998  0.14648968  0.28690457  1
  Ni  Ni17  1  0.35667096  0.35657336  0.58982935  1
  Ni  Ni18  1  0.35598747  0.35663463  0.83991868  1
  S  S19  1  0.04207817  0.74824600  0.11521263  1
  S  S20  1  0.46200455  0.04054427  0.18684164  1
  S  S21  1  0.74834622  0.46184852  0.01046685  1
  S  S22  1  0.25520269  0.53476795  0.23933176  1
  S  S23  1  0.53756085  0.95904872  0.06283808  1
  S  S24  1  0.04012662  0.74882941  0.36534258  1
  S  S25  1  0.95821923  0.25360965  0.13402191  1
  S  S26  1  0.46152287  0.04282101  0.43676786  1
  S  S27  1  0.74923906  0.46015269  0.25934425  1
  S  S28  1  0.25405620  0.53642727  0.48960046  1
  S  S29  1  0.53608522  0.96030577  0.31266533  1
  S  S30  1  0.04355911  0.74884962  0.61500477  1
  S  S31  1  0.95781992  0.25295636  0.38492530  1
  S  S32  1  0.45977863  0.04415129  0.68721763  1
  S  S33  1  0.74990684  0.45723045  0.51058028  1
  S  S34  1  0.25393008  0.53625719  0.73967374  1
  S  S35  1  0.53853839  0.96066022  0.56228092  1
  S  S36  1  0.04346441  0.74883348  0.86528238  1
  S  S37  1  0.95803820  0.25146728  0.63563536  1
  S  S38  1  0.46061081  0.04381340  0.93729950  1
  S  S39  1  0.75007119  0.45673807  0.76059866  1
  S  S40  1  0.25175949  0.53767444  0.98974959  1
  S  S41  1  0.53847544  0.96042378  0.81245690  1
  S  S42  1  0.95800863  0.25040507  0.88578716  1
  O  O43  1  0.10772180  0.30130899  0.12799464  1
  O  O44  1  0.30056101  0.51194605  0.02708384  1
  O  O45  1  0.01504465  0.95299555  0.08174922  1
  O  O46  1  0.51264254  0.10763778  0.07519697  1
  O  O47  1  0.02603933  0.71741938  0.16313775  1
  O  O48  1  0.23956391  0.61699564  0.09458673  1
  O  O49  1  0.37905195  0.23830500  0.15408095  1
  O  O50  1  0.33072474  0.00997635  0.23765484  1
  O  O51  1  0.61750206  0.37780892  0.05975920  1
  O  O52  1  0.04287509  0.66971851  0.24759580  1
  O  O53  1  0.28647534  0.34758972  0.24278770  1
  O  O54  1  0.34586125  0.97434252  0.07080219  1
  O  O55  1  0.65532068  0.02773457  0.17808995  1
  O  O56  1  0.71633201  0.65289113  0.00679544  1
  O  O57  1  0.10804846  0.29996907  0.37865456  1
  O  O58  1  0.95347064  0.32646896  0.00372807  1
  O  O59  1  0.37798031  0.62940196  0.19020400  1
  O  O60  1  0.30003836  0.51398018  0.27695803  1
  O  O61  1  0.67363515  0.98455323  0.01177575  1
  O  O62  1  0.62165751  0.76144261  0.09539348  1
  O  O63  1  0.01078535  0.95126541  0.33261540  1
  O  O64  1  0.51523802  0.10455911  0.32574616  1
  O  O65  1  0.76044257  0.38327316  0.15545342  1
  O  O66  1  0.97411189  0.28256943  0.08659412  1
  O  O67  1  0.02565721  0.71465543  0.41356348  1
  O  O68  1  0.23857824  0.61603182  0.34492149  1
  O  O69  1  0.49080472  0.89287486  0.17333165  1
  O  O70  1  0.98561296  0.04806339  0.16803556  1
  O  O71  1  0.37770459  0.23950037  0.40431727  1
  O  O72  1  0.32747968  0.01396298  0.48818350  1
  O  O73  1  0.69280084  0.49387302  0.22274963  1
  O  O74  1  0.61675166  0.37962787  0.30931591  1
  O  O75  1  0.04168717  0.66957259  0.49707704  1
  O  O76  1  0.89276431  0.69827095  0.12189896  1
  O  O77  1  0.28259517  0.34633495  0.49320171  1
  O  O78  1  0.34848545  0.97022876  0.32182903  1
  O  O79  1  0.65340210  0.02785250  0.42869061  1
  O  O80  1  0.71919211  0.65166923  0.25740169  1
  O  O81  1  0.10493227  0.29972390  0.62900191  1
  O  O82  1  0.95165301  0.32903142  0.25271351  1
  O  O83  1  0.37870142  0.62477581  0.43945527  1
  O  O84  1  0.29942287  0.51503049  0.52619853  1
  O  O85  1  0.67555156  0.98329056  0.26172681  1
  O  O86  1  0.63118769  0.75701269  0.34438643  1
  O  O87  1  0.01050411  0.95726896  0.58200967  1
  O  O88  1  0.51676725  0.10214898  0.57525429  1
  O  O89  1  0.75900854  0.38379106  0.40639784  1
  O  O90  1  0.96855897  0.28967766  0.33720132  1
  O  O91  1  0.02439843  0.71844803  0.66320615  1
  O  O92  1  0.23953644  0.62316075  0.59396017  1
  O  O93  1  0.48692071  0.89304605  0.42470134  1
  O  O94  1  0.98563287  0.04785591  0.41798533  1
  O  O95  1  0.37611864  0.23928258  0.65584024  1
  O  O96  1  0.32895255  0.00901476  0.73927579  1
  O  O97  1  0.69877029  0.48987313  0.47304129  1
  O  O98  1  0.62366251  0.37642657  0.55974087  1
  O  O99  1  0.04179339  0.66947388  0.74702862  1
  O  O100  1  0.89251036  0.69309418  0.37266282  1
  O  O101  1  0.28284955  0.34625510  0.74320079  1
  O  O102  1  0.34747271  0.97245911  0.57063640  1
  O  O103  1  0.65417884  0.02606834  0.67896557  1
  O  O104  1  0.72227082  0.65072091  0.50708639  1
  O  O105  1  0.10487816  0.29892036  0.87914069  1
  O  O106  1  0.95813144  0.32749969  0.50239407  1
  O  O107  1  0.37901637  0.62468558  0.68947047  1
  O  O108  1  0.29977252  0.51524402  0.77613224  1
  O  O109  1  0.67537417  0.98157652  0.51108521  1
  O  O110  1  0.62665881  0.75542837  0.59426937  1
  O  O111  1  0.01037508  0.95707644  0.83218514  1
  O  O112  1  0.51678310  0.10229726  0.82528253  1
  O  O113  1  0.75672719  0.38500744  0.65490156  1
  O  O114  1  0.97132312  0.28677286  0.58650723  1
  O  O115  1  0.02373926  0.71827160  0.91358172  1
  O  O116  1  0.23931579  0.62317101  0.84412116  1
  O  O117  1  0.48637654  0.89330785  0.67490636  1
  O  O118  1  0.98401204  0.04628411  0.66784403  1
  O  O119  1  0.37717337  0.23893280  0.90584665  1
  O  O120  1  0.32789240  0.01033988  0.98935347  1
  O  O121  1  0.69952878  0.48923657  0.72285296  1
  O  O122  1  0.62344891  0.37617434  0.80966808  1
  O  O123  1  0.04667051  0.67298899  0.99629975  1
  O  O124  1  0.89184068  0.70010110  0.62171803  1
  O  O125  1  0.28348997  0.34634606  0.99344562  1
  O  O126  1  0.34756175  0.97222084  0.82078811  1
  O  O127  1  0.65448047  0.02413052  0.92971231  1
  O  O128  1  0.72165561  0.65019245  0.75721456  1
  O  O129  1  0.95825811  0.32758670  0.75231647  1
  O  O130  1  0.38325353  0.62146189  0.94044780  1
  O  O131  1  0.67526464  0.98167949  0.76119386  1
  O  O132  1  0.62656873  0.75520145  0.84442758  1
  O  O133  1  0.75684680  0.38475695  0.90491445  1
  O  O134  1  0.97174807  0.28614152  0.83655943  1
  O  O135  1  0.48652870  0.89287670  0.92513825  1
  O  O136  1  0.98279537  0.04560961  0.91814549  1
  O  O137  1  0.69944852  0.48653548  0.97324713  1
  O  O138  1  0.89200968  0.70018278  0.87178088  1
