# generated using pymatgen
data_Zn2FeP2(H2O3)4
_symmetry_space_group_name_H-M   'P 1'
_cell_length_a   10.44437410
_cell_length_b   5.12605402
_cell_length_c   10.73982720
_cell_angle_alpha   90.00000000
_cell_angle_beta   120.50312301
_cell_angle_gamma   90.00000000
_symmetry_Int_Tables_number   1
_chemical_formula_structural   Zn2FeP2(H2O3)4
_chemical_formula_sum   'Zn4 Fe2 P4 H16 O24'
_cell_volume   495.41520894
_cell_formula_units_Z   2
loop_
 _symmetry_equiv_pos_site_id
 _symmetry_equiv_pos_as_xyz
  1  'x, y, z'
loop_
 _atom_site_type_symbol
 _atom_site_label
 _atom_site_symmetry_multiplicity
 _atom_site_fract_x
 _atom_site_fract_y
 _atom_site_fract_z
 _atom_site_occupancy
  Zn  Zn0  1  0.50000603  0.19460665  0.85609785  1
  Zn  Zn1  1  0.49999397  0.69460665  0.64390215  1
  Zn  Zn2  1  0.49999397  0.80539335  0.14390215  1
  Zn  Zn3  1  0.50000603  0.30539335  0.35609785  1
  Fe  Fe4  1  0.00000000  0.50000000  0.50000000  1
  Fe  Fe5  1  0.00000000  0.00000000  0.00000000  1
  P  P6  1  0.69088913  0.21600638  0.69218833  1
  P  P7  1  0.30911087  0.71600638  0.80781167  1
  P  P8  1  0.30911087  0.78399362  0.30781167  1
  P  P9  1  0.69088913  0.28399362  0.19218833  1
  H  H10  1  0.95486918  0.21632861  0.70337142  1
  H  H11  1  0.04513082  0.71632861  0.79662858  1
  H  H12  1  0.04513082  0.78367139  0.29662858  1
  H  H13  1  0.95486918  0.28367139  0.20337142  1
  H  H14  1  0.05897710  0.04987929  0.66241421  1
  H  H15  1  0.94102290  0.54987929  0.83758579  1
  H  H16  1  0.94102290  0.95012071  0.33758579  1
  H  H17  1  0.05897710  0.45012071  0.16241421  1
  H  H18  1  0.23958997  0.11258536  0.96605903  1
  H  H19  1  0.76041003  0.61258536  0.53394097  1
  H  H20  1  0.76041003  0.88741464  0.03394097  1
  H  H21  1  0.23958997  0.38741464  0.46605903  1
  H  H22  1  0.18198413  0.38823186  0.99109952  1
  H  H23  1  0.81801587  0.88823186  0.50890048  1
  H  H24  1  0.81801587  0.61176814  0.00890048  1
  H  H25  1  0.18198413  0.11176814  0.49109952  1
  O  O26  1  0.98770126  0.19881804  0.63197737  1
  O  O27  1  0.01229874  0.69881804  0.86802263  1
  O  O28  1  0.01229874  0.80118196  0.36802263  1
  O  O29  1  0.98770126  0.30118196  0.13197737  1
  O  O30  1  0.18295479  0.20032568  0.00616248  1
  O  O31  1  0.81704521  0.70032568  0.49383752  1
  O  O32  1  0.81704521  0.79967432  0.99383752  1
  O  O33  1  0.18295479  0.29967432  0.50616248  1
  O  O34  1  0.85726009  0.24585304  0.80876865  1
  O  O35  1  0.14273991  0.74585304  0.69123135  1
  O  O36  1  0.14273991  0.75414696  0.19123135  1
  O  O37  1  0.85726009  0.25414696  0.30876865  1
  O  O38  1  0.35016750  0.42851965  0.84350214  1
  O  O39  1  0.64983250  0.92851965  0.65649786  1
  O  O40  1  0.64983250  0.57148035  0.15649786  1
  O  O41  1  0.35016750  0.07148035  0.34350214  1
  O  O42  1  0.66206335  0.37148065  0.55541038  1
  O  O43  1  0.33793665  0.87148065  0.94458962  1
  O  O44  1  0.33793665  0.62851935  0.44458962  1
  O  O45  1  0.66206335  0.12851935  0.05541038  1
  O  O46  1  0.58793114  0.35024381  0.74368640  1
  O  O47  1  0.41206886  0.85024381  0.75631360  1
  O  O48  1  0.41206886  0.64975619  0.25631360  1
  O  O49  1  0.58793114  0.14975619  0.24368640  1
