# generated using pymatgen
data_H4CSN2
_symmetry_space_group_name_H-M   'P 1'
_cell_length_a   5.64076172
_cell_length_b   7.43541586
_cell_length_c   25.46811001
_cell_angle_alpha   90.00000000
_cell_angle_beta   90.00000000
_cell_angle_gamma   90.00000000
_symmetry_Int_Tables_number   1
_chemical_formula_structural   H4CSN2
_chemical_formula_sum   'H48 C12 S12 N24'
_cell_volume   1068.16842234
_cell_formula_units_Z   12
loop_
 _symmetry_equiv_pos_site_id
 _symmetry_equiv_pos_as_xyz
  1  'x, y, z'
loop_
 _atom_site_type_symbol
 _atom_site_label
 _atom_site_symmetry_multiplicity
 _atom_site_fract_x
 _atom_site_fract_y
 _atom_site_fract_z
 _atom_site_occupancy
  H  H0  1  0.96557209  0.52352787  0.20485642  1
  H  H1  1  0.53442791  0.02352787  0.29514358  1
  H  H2  1  0.03442791  0.47647213  0.70485642  1
  H  H3  1  0.46557209  0.97647213  0.79514358  1
  H  H4  1  0.03442791  0.47647213  0.79514358  1
  H  H5  1  0.46557209  0.97647213  0.70485642  1
  H  H6  1  0.96557209  0.52352787  0.29514358  1
  H  H7  1  0.53442791  0.02352787  0.20485642  1
  H  H8  1  0.22886776  0.49735647  0.16938998  1
  H  H9  1  0.27113224  0.99735647  0.33061002  1
  H  H10  1  0.77113224  0.50264353  0.66938998  1
  H  H11  1  0.72886776  0.00264353  0.83061002  1
  H  H12  1  0.77113224  0.50264353  0.83061002  1
  H  H13  1  0.72886776  0.00264353  0.66938998  1
  H  H14  1  0.22886776  0.49735647  0.33061002  1
  H  H15  1  0.27113224  0.99735647  0.16938998  1
  H  H16  1  0.92550717  0.72670685  0.04599543  1
  H  H17  1  0.57449283  0.22670685  0.45400457  1
  H  H18  1  0.07449283  0.27329315  0.54599543  1
  H  H19  1  0.42550717  0.77329315  0.95400457  1
  H  H20  1  0.07449283  0.27329315  0.95400457  1
  H  H21  1  0.42550717  0.77329315  0.54599543  1
  H  H22  1  0.92550717  0.72670685  0.45400457  1
  H  H23  1  0.57449283  0.22670685  0.04599543  1
  H  H24  1  0.72265328  0.59741615  0.00869426  1
  H  H25  1  0.77734672  0.09741615  0.49130574  1
  H  H26  1  0.27734672  0.40258385  0.50869426  1
  H  H27  1  0.22265328  0.90258385  0.99130574  1
  H  H28  1  0.27734672  0.40258385  0.99130574  1
  H  H29  1  0.22265328  0.90258385  0.50869426  1
  H  H30  1  0.72265328  0.59741615  0.49130574  1
  H  H31  1  0.77734672  0.09741615  0.00869426  1
  H  H32  1  0.85682450  0.78341464  0.13287637  1
  H  H33  1  0.64317550  0.28341464  0.36712363  1
  H  H34  1  0.14317550  0.21658536  0.63287637  1
  H  H35  1  0.35682450  0.71658536  0.86712363  1
  H  H36  1  0.14317550  0.21658536  0.86712363  1
  H  H37  1  0.35682450  0.71658536  0.63287637  1
  H  H38  1  0.85682450  0.78341464  0.36712363  1
  H  H39  1  0.64317550  0.28341464  0.13287637  1
  H  H40  1  0.61502136  0.68304777  0.16482123  1
  H  H41  1  0.88497864  0.18304777  0.33517877  1
  H  H42  1  0.38497864  0.31695223  0.66482123  1
  H  H43  1  0.11502136  0.81695223  0.83517877  1
  H  H44  1  0.38497864  0.31695223  0.83517877  1
  H  H45  1  0.11502136  0.81695223  0.66482123  1
  H  H46  1  0.61502136  0.68304777  0.33517877  1
  H  H47  1  0.88497864  0.18304777  0.16482123  1
  C  C48  1  0.26522069  0.48874882  0.25000000  1
  C  C49  1  0.23477931  0.98874882  0.25000000  1
  C  C50  1  0.73477931  0.51125118  0.75000000  1
  C  C51  1  0.76522069  0.01125118  0.75000000  1
  C  C52  1  0.63132057  0.63488308  0.08573758  1
  C  C53  1  0.86867943  0.13488308  0.41426242  1
  C  C54  1  0.36867943  0.36511692  0.58573758  1
  C  C55  1  0.13132057  0.86511692  0.91426242  1
  C  C56  1  0.36867943  0.36511692  0.91426242  1
  C  C57  1  0.13132057  0.86511692  0.58573758  1
  C  C58  1  0.63132057  0.63488308  0.41426242  1
  C  C59  1  0.86867943  0.13488308  0.08573758  1
  S  S60  1  0.56611648  0.45997850  0.25000000  1
  S  S61  1  0.93388352  0.95997850  0.25000000  1
  S  S62  1  0.43388352  0.54002150  0.75000000  1
  S  S63  1  0.06611648  0.04002150  0.75000000  1
  S  S64  1  0.37329927  0.51341593  0.08208847  1
  S  S65  1  0.12670073  0.01341593  0.41791153  1
  S  S66  1  0.62670073  0.48658407  0.58208847  1
  S  S67  1  0.87329927  0.98658407  0.91791153  1
  S  S68  1  0.62670073  0.48658407  0.91791153  1
  S  S69  1  0.87329927  0.98658407  0.58208847  1
  S  S70  1  0.37329927  0.51341593  0.41791153  1
  S  S71  1  0.12670073  0.01341593  0.08208847  1
  N  N72  1  0.14292245  0.49801000  0.20488303  1
  N  N73  1  0.35707755  0.99801000  0.29511697  1
  N  N74  1  0.85707755  0.50199000  0.70488303  1
  N  N75  1  0.64292245  0.00199000  0.79511697  1
  N  N76  1  0.85707755  0.50199000  0.79511697  1
  N  N77  1  0.64292245  0.00199000  0.70488303  1
  N  N78  1  0.14292245  0.49801000  0.29511697  1
  N  N79  1  0.35707755  0.99801000  0.20488303  1
  N  N80  1  0.77058484  0.65512359  0.04352202  1
  N  N81  1  0.72941516  0.15512359  0.45647798  1
  N  N82  1  0.22941516  0.34487641  0.54352202  1
  N  N83  1  0.27058484  0.84487641  0.95647798  1
  N  N84  1  0.22941516  0.34487641  0.95647798  1
  N  N85  1  0.27058484  0.84487641  0.54352202  1
  N  N86  1  0.77058484  0.65512359  0.45647798  1
  N  N87  1  0.72941516  0.15512359  0.04352202  1
  N  N88  1  0.70094911  0.71282649  0.13076171  1
  N  N89  1  0.79905089  0.21282649  0.36923829  1
  N  N90  1  0.29905089  0.28717351  0.63076171  1
  N  N91  1  0.20094911  0.78717351  0.86923829  1
  N  N92  1  0.29905089  0.28717351  0.86923829  1
  N  N93  1  0.20094911  0.78717351  0.63076171  1
  N  N94  1  0.70094911  0.71282649  0.36923829  1
  N  N95  1  0.79905089  0.21282649  0.13076171  1
