# generated using pymatgen
data_Ca2Al2FeSi3HO13
_symmetry_space_group_name_H-M   'P 1'
_cell_length_a   9.00140407
_cell_length_b   5.71789551
_cell_length_c   10.25793288
_cell_angle_alpha   90.00000000
_cell_angle_beta   115.35447661
_cell_angle_gamma   90.00000000
_symmetry_Int_Tables_number   1
_chemical_formula_structural   Ca2Al2FeSi3HO13
_chemical_formula_sum   'Ca4 Al4 Fe2 Si6 H2 O26'
_cell_volume   477.11050909
_cell_formula_units_Z   2
loop_
 _symmetry_equiv_pos_site_id
 _symmetry_equiv_pos_as_xyz
  1  'x, y, z'
loop_
 _atom_site_type_symbol
 _atom_site_label
 _atom_site_symmetry_multiplicity
 _atom_site_fract_x
 _atom_site_fract_y
 _atom_site_fract_z
 _atom_site_occupancy
  Ca  Ca0  1  0.75515590  0.75000000  0.15074885  1
  Ca  Ca1  1  0.24484410  0.25000000  0.84925115  1
  Ca  Ca2  1  0.60590853  0.75000000  0.42381601  1
  Ca  Ca3  1  0.39409147  0.25000000  0.57618399  1
  Al  Al4  1  0.00000000  0.50000000  0.00000000  1
  Al  Al5  1  0.00000000  0.00000000  0.00000000  1
  Al  Al6  1  0.00000000  0.50000000  0.50000000  1
  Al  Al7  1  0.00000000  0.00000000  0.50000000  1
  Fe  Fe8  1  0.29389417  0.25000000  0.22511307  1
  Fe  Fe9  1  0.70610583  0.75000000  0.77488693  1
  Si  Si10  1  0.33903808  0.75000000  0.04747435  1
  Si  Si11  1  0.66096192  0.25000000  0.95252565  1
  Si  Si12  1  0.68621646  0.25000000  0.27485474  1
  Si  Si13  1  0.31378354  0.75000000  0.72514526  1
  Si  Si14  1  0.18353558  0.75000000  0.31873214  1
  Si  Si15  1  0.81646442  0.25000000  0.68126786  1
  H  H16  1  0.05470774  0.25000000  0.32573245  1
  H  H17  1  0.94529226  0.75000000  0.67426755  1
  O  O18  1  0.23262314  0.50701087  0.03929133  1
  O  O19  1  0.76737686  0.00701087  0.96070867  1
  O  O20  1  0.76737686  0.49298913  0.96070867  1
  O  O21  1  0.23262314  0.99298913  0.03929133  1
  O  O22  1  0.30473548  0.51984912  0.35725529  1
  O  O23  1  0.69526452  0.01984912  0.64274471  1
  O  O24  1  0.69526452  0.48015088  0.64274471  1
  O  O25  1  0.30473548  0.98015088  0.35725529  1
  O  O26  1  0.79644093  0.48624690  0.33857923  1
  O  O27  1  0.20355907  0.98624690  0.66142077  1
  O  O28  1  0.20355907  0.51375310  0.66142077  1
  O  O29  1  0.79644093  0.01375310  0.33857923  1
  O  O30  1  0.05127296  0.25000000  0.12849099  1
  O  O31  1  0.94872704  0.75000000  0.87150901  1
  O  O32  1  0.04154627  0.75000000  0.14586411  1
  O  O33  1  0.95845373  0.25000000  0.85413589  1
  O  O34  1  0.06754428  0.75000000  0.40817272  1
  O  O35  1  0.93245572  0.25000000  0.59182728  1
  O  O36  1  0.51479910  0.75000000  0.18152954  1
  O  O37  1  0.48520090  0.25000000  0.81847046  1
  O  O38  1  0.52835647  0.25000000  0.31081454  1
  O  O39  1  0.47164353  0.75000000  0.68918546  1
  O  O40  1  0.62548191  0.25000000  0.09833262  1
  O  O41  1  0.37451809  0.75000000  0.90166738  1
  O  O42  1  0.08364757  0.25000000  0.42973088  1
  O  O43  1  0.91635243  0.75000000  0.57026912  1
