# generated using pymatgen
data_NbVC2
_symmetry_space_group_name_H-M   'P 1'
_cell_length_a   3.08646319
_cell_length_b   3.08646319
_cell_length_c   5.31511970
_cell_angle_alpha   106.87875090
_cell_angle_beta   73.12124910
_cell_angle_gamma   119.99999985
_symmetry_Int_Tables_number   1
_chemical_formula_structural   NbVC2
_chemical_formula_sum   'Nb1 V1 C2'
_cell_volume   41.31179087
_cell_formula_units_Z   1
loop_
 _symmetry_equiv_pos_site_id
 _symmetry_equiv_pos_as_xyz
  1  'x, y, z'
loop_
 _atom_site_type_symbol
 _atom_site_label
 _atom_site_symmetry_multiplicity
 _atom_site_fract_x
 _atom_site_fract_y
 _atom_site_fract_z
 _atom_site_occupancy
  Nb  Nb0  1  0.25000000  0.75000000  0.25000000  1
  V  V1  1  0.75000000  0.25000000  0.75000000  1
  C  C2  1  0.00557493  0.99442507  0.98327521  1
  C  C3  1  0.49442507  0.50557493  0.51672479  1
