# generated using pymatgen
data_Ce2Ti2O7
_symmetry_space_group_name_H-M   'P 1'
_cell_length_a   7.32823674
_cell_length_b   7.32836224
_cell_length_c   7.32833161
_cell_angle_alpha   60.00036534
_cell_angle_beta   60.00030597
_cell_angle_gamma   60.00089001
_symmetry_Int_Tables_number   1
_chemical_formula_structural   Ce2Ti2O7
_chemical_formula_sum   'Ce4 Ti4 O14'
_cell_volume   278.29260046
_cell_formula_units_Z   2
loop_
 _symmetry_equiv_pos_site_id
 _symmetry_equiv_pos_as_xyz
  1  'x, y, z'
loop_
 _atom_site_type_symbol
 _atom_site_label
 _atom_site_symmetry_multiplicity
 _atom_site_fract_x
 _atom_site_fract_y
 _atom_site_fract_z
 _atom_site_occupancy
  Ce  Ce0  1  0.50000156  -0.00000077  0.49999589  1
  Ce  Ce1  1  0.49999658  0.50000474  0.99999715  1
  Ce  Ce2  1  -0.00000392  0.49999793  0.50000112  1
  Ce  Ce3  1  0.49999932  0.50000662  0.49999755  1
  Ti  Ti4  1  0.49999124  -0.00000312  0.00000144  1
  Ti  Ti5  1  0.00000298  0.99999346  0.99999580  1
  Ti  Ti6  1  0.99999661  0.50000548  0.00000122  1
  Ti  Ti7  1  0.00000253  0.00000134  0.49999415  1
  O  O8  1  0.67195147  0.07804954  0.07804672  1
  O  O9  1  0.92195574  0.32804184  0.32803867  1
  O  O10  1  0.07803903  0.67195822  0.07804503  1
  O  O11  1  0.07804706  0.07804892  0.67196327  1
  O  O12  1  0.37500473  0.37500407  0.37500541  1
  O  O13  1  0.67195842  0.67195756  0.07804577  1
  O  O14  1  0.67195687  0.07804689  0.67195261  1
  O  O15  1  0.32804896  0.92195036  0.32804644  1
  O  O16  1  0.62500135  0.62498678  0.62499655  1
  O  O17  1  0.32805017  0.32803893  0.92195646  1
  O  O18  1  0.92195028  0.92195167  0.32804542  1
  O  O19  1  0.92195446  0.32805080  0.92195724  1
  O  O20  1  0.07804758  0.67195057  0.67196033  1
  O  O21  1  0.32804696  0.92195815  0.92195575  1
