# generated using pymatgen
data_Li2Ti4Co(AsO5)4
_symmetry_space_group_name_H-M   'P 1'
_cell_length_a   13.42747701
_cell_length_b   10.10734427
_cell_length_c   10.08532328
_cell_angle_alpha   64.23880275
_cell_angle_beta   48.83751972
_cell_angle_gamma   48.37826490
_symmetry_Int_Tables_number   1
_chemical_formula_structural   Li2Ti4Co(AsO5)4
_chemical_formula_sum   'Li4 Ti8 Co2 As8 O40'
_cell_volume   770.30200856
_cell_formula_units_Z   2
loop_
 _symmetry_equiv_pos_site_id
 _symmetry_equiv_pos_as_xyz
  1  'x, y, z'
loop_
 _atom_site_type_symbol
 _atom_site_label
 _atom_site_symmetry_multiplicity
 _atom_site_fract_x
 _atom_site_fract_y
 _atom_site_fract_z
 _atom_site_occupancy
  Li  Li0  1  0.99899182  0.49941995  0.50232767  1
  Li  Li1  1  0.24971773  0.50145893  0.50108261  1
  Li  Li2  1  0.75510509  0.99766098  0.99435672  1
  Li  Li3  1  0.74691619  0.49781613  0.50305049  1
  Ti  Ti4  1  0.07620917  0.26962106  0.84042761  1
  Ti  Ti5  1  0.34060879  0.22143194  0.34338308  1
  Ti  Ti6  1  0.16824997  0.76935542  0.65577737  1
  Ti  Ti7  1  0.42035282  0.73200832  0.16314360  1
  Ti  Ti8  1  0.56973019  0.27848300  0.83533730  1
  Ti  Ti9  1  0.83340276  0.23144909  0.33951372  1
  Ti  Ti10  1  0.65622223  0.77950791  0.66113882  1
  Ti  Ti11  1  0.93090447  0.72191172  0.16168644  1
  Co  Co12  1  0.99853721  0.00145508  0.99801693  1
  Co  Co13  1  0.50068496  0.99927387  0.00201504  1
  As  As14  1  0.12218891  0.13049208  0.37454148  1
  As  As15  1  0.24631596  0.63040826  0.12852604  1
  As  As16  1  0.25215628  0.37070911  0.87078073  1
  As  As17  1  0.62052852  0.13534678  0.37321275  1
  As  As18  1  0.37629490  0.86672979  0.62866337  1
  As  As19  1  0.74941848  0.62678004  0.12767120  1
  As  As20  1  0.74989024  0.37397575  0.87320834  1
  As  As21  1  0.87901669  0.86928964  0.62395985  1
  O  O22  1  0.08879341  0.00807888  0.56457356  1
  O  O23  1  0.10023340  0.48984832  0.06487349  1
  O  O24  1  0.15434824  0.26610209  0.37990463  1
  O  O25  1  0.07416593  0.76735509  0.13014420  1
  O  O26  1  0.20957072  0.00060993  0.81283223  1
  O  O27  1  0.21639283  0.50046706  0.31494328  1
  O  O28  1  0.15643354  0.32433012  0.61781699  1
  O  O29  1  0.47700675  0.15850174  0.11923360  1
  O  O30  1  0.04129700  0.73685267  0.63587948  1
  O  O31  1  0.28449028  0.76522274  0.11863370  1
  O  O32  1  0.21541432  0.23453092  0.87904804  1
  O  O33  1  0.45448592  0.26487698  0.36692337  1
  O  O34  1  0.02440247  0.83817298  0.88171111  1
  O  O35  1  0.33030044  0.68331683  0.38348992  1
  O  O36  1  0.58600480  0.01191424  0.56267189  1
  O  O37  1  0.59572998  0.49480605  0.06391574  1
  O  O38  1  0.27268742  0.50208547  0.68856565  1
  O  O39  1  0.29093314  0.99957560  0.18835088  1
  O  O40  1  0.42403428  0.23493257  0.86938078  1
  O  O41  1  0.65179146  0.26825225  0.38011267  1
  O  O42  1  0.34565562  0.73225028  0.62214305  1
  O  O43  1  0.57584984  0.76464388  0.13444040  1
  O  O44  1  0.71513516  0.99933841  0.81500846  1
  O  O45  1  0.72983449  0.49804733  0.31144319  1
  O  O46  1  0.39882048  0.51057783  0.93597438  1
  O  O47  1  0.41358743  0.98871913  0.43737865  1
  O  O48  1  0.66394879  0.32289262  0.61618916  1
  O  O49  1  0.96242751  0.17004478  0.11771268  1
  O  O50  1  0.54171470  0.73815560  0.63568836  1
  O  O51  1  0.78709928  0.76463663  0.11863203  1
  O  O52  1  0.71165050  0.23739517  0.88194139  1
  O  O53  1  0.95913243  0.26165615  0.36441391  1
  O  O54  1  0.53332555  0.83651651  0.88134860  1
  O  O55  1  0.84590113  0.67279640  0.38335880  1
  O  O56  1  0.77953460  0.50145540  0.68519124  1
  O  O57  1  0.78218807  0.00273279  0.18410233  1
  O  O58  1  0.92376838  0.23467705  0.86600609  1
  O  O59  1  0.84594330  0.73505201  0.61910741  1
  O  O60  1  0.90266540  0.50657792  0.93543422  1
  O  O61  1  0.91028366  0.99275073  0.43562826  1
