# generated using pymatgen
data_Na2TiO3
_symmetry_space_group_name_H-M   'P 1'
_cell_length_a   5.37237174
_cell_length_b   5.37441465
_cell_length_c   11.06895685
_cell_angle_alpha   85.17794407
_cell_angle_beta   99.68239996
_cell_angle_gamma   119.98743276
_symmetry_Int_Tables_number   1
_chemical_formula_structural   Na2TiO3
_chemical_formula_sum   'Na8 Ti4 O12'
_cell_volume   272.87176730
_cell_formula_units_Z   4
loop_
 _symmetry_equiv_pos_site_id
 _symmetry_equiv_pos_as_xyz
  1  'x, y, z'
loop_
 _atom_site_type_symbol
 _atom_site_label
 _atom_site_symmetry_multiplicity
 _atom_site_fract_x
 _atom_site_fract_y
 _atom_site_fract_z
 _atom_site_occupancy
  Na  Na0  1  0.15864758  0.84123738  0.49905515  1
  Na  Na1  1  0.00000000  0.50000000  0.00000000  1
  Na  Na2  1  0.08165576  0.16331253  0.25000000  1
  Na  Na3  1  0.68258980  0.84123738  0.00094485  1
  Na  Na4  1  0.50000000  0.50000000  0.50000000  1
  Na  Na5  1  0.31741020  0.15876262  0.99905515  1
  Na  Na6  1  0.91834424  0.83668747  0.75000000  1
  Na  Na7  1  0.84135242  0.15876262  0.50094485  1
  Ti  Ti8  1  0.25334932  0.50669764  0.75000000  1
  Ti  Ti9  1  0.41479870  0.82959740  0.25000000  1
  Ti  Ti10  1  0.58520130  0.17040260  0.75000000  1
  Ti  Ti11  1  0.74665068  0.49330236  0.25000000  1
  O  O12  1  0.04858436  0.78799704  0.14786718  1
  O  O13  1  0.33051102  0.83424216  0.85100876  1
  O  O14  1  0.11692210  0.54431338  0.35063848  1
  O  O15  1  0.50373114  0.83424216  0.64899124  1
  O  O16  1  0.26058731  0.21200296  0.64786718  1
  O  O17  1  0.57260872  0.45568662  0.85063848  1
  O  O18  1  0.42739128  0.54431338  0.14936152  1
  O  O19  1  0.73941269  0.78799704  0.35213282  1
  O  O20  1  0.49626886  0.16575784  0.35100876  1
  O  O21  1  0.88307790  0.45568662  0.64936152  1
  O  O22  1  0.66948898  0.16575784  0.14899124  1
  O  O23  1  0.95141564  0.21200296  0.85213282  1
