# generated using pymatgen
data_Lu2TeO6
_symmetry_space_group_name_H-M   'P 1'
_cell_length_a   5.20248184
_cell_length_b   8.98429383
_cell_length_c   9.85238404
_cell_angle_alpha   90.00000000
_cell_angle_beta   90.00000000
_cell_angle_gamma   90.00000000
_symmetry_Int_Tables_number   1
_chemical_formula_structural   Lu2TeO6
_chemical_formula_sum   'Lu8 Te4 O24'
_cell_volume   460.50659265
_cell_formula_units_Z   4
loop_
 _symmetry_equiv_pos_site_id
 _symmetry_equiv_pos_as_xyz
  1  'x, y, z'
loop_
 _atom_site_type_symbol
 _atom_site_label
 _atom_site_symmetry_multiplicity
 _atom_site_fract_x
 _atom_site_fract_y
 _atom_site_fract_z
 _atom_site_occupancy
  Lu  Lu0  1  0.02128039  0.39671141  0.04044158  1
  Lu  Lu1  1  0.03829582  0.28266370  0.63513146  1
  Lu  Lu2  1  0.46170418  0.71733630  0.13513146  1
  Lu  Lu3  1  0.47871961  0.60328859  0.54044158  1
  Lu  Lu4  1  0.52128039  0.10328859  0.95955842  1
  Lu  Lu5  1  0.53829582  0.21733630  0.36486854  1
  Lu  Lu6  1  0.96170418  0.78266370  0.86486854  1
  Lu  Lu7  1  0.97871961  0.89671141  0.45955842  1
  Te  Te8  1  0.03876927  0.00586419  0.14669747  1
  Te  Te9  1  0.46123073  0.99413581  0.64669747  1
  Te  Te10  1  0.53876927  0.49413581  0.85330253  1
  Te  Te11  1  0.96123073  0.50586419  0.35330253  1
  O  O12  1  0.08984014  0.65858286  0.47385224  1
  O  O13  1  0.17527353  0.54859851  0.19981849  1
  O  O14  1  0.19028083  0.85701327  0.26173474  1
  O  O15  1  0.17519020  0.85682898  0.67788293  1
  O  O16  1  0.23524114  0.38387414  0.43502801  1
  O  O17  1  0.24719749  0.91522638  0.00117779  1
  O  O18  1  0.25280251  0.08477362  0.50117779  1
  O  O19  1  0.26475886  0.61612586  0.93502801  1
  O  O20  1  0.32480980  0.14317102  0.17788293  1
  O  O21  1  0.30971917  0.14298673  0.76173474  1
  O  O22  1  0.32472647  0.45140149  0.69981849  1
  O  O23  1  0.41015986  0.34141714  0.97385224  1
  O  O24  1  0.58984014  0.84141714  0.52614776  1
  O  O25  1  0.67527353  0.95140149  0.80018151  1
  O  O26  1  0.69028083  0.64298673  0.73826526  1
  O  O27  1  0.67519020  0.64317102  0.32211707  1
  O  O28  1  0.73524114  0.11612586  0.56497199  1
  O  O29  1  0.74719749  0.58477362  0.99882221  1
  O  O30  1  0.75280251  0.41522638  0.49882221  1
  O  O31  1  0.76475886  0.88387414  0.06497199  1
  O  O32  1  0.82480980  0.35682898  0.82211707  1
  O  O33  1  0.80971917  0.35701327  0.23826526  1
  O  O34  1  0.82472647  0.04859851  0.30018151  1
  O  O35  1  0.91015986  0.15858286  0.02614776  1
