# generated using pymatgen
data_Ti5O9
_symmetry_space_group_name_H-M   'P 1'
_cell_length_a   5.61974157
_cell_length_b   7.18326235
_cell_length_c   8.55562137
_cell_angle_alpha   69.48555559
_cell_angle_beta   75.18853313
_cell_angle_gamma   71.30848440
_symmetry_Int_Tables_number   1
_chemical_formula_structural   Ti5O9
_chemical_formula_sum   'Ti10 O18'
_cell_volume   302.38584851
_cell_formula_units_Z   2
loop_
 _symmetry_equiv_pos_site_id
 _symmetry_equiv_pos_as_xyz
  1  'x, y, z'
loop_
 _atom_site_type_symbol
 _atom_site_label
 _atom_site_symmetry_multiplicity
 _atom_site_fract_x
 _atom_site_fract_y
 _atom_site_fract_z
 _atom_site_occupancy
  O  O0  1  0.31294931  0.46737891  0.45859021  1
  O  O1  1  0.68705069  0.53262109  0.54140979  1
  O  O2  1  0.06932763  0.19617217  0.42096454  1
  O  O3  1  0.93067237  0.80382783  0.57903546  1
  O  O4  1  0.58530702  0.13198460  0.36667584  1
  O  O5  1  0.41469298  0.86801540  0.63332416  1
  O  O6  1  0.40971265  0.84886534  0.32287518  1
  O  O7  1  0.59028735  0.15113466  0.67712482  1
  O  O8  1  0.97930785  0.80892473  0.23895261  1
  O  O9  1  0.02069215  0.19107527  0.76104739  1
  O  O10  1  0.37351110  0.85142868  0.97837420  1
  O  O11  1  0.62648890  0.14857132  0.02162580  1
  O  O12  1  0.91711243  0.80400668  0.91865825  1
  O  O13  1  0.08288757  0.19599332  0.08134175  1
  O  O14  1  0.74007788  0.53881624  0.86167560  1
  O  O15  1  0.25992212  0.46118376  0.13832440  1
  O  O16  1  0.28400416  0.48908231  0.79681558  1
  O  O17  1  0.71599584  0.51091769  0.20318442  1
  Ti  Ti18  1  0.72180169  0.32550542  0.42517743  1
  Ti  Ti19  1  0.27819831  0.67449458  0.57482257  1
  Ti  Ti20  1  0.71892990  0.82886770  0.42182907  1
  Ti  Ti21  1  0.28107010  0.17113230  0.57817093  1
  Ti  Ti22  1  0.34697106  0.65678068  0.20539550  1
  Ti  Ti23  1  0.65302894  0.34321932  0.79460450  1
  Ti  Ti24  1  0.34514818  0.15865285  0.20463327  1
  Ti  Ti25  1  0.65485182  0.84134715  0.79536673  1
  Ti  Ti26  1  0.00000000  0.00000000  0.00000000  1
  Ti  Ti27  1  0.00000000  0.50000000  0.00000000  1
