# generated using pymatgen
data_La2SiO5
_symmetry_space_group_name_H-M   'P 1'
_cell_length_a   7.13086229
_cell_length_b   8.36454426
_cell_length_c   10.23016086
_cell_angle_alpha   107.36353521
_cell_angle_beta   110.39691093
_cell_angle_gamma   64.76985559
_symmetry_Int_Tables_number   1
_chemical_formula_structural   La2SiO5
_chemical_formula_sum   'La8 Si4 O20'
_cell_volume   509.22619948
_cell_formula_units_Z   4
loop_
 _symmetry_equiv_pos_site_id
 _symmetry_equiv_pos_as_xyz
  1  'x, y, z'
loop_
 _atom_site_type_symbol
 _atom_site_label
 _atom_site_symmetry_multiplicity
 _atom_site_fract_x
 _atom_site_fract_y
 _atom_site_fract_z
 _atom_site_occupancy
  La  La0  1  0.23334814  0.95445283  0.66451624  1
  La  La1  1  0.78763729  0.88875914  0.96543811  1
  La  La2  1  0.71095832  0.61124086  0.53456189  1
  La  La3  1  0.47671527  0.45445283  0.16451624  1
  La  La4  1  0.52328473  0.54554717  0.83548376  1
  La  La5  1  0.28904168  0.38875914  0.46543811  1
  La  La6  1  0.21236271  0.11124086  0.03456189  1
  La  La7  1  0.76665186  0.04554717  0.33548376  1
  Si  Si8  1  0.27195420  0.94574322  0.30699025  1
  Si  Si9  1  0.91070817  0.55425678  0.19300975  1
  Si  Si10  1  0.08929183  0.44574322  0.80699025  1
  Si  Si11  1  0.72804580  0.05425678  0.69300975  1
  O  O12  1  0.09860096  0.95740306  0.14863456  1
  O  O13  1  0.86058202  0.96607812  0.56875830  1
  O  O14  1  0.59923038  0.92306687  0.68216001  1
  O  O15  1  0.85329210  0.75921976  0.17468027  1
  O  O16  1  0.43783159  0.74078024  0.32531973  1
  O  O17  1  0.42292584  0.86356051  0.89531081  1
  O  O18  1  0.39117554  0.63643949  0.60468919  1
  O  O19  1  0.90736946  0.54259694  0.35136544  1
  O  O20  1  0.74209816  0.46607812  0.06875830  1
  O  O21  1  0.84013723  0.57693313  0.81783999  1
  O  O22  1  0.15986277  0.42306687  0.18216001  1
  O  O23  1  0.25790184  0.53392188  0.93124170  1
  O  O24  1  0.09263054  0.45740306  0.64863456  1
  O  O25  1  0.60882446  0.36356051  0.39531081  1
  O  O26  1  0.57707416  0.13643949  0.10468919  1
  O  O27  1  0.56216841  0.25921976  0.67468027  1
  O  O28  1  0.14670790  0.24078024  0.82531973  1
  O  O29  1  0.40076962  0.07693313  0.31783999  1
  O  O30  1  0.13941798  0.03392188  0.43124170  1
  O  O31  1  0.90139904  0.04259694  0.85136544  1
