# generated using pymatgen
data_Nd3SbO7
_symmetry_space_group_name_H-M   'P 1'
_cell_length_a   6.68034014
_cell_length_b   6.68034014
_cell_length_c   7.73949841
_cell_angle_alpha   90.00000000
_cell_angle_beta   90.00000000
_cell_angle_gamma   110.43060772
_symmetry_Int_Tables_number   1
_chemical_formula_structural   Nd3SbO7
_chemical_formula_sum   'Nd6 Sb2 O14'
_cell_volume   323.66361985
_cell_formula_units_Z   2
loop_
 _symmetry_equiv_pos_site_id
 _symmetry_equiv_pos_as_xyz
  1  'x, y, z'
loop_
 _atom_site_type_symbol
 _atom_site_label
 _atom_site_symmetry_multiplicity
 _atom_site_fract_x
 _atom_site_fract_y
 _atom_site_fract_z
 _atom_site_occupancy
  Nd  Nd0  1  -0.00000000  0.00000000  0.50000000  1
  Nd  Nd1  1  -0.00000000  0.00000000  0.00000000  1
  Nd  Nd2  1  0.06332819  0.51824166  0.25000000  1
  Nd  Nd3  1  0.48175834  0.93667181  0.75000000  1
  Nd  Nd4  1  0.93667181  0.48175834  0.75000000  1
  Nd  Nd5  1  0.51824166  0.06332819  0.25000000  1
  Sb  Sb6  1  0.50000000  0.50000000  0.50000000  1
  Sb  Sb7  1  0.50000000  0.50000000  0.00000000  1
  O  O8  1  0.18681746  0.43949618  0.53275138  1
  O  O9  1  0.56050382  0.81318254  0.46724862  1
  O  O10  1  0.18681746  0.43949618  0.96724862  1
  O  O11  1  0.56050382  0.81318254  0.03275138  1
  O  O12  1  0.81318254  0.56050382  0.46724862  1
  O  O13  1  0.43949618  0.18681746  0.53275138  1
  O  O14  1  0.81318254  0.56050382  0.03275138  1
  O  O15  1  0.43949618  0.18681746  0.96724862  1
  O  O16  1  0.88794568  0.15183696  0.25000000  1
  O  O17  1  0.84816304  0.11205432  0.75000000  1
  O  O18  1  0.11205432  0.84816304  0.75000000  1
  O  O19  1  0.15183696  0.88794568  0.25000000  1
  O  O20  1  0.42039598  0.42039598  0.25000000  1
  O  O21  1  0.57960402  0.57960402  0.75000000  1
