# generated using pymatgen
data_NaFe3P2(H4O7)2
_symmetry_space_group_name_H-M   'P 1'
_cell_length_a   7.41917699
_cell_length_b   7.41917699
_cell_length_c   19.64348844
_cell_angle_alpha   90.00000000
_cell_angle_beta   90.00000000
_cell_angle_gamma   90.00000000
_symmetry_Int_Tables_number   1
_chemical_formula_structural   NaFe3P2(H4O7)2
_chemical_formula_sum   'Na4 Fe12 P8 H32 O56'
_cell_volume   1081.25985513
_cell_formula_units_Z   4
loop_
 _symmetry_equiv_pos_site_id
 _symmetry_equiv_pos_as_xyz
  1  'x, y, z'
loop_
 _atom_site_type_symbol
 _atom_site_label
 _atom_site_symmetry_multiplicity
 _atom_site_fract_x
 _atom_site_fract_y
 _atom_site_fract_z
 _atom_site_occupancy
  Na  Na0  1  0.87398086  0.12601914  0.25000000  1
  Na  Na1  1  0.12601914  0.87398086  0.75000000  1
  Na  Na2  1  0.62601914  0.62601914  0.00000000  1
  Na  Na3  1  0.37398086  0.37398086  0.50000000  1
  Fe  Fe4  1  0.89237582  0.39317678  0.49235063  1
  Fe  Fe5  1  0.10762418  0.60682322  0.99235063  1
  Fe  Fe6  1  0.89317678  0.60762418  0.24235063  1
  Fe  Fe7  1  0.10682322  0.39237582  0.74235063  1
  Fe  Fe8  1  0.60682322  0.10762418  0.00764937  1
  Fe  Fe9  1  0.39317678  0.89237582  0.50764937  1
  Fe  Fe10  1  0.60762418  0.89317678  0.75764937  1
  Fe  Fe11  1  0.39237582  0.10682322  0.25764937  1
  Fe  Fe12  1  0.60267963  0.39732037  0.75000000  1
  Fe  Fe13  1  0.39732037  0.60267963  0.25000000  1
  Fe  Fe14  1  0.89732037  0.89732037  0.50000000  1
  Fe  Fe15  1  0.10267963  0.10267963  0.00000000  1
  P  P16  1  0.64020475  0.13261374  0.39944481  1
  P  P17  1  0.35979525  0.86738626  0.89944481  1
  P  P18  1  0.63261374  0.85979525  0.14944481  1
  P  P19  1  0.36738626  0.14020475  0.64944481  1
  P  P20  1  0.86738626  0.35979525  0.10055519  1
  P  P21  1  0.13261374  0.64020475  0.60055519  1
  P  P22  1  0.85979525  0.63261374  0.85055519  1
  P  P23  1  0.14020475  0.36738626  0.35055519  1
  H  H24  1  0.57009465  0.14997328  0.83697481  1
  H  H25  1  0.42990535  0.85002672  0.33697481  1
  H  H26  1  0.64997328  0.92990535  0.58697481  1
  H  H27  1  0.35002672  0.07009465  0.08697481  1
  H  H28  1  0.85002672  0.42990535  0.66302519  1
  H  H29  1  0.14997328  0.57009465  0.16302519  1
  H  H30  1  0.92990535  0.64997328  0.41302519  1
  H  H31  1  0.07009465  0.35002672  0.91302519  1
  H  H32  1  0.61699310  0.40120581  0.59940171  1
  H  H33  1  0.38300690  0.59879419  0.09940171  1
  H  H34  1  0.90120581  0.88300690  0.34940171  1
  H  H35  1  0.09879419  0.11699310  0.84940171  1
  H  H36  1  0.59879419  0.38300690  0.90059829  1
  H  H37  1  0.40120581  0.61699310  0.40059829  1
  H  H38  1  0.88300690  0.90120581  0.65059829  1
  H  H39  1  0.11699310  0.09879419  0.15059829  1
  H  H40  1  0.65374080  0.60186309  0.56811520  1
  H  H41  1  0.34625920  0.39813691  0.06811520  1
  H  H42  1  0.10186309  0.84625920  0.31811520  1
  H  H43  1  0.89813691  0.15374080  0.81811520  1
  H  H44  1  0.39813691  0.34625920  0.93188480  1
  H  H45  1  0.60186309  0.65374080  0.43188480  1
  H  H46  1  0.84625920  0.10186309  0.68188480  1
  H  H47  1  0.15374080  0.89813691  0.18188480  1
  H  H48  1  0.01522436  0.16329769  0.56840956  1
  H  H49  1  0.98477564  0.83670231  0.06840956  1
  H  H50  1  0.66329769  0.48477564  0.31840956  1
  H  H51  1  0.33670231  0.51522436  0.81840956  1
  H  H52  1  0.83670231  0.98477564  0.93159044  1
  H  H53  1  0.16329769  0.01522436  0.43159044  1
  H  H54  1  0.48477564  0.66329769  0.68159044  1
  H  H55  1  0.51522436  0.33670231  0.18159044  1
  O  O56  1  0.46660875  0.07126501  0.43626075  1
  O  O57  1  0.53339125  0.92873499  0.93626075  1
  O  O58  1  0.57126501  0.03339125  0.18626075  1
  O  O59  1  0.42873499  0.96660875  0.68626075  1
  O  O60  1  0.92873499  0.53339125  0.06373925  1
  O  O61  1  0.07126501  0.46660875  0.56373925  1
  O  O62  1  0.03339125  0.57126501  0.81373925  1
  O  O63  1  0.96660875  0.42873499  0.31373925  1
  O  O64  1  0.79536030  0.99255024  0.40994918  1
  O  O65  1  0.20463970  0.00744976  0.90994918  1
  O  O66  1  0.49255024  0.70463970  0.15994918  1
  O  O67  1  0.50744976  0.29536030  0.65994918  1
  O  O68  1  0.00744976  0.20463970  0.09005082  1
  O  O69  1  0.99255024  0.79536030  0.59005082  1
  O  O70  1  0.70463970  0.49255024  0.84005082  1
  O  O71  1  0.29536030  0.50744976  0.34005082  1
  O  O72  1  0.69664407  0.31766630  0.42928843  1
  O  O73  1  0.30335593  0.68233370  0.92928843  1
  O  O74  1  0.81766630  0.80335593  0.17928843  1
  O  O75  1  0.18233370  0.19664407  0.67928843  1
  O  O76  1  0.68233370  0.30335593  0.07071157  1
  O  O77  1  0.31766630  0.69664407  0.57071157  1
  O  O78  1  0.80335593  0.81766630  0.82071157  1
  O  O79  1  0.19664407  0.18233370  0.32071157  1
  O  O80  1  0.60553974  0.15145553  0.32187510  1
  O  O81  1  0.39446026  0.84854447  0.82187510  1
  O  O82  1  0.65145553  0.89446026  0.07187510  1
  O  O83  1  0.34854447  0.10553974  0.57187510  1
  O  O84  1  0.84854447  0.39446026  0.17812490  1
  O  O85  1  0.15145553  0.60553974  0.67812490  1
  O  O86  1  0.89446026  0.65145553  0.92812490  1
  O  O87  1  0.10553974  0.34854447  0.42812490  1
  O  O88  1  0.63455362  0.14866059  0.79330695  1
  O  O89  1  0.36544638  0.85133941  0.29330695  1
  O  O90  1  0.64866059  0.86544638  0.54330695  1
  O  O91  1  0.35133941  0.13455362  0.04330695  1
  O  O92  1  0.85133941  0.36544638  0.70669305  1
  O  O93  1  0.14866059  0.63455362  0.20669305  1
  O  O94  1  0.86544638  0.64866059  0.45669305  1
  O  O95  1  0.13455362  0.35133941  0.95669305  1
  O  O96  1  0.67271916  0.47121845  0.56070922  1
  O  O97  1  0.32728084  0.52878155  0.06070922  1
  O  O98  1  0.97121845  0.82728084  0.31070922  1
  O  O99  1  0.02878155  0.17271916  0.81070922  1
  O  O100  1  0.52878155  0.32728084  0.93929078  1
  O  O101  1  0.47121845  0.67271916  0.43929078  1
  O  O102  1  0.82728084  0.97121845  0.68929078  1
  O  O103  1  0.17271916  0.02878155  0.18929078  1
  O  O104  1  0.91226234  0.15146801  0.53745902  1
  O  O105  1  0.08773766  0.84853199  0.03745902  1
  O  O106  1  0.65146801  0.58773766  0.28745902  1
  O  O107  1  0.34853199  0.41226234  0.78745902  1
  O  O108  1  0.84853199  0.08773766  0.96254098  1
  O  O109  1  0.15146801  0.91226234  0.46254098  1
  O  O110  1  0.58773766  0.65146801  0.71254098  1
  O  O111  1  0.41226234  0.34853199  0.21254098  1
