# generated using pymatgen
data_Rb3LuO3
_symmetry_space_group_name_H-M   'P 1'
_cell_length_a   7.28755630
_cell_length_b   7.28755653
_cell_length_c   7.21986892
_cell_angle_alpha   84.71222315
_cell_angle_beta   95.28777344
_cell_angle_gamma   64.27918575
_symmetry_Int_Tables_number   1
_chemical_formula_structural   Rb3LuO3
_chemical_formula_sum   'Rb6 Lu2 O6'
_cell_volume   340.22222621
_cell_formula_units_Z   2
loop_
 _symmetry_equiv_pos_site_id
 _symmetry_equiv_pos_as_xyz
  1  'x, y, z'
loop_
 _atom_site_type_symbol
 _atom_site_label
 _atom_site_symmetry_multiplicity
 _atom_site_fract_x
 _atom_site_fract_y
 _atom_site_fract_z
 _atom_site_occupancy
  Rb  Rb0  1  0.20040454  0.20040454  0.50000000  1
  Rb  Rb1  1  0.26193383  0.26193383  0.00000000  1
  Rb  Rb2  1  0.36564296  0.63435704  0.64526074  1
  Rb  Rb3  1  0.63435704  0.36564296  0.35473926  1
  Rb  Rb4  1  0.73806617  0.73806617  0.00000000  1
  Rb  Rb5  1  0.79959546  0.79959546  0.50000000  1
  Lu  Lu6  1  0.17367340  0.82632660  0.14749683  1
  Lu  Lu7  1  0.82632660  0.17367340  0.85250317  1
  O  O8  1  0.16254908  0.56227384  0.26711929  1
  O  O9  1  0.09943857  0.90056143  0.84587494  1
  O  O10  1  0.56227384  0.16254908  0.73288071  1
  O  O11  1  0.43772616  0.83745092  0.26711929  1
  O  O12  1  0.90056143  0.09943857  0.15412506  1
  O  O13  1  0.83745092  0.43772616  0.73288071  1
