# generated using pymatgen
data_SrLu2O4
_symmetry_space_group_name_H-M   'P 1'
_cell_length_a   6.79091080
_cell_length_b   6.82587780
_cell_length_c   6.79091153
_cell_angle_alpha   60.16931270
_cell_angle_beta   90.00000036
_cell_angle_gamma   60.16931396
_symmetry_Int_Tables_number   1
_chemical_formula_structural   SrLu2O4
_chemical_formula_sum   'Sr2 Lu4 O8'
_cell_volume   223.72133811
_cell_formula_units_Z   2
loop_
 _symmetry_equiv_pos_site_id
 _symmetry_equiv_pos_as_xyz
  1  'x, y, z'
loop_
 _atom_site_type_symbol
 _atom_site_label
 _atom_site_symmetry_multiplicity
 _atom_site_fract_x
 _atom_site_fract_y
 _atom_site_fract_z
 _atom_site_occupancy
  Sr  Sr0  1  0.12500000  0.25000000  0.87500000  1
  Sr  Sr1  1  0.87500000  0.75000000  0.12500000  1
  Lu  Lu2  1  0.00000000  0.00000000  0.50000000  1
  Lu  Lu3  1  0.50000000  0.00000000  0.50000000  1
  Lu  Lu4  1  0.50000000  0.50000000  0.50000000  1
  Lu  Lu5  1  0.50000000  0.50000000  0.00000000  1
  O  O6  1  0.73007129  0.03997302  0.69512974  1
  O  O7  1  0.26489724  0.53997302  0.73007129  1
  O  O8  1  0.27004431  0.96002698  0.73510276  1
  O  O9  1  0.30487026  0.46002698  0.27004431  1
  O  O10  1  0.69512974  0.53997302  0.72995569  1
  O  O11  1  0.72995569  0.03997302  0.26489724  1
  O  O12  1  0.73510276  0.46002698  0.26992871  1
  O  O13  1  0.26992871  0.96002698  0.30487026  1
