# generated using pymatgen
data_Yb2P4O13
_symmetry_space_group_name_H-M   'P 1'
_cell_length_a   6.82152924
_cell_length_b   6.89062673
_cell_length_c   13.13885571
_cell_angle_alpha   75.52266244
_cell_angle_beta   90.00000000
_cell_angle_gamma   60.33116462
_symmetry_Int_Tables_number   1
_chemical_formula_structural   Yb2P4O13
_chemical_formula_sum   'Yb4 P8 O26'
_cell_volume   513.93102082
_cell_formula_units_Z   2
loop_
 _symmetry_equiv_pos_site_id
 _symmetry_equiv_pos_as_xyz
  1  'x, y, z'
loop_
 _atom_site_type_symbol
 _atom_site_label
 _atom_site_symmetry_multiplicity
 _atom_site_fract_x
 _atom_site_fract_y
 _atom_site_fract_z
 _atom_site_occupancy
  Yb  Yb0  1  0.32086974  0.35419779  0.95605014  1
  Yb  Yb1  1  0.67506852  0.64580221  0.54394986  1
  Yb  Yb2  1  0.32493148  0.35419779  0.45605014  1
  Yb  Yb3  1  0.67913026  0.64580221  0.04394986  1
  P  P4  1  0.16592871  0.97468362  0.86619888  1
  P  P5  1  0.85938766  0.97468362  0.36619888  1
  P  P6  1  0.77794471  0.46261359  0.84037961  1
  P  P7  1  0.24055830  0.53738641  0.65962039  1
  P  P8  1  0.75944170  0.46261359  0.34037961  1
  P  P9  1  0.22205529  0.53738641  0.15962039  1
  P  P10  1  0.14061234  0.02531638  0.63380112  1
  P  P11  1  0.83407129  0.02531638  0.13380112  1
  O  O12  1  0.32564451  0.99648000  0.93665083  1
  O  O13  1  0.14001598  0.76403294  0.90119786  1
  O  O14  1  0.67787549  0.99648000  0.43665083  1
  O  O15  1  0.10194273  0.80829483  0.65569693  1
  O  O16  1  0.92862159  0.51006626  0.90353314  1
  O  O17  1  0.57793750  0.49360234  0.90232640  1
  O  O18  1  0.69888756  0.60784797  0.72529974  1
  O  O19  1  0.09595108  0.76403294  0.40119786  1
  O  O20  1  0.08976144  0.80829483  0.15569693  1
  O  O21  1  0.30673553  0.39215203  0.77470026  1
  O  O22  1  0.07153984  0.50639766  0.59767360  1
  O  O23  1  0.43868785  0.48993374  0.59646686  1
  O  O24  1  0.56131215  0.51006626  0.40353314  1
  O  O25  1  0.92846016  0.49360234  0.40232640  1
  O  O26  1  0.69326447  0.60784797  0.22529974  1
  O  O27  1  0.91023856  0.19170517  0.84430307  1
  O  O28  1  0.90404892  0.23596706  0.59880214  1
  O  O29  1  0.30111244  0.39215203  0.27470026  1
  O  O30  1  0.42206250  0.50639766  0.09767360  1
  O  O31  1  0.07137841  0.48993374  0.09646686  1
  O  O32  1  0.24299830  0.00000000  0.75000000  1
  O  O33  1  0.89805727  0.19170517  0.34430307  1
  O  O34  1  0.32212451  0.00352000  0.56334917  1
  O  O35  1  0.85998402  0.23596706  0.09880214  1
  O  O36  1  0.75700170  0.00000000  0.25000000  1
  O  O37  1  0.67435549  0.00352000  0.06334917  1
