# generated using pymatgen
data_Nb3V3Si2
_symmetry_space_group_name_H-M   'P 1'
_cell_length_a   4.93083120
_cell_length_b   4.93083120
_cell_length_c   4.93083120
_cell_angle_alpha   89.82804106
_cell_angle_beta   90.17195894
_cell_angle_gamma   90.17195894
_symmetry_Int_Tables_number   1
_chemical_formula_structural   Nb3V3Si2
_chemical_formula_sum   'Nb3 V3 Si2'
_cell_volume   119.88215715
_cell_formula_units_Z   1
loop_
 _symmetry_equiv_pos_site_id
 _symmetry_equiv_pos_as_xyz
  1  'x, y, z'
loop_
 _atom_site_type_symbol
 _atom_site_label
 _atom_site_symmetry_multiplicity
 _atom_site_fract_x
 _atom_site_fract_y
 _atom_site_fract_z
 _atom_site_occupancy
  Nb  Nb0  1  0.50182551  0.75000000  0.00182551  1
  Nb  Nb1  1  0.25000000  0.00182551  0.49817449  1
  Nb  Nb2  1  0.99817449  0.49817449  0.75000000  1
  V  V3  1  0.50063447  0.25000000  0.00063447  1
  V  V4  1  0.75000000  0.00063447  0.49936553  1
  V  V5  1  0.99936553  0.49936553  0.25000000  1
  Si  Si6  1  0.50206613  0.49793387  0.49793387  1
  Si  Si7  1  0.99793387  0.00206613  0.00206613  1
