# generated using pymatgen
data_K2ZnP4(HO2)8
_symmetry_space_group_name_H-M   'P 1'
_cell_length_a   6.91730217
_cell_length_b   7.43535780
_cell_length_c   7.60860835
_cell_angle_alpha   81.00826942
_cell_angle_beta   73.96000110
_cell_angle_gamma   83.54756082
_symmetry_Int_Tables_number   1
_chemical_formula_structural   K2ZnP4(HO2)8
_chemical_formula_sum   'K2 Zn1 P4 H8 O16'
_cell_volume   370.48569305
_cell_formula_units_Z   1
loop_
 _symmetry_equiv_pos_site_id
 _symmetry_equiv_pos_as_xyz
  1  'x, y, z'
loop_
 _atom_site_type_symbol
 _atom_site_label
 _atom_site_symmetry_multiplicity
 _atom_site_fract_x
 _atom_site_fract_y
 _atom_site_fract_z
 _atom_site_occupancy
  K  K0  1  0.10778696  0.73515741  0.29741613  1
  K  K1  1  0.89221304  0.26484259  0.70258387  1
  Zn  Zn2  1  0.50000000  0.50000000  0.50000000  1
  P  P3  1  0.32024798  0.27347704  0.24446937  1
  P  P4  1  0.25245647  0.81261081  0.75674628  1
  P  P5  1  0.74754353  0.18738919  0.24325372  1
  P  P6  1  0.67975202  0.72652296  0.75553063  1
  H  H7  1  0.04804953  0.27452068  0.07501287  1
  H  H8  1  0.24878406  0.04551396  0.46545015  1
  H  H9  1  0.39132351  0.18917914  0.71551388  1
  H  H10  1  0.37683181  0.33175984  0.85526213  1
  H  H11  1  0.62316819  0.66824016  0.14473787  1
  H  H12  1  0.60867649  0.81082086  0.28448612  1
  H  H13  1  0.75121594  0.95448604  0.53454985  1
  H  H14  1  0.95195047  0.72547932  0.92498713  1
  O  O15  1  0.23396162  0.35170787  0.08345545  1
  O  O16  1  0.23314583  0.08184949  0.33243159  1
  O  O17  1  0.29052874  0.39333950  0.39507948  1
  O  O18  1  0.25847927  0.01149067  0.66737160  1
  O  O19  1  0.07434552  0.78811664  0.93712499  1
  O  O20  1  0.25715185  0.67437563  0.62924474  1
  O  O21  1  0.55834844  0.23117335  0.15082769  1
  O  O22  1  0.54459465  0.70460805  0.26608422  1
  O  O23  1  0.45540535  0.29539195  0.73391578  1
  O  O24  1  0.44165156  0.76882665  0.84917231  1
  O  O25  1  0.74284815  0.32562437  0.37075526  1
  O  O26  1  0.92565448  0.21188336  0.06287501  1
  O  O27  1  0.74152073  0.98850933  0.33262840  1
  O  O28  1  0.70947126  0.60666050  0.60492052  1
  O  O29  1  0.76685417  0.91815051  0.66756841  1
  O  O30  1  0.76603838  0.64829213  0.91654455  1
