# generated using pymatgen
data_Na4Al4H10O13
_symmetry_space_group_name_H-M   'P 1'
_cell_length_a   10.58900181
_cell_length_b   10.58873128
_cell_length_c   5.37252781
_cell_angle_alpha   89.99882280
_cell_angle_beta   90.00116307
_cell_angle_gamma   89.99999481
_symmetry_Int_Tables_number   1
_chemical_formula_structural   Na4Al4H10O13
_chemical_formula_sum   'Na8 Al8 H20 O26'
_cell_volume   602.38981676
_cell_formula_units_Z   2
loop_
 _symmetry_equiv_pos_site_id
 _symmetry_equiv_pos_as_xyz
  1  'x, y, z'
loop_
 _atom_site_type_symbol
 _atom_site_label
 _atom_site_symmetry_multiplicity
 _atom_site_fract_x
 _atom_site_fract_y
 _atom_site_fract_z
 _atom_site_occupancy
  Na  Na0  1  0.10028616  0.60033305  0.40680063  1
  Na  Na1  1  0.19757933  0.30237887  0.67392784  1
  Na  Na2  1  0.30241033  0.80237473  0.32605813  1
  Na  Na3  1  0.39972127  0.10034838  0.59319996  1
  Na  Na4  1  0.60026856  0.89965886  0.59319804  1
  Na  Na5  1  0.69762461  0.19758779  0.32605806  1
  Na  Na6  1  0.80240634  0.69763121  0.67395521  1
  Na  Na7  1  0.89966224  0.39971729  0.40680015  1
  Al  Al8  1  0.09487808  0.81075119  0.89775808  1
  Al  Al9  1  0.18924769  0.09488531  0.10226352  1
  Al  Al10  1  0.31073750  0.59488425  0.89774158  1
  Al  Al11  1  0.40511651  0.31074623  0.10223910  1
  Al  Al12  1  0.59487754  0.68926132  0.10224397  1
  Al  Al13  1  0.68925948  0.40512262  0.89774708  1
  Al  Al14  1  0.81074632  0.90511829  0.10226754  1
  Al  Al15  1  0.90511988  0.18925111  0.89773640  1
  H  H16  1  0.01598552  0.83854531  0.48570676  1
  H  H17  1  0.05398919  0.55392414  0.88705122  1
  H  H18  1  0.08542832  0.31090366  0.18019340  1
  H  H19  1  0.16151491  0.01600689  0.51429326  1
  H  H20  1  0.18910107  0.41456957  0.18019822  1
  H  H21  1  0.31087947  0.91457535  0.81981854  1
  H  H22  1  0.33848095  0.51600883  0.48572182  1
  H  H23  1  0.41454074  0.81089432  0.81986670  1
  H  H24  1  0.44600063  0.05391877  0.11294308  1
  H  H25  1  0.48401887  0.33853970  0.51427487  1
  H  H26  1  0.51598032  0.66145532  0.51428292  1
  H  H27  1  0.55399471  0.94608352  0.11293107  1
  H  H28  1  0.58545493  0.18910689  0.81984575  1
  H  H29  1  0.66146118  0.48402256  0.48571738  1
  H  H30  1  0.68911882  0.08542811  0.81982809  1
  H  H31  1  0.81087885  0.58544946  0.18014250  1
  H  H32  1  0.83848835  0.98398965  0.51430330  1
  H  H33  1  0.91455404  0.68911790  0.18013421  1
  H  H34  1  0.94607569  0.44600896  0.88705039  1
  H  H35  1  0.98398949  0.16150775  0.48570254  1
  O  O36  1  0.00002255  0.49997582  0.77737550  1
  O  O37  1  0.06278236  0.18980258  0.99901904  1
  O  O38  1  0.09556187  0.81021183  0.56069815  1
  O  O39  1  0.11525932  0.38474061  0.28640112  1
  O  O40  1  0.16845828  0.66846223  0.99831119  1
  O  O41  1  0.18979288  0.93721909  0.00098748  1
  O  O42  1  0.18982401  0.09558236  0.43932905  1
  O  O43  1  0.31017475  0.59557419  0.56066416  1
  O  O44  1  0.31018581  0.43721442  0.99902586  1
  O  O45  1  0.33153535  0.16845637  0.00170616  1
  O  O46  1  0.38472182  0.88473819  0.71363405  1
  O  O47  1  0.40443997  0.31022148  0.43930851  1
  O  O48  1  0.43720679  0.68980505  0.00096863  1
  O  O49  1  0.50000123  0.99999799  0.22261274  1
  O  O50  1  0.56278438  0.31020240  0.00095016  1
  O  O51  1  0.59554928  0.68978857  0.43931412  1
  O  O52  1  0.61527592  0.11526279  0.71363167  1
  O  O53  1  0.66846123  0.83154701  0.00169187  1
  O  O54  1  0.68980406  0.56279431  0.99902496  1
  O  O55  1  0.68979546  0.40444806  0.56068100  1
  O  O56  1  0.81016692  0.90442616  0.43933649  1
  O  O57  1  0.81021105  0.06278529  0.00098880  1
  O  O58  1  0.83154547  0.33153846  0.99829302  1
  O  O59  1  0.88472901  0.61527187  0.28634547  1
  O  O60  1  0.90441968  0.18981997  0.56066980  1
  O  O61  1  0.93721164  0.81020576  0.99902668  1
