# generated using pymatgen
data_Rb3YO3
_symmetry_space_group_name_H-M   'P 1'
_cell_length_a   11.79655780
_cell_length_b   7.40060232
_cell_length_c   8.01242070
_cell_angle_alpha   90.00000000
_cell_angle_beta   93.91071187
_cell_angle_gamma   90.00000000
_symmetry_Int_Tables_number   1
_chemical_formula_structural   Rb3YO3
_chemical_formula_sum   'Rb12 Y4 O12'
_cell_volume   697.86866341
_cell_formula_units_Z   4
loop_
 _symmetry_equiv_pos_site_id
 _symmetry_equiv_pos_as_xyz
  1  'x, y, z'
loop_
 _atom_site_type_symbol
 _atom_site_label
 _atom_site_symmetry_multiplicity
 _atom_site_fract_x
 _atom_site_fract_y
 _atom_site_fract_z
 _atom_site_occupancy
  Rb  Rb0  1  0.07937943  0.33173045  0.64196503  1
  Rb  Rb1  1  0.15566512  0.62154977  0.06948329  1
  Rb  Rb2  1  0.19205425  0.80370803  0.62458579  1
  Rb  Rb3  1  0.30794575  0.30370803  0.37541421  1
  Rb  Rb4  1  0.34433488  0.12154977  0.93051671  1
  Rb  Rb5  1  0.42062057  0.83173045  0.35803497  1
  Rb  Rb6  1  0.57937943  0.16826955  0.64196503  1
  Rb  Rb7  1  0.65566512  0.87845023  0.06948329  1
  Rb  Rb8  1  0.69205425  0.69629197  0.62458579  1
  Rb  Rb9  1  0.80794575  0.19629197  0.37541421  1
  Rb  Rb10  1  0.84433488  0.37845023  0.93051671  1
  Rb  Rb11  1  0.92062057  0.66826955  0.35803497  1
  Y  Y12  1  0.06744856  0.08969677  0.16264394  1
  Y  Y13  1  0.43255144  0.58969677  0.83735606  1
  Y  Y14  1  0.56744856  0.41030323  0.16264394  1
  Y  Y15  1  0.93255144  0.91030323  0.83735606  1
  O  O16  1  0.04345314  0.35661794  0.25457710  1
  O  O17  1  0.09690259  0.04990305  0.89283510  1
  O  O18  1  0.19012896  0.94108267  0.31148338  1
  O  O19  1  0.30987104  0.44108267  0.68851662  1
  O  O20  1  0.40309741  0.54990305  0.10716490  1
  O  O21  1  0.45654686  0.85661794  0.74542290  1
  O  O22  1  0.54345314  0.14338206  0.25457710  1
  O  O23  1  0.59690259  0.45009695  0.89283510  1
  O  O24  1  0.69012896  0.55891733  0.31148338  1
  O  O25  1  0.80987104  0.05891733  0.68851662  1
  O  O26  1  0.90309741  0.95009695  0.10716490  1
  O  O27  1  0.95654686  0.64338206  0.74542290  1
