# generated using pymatgen
data_Ba7Pb17O24
_symmetry_space_group_name_H-M   'P 1'
_cell_length_a   8.11174674
_cell_length_b   7.93425999
_cell_length_c   19.08901110
_cell_angle_alpha   90.00000000
_cell_angle_beta   90.00000000
_cell_angle_gamma   119.99843424
_symmetry_Int_Tables_number   1
_chemical_formula_structural   Ba7Pb17O24
_chemical_formula_sum   'Ba7 Pb17 O24'
_cell_volume   1064.00023613
_cell_formula_units_Z   1
loop_
 _symmetry_equiv_pos_site_id
 _symmetry_equiv_pos_as_xyz
  1  'x, y, z'
loop_
 _atom_site_type_symbol
 _atom_site_label
 _atom_site_symmetry_multiplicity
 _atom_site_fract_x
 _atom_site_fract_y
 _atom_site_fract_z
 _atom_site_occupancy
  Ba  Ba0  1  0.36530358  0.69809937  0.75000000  1
  Ba  Ba1  1  0.33204783  0.66768195  0.08379993  1
  Ba  Ba2  1  0.33204783  0.66768195  0.41620007  1
  Ba  Ba3  1  0.66697021  0.33338906  0.25000000  1
  Ba  Ba4  1  0.65843218  0.32530730  0.58092794  1
  Ba  Ba5  1  0.65843218  0.32530730  0.91907206  1
  Ba  Ba6  1  0.87266627  0.20659736  0.75000000  1
  Pb  Pb7  1  0.16145425  0.81619054  0.25000000  1
  Pb  Pb8  1  0.15703542  0.80827552  0.91554689  1
  Pb  Pb9  1  0.15703542  0.80827552  0.58445311  1
  Pb  Pb10  1  0.18343373  0.34363119  0.25000000  1
  Pb  Pb11  1  0.17868366  0.34189287  0.57975990  1
  Pb  Pb12  1  0.17868366  0.34189287  0.92024010  1
  Pb  Pb13  1  0.64811943  0.83093983  0.25000000  1
  Pb  Pb14  1  0.64732717  0.83305227  0.58039489  1
  Pb  Pb15  1  0.64732717  0.83305227  0.91960511  1
  Pb  Pb16  1  0.34924045  0.18026482  0.08491122  1
  Pb  Pb17  1  0.34924045  0.18026482  0.41508878  1
  Pb  Pb18  1  0.35560654  0.18664726  0.75000000  1
  Pb  Pb19  1  0.83903019  0.65704017  0.08347650  1
  Pb  Pb20  1  0.85364316  0.66433750  0.75000000  1
  Pb  Pb21  1  0.83903019  0.65704017  0.41652350  1
  Pb  Pb22  1  0.81554202  0.16433310  0.41562545  1
  Pb  Pb23  1  0.81554202  0.16433310  0.08437455  1
  O  O24  1  0.99930055  0.60178766  0.16643621  1
  O  O25  1  0.99337151  0.59809477  0.50043408  1
  O  O26  1  0.00340396  0.58772755  0.83105605  1
  O  O27  1  0.99337151  0.59809477  0.99956592  1
  O  O28  1  0.99930055  0.60178766  0.33356379  1
  O  O29  1  0.00340396  0.58772755  0.66894395  1
  O  O30  1  0.32899172  0.66370010  0.92323441  1
  O  O31  1  0.32899172  0.66370010  0.57676559  1
  O  O32  1  0.33089148  0.66657129  0.25000000  1
  O  O33  1  0.37303079  0.39310403  0.66849720  1
  O  O34  1  0.39617114  0.39007861  0.99978694  1
  O  O35  1  0.39651042  0.39775469  0.16691660  1
  O  O36  1  0.39617114  0.39007861  0.50021306  1
  O  O37  1  0.39651042  0.39775469  0.33308340  1
  O  O38  1  0.37303079  0.39310403  0.83150280  1
  O  O39  1  0.66562268  0.33506838  0.08421807  1
  O  O40  1  0.66178462  0.35163617  0.75000000  1
  O  O41  1  0.66562268  0.33506838  0.41578193  1
  O  O42  1  0.60351399  0.00111634  0.33242988  1
  O  O43  1  0.59873438  0.99936339  0.00304725  1
  O  O44  1  0.60351399  0.00111634  0.16757012  1
  O  O45  1  0.61407183  0.00533669  0.66210497  1
  O  O46  1  0.61407183  0.00533669  0.83789503  1
  O  O47  1  0.59873438  0.99936339  0.49695275  1
