# generated using pymatgen
data_Na3CuO2
_symmetry_space_group_name_H-M   'P 1'
_cell_length_a   7.91365880
_cell_length_b   8.62118620
_cell_length_c   5.93494104
_cell_angle_alpha   90.00000000
_cell_angle_beta   112.62621208
_cell_angle_gamma   90.00000000
_symmetry_Int_Tables_number   1
_chemical_formula_structural   Na3CuO2
_chemical_formula_sum   'Na12 Cu4 O8'
_cell_volume   373.74776152
_cell_formula_units_Z   4
loop_
 _symmetry_equiv_pos_site_id
 _symmetry_equiv_pos_as_xyz
  1  'x, y, z'
loop_
 _atom_site_type_symbol
 _atom_site_label
 _atom_site_symmetry_multiplicity
 _atom_site_fract_x
 _atom_site_fract_y
 _atom_site_fract_z
 _atom_site_occupancy
  Na  Na0  1  0.00106333  0.53076189  0.75314330  1
  Na  Na1  1  0.12652112  0.97382245  0.86812086  1
  Na  Na2  1  0.18788849  0.79027633  0.42689117  1
  Na  Na3  1  0.37347888  0.47382245  0.63187914  1
  Na  Na4  1  0.31211151  0.29027633  0.07310883  1
  Na  Na5  1  0.49893667  0.03076189  0.74685670  1
  Na  Na6  1  0.50106333  0.96923811  0.25314330  1
  Na  Na7  1  0.68788849  0.70972367  0.92689117  1
  Na  Na8  1  0.62652112  0.52617755  0.36812086  1
  Na  Na9  1  0.81211151  0.20972367  0.57310883  1
  Na  Na10  1  0.87347888  0.02617755  0.13187914  1
  Na  Na11  1  0.99893667  0.46923811  0.24685670  1
  Cu  Cu12  1  0.17325287  0.17850501  0.46427033  1
  Cu  Cu13  1  0.32674713  0.67850501  0.03572967  1
  Cu  Cu14  1  0.67325287  0.32149499  0.96427033  1
  Cu  Cu15  1  0.82674713  0.82149499  0.53572967  1
  O  O16  1  0.11797351  0.31808168  0.64917593  1
  O  O17  1  0.22549334  0.04121296  0.26973936  1
  O  O18  1  0.38202649  0.81808168  0.85082407  1
  O  O19  1  0.27450666  0.54121296  0.23026064  1
  O  O20  1  0.72549334  0.45878704  0.76973936  1
  O  O21  1  0.61797351  0.18191832  0.14917593  1
  O  O22  1  0.77450666  0.95878704  0.73026064  1
  O  O23  1  0.88202649  0.68191832  0.35082407  1
