# generated using pymatgen
data_Na2Ti7O15
_symmetry_space_group_name_H-M   'P 1'
_cell_length_a   7.88110854
_cell_length_b   7.54106823
_cell_length_c   21.37322930
_cell_angle_alpha   89.99745789
_cell_angle_beta   95.69746077
_cell_angle_gamma   76.16211319
_symmetry_Int_Tables_number   1
_chemical_formula_structural   Na2Ti7O15
_chemical_formula_sum   'Na8 Ti28 O60'
_cell_volume   1226.92085696
_cell_formula_units_Z   4
loop_
 _symmetry_equiv_pos_site_id
 _symmetry_equiv_pos_as_xyz
  1  'x, y, z'
loop_
 _atom_site_type_symbol
 _atom_site_label
 _atom_site_symmetry_multiplicity
 _atom_site_fract_x
 _atom_site_fract_y
 _atom_site_fract_z
 _atom_site_occupancy
  Na  Na0  1  0.06783586  0.48324881  0.60282282  1
  Na  Na1  1  0.06850313  0.98269239  0.60201652  1
  Na  Na2  1  0.99777076  0.00043314  0.99673691  1
  Na  Na3  1  0.00222924  0.49956686  0.00326309  1
  Na  Na4  1  0.12959392  0.96765309  0.18425542  1
  Na  Na5  1  0.87040608  0.53234691  0.81574458  1
  Na  Na6  1  0.93216414  0.01675119  0.39717718  1
  Na  Na7  1  0.93149687  0.51730761  0.39798348  1
  Ti  Ti8  1  0.19488520  0.20065942  0.75726234  1
  Ti  Ti9  1  0.19639707  0.70171411  0.75725095  1
  Ti  Ti10  1  0.28185967  0.67900122  0.90082079  1
  Ti  Ti11  1  0.28162495  0.18015936  0.90132255  1
  Ti  Ti12  1  0.24658551  0.68794810  0.32774846  1
  Ti  Ti13  1  0.24755006  0.18856078  0.32773954  1
  Ti  Ti14  1  0.33367128  0.16659760  0.47330650  1
  Ti  Ti15  1  0.33379474  0.66641823  0.47342581  1
  Ti  Ti16  1  0.50627458  0.37253409  0.81237198  1
  Ti  Ti17  1  0.50799565  0.87397016  0.81284494  1
  Ti  Ti18  1  0.44519089  0.63891674  0.61685057  1
  Ti  Ti19  1  0.44410891  0.13887331  0.61666496  1
  Ti  Ti20  1  0.60926255  0.84713948  0.95590722  1
  Ti  Ti21  1  0.60921001  0.34854718  0.95516422  1
  Ti  Ti22  1  0.39078999  0.15145282  0.04483578  1
  Ti  Ti23  1  0.39073745  0.65286052  0.04409278  1
  Ti  Ti24  1  0.55589109  0.36112669  0.38333504  1
  Ti  Ti25  1  0.55480911  0.86108326  0.38314943  1
  Ti  Ti26  1  0.49372542  0.12746591  0.18762802  1
  Ti  Ti27  1  0.49200435  0.62602984  0.18715506  1
  Ti  Ti28  1  0.66632872  0.33340240  0.52669350  1
  Ti  Ti29  1  0.66620526  0.83358177  0.52657419  1
  Ti  Ti30  1  0.75244994  0.31143922  0.67226046  1
  Ti  Ti31  1  0.75341449  0.81205190  0.67225154  1
  Ti  Ti32  1  0.71837505  0.31984064  0.09867745  1
  Ti  Ti33  1  0.71814033  0.82099878  0.09917921  1
  Ti  Ti34  1  0.80511480  0.29934058  0.24273766  1
  Ti  Ti35  1  0.80360293  0.79828589  0.24274905  1
  O  O36  1  0.09961431  0.23844252  0.84293940  1
  O  O37  1  0.09933440  0.71176715  0.84285919  1
  O  O38  1  0.19496827  0.70098864  0.98211570  1
  O  O39  1  0.19508062  0.20159544  0.98211939  1
  O  O40  1  0.02442484  0.75179795  0.28555310  1
  O  O41  1  0.02479395  0.23562910  0.28555635  1
  O  O42  1  0.25349718  0.93702941  0.76798740  1
  O  O43  1  0.25633452  0.43556726  0.76714266  1
  O  O44  1  0.14781122  0.21390380  0.41277416  1
  O  O45  1  0.14776293  0.71224918  0.41286770  1
  O  O46  1  0.35936155  0.40999385  0.90264807  1
  O  O47  1  0.35551519  0.91136126  0.90187005  1
  O  O48  1  0.24916310  0.18759109  0.55168479  1
  O  O49  1  0.24978972  0.68758344  0.55176242  1
  O  O50  1  0.31199540  0.67237112  0.68022871  1
  O  O51  1  0.31210108  0.17161984  0.68029052  1
  O  O52  1  0.30196975  0.42453267  0.33695238  1
  O  O53  1  0.30133520  0.92456399  0.33821390  1
  O  O54  1  0.44077260  0.13962940  0.82303720  1
  O  O55  1  0.43764947  0.64086801  0.82276394  1
  O  O56  1  0.40793134  0.39795736  0.47035039  1
  O  O57  1  0.40757094  0.89809928  0.47035305  1
  O  O58  1  0.30375302  0.68775889  0.11987614  1
  O  O59  1  0.30321586  0.16043777  0.12003619  1
  O  O60  1  0.54261873  0.61422135  0.96295419  1
  O  O61  1  0.54557806  0.11372914  0.96123783  1
  O  O62  1  0.36661392  0.15014285  0.25151323  1
  O  O63  1  0.36620280  0.66660587  0.25137256  1
  O  O64  1  0.51032280  0.37225888  0.60870104  1
  O  O65  1  0.51016359  0.87270898  0.60864990  1
  O  O66  1  0.48983641  0.62729102  0.39135010  1
  O  O67  1  0.48967720  0.12774112  0.39129896  1
  O  O68  1  0.63379720  0.83339413  0.74862744  1
  O  O69  1  0.63338608  0.34985715  0.74848677  1
  O  O70  1  0.45442194  0.38627086  0.03876217  1
  O  O71  1  0.45738127  0.88577865  0.03704581  1
  O  O72  1  0.69624698  0.81224111  0.88012386  1
  O  O73  1  0.69678414  0.33956223  0.87996381  1
  O  O74  1  0.59206866  0.10204264  0.52964961  1
  O  O75  1  0.59242906  0.60190072  0.52964695  1
  O  O76  1  0.56235053  0.85913199  0.17723606  1
  O  O77  1  0.55922740  0.36037060  0.17696280  1
  O  O78  1  0.69803025  0.07546733  0.66304762  1
  O  O79  1  0.69866480  0.57543601  0.66178610  1
  O  O80  1  0.68789892  0.32838016  0.31970948  1
  O  O81  1  0.68800460  0.82762888  0.31977129  1
  O  O82  1  0.75083690  0.31240891  0.44831521  1
  O  O83  1  0.75021028  0.81241656  0.44823758  1
  O  O84  1  0.64448481  0.58863874  0.09812995  1
  O  O85  1  0.64063845  0.09000615  0.09735193  1
  O  O86  1  0.85223707  0.78775082  0.58713230  1
  O  O87  1  0.85218878  0.28609620  0.58722584  1
  O  O88  1  0.74650282  0.56297059  0.23201260  1
  O  O89  1  0.74366548  0.06443274  0.23285734  1
  O  O90  1  0.97520605  0.26437090  0.71444365  1
  O  O91  1  0.97557516  0.74820205  0.71444690  1
  O  O92  1  0.80491938  0.29840456  0.01788061  1
  O  O93  1  0.80503173  0.79901136  0.01788430  1
  O  O94  1  0.90066560  0.78823285  0.15714081  1
  O  O95  1  0.90038569  0.26155748  0.15706060  1
