# generated using pymatgen
data_Li2Ti(TeO4)3
_symmetry_space_group_name_H-M   'P 1'
_cell_length_a   7.29606698
_cell_length_b   7.07970640
_cell_length_c   8.52090716
_cell_angle_alpha   90.00000000
_cell_angle_beta   90.00000000
_cell_angle_gamma   87.35303604
_symmetry_Int_Tables_number   1
_chemical_formula_structural   Li2Ti(TeO4)3
_chemical_formula_sum   'Li4 Ti2 Te6 O24'
_cell_volume   439.66943538
_cell_formula_units_Z   2
loop_
 _symmetry_equiv_pos_site_id
 _symmetry_equiv_pos_as_xyz
  1  'x, y, z'
loop_
 _atom_site_type_symbol
 _atom_site_label
 _atom_site_symmetry_multiplicity
 _atom_site_fract_x
 _atom_site_fract_y
 _atom_site_fract_z
 _atom_site_occupancy
  Li  Li0  1  0.00674008  0.48447447  0.17673724  1
  Li  Li1  1  0.49325992  0.01552553  0.17673724  1
  Li  Li2  1  0.25000000  0.75000000  0.85045088  1
  Li  Li3  1  0.75000000  0.75000000  0.29859152  1
  Ti  Ti4  1  0.99674561  0.00949987  0.09920335  1
  Ti  Ti5  1  0.50325439  0.49050013  0.09920335  1
  Te  Te6  1  0.00016820  0.50115939  0.60380495  1
  Te  Te7  1  0.25000000  0.25000000  0.91813469  1
  Te  Te8  1  0.49983180  0.99884061  0.60380495  1
  Te  Te9  1  0.25000000  0.75000000  0.40912392  1
  Te  Te10  1  0.75000000  0.25000000  0.41204711  1
  Te  Te11  1  0.75000000  0.75000000  0.91662610  1
  O  O12  1  0.30455281  0.04761435  0.75601949  1
  O  O13  1  0.26276868  0.04436649  0.07170332  1
  O  O14  1  0.31200918  0.01743475  0.43032676  1
  O  O15  1  0.18799082  0.48256525  0.43032676  1
  O  O16  1  0.23723132  0.45563351  0.07170332  1
  O  O17  1  0.19544719  0.45238565  0.75601949  1
  O  O18  1  0.00318116  0.80630028  0.93290031  1
  O  O19  1  0.06018180  0.76645073  0.58507208  1
  O  O20  1  0.50435751  0.29699132  0.93547165  1
  O  O21  1  0.05898419  0.80340969  0.25865472  1
  O  O22  1  0.55794238  0.26341205  0.58011721  1
  O  O23  1  0.56702511  0.29920057  0.25615604  1
  O  O24  1  0.44101581  0.69659031  0.25865472  1
  O  O25  1  0.43981820  0.73354927  0.58507208  1
  O  O26  1  0.93297489  0.20079943  0.25615604  1
  O  O27  1  0.49681884  0.69369972  0.93290031  1
  O  O28  1  0.94205762  0.23658795  0.58011721  1
  O  O29  1  0.99564249  0.20300868  0.93547165  1
  O  O30  1  0.80512357  0.55438061  0.75413794  1
  O  O31  1  0.76483962  0.55955277  0.08505795  1
  O  O32  1  0.80715268  0.52125605  0.43144387  1
  O  O33  1  0.69284732  0.97874395  0.43144387  1
  O  O34  1  0.73516038  0.94044723  0.08505795  1
  O  O35  1  0.69487643  0.94561939  0.75413794  1
