# generated using pymatgen
data_LiVPO4
_symmetry_space_group_name_H-M   'P 1'
_cell_length_a   18.91249286
_cell_length_b   5.55952788
_cell_length_c   8.47666747
_cell_angle_alpha   90.00000000
_cell_angle_beta   90.00000000
_cell_angle_gamma   90.00000000
_symmetry_Int_Tables_number   1
_chemical_formula_structural   LiVPO4
_chemical_formula_sum   'Li12 V12 P12 O48'
_cell_volume   891.27522842
_cell_formula_units_Z   12
loop_
 _symmetry_equiv_pos_site_id
 _symmetry_equiv_pos_as_xyz
  1  'x, y, z'
loop_
 _atom_site_type_symbol
 _atom_site_label
 _atom_site_symmetry_multiplicity
 _atom_site_fract_x
 _atom_site_fract_y
 _atom_site_fract_z
 _atom_site_occupancy
  Li  Li0  1  0.08297380  0.25197432  0.08101996  1
  Li  Li1  1  0.08368944  0.72093887  0.58152926  1
  Li  Li2  1  0.24953710  0.23137682  0.41635887  1
  Li  Li3  1  0.25046290  0.73137682  0.91635887  1
  Li  Li4  1  0.41631056  0.22093887  0.08152926  1
  Li  Li5  1  0.41702620  0.75197432  0.58101996  1
  Li  Li6  1  0.58297380  0.25197432  0.41898004  1
  Li  Li7  1  0.58368944  0.72093887  0.91847074  1
  Li  Li8  1  0.74953710  0.23137682  0.08364113  1
  Li  Li9  1  0.75046290  0.73137682  0.58364113  1
  Li  Li10  1  0.91631056  0.22093887  0.41847074  1
  Li  Li11  1  0.91702620  0.75197432  0.91898004  1
  V  V12  1  0.00036698  0.23590401  0.75028796  1
  V  V13  1  0.16628446  0.73684076  0.24938955  1
  V  V14  1  0.16702723  0.23556846  0.74859029  1
  V  V15  1  0.33297277  0.73556846  0.24859029  1
  V  V16  1  0.33371554  0.23684076  0.74938955  1
  V  V17  1  0.49963302  0.73590401  0.25028796  1
  V  V18  1  0.50036698  0.23590401  0.74971204  1
  V  V19  1  0.66628446  0.73684076  0.25061045  1
  V  V20  1  0.66702723  0.23556846  0.75140971  1
  V  V21  1  0.83297277  0.73556846  0.25140971  1
  V  V22  1  0.83371554  0.23684076  0.75061045  1
  V  V23  1  0.99963302  0.73590401  0.24971204  1
  P  P24  1  0.08282457  0.23420565  0.39608791  1
  P  P25  1  0.08385150  0.73732966  0.89630417  1
  P  P26  1  0.24954965  0.23690197  0.10199015  1
  P  P27  1  0.25045035  0.73690197  0.60199015  1
  P  P28  1  0.41614850  0.23732966  0.39630417  1
  P  P29  1  0.41717543  0.73420565  0.89608791  1
  P  P30  1  0.58282457  0.23420565  0.10391209  1
  P  P31  1  0.58385150  0.73732966  0.60369583  1
  P  P32  1  0.74954965  0.23690197  0.39800985  1
  P  P33  1  0.75045035  0.73690197  0.89800985  1
  P  P34  1  0.91614850  0.23732966  0.10369583  1
  P  P35  1  0.91717543  0.73420565  0.60391209  1
  O  O36  1  0.01565992  0.23249300  0.49768395  1
  O  O37  1  0.01647260  0.73596153  0.99747198  1
  O  O38  1  0.08367943  0.96003927  0.78074641  1
  O  O39  1  0.08386740  0.51037221  0.78301201  1
  O  O40  1  0.08267864  0.46150079  0.28330223  1
  O  O41  1  0.08286784  0.01196850  0.28006519  1
  O  O42  1  0.15035544  0.23524879  0.49659735  1
  O  O43  1  0.15119502  0.73745429  0.99709723  1
  O  O44  1  0.18234342  0.23905331  0.00077408  1
  O  O45  1  0.18289459  0.73524205  0.50144432  1
  O  O46  1  0.25032783  0.96152468  0.71648934  1
  O  O47  1  0.25064310  0.51194506  0.71654574  1
  O  O48  1  0.24935690  0.01194506  0.21654574  1
  O  O49  1  0.24967217  0.46152468  0.21648934  1
  O  O50  1  0.31710541  0.23524205  0.00144432  1
  O  O51  1  0.31765658  0.73905331  0.50077408  1
  O  O52  1  0.34880498  0.23745429  0.49709723  1
  O  O53  1  0.34964456  0.73524879  0.99659735  1
  O  O54  1  0.41713216  0.51196850  0.78006519  1
  O  O55  1  0.41732136  0.96150079  0.78330223  1
  O  O56  1  0.41613260  0.01037221  0.28301201  1
  O  O57  1  0.41632057  0.46003927  0.28074641  1
  O  O58  1  0.48352740  0.23596153  0.49747198  1
  O  O59  1  0.48434008  0.73249300  0.99768395  1
  O  O60  1  0.51565992  0.23249300  0.00231605  1
  O  O61  1  0.51647260  0.73596153  0.50252802  1
  O  O62  1  0.58367943  0.96003927  0.71925359  1
  O  O63  1  0.58386740  0.51037221  0.71698799  1
  O  O64  1  0.58267864  0.46150079  0.21669777  1
  O  O65  1  0.58286784  0.01196850  0.21993481  1
  O  O66  1  0.65035544  0.23524879  0.00340365  1
  O  O67  1  0.65119502  0.73745429  0.50290277  1
  O  O68  1  0.68234342  0.23905331  0.49922592  1
  O  O69  1  0.68289459  0.73524205  0.99855568  1
  O  O70  1  0.75032783  0.96152468  0.78351066  1
  O  O71  1  0.75064310  0.51194506  0.78345426  1
  O  O72  1  0.74935690  0.01194506  0.28345426  1
  O  O73  1  0.74967217  0.46152468  0.28351066  1
  O  O74  1  0.81710541  0.23524205  0.49855568  1
  O  O75  1  0.81765658  0.73905331  0.99922592  1
  O  O76  1  0.84880498  0.23745429  0.00290277  1
  O  O77  1  0.84964456  0.73524879  0.50340265  1
  O  O78  1  0.91713216  0.51196850  0.71993481  1
  O  O79  1  0.91732136  0.96150079  0.71669777  1
  O  O80  1  0.91613260  0.01037221  0.21698799  1
  O  O81  1  0.91632057  0.46003927  0.21925359  1
  O  O82  1  0.98352740  0.23596153  0.00252802  1
  O  O83  1  0.98434008  0.73249300  0.50231605  1
