# generated using pymatgen
data_LiVF5
_symmetry_space_group_name_H-M   'P 1'
_cell_length_a   5.20107109
_cell_length_b   9.80168956
_cell_length_c   7.63901954
_cell_angle_alpha   90.00000000
_cell_angle_beta   70.10794325
_cell_angle_gamma   90.00000000
_symmetry_Int_Tables_number   1
_chemical_formula_structural   LiVF5
_chemical_formula_sum   'Li4 V4 F20'
_cell_volume   366.19642184
_cell_formula_units_Z   4
loop_
 _symmetry_equiv_pos_site_id
 _symmetry_equiv_pos_as_xyz
  1  'x, y, z'
loop_
 _atom_site_type_symbol
 _atom_site_label
 _atom_site_symmetry_multiplicity
 _atom_site_fract_x
 _atom_site_fract_y
 _atom_site_fract_z
 _atom_site_occupancy
  Li  Li0  1  0.25289926  0.01842135  0.22591254  1
  Li  Li1  1  0.24710074  0.51842135  0.27408746  1
  Li  Li2  1  0.75289926  0.48157865  0.72591254  1
  Li  Li3  1  0.74710074  0.98157865  0.77408746  1
  V  V4  1  0.31870277  0.75403941  0.60849870  1
  V  V5  1  0.18129723  0.25403941  0.89150130  1
  V  V6  1  0.81870277  0.74596059  0.10849870  1
  V  V7  1  0.68129723  0.24596059  0.39150130  1
  F  F8  1  0.05295416  0.86452445  0.15780353  1
  F  F9  1  0.06357667  0.87367645  0.58246115  1
  F  F10  1  0.16291970  0.61261138  0.51249660  1
  F  F11  1  0.02774015  0.39970338  0.80429441  1
  F  F12  1  0.06101663  0.71096970  0.85837708  1
  F  F13  1  0.56357667  0.62632355  0.08246115  1
  F  F14  1  0.44704584  0.36452445  0.34219647  1
  F  F15  1  0.66291970  0.88738862  0.01249660  1
  F  F16  1  0.52774015  0.10029662  0.30429441  1
  F  F17  1  0.56101663  0.78903030  0.35837708  1
  F  F18  1  0.43898337  0.21096970  0.64162292  1
  F  F19  1  0.47225985  0.89970338  0.69570559  1
  F  F20  1  0.33708030  0.11261138  0.98750340  1
  F  F21  1  0.55295416  0.63547555  0.65780353  1
  F  F22  1  0.43642333  0.37367645  0.91753885  1
  F  F23  1  0.93898337  0.28903030  0.14162292  1
  F  F24  1  0.97225985  0.60029662  0.19570559  1
  F  F25  1  0.83708030  0.38738862  0.48750340  1
  F  F26  1  0.93642333  0.12632355  0.41753885  1
  F  F27  1  0.94704584  0.13547555  0.84219647  1
