# generated using pymatgen
data_Li2NiP2O7
_symmetry_space_group_name_H-M   'P 1'
_cell_length_a   9.74362153
_cell_length_b   9.73938286
_cell_length_c   11.09621992
_cell_angle_alpha   90.10278900
_cell_angle_beta   102.30782913
_cell_angle_gamma   89.79353819
_symmetry_Int_Tables_number   1
_chemical_formula_structural   Li2NiP2O7
_chemical_formula_sum   'Li16 Ni8 P16 O56'
_cell_volume   1028.78759737
_cell_formula_units_Z   8
loop_
 _symmetry_equiv_pos_site_id
 _symmetry_equiv_pos_as_xyz
  1  'x, y, z'
loop_
 _atom_site_type_symbol
 _atom_site_label
 _atom_site_symmetry_multiplicity
 _atom_site_fract_x
 _atom_site_fract_y
 _atom_site_fract_z
 _atom_site_occupancy
  Li  Li0  1  0.11309562  0.72071850  0.44810377  1
  Li  Li1  1  0.16907850  0.42365406  0.54288426  1
  Li  Li2  1  0.08705318  0.10682532  0.02792418  1
  Li  Li3  1  0.34329181  0.91202429  0.95611395  1
  Li  Li4  1  0.15529493  0.41157619  0.04454270  1
  Li  Li5  1  0.41414531  0.60835694  0.97156310  1
  Li  Li6  1  0.33076892  0.92263382  0.45710006  1
  Li  Li7  1  0.38678147  0.22157074  0.55049537  1
  Li  Li8  1  0.61321853  0.77842926  0.44950463  1
  Li  Li9  1  0.66923108  0.07736618  0.54290094  1
  Li  Li10  1  0.58585469  0.39164306  0.02843690  1
  Li  Li11  1  0.84470507  0.58842381  0.95545730  1
  Li  Li12  1  0.65670819  0.08797571  0.04388605  1
  Li  Li13  1  0.91294682  0.89317468  0.97207582  1
  Li  Li14  1  0.83092150  0.57634594  0.45711574  1
  Li  Li15  1  0.88690438  0.27928150  0.55189623  1
  Ni  Ni16  1  0.19974449  0.92751773  0.67357099  1
  Ni  Ni17  1  0.25384652  0.21026248  0.82214943  1
  Ni  Ni18  1  0.24623991  0.71108472  0.17697282  1
  Ni  Ni19  1  0.29969886  0.42854792  0.32617959  1
  Ni  Ni20  1  0.70030114  0.57145208  0.67382041  1
  Ni  Ni21  1  0.75376009  0.28891528  0.82302718  1
  Ni  Ni22  1  0.74615348  0.78973752  0.17785057  1
  Ni  Ni23  1  0.80025551  0.07248227  0.32642901  1
  P  P24  1  0.02574329  0.45093465  0.76004212  1
  P  P25  1  0.11979030  0.70599750  0.89135629  1
  P  P26  1  0.05878255  0.92915502  0.24217296  1
  P  P27  1  0.12150136  0.15084393  0.42603089  1
  P  P28  1  0.37852862  0.65034783  0.57391783  1
  P  P29  1  0.44186471  0.42927450  0.75766298  1
  P  P30  1  0.52539327  0.04920863  0.75961243  1
  P  P31  1  0.38030142  0.20570812  0.10866935  1
  P  P32  1  0.61969858  0.79429188  0.89133065  1
  P  P33  1  0.47460673  0.95079137  0.24038757  1
  P  P34  1  0.55813529  0.57072550  0.24233702  1
  P  P35  1  0.62147138  0.34965217  0.42608217  1
  P  P36  1  0.87849864  0.84915607  0.57396911  1
  P  P37  1  0.94121745  0.07084498  0.75782704  1
  P  P38  1  0.88020970  0.29400250  0.10864371  1
  P  P39  1  0.97425671  0.54906535  0.23995788  1
  O  O40  1  0.02184300  0.41359515  0.62678893  1
  O  O41  1  0.02868104  0.84004441  0.55549196  1
  O  O42  1  0.08949334  0.08846905  0.73098818  1
  O  O43  1  0.11931410  0.35891561  0.85592500  1
  O  O44  1  0.09662634  0.60093761  0.77491576  1
  O  O45  1  0.18341900  0.83209543  0.84312403  1
  O  O46  1  0.22531817  0.63551974  0.99958457  1
  O  O47  1  0.02093925  0.27572063  0.07533757  1
  O  O48  1  0.11378441  0.07869518  0.29350213  1
  O  O49  1  0.06446800  0.93178492  0.10768342  1
  O  O50  1  0.12424941  0.53665330  0.21156764  1
  O  O51  1  0.18859088  0.29122849  0.41649660  1
  O  O52  1  0.16554035  0.82323296  0.31207469  1
  O  O53  1  0.22261115  0.06324041  0.52101699  1
  O  O54  1  0.27675297  0.56337218  0.47903848  1
  O  O55  1  0.33506080  0.32400933  0.68765738  1
  O  O56  1  0.31194888  0.79139515  0.58341799  1
  O  O57  1  0.37525517  0.03752062  0.78760171  1
  O  O58  1  0.38647178  0.57904934  0.70646492  1
  O  O59  1  0.43673186  0.43275074  0.89215675  1
  O  O60  1  0.47894374  0.77687328  0.92445776  1
  O  O61  1  0.27529813  0.13512776  0.00028906  1
  O  O62  1  0.31636737  0.33238345  0.15674696  1
  O  O63  1  0.40357631  0.10118151  0.22527604  1
  O  O64  1  0.40988718  0.58906267  0.26954046  1
  O  O65  1  0.38124514  0.85905628  0.14430232  1
  O  O66  1  0.52168217  0.08611223  0.62642633  1
  O  O67  1  0.47141995  0.34210307  0.44489936  1
  O  O68  1  0.52858005  0.65789693  0.55510064  1
  O  O69  1  0.47831783  0.91388777  0.37357367  1
  O  O70  1  0.61875486  0.14094372  0.85569768  1
  O  O71  1  0.59011282  0.41093733  0.73045954  1
  O  O72  1  0.59642369  0.89881849  0.77472396  1
  O  O73  1  0.68363263  0.66761655  0.84325304  1
  O  O74  1  0.72470187  0.86487224  0.99971094  1
  O  O75  1  0.52105626  0.22312672  0.07554224  1
  O  O76  1  0.56326814  0.56724926  0.10784325  1
  O  O77  1  0.61352822  0.42095066  0.29353508  1
  O  O78  1  0.62474483  0.96247938  0.21239829  1
  O  O79  1  0.68805112  0.20860485  0.41658201  1
  O  O80  1  0.66493920  0.67599067  0.31234262  1
  O  O81  1  0.72324703  0.43662782  0.52096152  1
  O  O82  1  0.77738885  0.93675959  0.47898301  1
  O  O83  1  0.83445965  0.17676704  0.68792531  1
  O  O84  1  0.81140912  0.70877151  0.58350340  1
  O  O85  1  0.87575059  0.46334670  0.78843236  1
  O  O86  1  0.93553200  0.06821508  0.89231658  1
  O  O87  1  0.88621559  0.92130482  0.70649787  1
  O  O88  1  0.97906075  0.72427937  0.92466243  1
  O  O89  1  0.77468183  0.36448026  0.00041543  1
  O  O90  1  0.81658100  0.16790457  0.15687597  1
  O  O91  1  0.90337366  0.39906239  0.22508424  1
  O  O92  1  0.88068590  0.64108439  0.14407500  1
  O  O93  1  0.91050666  0.91153095  0.26901182  1
  O  O94  1  0.97131896  0.15995559  0.44450804  1
  O  O95  1  0.97815700  0.58640485  0.37321107  1
