# generated using pymatgen
data_LiTi2(PO4)3
_symmetry_space_group_name_H-M   'P 1'
_cell_length_a   8.66075409
_cell_length_b   8.66249545
_cell_length_c   8.71815999
_cell_angle_alpha   59.78720312
_cell_angle_beta   59.78049639
_cell_angle_gamma   59.94734107
_symmetry_Int_Tables_number   1
_chemical_formula_structural   LiTi2(PO4)3
_chemical_formula_sum   'Li2 Ti4 P6 O24'
_cell_volume   460.79729855
_cell_formula_units_Z   2
loop_
 _symmetry_equiv_pos_site_id
 _symmetry_equiv_pos_as_xyz
  1  'x, y, z'
loop_
 _atom_site_type_symbol
 _atom_site_label
 _atom_site_symmetry_multiplicity
 _atom_site_fract_x
 _atom_site_fract_y
 _atom_site_fract_z
 _atom_site_occupancy
  Li  Li0  1  0.44714025  0.56068440  0.68393773  1
  Li  Li1  1  0.05285975  0.93931560  0.19176238  1
  Ti  Ti2  1  0.86557824  0.41049351  0.86465836  1
  Ti  Ti3  1  0.36164158  0.91685740  0.36157022  1
  Ti  Ti4  1  0.63442176  0.08950649  0.64073111  1
  Ti  Ti5  1  0.13835842  0.58314260  0.14006920  1
  P  P6  1  0.75000000  0.75000000  0.47160838  1
  P  P7  1  0.96145066  0.24783859  0.25742488  1
  P  P8  1  0.53854934  0.25216141  0.96671312  1
  P  P9  1  0.46808329  0.75074773  0.03751845  1
  P  P10  1  0.03191671  0.74925227  0.75634846  1
  P  P11  1  0.25000000  0.25000000  0.53415717  1
  O  O12  1  0.87115649  0.92795247  0.70129298  1
  O  O13  1  0.99911625  0.56826421  0.80450533  1
  O  O14  1  0.50088375  0.93173579  0.87188579  1
  O  O15  1  0.79582803  0.56995522  0.63655496  1
  O  O16  1  0.91989388  0.75244486  0.28372630  1
  O  O17  1  0.70417197  0.93004478  0.50233821  1
  O  O18  1  0.62884351  0.57204753  0.00040094  1
  O  O19  1  0.72548204  0.24640874  0.95158277  1
  O  O20  1  0.58010612  0.74755514  0.45606504  1
  O  O21  1  0.94211525  0.24193140  0.09273783  1
  O  O22  1  0.77451796  0.25359126  0.42347355  1
  O  O23  1  0.55788475  0.25806860  0.77678447  1
  O  O24  1  0.44599447  0.75718409  0.22207505  1
  O  O25  1  0.22741318  0.74454586  0.59448965  1
  O  O26  1  0.05400553  0.74281591  0.92525361  1
  O  O27  1  0.41864450  0.24385910  0.55715664  1
  O  O28  1  0.27258682  0.75545414  0.06644968  1
  O  O29  1  0.37935191  0.44417953  0.98276230  1
  O  O30  1  0.29438152  0.07313603  0.49753404  1
  O  O31  1  0.08135550  0.25614090  0.71966025  1
  O  O32  1  0.20561848  0.42686397  0.36505160  1
  O  O33  1  0.48721845  0.08154513  0.13347311  1
  O  O34  1  0.01278155  0.41845487  0.20223569  1
  O  O35  1  0.12064809  0.05582047  0.30629374  1
