# generated using pymatgen
data_LiVP2(HO4)2
_symmetry_space_group_name_H-M   'P 1'
_cell_length_a   5.39977309
_cell_length_b   7.96828020
_cell_length_c   6.89585438
_cell_angle_alpha   90.00000000
_cell_angle_beta   90.00000000
_cell_angle_gamma   90.00000000
_symmetry_Int_Tables_number   1
_chemical_formula_structural   LiVP2(HO4)2
_chemical_formula_sum   'Li2 V2 P4 H4 O16'
_cell_volume   296.70727129
_cell_formula_units_Z   2
loop_
 _symmetry_equiv_pos_site_id
 _symmetry_equiv_pos_as_xyz
  1  'x, y, z'
loop_
 _atom_site_type_symbol
 _atom_site_label
 _atom_site_symmetry_multiplicity
 _atom_site_fract_x
 _atom_site_fract_y
 _atom_site_fract_z
 _atom_site_occupancy
  Li  Li0  1  0.67396168  0.50000000  0.00000000  1
  Li  Li1  1  0.82603832  0.00000000  0.50000000  1
  V  V2  1  0.99346842  0.00000000  0.00000000  1
  V  V3  1  0.50653158  0.50000000  0.50000000  1
  P  P4  1  0.01087882  0.65390213  0.28335542  1
  P  P5  1  0.01087882  0.34609787  0.71664458  1
  P  P6  1  0.48912118  0.15390213  0.21664458  1
  P  P7  1  0.48912118  0.84609787  0.78335542  1
  H  H8  1  0.17471103  0.21539236  0.47472594  1
  H  H9  1  0.17471103  0.78460764  0.52527406  1
  H  H10  1  0.32528897  0.28460764  0.97472594  1
  H  H11  1  0.32528897  0.71539236  0.02527406  1
  O  O12  1  0.00719355  0.21651095  0.53959599  1
  O  O13  1  0.02471872  0.74732769  0.08794421  1
  O  O14  1  0.02471872  0.25267231  0.91205579  1
  O  O15  1  0.00719355  0.78348905  0.46040401  1
  O  O16  1  0.24274727  0.45592880  0.69740663  1
  O  O17  1  0.24274727  0.54407120  0.30259337  1
  O  O18  1  0.25725273  0.04407120  0.19740663  1
  O  O19  1  0.25725273  0.95592880  0.80259337  1
  O  O20  1  0.47528128  0.24732769  0.41205579  1
  O  O21  1  0.49280645  0.28348905  0.03959599  1
  O  O22  1  0.49280645  0.71651095  0.96040401  1
  O  O23  1  0.47528128  0.75267231  0.58794421  1
  O  O24  1  0.73143315  0.05049725  0.20881919  1
  O  O25  1  0.73143315  0.94950275  0.79118081  1
  O  O26  1  0.76856685  0.44950275  0.70881919  1
  O  O27  1  0.76856685  0.55049725  0.29118081  1
