# generated using pymatgen
data_NaU2Cl6
_symmetry_space_group_name_H-M   'P 1'
_cell_length_a   4.12327730
_cell_length_b   7.72834896
_cell_length_c   7.78296349
_cell_angle_alpha   120.22572640
_cell_angle_beta   89.86265601
_cell_angle_gamma   90.05842687
_symmetry_Int_Tables_number   1
_chemical_formula_structural   NaU2Cl6
_chemical_formula_sum   'Na1 U2 Cl6'
_cell_volume   214.29463612
_cell_formula_units_Z   1
loop_
 _symmetry_equiv_pos_site_id
 _symmetry_equiv_pos_as_xyz
  1  'x, y, z'
loop_
 _atom_site_type_symbol
 _atom_site_label
 _atom_site_symmetry_multiplicity
 _atom_site_fract_x
 _atom_site_fract_y
 _atom_site_fract_z
 _atom_site_occupancy
  Na  Na0  1  0.50000000  0.00000000  -0.00000000  1
  U  U1  1  0.75527005  0.66894203  0.33771424  1
  U  U2  1  0.24472995  0.33105797  0.66228576  1
  Cl  Cl3  1  0.74734286  0.08043749  0.69800904  1
  Cl  Cl4  1  0.75004661  0.30189356  0.38185764  1
  Cl  Cl5  1  0.75087644  0.61452164  0.91818381  1
  Cl  Cl6  1  0.25265714  0.91956251  0.30199096  1
  Cl  Cl7  1  0.24995339  0.69810644  0.61814236  1
  Cl  Cl8  1  0.24912356  0.38547836  0.08181619  1
