# generated using pymatgen
data_Li2Co3SbO8
_symmetry_space_group_name_H-M   'P 1'
_cell_length_a   5.78967570
_cell_length_b   5.78967564
_cell_length_c   5.88563124
_cell_angle_alpha   60.53785312
_cell_angle_beta   119.46214419
_cell_angle_gamma   120.00000190
_symmetry_Int_Tables_number   1
_chemical_formula_structural   Li2Co3SbO8
_chemical_formula_sum   'Li2 Co3 Sb1 O8'
_cell_volume   140.62733779
_cell_formula_units_Z   1
loop_
 _symmetry_equiv_pos_site_id
 _symmetry_equiv_pos_as_xyz
  1  'x, y, z'
loop_
 _atom_site_type_symbol
 _atom_site_label
 _atom_site_symmetry_multiplicity
 _atom_site_fract_x
 _atom_site_fract_y
 _atom_site_fract_z
 _atom_site_occupancy
  Li  Li0  1  0.87394205  0.12605795  0.62182716  1
  Li  Li1  1  0.12605795  0.87394205  0.37817284  1
  Co  Co2  1  0.50000000  0.50000000  0.00000000  1
  Co  Co3  1  0.50000000  0.00000000  0.00000000  1
  Co  Co4  1  0.00000000  0.50000000  0.00000000  1
  Sb  Sb5  1  0.50000000  0.50000000  0.50000000  1
  O  O6  1  0.74316748  0.71453545  0.77179951  1
  O  O7  1  0.74316748  0.25683252  0.77179951  1
  O  O8  1  0.26602160  0.73397840  0.79806480  1
  O  O9  1  0.28546455  0.25683252  0.77179951  1
  O  O10  1  0.71453545  0.74316748  0.22820049  1
  O  O11  1  0.73397840  0.26602160  0.20193520  1
  O  O12  1  0.25683252  0.74316748  0.22820049  1
  O  O13  1  0.25683252  0.28546455  0.22820049  1
