# generated using pymatgen
data_Li4Mn3Co(PO4)4
_symmetry_space_group_name_H-M   'P 1'
_cell_length_a   4.77475882
_cell_length_b   10.52859811
_cell_length_c   6.11879956
_cell_angle_alpha   90.00000000
_cell_angle_beta   90.00000000
_cell_angle_gamma   89.80057559
_symmetry_Int_Tables_number   1
_chemical_formula_structural   Li4Mn3Co(PO4)4
_chemical_formula_sum   'Li4 Mn3 Co1 P4 O16'
_cell_volume   307.59947069
_cell_formula_units_Z   1
loop_
 _symmetry_equiv_pos_site_id
 _symmetry_equiv_pos_as_xyz
  1  'x, y, z'
loop_
 _atom_site_type_symbol
 _atom_site_label
 _atom_site_symmetry_multiplicity
 _atom_site_fract_x
 _atom_site_fract_y
 _atom_site_fract_z
 _atom_site_occupancy
  Li  Li0  1  0.00071494  0.99915044  0.99954536  1
  Li  Li1  1  0.00071494  0.99915044  0.50045464  1
  Li  Li2  1  0.50019803  0.50069630  0.50103916  1
  Li  Li3  1  0.50019803  0.50069630  0.99896084  1
  Mn  Mn4  1  0.47863085  0.21938279  0.75000000  1
  Mn  Mn5  1  0.52232385  0.78028122  0.25000000  1
  Mn  Mn6  1  0.97720716  0.28223282  0.25000000  1
  Co  Co7  1  0.02500057  0.72135064  0.75000000  1
  P  P8  1  0.08067461  0.59398229  0.25000000  1
  P  P9  1  0.41451941  0.09273154  0.25000000  1
  P  P10  1  0.58804899  0.90410908  0.75000000  1
  P  P11  1  0.91535092  0.40928438  0.75000000  1
  O  O12  1  0.21054239  0.45804052  0.25000000  1
  O  O13  1  0.20928915  0.66446003  0.04618367  1
  O  O14  1  0.20928915  0.66446003  0.45381633  1
  O  O15  1  0.23745511  0.40408583  0.75000000  1
  O  O16  1  0.26569636  0.90087436  0.75000000  1
  O  O17  1  0.28161232  0.16266290  0.04819718  1
  O  O18  1  0.28161232  0.16266290  0.45180282  1
  O  O19  1  0.29141664  0.95628951  0.25000000  1
  O  O20  1  0.70815713  0.04144135  0.75000000  1
  O  O21  1  0.72403351  0.83400689  0.54945892  1
  O  O22  1  0.72403351  0.83400689  0.95054108  1
  O  O23  1  0.73652185  0.09548890  0.25000000  1
  O  O24  1  0.75917417  0.59516115  0.25000000  1
  O  O25  1  0.78211440  0.33855794  0.54883323  1
  O  O26  1  0.78211440  0.33855794  0.95116677  1
  O  O27  1  0.79335531  0.54619260  0.75000000  1
