# generated using pymatgen
data_La10Mn9O30
_symmetry_space_group_name_H-M   'P 1'
_cell_length_a   9.65979624
_cell_length_b   7.87187838
_cell_length_c   9.49674464
_cell_angle_alpha   113.26092808
_cell_angle_beta   98.66937143
_cell_angle_gamma   66.39171673
_symmetry_Int_Tables_number   1
_chemical_formula_structural   La10Mn9O30
_chemical_formula_sum   'La10 Mn9 O30'
_cell_volume   607.89059152
_cell_formula_units_Z   1
loop_
 _symmetry_equiv_pos_site_id
 _symmetry_equiv_pos_as_xyz
  1  'x, y, z'
loop_
 _atom_site_type_symbol
 _atom_site_label
 _atom_site_symmetry_multiplicity
 _atom_site_fract_x
 _atom_site_fract_y
 _atom_site_fract_z
 _atom_site_occupancy
  La  La0  1  0.90725776  0.43349341  0.28941240  1
  La  La1  1  0.71037584  0.85765738  0.90161314  1
  La  La2  1  0.90895887  0.95506689  0.27988639  1
  La  La3  1  0.71068486  0.33655739  0.90734811  1
  La  La4  1  0.49969993  0.24979065  0.50006768  1
  La  La5  1  0.50030007  0.75020935  0.49993232  1
  La  La6  1  0.09104113  0.04493311  0.72011361  1
  La  La7  1  0.28931514  0.66344261  0.09265189  1
  La  La8  1  0.28962416  0.14234262  0.09838686  1
  La  La9  1  0.09274224  0.56650659  0.71058760  1
  Mn  Mn10  1  0.80134273  0.39924136  0.59957183  1
  Mn  Mn11  1  0.79945999  0.89738518  0.59358570  1
  Mn  Mn12  1  0.60080843  0.79904049  0.19847289  1
  Mn  Mn13  1  0.39919157  0.20095951  0.80152711  1
  Mn  Mn14  1  0.59394266  0.30346555  0.19999128  1
  Mn  Mn15  1  0.40605734  0.69653445  0.80000872  1
  Mn  Mn16  1  0.19865727  0.60075864  0.40042817  1
  Mn  Mn17  1  0.20054001  0.10261482  0.40641430  1
  Mn  Mn18  1  0.00000000  0.50000000  0.00000000  1
  O  O19  1  0.96359733  0.27877281  0.99306856  1
  O  O20  1  0.91226698  0.90121451  0.77448457  1
  O  O21  1  0.87424217  0.50288903  0.81079251  1
  O  O22  1  0.98723646  0.70721366  0.47172941  1
  O  O23  1  0.83735035  0.13807048  0.61367937  1
  O  O24  1  0.76048023  0.66273641  0.58490792  1
  O  O25  1  0.81131199  0.69621774  0.12608065  1
  O  O26  1  0.61016638  0.09074937  0.72635091  1
  O  O27  1  0.72758081  0.29780361  0.38701599  1
  O  O28  1  0.53136804  0.68965971  0.98627581  1
  O  O29  1  0.58410343  0.51129725  0.66965755  1
  O  O30  1  0.66992103  0.90546766  0.41484852  1
  O  O31  1  0.77045562  0.13082665  0.08095390  1
  O  O32  1  0.64047147  0.53794684  0.21497443  1
  O  O33  1  0.44532406  0.93369246  0.81342800  1
  O  O34  1  0.35952753  0.46205316  0.78502557  1
  O  O35  1  0.55467594  0.06630754  0.18657200  1
  O  O36  1  0.41589657  0.48870275  0.33034245  1
  O  O37  1  0.33007897  0.09453234  0.58515148  1
  O  O38  1  0.22954438  0.86917335  0.91904610  1
  O  O39  1  0.46863196  0.31034029  0.01372419  1
  O  O40  1  0.27241919  0.70219639  0.61298401  1
  O  O41  1  0.38983362  0.90925063  0.27364909  1
  O  O42  1  0.18868801  0.30378226  0.87391935  1
  O  O43  1  0.23951977  0.33726359  0.41509208  1
  O  O44  1  0.16264965  0.86192952  0.38632063  1
  O  O45  1  0.01276354  0.29278634  0.52827059  1
  O  O46  1  0.12575783  0.49711097  0.18920749  1
  O  O47  1  0.08773302  0.09878549  0.22551543  1
  O  O48  1  0.03640267  0.72122719  0.00693144  1
