# generated using pymatgen
data_VF5
_symmetry_space_group_name_H-M   'P 1'
_cell_length_a   5.60722798
_cell_length_b   8.21617469
_cell_length_c   8.26567019
_cell_angle_alpha   90.00000000
_cell_angle_beta   90.00000000
_cell_angle_gamma   90.00000000
_symmetry_Int_Tables_number   1
_chemical_formula_structural   VF5
_chemical_formula_sum   'V4 F20'
_cell_volume   380.79913313
_cell_formula_units_Z   4
loop_
 _symmetry_equiv_pos_site_id
 _symmetry_equiv_pos_as_xyz
  1  'x, y, z'
loop_
 _atom_site_type_symbol
 _atom_site_label
 _atom_site_symmetry_multiplicity
 _atom_site_fract_x
 _atom_site_fract_y
 _atom_site_fract_z
 _atom_site_occupancy
  V  V0  1  0.23277952  0.41539165  0.25000000  1
  V  V1  1  0.26722048  0.91539165  0.75000000  1
  V  V2  1  0.73277952  0.08460835  0.25000000  1
  V  V3  1  0.76722048  0.58460835  0.75000000  1
  F  F4  1  0.99702542  0.01956662  0.75000000  1
  F  F5  1  0.06605727  0.59292387  0.25000000  1
  F  F6  1  0.07042061  0.70846344  0.75000000  1
  F  F7  1  0.22562870  0.37526711  0.03913233  1
  F  F8  1  0.22562870  0.37526711  0.46086767  1
  F  F9  1  0.27437130  0.87526711  0.96086767  1
  F  F10  1  0.27437130  0.87526711  0.53913233  1
  F  F11  1  0.42957939  0.20846344  0.25000000  1
  F  F12  1  0.43394273  0.09292387  0.75000000  1
  F  F13  1  0.50297458  0.51956662  0.25000000  1
  F  F14  1  0.49702542  0.48043338  0.75000000  1
  F  F15  1  0.56605727  0.90707613  0.25000000  1
  F  F16  1  0.57042061  0.79153656  0.75000000  1
  F  F17  1  0.72562870  0.12473289  0.46086767  1
  F  F18  1  0.72562870  0.12473289  0.03913233  1
  F  F19  1  0.77437130  0.62473289  0.96086767  1
  F  F20  1  0.77437130  0.62473289  0.53913233  1
  F  F21  1  0.92957939  0.29153656  0.25000000  1
  F  F22  1  0.93394273  0.40707613  0.75000000  1
  F  F23  1  0.00297458  0.98043338  0.25000000  1
