# generated using pymatgen
data_LiMnV(P2O7)2
_symmetry_space_group_name_H-M   'P 1'
_cell_length_a   13.66357908
_cell_length_b   8.15058778
_cell_length_c   9.97549218
_cell_angle_alpha   90.45208772
_cell_angle_beta   70.94793487
_cell_angle_gamma   88.29099165
_symmetry_Int_Tables_number   1
_chemical_formula_structural   LiMnV(P2O7)2
_chemical_formula_sum   'Li4 Mn4 V4 P16 O56'
_cell_volume   1049.42862100
_cell_formula_units_Z   4
loop_
 _symmetry_equiv_pos_site_id
 _symmetry_equiv_pos_as_xyz
  1  'x, y, z'
loop_
 _atom_site_type_symbol
 _atom_site_label
 _atom_site_symmetry_multiplicity
 _atom_site_fract_x
 _atom_site_fract_y
 _atom_site_fract_z
 _atom_site_occupancy
  Li  Li0  1  0.45697119  0.86343837  0.12858840  1
  Li  Li1  1  0.20681803  0.86344295  0.87810639  1
  Li  Li2  1  0.79183472  0.35788038  0.12052909  1
  Li  Li3  1  0.95638572  0.86286706  0.62770605  1
  Mn  Mn4  1  0.06174395  0.00750832  0.32925228  1
  Mn  Mn5  1  0.31358330  0.00662942  0.57851399  1
  Mn  Mn6  1  0.80825020  0.99285416  0.08725166  1
  Mn  Mn7  1  0.56297021  0.00627853  0.82783363  1
  V  V8  1  0.44115887  0.49474985  0.16151045  1
  V  V9  1  0.19334797  0.49505540  0.91026409  1
  V  V10  1  0.69034974  0.50457759  0.41744845  1
  V  V11  1  0.94160747  0.49430927  0.65964579  1
  P  P12  1  0.00959484  0.78057149  0.09990745  1
  P  P13  1  0.23890200  0.28734883  0.15393428  1
  P  P14  1  0.09094036  0.17614230  0.61170981  1
  P  P15  1  0.25857653  0.78209867  0.35013828  1
  P  P16  1  0.15842692  0.67882493  0.64313647  1
  P  P17  1  0.58985240  0.17760116  0.11261639  1
  P  P18  1  0.49041149  0.28860031  0.40443978  1
  P  P19  1  0.65796109  0.68177397  0.14160241  1
  P  P20  1  0.34089077  0.17634069  0.86160210  1
  P  P21  1  0.50946708  0.78234538  0.59912973  1
  P  P22  1  0.40901836  0.67936451  0.89294277  1
  P  P23  1  0.84073666  0.17516471  0.35923775  1
  P  P24  1  0.73911233  0.28702400  0.65305368  1
  P  P25  1  0.90812512  0.67820795  0.39347896  1
  P  P26  1  0.75903342  0.78124453  0.85018163  1
  P  P27  1  0.99105136  0.28935145  0.90173234  1
  O  O28  1  0.05657167  0.93324643  0.14125968  1
  O  O29  1  0.19601721  0.43975138  0.09686079  1
  O  O30  1  0.27528497  0.14984897  0.02664219  1
  O  O31  1  0.16555838  0.20209350  0.27586123  1
  O  O32  1  0.16358797  0.82625937  0.30728698  1
  O  O33  1  0.05341890  0.03803572  0.53763125  1
  O  O34  1  0.05791919  0.34725130  0.57501694  1
  O  O35  1  0.04367507  0.67129203  0.65024378  1
  O  O36  1  0.33844998  0.33619369  0.18377711  1
  O  O37  1  0.34072658  0.68715721  0.22916445  1
  O  O38  1  0.02490365  0.14940271  0.77791449  1
  O  O39  1  0.22643173  0.65277349  0.47785573  1
  O  O40  1  0.30682224  0.93342631  0.39167574  1
  O  O41  1  0.20549924  0.17265904  0.59458316  1
  O  O42  1  0.55571800  0.03845746  0.03623801  1
  O  O43  1  0.55781424  0.34843700  0.07402357  1
  O  O44  1  0.18287434  0.84429484  0.69305436  1
  O  O45  1  0.19022729  0.53482268  0.71931845  1
  O  O46  1  0.54305793  0.67030897  0.15038834  1
  O  O47  1  0.44622673  0.43946571  0.34687544  1
  O  O48  1  0.08975064  0.33418103  0.93368335  1
  O  O49  1  0.52576720  0.15054849  0.27700917  1
  O  O50  1  0.09205012  0.68597606  0.97936316  1
  O  O51  1  0.41709078  0.20311856  0.52621775  1
  O  O52  1  0.70559893  0.17743199  0.09520483  1
  O  O53  1  0.41416963  0.82684245  0.55635252  1
  O  O54  1  0.30369970  0.03836969  0.78676085  1
  O  O55  1  0.68042703  0.84785046  0.18695790  1
  O  O56  1  0.30835468  0.34766920  0.82402508  1
  O  O57  1  0.69440889  0.53650239  0.21339465  1
  O  O58  1  0.29395824  0.67188826  0.90013362  1
  O  O59  1  0.59024535  0.34113993  0.43196419  1
  O  O60  1  0.58636186  0.68030678  0.47955154  1
  O  O61  1  0.91192420  0.21233610  0.02569888  1
  O  O62  1  0.47606341  0.65337948  0.72848896  1
  O  O63  1  0.91542742  0.82078098  0.05432188  1
  O  O64  1  0.55531700  0.93301317  0.64423308  1
  O  O65  1  0.45562367  0.17315125  0.84424214  1
  O  O66  1  0.80900790  0.03771935  0.27963798  1
  O  O67  1  0.80572028  0.34503572  0.31881981  1
  O  O68  1  0.43280194  0.84468294  0.94401405  1
  O  O69  1  0.44032468  0.53523342  0.96968083  1
  O  O70  1  0.79422654  0.66236984  0.40062312  1
  O  O71  1  0.69421384  0.44092558  0.60175025  1
  O  O72  1  0.77541622  0.15211119  0.52438923  1
  O  O73  1  0.97614322  0.65231368  0.22802082  1
  O  O74  1  0.66717104  0.20033306  0.77574227  1
  O  O75  1  0.95519006  0.17512638  0.34558697  1
  O  O76  1  0.66415606  0.82611171  0.80761900  1
  O  O77  1  0.93205668  0.84381841  0.44293760  1
  O  O78  1  0.94212632  0.53481550  0.46846185  1
  O  O79  1  0.83866118  0.33722724  0.68389725  1
  O  O80  1  0.84183840  0.68923413  0.72822847  1
  O  O81  1  0.72662008  0.64887425  0.97537164  1
  O  O82  1  0.80591577  0.93177981  0.89676519  1
  O  O83  1  0.94563366  0.44154757  0.84829633  1
