# generated using pymatgen
data_NiP4O11
_symmetry_space_group_name_H-M   'P 1'
_cell_length_a   9.17225382
_cell_length_b   9.20584815
_cell_length_c   10.69975862
_cell_angle_alpha   71.03154539
_cell_angle_beta   108.18002722
_cell_angle_gamma   89.08233268
_symmetry_Int_Tables_number   1
_chemical_formula_structural   NiP4O11
_chemical_formula_sum   'Ni4 P16 O44'
_cell_volume   804.79513341
_cell_formula_units_Z   4
loop_
 _symmetry_equiv_pos_site_id
 _symmetry_equiv_pos_as_xyz
  1  'x, y, z'
loop_
 _atom_site_type_symbol
 _atom_site_label
 _atom_site_symmetry_multiplicity
 _atom_site_fract_x
 _atom_site_fract_y
 _atom_site_fract_z
 _atom_site_occupancy
  Ni  Ni0  1  0.24463619  0.78171754  0.98178342  1
  Ni  Ni1  1  0.73031676  0.72859056  0.50403702  1
  Ni  Ni2  1  0.26968324  0.27140944  0.49596298  1
  Ni  Ni3  1  0.75536381  0.21828246  0.01821658  1
  P  P4  1  0.05895114  0.59213254  0.77229630  1
  P  P5  1  0.23796454  0.91738635  0.44428630  1
  P  P6  1  0.06528657  0.25040946  0.92695424  1
  P  P7  1  0.59092093  0.77324448  0.91357149  1
  P  P8  1  0.26031072  0.57281468  0.60945556  1
  P  P9  1  0.40985243  0.90074337  0.24315992  1
  P  P10  1  0.08716947  0.10850383  0.71470063  1
  P  P11  1  0.59168640  0.55026404  0.75482406  1
  P  P12  1  0.40831360  0.44973596  0.24517594  1
  P  P13  1  0.91283053  0.89149617  0.28529937  1
  P  P14  1  0.59014757  0.09925663  0.75684008  1
  P  P15  1  0.73968928  0.42718532  0.39054444  1
  P  P16  1  0.40907907  0.22675552  0.08642851  1
  P  P17  1  0.93471343  0.74959054  0.07304576  1
  P  P18  1  0.76203546  0.08261365  0.55571370  1
  P  P19  1  0.94104886  0.40786746  0.22770370  1
  O  O20  1  0.00264060  0.82173096  0.96311628  1
  O  O21  1  0.20991550  0.97992098  0.81292360  1
  O  O22  1  0.06377566  0.97010369  0.34855767  1
  O  O23  1  0.18757456  0.64712261  0.86207722  1
  O  O24  1  0.02084677  0.43046426  0.86869441  1
  O  O25  1  0.46933347  0.76076746  0.97693403  1
  O  O26  1  0.23962921  0.75842618  0.56437859  1
  O  O27  1  0.56744401  0.91652358  0.77549279  1
  O  O28  1  0.12828141  0.52528949  0.67418992  1
  O  O29  1  0.32158961  0.86315991  0.35793631  1
  O  O30  1  0.01240362  0.19465570  0.79788392  1
  O  O31  1  0.24917336  0.22416144  0.97198133  1
  O  O32  1  0.29803333  0.90848310  0.10626540  1
  O  O33  1  0.41237063  0.51947135  0.74302260  1
  O  O34  1  0.62864936  0.63139538  0.87439056  1
  O  O35  1  0.69641162  0.96455083  0.49768464  1
  O  O36  1  0.25388614  0.51101861  0.49726815  1
  O  O37  1  0.11120143  0.23334120  0.59646314  1
  O  O38  1  0.58370923  0.66498271  0.61680618  1
  O  O39  1  0.55993071  0.79883122  0.31183482  1
  O  O40  1  0.09237973  0.31131934  0.31322478  1
  O  O41  1  0.30459852  0.59874080  0.17492555  1
  O  O42  1  0.69540148  0.40125920  0.82507445  1
  O  O43  1  0.90762027  0.68868066  0.68677522  1
  O  O44  1  0.44006929  0.20116878  0.68816518  1
  O  O45  1  0.41629077  0.33501729  0.38319382  1
  O  O46  1  0.88879857  0.76665880  0.40353686  1
  O  O47  1  0.74611386  0.48898139  0.50273185  1
  O  O48  1  0.30358838  0.03544917  0.50231536  1
  O  O49  1  0.37135064  0.36860462  0.12560944  1
  O  O50  1  0.58762937  0.48052865  0.25697740  1
  O  O51  1  0.70196667  0.09151690  0.89373460  1
  O  O52  1  0.75082664  0.77583856  0.02801867  1
  O  O53  1  0.98759638  0.80534430  0.20211608  1
  O  O54  1  0.67841039  0.13684009  0.64206369  1
  O  O55  1  0.87171859  0.47471051  0.32581008  1
  O  O56  1  0.43255599  0.08347642  0.22450721  1
  O  O57  1  0.76037079  0.24157382  0.43562141  1
  O  O58  1  0.53066653  0.23923254  0.02306597  1
  O  O59  1  0.97915323  0.56953574  0.13130559  1
  O  O60  1  0.81242544  0.35287739  0.13792278  1
  O  O61  1  0.93622434  0.02989631  0.65144233  1
  O  O62  1  0.79008450  0.02007902  0.18707640  1
  O  O63  1  0.99735940  0.17826904  0.03688372  1
