# generated using pymatgen
data_LiMnV(P2O7)2
_symmetry_space_group_name_H-M   'P 1'
_cell_length_a   13.98293147
_cell_length_b   8.16343354
_cell_length_c   7.03505267
_cell_angle_alpha   92.03464986
_cell_angle_beta   80.13272569
_cell_angle_gamma   90.10506114
_symmetry_Int_Tables_number   1
_chemical_formula_structural   LiMnV(P2O7)2
_chemical_formula_sum   'Li3 Mn3 V3 P12 O42'
_cell_volume   790.65706334
_cell_formula_units_Z   3
loop_
 _symmetry_equiv_pos_site_id
 _symmetry_equiv_pos_as_xyz
  1  'x, y, z'
loop_
 _atom_site_type_symbol
 _atom_site_label
 _atom_site_symmetry_multiplicity
 _atom_site_fract_x
 _atom_site_fract_y
 _atom_site_fract_z
 _atom_site_occupancy
  Li  Li0  1  0.38910782  0.86327248  0.28297912  1
  Li  Li1  1  0.72338571  0.86310555  0.94789332  1
  Li  Li2  1  0.94219373  0.35803128  0.38656319  1
  Mn  Mn3  1  0.26064828  0.00699187  0.00595901  1
  Mn  Mn4  1  0.59404445  0.00686118  0.67192492  1
  Mn  Mn5  1  0.93125563  0.99293334  0.34696293  1
  V  V6  1  0.07317345  0.50582493  0.65209874  1
  V  V7  1  0.40113730  0.49387842  0.31791215  1
  V  V8  1  0.73423030  0.49539943  0.98489560  1
  P  P9  1  0.13360204  0.17507056  0.38459051  1
  P  P10  1  0.07339507  0.78091680  0.01688282  1
  P  P11  1  0.26130017  0.28626823  0.65244931  1
  P  P12  1  0.20148790  0.67856779  0.28285526  1
  P  P13  1  0.40586145  0.78128024  0.68594831  1
  P  P14  1  0.53403192  0.67938615  0.95012176  1
  P  P15  1  0.46809540  0.17641837  0.05233084  1
  P  P16  1  0.59477712  0.28745415  0.31984034  1
  P  P17  1  0.80211270  0.17707648  0.72056807  1
  P  P18  1  0.73988384  0.78165586  0.35252461  1
  P  P19  1  0.92956569  0.29070275  0.97987151  1
  P  P20  1  0.86628315  0.68201192  0.61736412  1
  O  O21  1  0.01496445  0.33927526  0.82442476  1
  O  O22  1  0.04547970  0.67905777  0.84838671  1
  O  O23  1  0.13317389  0.93212935  0.95681837  1
  O  O24  1  0.05913925  0.03831277  0.41096829  1
  O  O25  1  0.08333084  0.34484840  0.42965341  1
  O  O26  1  0.13019901  0.66239496  0.47595843  1
  O  O27  1  0.19703039  0.44015396  0.71075693  1
  O  O28  1  0.19936456  0.15221090  0.54880605  1
  O  O29  1  0.13615573  0.65239470  0.11759714  1
  O  O30  1  0.29446276  0.20019038  0.81275482  1
  O  O31  1  0.20068174  0.17487071  0.18990781  1
  O  O32  1  0.31472158  0.82527470  0.83070158  1
  O  O33  1  0.24995497  0.84410179  0.26246073  1
  O  O34  1  0.27392359  0.53513100  0.25309838  1
  O  O35  1  0.34790574  0.33601121  0.49615775  1
  O  O36  1  0.38005936  0.68651166  0.50864238  1
  O  O37  1  0.46976467  0.65264520  0.78161636  1
  O  O38  1  0.46591022  0.93212656  0.61881514  1
  O  O39  1  0.53300881  0.17261723  0.85565220  1
  O  O40  1  0.39352282  0.03863097  0.08892936  1
  O  O41  1  0.42192951  0.34761888  0.09444459  1
  O  O42  1  0.58375494  0.84443185  0.92539902  1
  O  O43  1  0.60596998  0.53554305  0.92205716  1
  O  O44  1  0.46233184  0.67205460  0.14359655  1
  O  O45  1  0.52869656  0.43941278  0.37294166  1
  O  O46  1  0.53519157  0.15007543  0.21511908  1
  O  O47  1  0.62816493  0.20223945  0.48066584  1
  O  O48  1  0.64820841  0.82764791  0.49515766  1
  O  O49  1  0.72825399  0.03883929  0.75329254  1
  O  O50  1  0.75531175  0.34769237  0.76200344  1
  O  O51  1  0.79531968  0.66947563  0.81165995  1
  O  O52  1  0.68150285  0.33805583  0.16403372  1
  O  O53  1  0.71326870  0.68967095  0.17427505  1
  O  O54  1  0.86908663  0.15038735  0.88301405  1
  O  O55  1  0.80072330  0.64894399  0.44884003  1
  O  O56  1  0.80232227  0.93121707  0.28960427  1
  O  O57  1  0.86765788  0.17649862  0.52252925  1
  O  O58  1  0.91075271  0.84825133  0.59557759  1
  O  O59  1  0.93848817  0.53736227  0.58074531  1
  O  O60  1  0.86231970  0.44127880  0.03930554  1
  O  O61  1  0.95910243  0.21429077  0.15245051  1
  O  O62  1  0.98019201  0.82184352  0.15869114  1
