# generated using pymatgen
data_LiMnV(P2O7)2
_symmetry_space_group_name_H-M   'P 1'
_cell_length_a   18.39287067
_cell_length_b   8.15945752
_cell_length_c   7.03218969
_cell_angle_alpha   92.04150385
_cell_angle_beta   87.40314447
_cell_angle_gamma   89.73944948
_symmetry_Int_Tables_number   1
_chemical_formula_structural   LiMnV(P2O7)2
_chemical_formula_sum   'Li4 Mn4 V4 P16 O56'
_cell_volume   1053.58879436
_cell_formula_units_Z   4
loop_
 _symmetry_equiv_pos_site_id
 _symmetry_equiv_pos_as_xyz
  1  'x, y, z'
loop_
 _atom_site_type_symbol
 _atom_site_label
 _atom_site_symmetry_multiplicity
 _atom_site_fract_x
 _atom_site_fract_y
 _atom_site_fract_z
 _atom_site_occupancy
  Li  Li0  1  0.29195824  0.86338759  0.38034923  1
  Li  Li1  1  0.54208862  0.86317465  0.12991605  1
  Li  Li2  1  0.79263971  0.86331387  0.87897025  1
  Li  Li3  1  0.95670278  0.35800128  0.37214705  1
  Mn  Mn4  1  0.19559313  0.00690037  0.07106090  1
  Mn  Mn5  1  0.44557123  0.00662813  0.82081311  1
  Mn  Mn6  1  0.69560606  0.00709187  0.57014011  1
  Mn  Mn7  1  0.94847110  0.99307967  0.32968664  1
  V  V8  1  0.05501896  0.50601094  0.67022044  1
  V  V9  1  0.30107885  0.49383854  0.41834669  1
  V  V10  1  0.55081081  0.49395829  0.16826220  1
  V  V11  1  0.80079749  0.49556348  0.91846020  1
  P  P12  1  0.10017790  0.17480482  0.41813221  1
  P  P13  1  0.05505115  0.78106880  0.03513260  1
  P  P14  1  0.19609285  0.28606589  0.71763253  1
  P  P15  1  0.15114684  0.67863771  0.33323775  1
  P  P16  1  0.30456011  0.78154127  0.78739300  1
  P  P17  1  0.35108906  0.17636688  0.16950655  1
  P  P18  1  0.44625662  0.28723702  0.46855008  1
  P  P19  1  0.40062835  0.67912967  0.08370386  1
  P  P20  1  0.60112262  0.17639693  0.91940799  1
  P  P21  1  0.55453678  0.78148398  0.53708597  1
  P  P22  1  0.65055776  0.67930617  0.83374757  1
  P  P23  1  0.69620558  0.28753162  0.21839530  1
  P  P24  1  0.85157588  0.17701879  0.67111099  1
  P  P25  1  0.80489750  0.78178032  0.28743103  1
  P  P26  1  0.94727606  0.29072063  0.96215014  1
  P  P27  1  0.89968834  0.68196055  0.58396303  1
  O  O28  1  0.01124718  0.33923204  0.82833198  1
  O  O29  1  0.03399430  0.67929215  0.85955409  1
  O  O30  1  0.09984387  0.93213127  0.99013658  1
  O  O31  1  0.04432768  0.03820866  0.42607774  1
  O  O32  1  0.06243094  0.34479805  0.45063319  1
  O  O33  1  0.09762287  0.66260892  0.50847968  1
  O  O34  1  0.14775335  0.44009529  0.76001749  1
  O  O35  1  0.14954674  0.15189415  0.59882192  1
  O  O36  1  0.10206678  0.65232868  0.15159973  1
  O  O37  1  0.22077878  0.20014067  0.88665291  1
  O  O38  1  0.15032367  0.17466189  0.24014163  1
  O  O39  1  0.23613753  0.82554519  0.90909508  1
  O  O40  1  0.18739010  0.84417251  0.32487158  1
  O  O41  1  0.20550690  0.53520420  0.32157666  1
  O  O42  1  0.26092744  0.33564213  0.58311250  1
  O  O43  1  0.28513728  0.68704392  0.60343676  1
  O  O44  1  0.35243204  0.65249581  0.89890194  1
  O  O45  1  0.34951568  0.93238680  0.73566441  1
  O  O46  1  0.39955224  0.17277862  0.98899005  1
  O  O47  1  0.29515123  0.03866770  0.18737505  1
  O  O48  1  0.31633926  0.34777649  0.20001602  1
  O  O49  1  0.34684279  0.67183924  0.25913348  1
  O  O50  1  0.39660450  0.43952801  0.50532447  1
  O  O51  1  0.40127090  0.14993698  0.34933129  1
  O  O52  1  0.47085980  0.20223394  0.63835921  1
  O  O53  1  0.48590245  0.82586674  0.65797525  1
  O  O54  1  0.54523724  0.03870097  0.93737937  1
  O  O55  1  0.43770512  0.84421212  0.07188853  1
  O  O56  1  0.56630600  0.34769226  0.95005998  1
  O  O57  1  0.45466441  0.53528707  0.07359112  1
  O  O58  1  0.51110896  0.33651653  0.33372673  1
  O  O59  1  0.53498028  0.68701591  0.35334209  1
  O  O60  1  0.60214945  0.65260610  0.64924895  1
  O  O61  1  0.59944769  0.93229631  0.48537381  1
  O  O62  1  0.64966383  0.17270183  0.73883438  1
  O  O63  1  0.68777562  0.84431404  0.82130573  1
  O  O64  1  0.70451937  0.53537444  0.82343251  1
  O  O65  1  0.59679830  0.67193898  0.00920906  1
  O  O66  1  0.64649507  0.43947745  0.25536798  1
  O  O67  1  0.65145956  0.14997068  0.09903185  1
  O  O68  1  0.72107295  0.20229759  0.38808031  1
  O  O69  1  0.73608709  0.82768855  0.40693869  1
  O  O70  1  0.79623015  0.03886918  0.68545418  1
  O  O71  1  0.81648769  0.34785982  0.70074793  1
  O  O72  1  0.84646863  0.66960385  0.76040064  1
  O  O73  1  0.76116816  0.33767343  0.08439658  1
  O  O74  1  0.78491917  0.68988064  0.10236941  1
  O  O75  1  0.90186586  0.15039969  0.85030110  1
  O  O76  1  0.85049624  0.64887690  0.39891039  1
  O  O77  1  0.85160835  0.93133087  0.24025251  1
  O  O78  1  0.90061863  0.17646236  0.48930607  1
  O  O79  1  0.93292561  0.84822997  0.57333425  1
  O  O80  1  0.95386249  0.53723011  0.56530040  1
  O  O81  1  0.89671184  0.44134934  0.00513005  1
  O  O82  1  0.96934010  0.21411009  0.14238525  1
  O  O83  1  0.98511647  0.82204412  0.15358800  1
