# generated using pymatgen
data_LiMnV(P2O7)2
_symmetry_space_group_name_H-M   'P 1'
_cell_length_a   18.05912786
_cell_length_b   8.15984812
_cell_length_c   7.14837307
_cell_angle_alpha   91.21575368
_cell_angle_beta   90.36524410
_cell_angle_gamma   88.38771768
_symmetry_Int_Tables_number   1
_chemical_formula_structural   LiMnV(P2O7)2
_chemical_formula_sum   'Li4 Mn4 V4 P16 O56'
_cell_volume   1052.71074556
_cell_formula_units_Z   4
loop_
 _symmetry_equiv_pos_site_id
 _symmetry_equiv_pos_as_xyz
  1  'x, y, z'
loop_
 _atom_site_type_symbol
 _atom_site_label
 _atom_site_symmetry_multiplicity
 _atom_site_fract_x
 _atom_site_fract_y
 _atom_site_fract_z
 _atom_site_occupancy
  Li  Li0  1  0.12415792  0.86351855  0.79649655  1
  Li  Li1  1  0.37433002  0.86350135  0.04666850  1
  Li  Li2  1  0.62491496  0.86417611  0.29752729  1
  Li  Li3  1  0.87383652  0.35780064  0.20095293  1
  Mn  Mn4  1  0.12876693  0.00713855  0.39634069  1
  Mn  Mn5  1  0.37907619  0.00668776  0.64545372  1
  Mn  Mn6  1  0.62973159  0.00743002  0.89489406  1
  Mn  Mn7  1  0.87803439  0.99266739  0.15580008  1
  V  V8  1  0.12232900  0.49490951  0.83997314  1
  V  V9  1  0.37169818  0.49361820  0.09139476  1
  V  V10  1  0.62134400  0.49551784  0.34154834  1
  V  V11  1  0.87181211  0.50615509  0.59703482  1
  P  P12  1  0.03224926  0.78022365  0.12338099  1
  P  P13  1  0.02959558  0.67828642  0.51482867  1
  P  P14  1  0.21775446  0.28700421  0.13253545  1
  P  P15  1  0.22085503  0.17610211  0.74176304  1
  P  P16  1  0.28163177  0.78165412  0.37314025  1
  P  P17  1  0.27995313  0.67889947  0.76394289  1
  P  P18  1  0.46815678  0.28638304  0.38262332  1
  P  P19  1  0.52973938  0.67973111  0.01451449  1
  P  P20  1  0.47099248  0.17594770  0.99205685  1
  P  P21  1  0.53166827  0.78191404  0.62392192  1
  P  P22  1  0.72060460  0.17768276  0.24309833  1
  P  P23  1  0.71891293  0.28853922  0.63198494  1
  P  P24  1  0.77874696  0.68309951  0.26199105  1
  P  P25  1  0.78202497  0.78235751  0.87202008  1
  P  P26  1  0.97020936  0.17468634  0.48845221  1
  P  P27  1  0.96846706  0.28802377  0.87776938  1
  O  O28  1  0.03940493  0.65160229  0.29178856  1
  O  O29  1  0.07777844  0.93246236  0.16353689  1
  O  O30  1  0.05259194  0.17463181  0.44407776  1
  O  O31  1  0.05926962  0.84377392  0.57090549  1
  O  O32  1  0.07375732  0.53520774  0.60185834  1
  O  O33  1  0.17117327  0.43950804  0.07217376  1
  O  O34  1  0.05058509  0.33290468  0.89331585  1
  O  O35  1  0.06434613  0.68603166  0.95231859  1
  O  O36  1  0.19306470  0.20247271  0.30292532  1
  O  O37  1  0.19973393  0.82607077  0.34347814  1
  O  O38  1  0.17442219  0.03845111  0.65758323  1
  O  O39  1  0.18751869  0.34780013  0.70295553  1
  O  O40  1  0.19556273  0.67214498  0.80094371  1
  O  O41  1  0.29993045  0.33579082  0.14514341  1
  O  O42  1  0.31300779  0.68713285  0.20136412  1
  O  O43  1  0.21336896  0.14986855  0.96446520  1
  O  O44  1  0.28948711  0.65251828  0.54069881  1
  O  O45  1  0.32805281  0.93273356  0.41290158  1
  O  O46  1  0.30242065  0.17261517  0.69107586  1
  O  O47  1  0.31043432  0.84413319  0.81984207  1
  O  O48  1  0.32271758  0.53488798  0.85128264  1
  O  O49  1  0.44540343  0.67188843  0.05124869  1
  O  O50  1  0.42162469  0.43926313  0.32254706  1
  O  O51  1  0.46304039  0.14912497  0.21433590  1
  O  O52  1  0.44291123  0.20210934  0.55277971  1
  O  O53  1  0.44978661  0.82589607  0.59372952  1
  O  O54  1  0.42459974  0.03858307  0.90701411  1
  O  O55  1  0.56059365  0.84483181  0.06990820  1
  O  O56  1  0.43734753  0.34760707  0.95358887  1
  O  O57  1  0.57268463  0.53645486  0.10275441  1
  O  O58  1  0.55035110  0.33348660  0.39434689  1
  O  O59  1  0.56297894  0.68757474  0.45229576  1
  O  O60  1  0.53965597  0.65266411  0.79139587  1
  O  O61  1  0.57797883  0.93309538  0.66354550  1
  O  O62  1  0.55264290  0.17227963  0.94153507  1
  O  O63  1  0.67585472  0.03870694  0.15677133  1
  O  O64  1  0.68707452  0.34843257  0.20343338  1
  O  O65  1  0.69486240  0.67166490  0.30262531  1
  O  O66  1  0.67112186  0.43875393  0.57093641  1
  O  O67  1  0.71412879  0.15035345  0.46482576  1
  O  O68  1  0.78814939  0.65017410  0.03881688  1
  O  O69  1  0.69428097  0.20410118  0.80329918  1
  O  O70  1  0.80289584  0.17698565  0.19220392  1
  O  O71  1  0.70018999  0.82891942  0.84202769  1
  O  O72  1  0.80725898  0.84846462  0.31455586  1
  O  O73  1  0.82403299  0.53747799  0.34324212  1
  O  O74  1  0.80034780  0.34251335  0.64296674  1
  O  O75  1  0.80988372  0.68308061  0.70202885  1
  O  O76  1  0.94074039  0.21039822  0.05261393  1
  O  O77  1  0.95043413  0.81998819  0.09000732  1
  O  O78  1  0.82812897  0.93134908  0.92265057  1
  O  O79  1  0.92672051  0.03793274  0.39661086  1
  O  O80  1  0.93385269  0.34457630  0.44782949  1
  O  O81  1  0.94596749  0.66210466  0.55182886  1
  O  O82  1  0.92078716  0.44183060  0.82871161  1
  O  O83  1  0.96214855  0.15145468  0.71216974  1
