# generated using pymatgen
data_LiMnV(P2O7)2
_symmetry_space_group_name_H-M   'P 1'
_cell_length_a   4.84653538
_cell_length_b   8.14232719
_cell_length_c   7.02203161
_cell_angle_alpha   91.96179154
_cell_angle_beta   108.59495486
_cell_angle_gamma   88.87051545
_symmetry_Int_Tables_number   1
_chemical_formula_structural   LiMnV(P2O7)2
_chemical_formula_sum   'Li1 Mn1 V1 P4 O14'
_cell_volume   262.47289784
_cell_formula_units_Z   1
loop_
 _symmetry_equiv_pos_site_id
 _symmetry_equiv_pos_as_xyz
  1  'x, y, z'
loop_
 _atom_site_type_symbol
 _atom_site_label
 _atom_site_symmetry_multiplicity
 _atom_site_fract_x
 _atom_site_fract_y
 _atom_site_fract_z
 _atom_site_occupancy
  Li  Li0  1  0.16926594  0.86307327  0.67152240  1
  Mn  Mn1  1  0.78273073  0.00663216  0.26654657  1
  V  V2  1  0.20453286  0.49384040  0.71884159  1
  P  P3  1  0.40497178  0.17618894  0.52117930  1
  P  P4  1  0.21795148  0.78193619  0.09119196  1
  P  P5  1  0.78584944  0.28758478  0.91508787  1
  P  P6  1  0.60301924  0.67886604  0.48437673  1
  O  O7  1  0.04487749  0.33648396  0.84515308  1
  O  O8  1  0.13969470  0.68738935  0.88787336  1
  O  O9  1  0.18183974  0.03818789  0.48328345  1
  O  O10  1  0.26367852  0.34770803  0.51602513  1
  O  O11  1  0.38716126  0.67133950  0.60605206  1
  O  O12  1  0.58604064  0.44020200  0.90101458  1
  O  O13  1  0.60485048  0.15007529  0.75151410  1
  O  O14  1  0.40879844  0.65265073  0.25127345  1
  O  O15  1  0.39710348  0.93323487  0.08536681  1
  O  O16  1  0.59925637  0.17311824  0.38890976  1
  O  O17  1  0.75082431  0.84428595  0.50970360  1
  O  O18  1  0.81911087  0.53474370  0.52796272  1
  O  O19  1  0.88350528  0.20211172  0.10986365  1
  O  O20  1  0.94226695  0.82603699  0.14357683  1
