# generated using pymatgen
data_LiMnV(P2O7)2
_symmetry_space_group_name_H-M   'P 1'
_cell_length_a   9.73242302
_cell_length_b   8.17388040
_cell_length_c   9.98795080
_cell_angle_alpha   90.53301600
_cell_angle_beta   85.08929782
_cell_angle_gamma   88.10174710
_symmetry_Int_Tables_number   1
_chemical_formula_structural   LiMnV(P2O7)2
_chemical_formula_sum   'Li3 Mn3 V3 P12 O42'
_cell_volume   791.14830221
_cell_formula_units_Z   3
loop_
 _symmetry_equiv_pos_site_id
 _symmetry_equiv_pos_as_xyz
  1  'x, y, z'
loop_
 _atom_site_type_symbol
 _atom_site_label
 _atom_site_symmetry_multiplicity
 _atom_site_fract_x
 _atom_site_fract_y
 _atom_site_fract_z
 _atom_site_occupancy
  Li  Li0  1  0.72237339  0.35772562  0.05110894  1
  Li  Li1  1  0.27586074  0.86349508  0.94765648  1
  Li  Li2  1  0.94189026  0.86284987  0.61304563  1
  Mn  Mn3  1  0.08374829  0.00767155  0.35000323  1
  Mn  Mn4  1  0.74437633  0.99314082  0.02355138  1
  Mn  Mn5  1  0.41754225  0.00603436  0.68228494  1
  V  V6  1  0.58726467  0.50474657  0.31446767  1
  V  V7  1  0.25665202  0.49591888  0.97506225  1
  V  V8  1  0.92236819  0.49463548  0.64021172  1
  P  P9  1  0.01239102  0.78073497  0.10395220  1
  P  P10  1  0.32049410  0.28860613  0.23433728  1
  P  P11  1  0.54469708  0.68207709  0.02761345  1
  P  P12  1  0.12119767  0.17614964  0.64181848  1
  P  P13  1  0.34555260  0.78217509  0.43605225  1
  P  P14  1  0.21148197  0.67937309  0.69580267  1
  P  P15  1  0.78805974  0.17518902  0.30615494  1
  P  P16  1  0.65214858  0.28687895  0.56598272  1
  P  P17  1  0.87751848  0.67840895  0.36285660  1
  P  P18  1  0.45320716  0.17744244  0.97566101  1
  P  P19  1  0.67859158  0.78125155  0.77010978  1
  P  P20  1  0.98791662  0.28902052  0.89840757  1
  O  O21  1  0.12253420  0.68634406  0.01107506  1
  O  O22  1  0.07512047  0.93281050  0.16088972  1
  O  O23  1  0.26154396  0.43906097  0.16149970  1
  O  O24  1  0.36816737  0.15103039  0.11873574  1
  O  O25  1  0.22281949  0.20387410  0.33117162  1
  O  O26  1  0.21859295  0.82761384  0.36194176  1
  O  O27  1  0.07156761  0.03855896  0.55472754  1
  O  O28  1  0.57417000  0.84764853  0.08039771  1
  O  O29  1  0.07704207  0.34701894  0.59435137  1
  O  O30  1  0.59277700  0.53701543  0.11151349  1
  O  O31  1  0.05816061  0.67081136  0.66487404  1
  O  O32  1  0.45327927  0.34173926  0.29525117  1
  O  O33  1  0.44811139  0.68045487  0.34215807  1
  O  O34  1  0.03297591  0.14960857  0.78557987  1
  O  O35  1  0.30100450  0.65316961  0.55408257  1
  O  O36  1  0.88735226  0.82112354  0.02677646  1
  O  O37  1  0.40713592  0.93196313  0.49665560  1
  O  O38  1  0.27349021  0.17229041  0.66329368  1
  O  O39  1  0.74547181  0.03840293  0.21591165  1
  O  O40  1  0.74091083  0.34465619  0.25435250  1
  O  O41  1  0.24324554  0.84403551  0.75471178  1
  O  O42  1  0.25336764  0.53597096  0.78366341  1
  O  O43  1  0.72576716  0.66206260  0.33163344  1
  O  O44  1  0.59201678  0.44047114  0.49981607  1
  O  O45  1  0.11990921  0.33301323  0.96280404  1
  O  O46  1  0.70108550  0.15264178  0.44938375  1
  O  O47  1  0.96805709  0.65236106  0.22026850  1
  O  O48  1  0.55646791  0.20080757  0.66400792  1
  O  O49  1  0.94043853  0.17418779  0.33063482  1
  O  O50  1  0.55226105  0.82621629  0.69632877  1
  O  O51  1  0.40753213  0.03889706  0.88783297  1
  O  O52  1  0.90907573  0.84358202  0.41996364  1
  O  O53  1  0.41130539  0.34828074  0.92687226  1
  O  O54  1  0.92285322  0.53521167  0.44905364  1
  O  O55  1  0.39144897  0.67070360  0.99790299  1
  O  O56  1  0.78495674  0.33759135  0.63001595  1
  O  O57  1  0.78879346  0.68942615  0.67554975  1
  O  O58  1  0.63547456  0.64910669  0.88427540  1
  O  O59  1  0.74107061  0.93109080  0.83257296  1
  O  O60  1  0.60737013  0.17653925  0.99696457  1
  O  O61  1  0.92758436  0.44121608  0.82996637  1
  O  O62  1  0.88261870  0.21270540  0.99558451  1
