# generated using pymatgen
data_Li2Ni2(SO4)3
_symmetry_space_group_name_H-M   'P 1'
_cell_length_a   8.56775598
_cell_length_b   8.67255026
_cell_length_c   23.74973828
_cell_angle_alpha   90.00000000
_cell_angle_beta   90.00000000
_cell_angle_gamma   90.00000000
_symmetry_Int_Tables_number   1
_chemical_formula_structural   Li2Ni2(SO4)3
_chemical_formula_sum   'Li16 Ni16 S24 O96'
_cell_volume   1764.70754394
_cell_formula_units_Z   8
loop_
 _symmetry_equiv_pos_site_id
 _symmetry_equiv_pos_as_xyz
  1  'x, y, z'
loop_
 _atom_site_type_symbol
 _atom_site_label
 _atom_site_symmetry_multiplicity
 _atom_site_fract_x
 _atom_site_fract_y
 _atom_site_fract_z
 _atom_site_occupancy
  Li  Li0  1  0.03706300  0.62251022  0.29061758  1
  Li  Li1  1  0.03706300  0.87748978  0.79061758  1
  Li  Li2  1  0.14623649  0.93134791  0.00906046  1
  Li  Li3  1  0.14623649  0.56865209  0.50906046  1
  Li  Li4  1  0.35376351  0.06865209  0.50906046  1
  Li  Li5  1  0.35376351  0.43134791  0.00906046  1
  Li  Li6  1  0.46293700  0.12251022  0.29061758  1
  Li  Li7  1  0.46293700  0.37748978  0.79061758  1
  Li  Li8  1  0.53706300  0.62251022  0.20938242  1
  Li  Li9  1  0.53706300  0.87748978  0.70938242  1
  Li  Li10  1  0.64623649  0.56865209  0.99093954  1
  Li  Li11  1  0.64623649  0.93134791  0.49093954  1
  Li  Li12  1  0.85376351  0.43134791  0.49093954  1
  Li  Li13  1  0.85376351  0.06865209  0.99093954  1
  Li  Li14  1  0.96293700  0.12251022  0.20938242  1
  Li  Li15  1  0.96293700  0.37748978  0.70938242  1
  Ni  Ni16  1  0.00494570  0.39965975  0.06290549  1
  Ni  Ni17  1  0.00494570  0.10034025  0.56290549  1
  Ni  Ni18  1  0.99806838  0.79695433  0.17911557  1
  Ni  Ni19  1  0.99806838  0.70304567  0.67911557  1
  Ni  Ni20  1  0.50193162  0.29695433  0.17911557  1
  Ni  Ni21  1  0.50193162  0.20304567  0.67911557  1
  Ni  Ni22  1  0.49505430  0.60034025  0.56290549  1
  Ni  Ni23  1  0.49505430  0.89965975  0.06290549  1
  Ni  Ni24  1  0.50494570  0.39965975  0.43709451  1
  Ni  Ni25  1  0.50494570  0.10034025  0.93709451  1
  Ni  Ni26  1  0.49806838  0.70304567  0.82088443  1
  Ni  Ni27  1  0.49806838  0.79695433  0.32088443  1
  Ni  Ni28  1  0.00193162  0.29695433  0.32088443  1
  Ni  Ni29  1  0.00193162  0.20304567  0.82088443  1
  Ni  Ni30  1  0.99505430  0.89965975  0.43709451  1
  Ni  Ni31  1  0.99505430  0.60034025  0.93709451  1
  S  S32  1  0.14336092  0.94725288  0.30004161  1
  S  S33  1  0.14336092  0.55274712  0.80004161  1
  S  S34  1  0.14856052  0.25388758  0.44663246  1
  S  S35  1  0.14856052  0.24611242  0.94663246  1
  S  S36  1  0.19717669  0.09387682  0.11650640  1
  S  S37  1  0.19717669  0.40612318  0.61650640  1
  S  S38  1  0.30282331  0.59387682  0.11650640  1
  S  S39  1  0.30282331  0.90612318  0.61650640  1
  S  S40  1  0.35143948  0.75388758  0.44663246  1
  S  S41  1  0.35143948  0.74611242  0.94663246  1
  S  S42  1  0.35663908  0.44725288  0.30004161  1
  S  S43  1  0.35663908  0.05274712  0.80004161  1
  S  S44  1  0.64336092  0.55274712  0.69995839  1
  S  S45  1  0.64336092  0.94725288  0.19995839  1
  S  S46  1  0.64856052  0.25388758  0.05336754  1
  S  S47  1  0.64856052  0.24611242  0.55336754  1
  S  S48  1  0.69717669  0.09387682  0.38349360  1
  S  S49  1  0.69717669  0.40612318  0.88349360  1
  S  S50  1  0.80282331  0.59387682  0.38349360  1
  S  S51  1  0.80282331  0.90612318  0.88349360  1
  S  S52  1  0.85143948  0.75388758  0.05336754  1
  S  S53  1  0.85143948  0.74611242  0.55336754  1
  S  S54  1  0.85663908  0.44725288  0.19995839  1
  S  S55  1  0.85663908  0.05274712  0.69995839  1
  O  O56  1  0.06331613  0.39173667  0.46494483  1
  O  O57  1  0.06331613  0.10826333  0.96494483  1
  O  O58  1  0.08293067  0.09817995  0.27948710  1
  O  O59  1  0.08293067  0.40182005  0.77948710  1
  O  O60  1  0.08367377  0.10954524  0.47531018  1
  O  O61  1  0.08367377  0.39045476  0.97531018  1
  O  O62  1  0.08629203  0.91099640  0.35649929  1
  O  O63  1  0.08629203  0.58900360  0.85649929  1
  O  O64  1  0.09355791  0.19023134  0.08200058  1
  O  O65  1  0.09355791  0.30976866  0.58200058  1
  O  O66  1  0.09067460  0.82292442  0.26083629  1
  O  O67  1  0.09067460  0.67707558  0.76083629  1
  O  O68  1  0.09802578  0.00684153  0.15728300  1
  O  O69  1  0.09802578  0.49315847  0.65728300  1
  O  O70  1  0.13886398  0.23139500  0.38582598  1
  O  O71  1  0.13886398  0.26860500  0.88582598  1
  O  O72  1  0.18282062  0.45337255  0.29815839  1
  O  O73  1  0.18282062  0.04662745  0.79815839  1
  O  O74  1  0.18737050  0.68261090  0.14796378  1
  O  O75  1  0.18737050  0.81738910  0.64796378  1
  O  O76  1  0.18574341  0.76456745  0.46548379  1
  O  O77  1  0.18574341  0.73543255  0.96548379  1
  O  O78  1  0.22572305  0.01731383  0.57682129  1
  O  O79  1  0.22572305  0.48268617  0.07682129  1
  O  O80  1  0.27427695  0.98268617  0.07682129  1
  O  O81  1  0.27427695  0.51731383  0.57682129  1
  O  O82  1  0.31425659  0.23543255  0.96548379  1
  O  O83  1  0.31425659  0.26456745  0.46548379  1
  O  O84  1  0.31262950  0.18261090  0.14796378  1
  O  O85  1  0.31262950  0.31738910  0.64796378  1
  O  O86  1  0.31717938  0.95337255  0.29815839  1
  O  O87  1  0.31717938  0.54662745  0.79815839  1
  O  O88  1  0.36113602  0.73139500  0.38582598  1
  O  O89  1  0.36113602  0.76860500  0.88582598  1
  O  O90  1  0.40197422  0.99315847  0.65728300  1
  O  O91  1  0.40197422  0.50684153  0.15728300  1
  O  O92  1  0.40932540  0.32292442  0.26083629  1
  O  O93  1  0.40932540  0.17707558  0.76083629  1
  O  O94  1  0.40644209  0.69023134  0.08200058  1
  O  O95  1  0.40644209  0.80976866  0.58200058  1
  O  O96  1  0.41370797  0.08900360  0.85649929  1
  O  O97  1  0.41370797  0.41099640  0.35649929  1
  O  O98  1  0.41632623  0.89045476  0.97531018  1
  O  O99  1  0.41632623  0.60954524  0.47531018  1
  O  O100  1  0.41706933  0.59817995  0.27948710  1
  O  O101  1  0.41706933  0.90182005  0.77948710  1
  O  O102  1  0.43668387  0.60826333  0.96494483  1
  O  O103  1  0.43668387  0.89173667  0.46494483  1
  O  O104  1  0.56331613  0.39173667  0.03505517  1
  O  O105  1  0.56331613  0.10826333  0.53505517  1
  O  O106  1  0.58293067  0.09817995  0.22051290  1
  O  O107  1  0.58293067  0.40182005  0.72051290  1
  O  O108  1  0.58367377  0.10954524  0.02468982  1
  O  O109  1  0.58367377  0.39045476  0.52468982  1
  O  O110  1  0.58629203  0.58900360  0.64350071  1
  O  O111  1  0.58629203  0.91099640  0.14350071  1
  O  O112  1  0.59355791  0.19023134  0.41799942  1
  O  O113  1  0.59355791  0.30976866  0.91799942  1
  O  O114  1  0.59067460  0.82292442  0.23916371  1
  O  O115  1  0.59067460  0.67707558  0.73916371  1
  O  O116  1  0.59802578  0.00684153  0.34271700  1
  O  O117  1  0.59802578  0.49315847  0.84271700  1
  O  O118  1  0.63886398  0.23139500  0.11417402  1
  O  O119  1  0.63886398  0.26860500  0.61417402  1
  O  O120  1  0.68282062  0.45337255  0.20184161  1
  O  O121  1  0.68282062  0.04662745  0.70184161  1
  O  O122  1  0.68737050  0.68261090  0.35203622  1
  O  O123  1  0.68737050  0.81738910  0.85203622  1
  O  O124  1  0.68574341  0.76456745  0.03451621  1
  O  O125  1  0.68574341  0.73543255  0.53451621  1
  O  O126  1  0.72572305  0.48268617  0.42317871  1
  O  O127  1  0.72572305  0.01731383  0.92317871  1
  O  O128  1  0.77427695  0.98268617  0.42317871  1
  O  O129  1  0.77427695  0.51731383  0.92317871  1
  O  O130  1  0.81425659  0.26456745  0.03451621  1
  O  O131  1  0.81425659  0.23543255  0.53451621  1
  O  O132  1  0.81262950  0.18261090  0.35203622  1
  O  O133  1  0.81262950  0.31738910  0.85203622  1
  O  O134  1  0.81717938  0.54662745  0.70184161  1
  O  O135  1  0.81717938  0.95337255  0.20184161  1
  O  O136  1  0.86113602  0.73139500  0.11417402  1
  O  O137  1  0.86113602  0.76860500  0.61417402  1
  O  O138  1  0.90197422  0.50684153  0.34271700  1
  O  O139  1  0.90197422  0.99315847  0.84271700  1
  O  O140  1  0.90932540  0.32292442  0.23916371  1
  O  O141  1  0.90932540  0.17707558  0.73916371  1
  O  O142  1  0.90644209  0.69023134  0.41799942  1
  O  O143  1  0.90644209  0.80976866  0.91799942  1
  O  O144  1  0.91370797  0.41099640  0.14350071  1
  O  O145  1  0.91370797  0.08900360  0.64350071  1
  O  O146  1  0.91632623  0.60954524  0.02468982  1
  O  O147  1  0.91632623  0.89045476  0.52468982  1
  O  O148  1  0.91706933  0.59817995  0.22051290  1
  O  O149  1  0.91706933  0.90182005  0.72051290  1
  O  O150  1  0.93668387  0.60826333  0.53505517  1
  O  O151  1  0.93668387  0.89173667  0.03505517  1
