# generated using pymatgen
data_Pr3Gd3Mn23
_symmetry_space_group_name_H-M   'P 1'
_cell_length_a   8.71999557
_cell_length_b   8.71999557
_cell_length_c   8.61482827
_cell_angle_alpha   90.00000000
_cell_angle_beta   59.59534391
_cell_angle_gamma   120.00000000
_symmetry_Int_Tables_number   1
_chemical_formula_structural   Pr3Gd3Mn23
_chemical_formula_sum   'Pr3 Gd3 Mn23'
_cell_volume   460.34198979
_cell_formula_units_Z   1
loop_
 _symmetry_equiv_pos_site_id
 _symmetry_equiv_pos_as_xyz
  1  'x, y, z'
loop_
 _atom_site_type_symbol
 _atom_site_label
 _atom_site_symmetry_multiplicity
 _atom_site_fract_x
 _atom_site_fract_y
 _atom_site_fract_z
 _atom_site_occupancy
  Pr  Pr0  1  0.40608472  0.70304236  0.29409154  1
  Pr  Pr1  1  0.00286610  0.29982374  0.29409154  1
  Pr  Pr2  1  0.00286610  0.70304236  0.29409154  1
  Gd  Gd3  1  0.58446562  0.29223281  0.70749970  1
  Gd  Gd4  1  0.00026749  0.70803468  0.70749970  1
  Gd  Gd5  1  0.00026749  0.29223281  0.70749970  1
  Mn  Mn6  1  0.24151230  0.12075615  0.63773155  1
  Mn  Mn7  1  0.75491045  0.12258064  0.12250891  1
  Mn  Mn8  1  0.75491045  0.63232982  0.12250891  1
  Mn  Mn9  1  0.24516127  0.12258064  0.12250891  1
  Mn  Mn10  1  0.75953762  0.87976881  0.36069357  1
  Mn  Mn11  1  0.24169949  0.87955207  0.87874844  1
  Mn  Mn12  1  0.24169949  0.36214741  0.87874844  1
  Mn  Mn13  1  0.75910415  0.87955207  0.87874844  1
  Mn  Mn14  1  0.00340106  0.00170053  0.99489841  1
  Mn  Mn15  1  0.64201187  0.32100593  0.03698220  1
  Mn  Mn16  1  0.35158884  0.31945625  0.32895491  1
  Mn  Mn17  1  0.35158884  0.03213259  0.32895491  1
  Mn  Mn18  1  0.63891250  0.31945625  0.32895491  1
  Mn  Mn19  1  0.37111995  0.68555997  0.94332008  1
  Mn  Mn20  1  0.64667837  0.67575443  0.67756720  1
  Mn  Mn21  1  0.64667837  0.97092393  0.67756720  1
  Mn  Mn22  1  0.35150887  0.67575443  0.67756720  1
  Mn  Mn23  1  0.99876357  0.99938179  0.50399526  1
  Mn  Mn24  1  0.49662296  0.49724117  0.50399526  1
  Mn  Mn25  1  0.49662296  0.99938179  0.50399526  1
  Mn  Mn26  1  0.99635771  0.49817885  0.99542543  1
  Mn  Mn27  1  0.50639571  0.00821686  0.99542543  1
  Mn  Mn28  1  0.50639571  0.49817885  0.99542543  1
