# generated using pymatgen
data_VF4
_symmetry_space_group_name_H-M   'P 1'
_cell_length_a   10.77958325
_cell_length_b   7.44152090
_cell_length_c   7.67582869
_cell_angle_alpha   90.00000000
_cell_angle_beta   90.00000000
_cell_angle_gamma   90.00000000
_symmetry_Int_Tables_number   1
_chemical_formula_structural   VF4
_chemical_formula_sum   'V8 F32'
_cell_volume   615.72806643
_cell_formula_units_Z   8
loop_
 _symmetry_equiv_pos_site_id
 _symmetry_equiv_pos_as_xyz
  1  'x, y, z'
loop_
 _atom_site_type_symbol
 _atom_site_label
 _atom_site_symmetry_multiplicity
 _atom_site_fract_x
 _atom_site_fract_y
 _atom_site_fract_z
 _atom_site_occupancy
  V  V0  1  0.24627225  0.99983611  0.60701832  1
  V  V1  1  0.24627225  0.50016389  0.60701832  1
  V  V2  1  0.25372775  0.00016389  0.10701832  1
  V  V3  1  0.25372775  0.49983611  0.10701832  1
  V  V4  1  0.74627225  0.99983611  0.89298168  1
  V  V5  1  0.74627225  0.50016389  0.89298168  1
  V  V6  1  0.75372775  0.49983611  0.39298168  1
  V  V7  1  0.75372775  0.00016389  0.39298168  1
  F  F8  1  0.08836504  0.06036390  0.62739646  1
  F  F9  1  0.08836504  0.43963610  0.62739646  1
  F  F10  1  0.09659111  0.06521877  0.09383402  1
  F  F11  1  0.09659111  0.43478123  0.09383402  1
  F  F12  1  0.19524414  0.75000000  0.56053643  1
  F  F13  1  0.20483788  0.75000000  0.15443871  1
  F  F14  1  0.24669983  0.44637422  0.35834314  1
  F  F15  1  0.24669983  0.05362578  0.35834314  1
  F  F16  1  0.25330017  0.94637422  0.85834314  1
  F  F17  1  0.25330017  0.55362578  0.85834314  1
  F  F18  1  0.29516212  0.25000000  0.65443871  1
  F  F19  1  0.30475586  0.25000000  0.06053643  1
  F  F20  1  0.40340889  0.93478123  0.59383402  1
  F  F21  1  0.40340889  0.56521877  0.59383402  1
  F  F22  1  0.41163496  0.93963610  0.12739646  1
  F  F23  1  0.41163496  0.56036390  0.12739646  1
  F  F24  1  0.58836504  0.06036390  0.87260354  1
  F  F25  1  0.58836504  0.43963610  0.87260354  1
  F  F26  1  0.59659111  0.06521877  0.40616598  1
  F  F27  1  0.59659111  0.43478123  0.40616598  1
  F  F28  1  0.69524414  0.75000000  0.93946357  1
  F  F29  1  0.70483788  0.75000000  0.34556129  1
  F  F30  1  0.74669983  0.05362578  0.14165686  1
  F  F31  1  0.74669983  0.44637422  0.14165686  1
  F  F32  1  0.75330017  0.55362578  0.64165686  1
  F  F33  1  0.75330017  0.94637422  0.64165686  1
  F  F34  1  0.79516212  0.25000000  0.84556129  1
  F  F35  1  0.80475586  0.25000000  0.43946357  1
  F  F36  1  0.90340889  0.56521877  0.90616598  1
  F  F37  1  0.90340889  0.93478123  0.90616598  1
  F  F38  1  0.91163496  0.56036390  0.37260354  1
  F  F39  1  0.91163496  0.93963610  0.37260354  1
