# generated using pymatgen
data_LiVCr(P2O7)2
_symmetry_space_group_name_H-M   'P 1'
_cell_length_a   9.72687543
_cell_length_b   8.07027657
_cell_length_c   7.16559750
_cell_angle_alpha   90.06330638
_cell_angle_beta   68.06439741
_cell_angle_gamma   90.01725212
_symmetry_Int_Tables_number   1
_chemical_formula_structural   LiVCr(P2O7)2
_chemical_formula_sum   'Li2 V2 Cr2 P8 O28'
_cell_volume   521.76707483
_cell_formula_units_Z   2
loop_
 _symmetry_equiv_pos_site_id
 _symmetry_equiv_pos_as_xyz
  1  'x, y, z'
loop_
 _atom_site_type_symbol
 _atom_site_label
 _atom_site_symmetry_multiplicity
 _atom_site_fract_x
 _atom_site_fract_y
 _atom_site_fract_z
 _atom_site_occupancy
  Li  Li0  1  0.25040223  0.86418610  0.67488100  1
  Li  Li1  1  0.74957575  0.36203926  0.32812228  1
  V  V2  1  0.24356426  0.49573084  0.72279890  1
  V  V3  1  0.74356309  0.50704489  0.72811397  1
  Cr  Cr4  1  0.25633495  0.00616585  0.27164103  1
  Cr  Cr5  1  0.75649331  0.99731925  0.27589637  1
  P  P6  1  0.06467690  0.78192807  0.08897456  1
  P  P7  1  0.06319646  0.67784515  0.47825896  1
  P  P8  1  0.44030970  0.18044117  0.52300930  1
  P  P9  1  0.56452861  0.78368831  0.08535145  1
  P  P10  1  0.43452091  0.28278709  0.91529257  1
  P  P11  1  0.56141237  0.68261247  0.47502209  1
  P  P12  1  0.93969451  0.17651509  0.51871673  1
  P  P13  1  0.93289215  0.28155146  0.91133168  1
  O  O14  1  0.08022391  0.64741542  0.24968450  1
  O  O15  1  0.15937294  0.93467981  0.08124648  1
  O  O16  1  0.10366897  0.18012868  0.39297173  1
  O  O17  1  0.12854795  0.84785885  0.49122438  1
  O  O18  1  0.14873996  0.53847032  0.53087043  1
  O  O19  1  0.09706853  0.33073487  0.85115311  1
  O  O20  1  0.12863410  0.68794772  0.88635202  1
  O  O21  1  0.38352803  0.19093758  0.11106089  1
  O  O22  1  0.40173581  0.82459652  0.14281456  1
  O  O23  1  0.34908099  0.04102564  0.48336131  1
  O  O24  1  0.37312989  0.35240539  0.51872816  1
  O  O25  1  0.39402290  0.67499422  0.60820726  1
  O  O26  1  0.34089760  0.43488225  0.90497251  1
  O  O27  1  0.42527093  0.14794520  0.75237167  1
  O  O28  1  0.57822941  0.64589052  0.24782504  1
  O  O29  1  0.65945402  0.93289248  0.08641124  1
  O  O30  1  0.60417202  0.18230304  0.38944445  1
  O  O31  1  0.62172228  0.85253225  0.48849089  1
  O  O32  1  0.64971781  0.54023128  0.52108658  1
  O  O33  1  0.59776881  0.33823384  0.84972602  1
  O  O34  1  0.62185323  0.68284892  0.88895853  1
  O  O35  1  0.87605423  0.19718624  0.11541100  1
  O  O36  1  0.90194214  0.81873720  0.14282983  1
  O  O37  1  0.85062787  0.03905426  0.47550629  1
  O  O38  1  0.86624511  0.34811897  0.51743888  1
  O  O39  1  0.89618190  0.66742011  0.60759889  1
  O  O40  1  0.83945991  0.43682378  0.91331710  1
  O  O41  1  0.92160854  0.14850762  0.75315236  1
