# generated using pymatgen
data_LiVCr(P2O7)2
_symmetry_space_group_name_H-M   'P 1'
_cell_length_a   9.73277431
_cell_length_b   8.05754823
_cell_length_c   13.30095882
_cell_angle_alpha   90.11976383
_cell_angle_beta   87.88241985
_cell_angle_gamma   90.01790736
_symmetry_Int_Tables_number   1
_chemical_formula_structural   LiVCr(P2O7)2
_chemical_formula_sum   'Li4 V4 Cr4 P16 O56'
_cell_volume   1042.37713230
_cell_formula_units_Z   4
loop_
 _symmetry_equiv_pos_site_id
 _symmetry_equiv_pos_as_xyz
  1  'x, y, z'
loop_
 _atom_site_type_symbol
 _atom_site_label
 _atom_site_symmetry_multiplicity
 _atom_site_fract_x
 _atom_site_fract_y
 _atom_site_fract_z
 _atom_site_occupancy
  Li  Li0  1  0.16874398  0.86449325  0.83730857  1
  Li  Li1  1  0.41890362  0.86433724  0.33740189  1
  Li  Li2  1  0.58218281  0.36176494  0.66474750  1
  Li  Li3  1  0.83209160  0.36238025  0.16436938  1
  V  V4  1  0.17378615  0.49551332  0.86128956  1
  V  V5  1  0.42190028  0.49595309  0.36198417  1
  V  V6  1  0.67607948  0.50753135  0.86422305  1
  V  V7  1  0.92779416  0.50667637  0.36358916  1
  Cr  Cr8  1  0.07310523  0.00562058  0.63633383  1
  Cr  Cr9  1  0.32405921  0.00678490  0.13561118  1
  Cr  Cr10  1  0.57670422  0.99788323  0.63719310  1
  Cr  Cr11  1  0.82559976  0.99699205  0.13805823  1
  P  P12  1  0.06974401  0.17698067  0.25922906  1
  P  P13  1  0.08701764  0.78191818  0.04441615  1
  P  P14  1  0.15972533  0.28101824  0.45766934  1
  P  P15  1  0.18297926  0.67840945  0.23894628  1
  P  P16  1  0.32141403  0.18029014  0.76123119  1
  P  P17  1  0.33557364  0.78222537  0.54410210  1
  P  P18  1  0.41356363  0.28301108  0.95745254  1
  P  P19  1  0.43024593  0.68237512  0.73775783  1
  P  P20  1  0.57118393  0.18022882  0.26138564  1
  P  P21  1  0.58565334  0.78336737  0.04306237  1
  P  P22  1  0.66418175  0.28349134  0.45567924  1
  P  P23  1  0.67974779  0.68218570  0.23802550  1
  P  P24  1  0.81921192  0.17644208  0.75933749  1
  P  P25  1  0.83715466  0.78266382  0.54320051  1
  P  P26  1  0.91065360  0.28131724  0.95569759  1
  P  P27  1  0.93256410  0.67833478  0.73912824  1
  O  O28  1  0.00131601  0.84845691  0.74683582  1
  O  O29  1  0.03147848  0.53864022  0.76570604  1
  O  O30  1  0.04805008  0.66891177  0.30337528  1
  O  O31  1  0.06719503  0.43627481  0.45549069  1
  O  O32  1  0.05975652  0.32981705  0.92541364  1
  O  O33  1  0.11108169  0.14952494  0.37551219  1
  O  O34  1  0.10081421  0.68765830  0.94308798  1
  O  O35  1  0.14295110  0.64734923  0.12460032  1
  O  O36  1  0.16076968  0.18822744  0.55523765  1
  O  O37  1  0.17945320  0.93516011  0.04045421  1
  O  O38  1  0.18779540  0.82214963  0.57316047  1
  O  O39  1  0.20171855  0.18107078  0.19566713  1
  O  O40  1  0.22004412  0.04101660  0.74163577  1
  O  O41  1  0.25153741  0.84865714  0.24547577  1
  O  O42  1  0.25371643  0.35288847  0.75926623  1
  O  O43  1  0.28134430  0.53821166  0.26450139  1
  O  O44  1  0.29609102  0.67566759  0.80372801  1
  O  O45  1  0.30899852  0.33544841  0.42677913  1
  O  O46  1  0.31681351  0.43491271  0.95224046  1
  O  O47  1  0.34769586  0.68931996  0.44205724  1
  O  O48  1  0.36405419  0.14748365  0.87587787  1
  O  O49  1  0.41173003  0.19115351  0.05535352  1
  O  O50  1  0.39095644  0.64414564  0.62312517  1
  O  O51  1  0.43726665  0.82448717  0.07156262  1
  O  O52  1  0.43113677  0.93275154  0.54081199  1
  O  O53  1  0.45169146  0.18228246  0.69411499  1
  O  O54  1  0.46995983  0.04093455  0.24168969  1
  O  O55  1  0.50301775  0.35214006  0.26057333  1
  O  O56  1  0.49316324  0.85302810  0.74293193  1
  O  O57  1  0.53007899  0.54026724  0.76045686  1
  O  O58  1  0.54570231  0.67419448  0.30472891  1
  O  O59  1  0.56754359  0.43561890  0.45439811  1
  O  O60  1  0.56017787  0.33868581  0.92467461  1
  O  O61  1  0.61339511  0.14600079  0.37691434  1
  O  O62  1  0.59383145  0.68281354  0.94461131  1
  O  O63  1  0.63966532  0.64500094  0.12424156  1
  O  O64  1  0.65661965  0.19920174  0.55767289  1
  O  O65  1  0.68103734  0.93258076  0.04353089  1
  O  O66  1  0.68728055  0.82010321  0.56983754  1
  O  O67  1  0.70173947  0.18261904  0.19497068  1
  O  O68  1  0.71945661  0.03854047  0.73751787  1
  O  O69  1  0.74275225  0.85285452  0.24451842  1
  O  O70  1  0.74509178  0.34801128  0.75893749  1
  O  O71  1  0.77997291  0.54020770  0.26093302  1
  O  O72  1  0.79811466  0.66754103  0.80439897  1
  O  O73  1  0.81094605  0.33508030  0.42364200  1
  O  O74  1  0.81774810  0.43690378  0.95682688  1
  O  O75  1  0.84592899  0.68023353  0.44565446  1
  O  O76  1  0.85942246  0.14786227  0.87659209  1
  O  O77  1  0.90462449  0.19698921  0.05774106  1
  O  O78  1  0.89190621  0.64793586  0.62567947  1
  O  O79  1  0.93764785  0.81801245  0.07134392  1
  O  O80  1  0.92955166  0.93454029  0.54285663  1
  O  O81  1  0.95174048  0.18107554  0.69661623  1
  O  O82  1  0.96941853  0.03955432  0.23764379  1
  O  O83  1  0.99550878  0.34892560  0.25799580  1
