# generated using pymatgen
data_LiVFeP2(HO5)2
_symmetry_space_group_name_H-M   'P 1'
_cell_length_a   5.30248796
_cell_length_b   10.44681091
_cell_length_c   7.42388803
_cell_angle_alpha   105.92556928
_cell_angle_beta   69.83722691
_cell_angle_gamma   82.97613898
_symmetry_Int_Tables_number   1
_chemical_formula_structural   LiVFeP2(HO5)2
_chemical_formula_sum   'Li2 V2 Fe2 P4 H4 O20'
_cell_volume   360.34937903
_cell_formula_units_Z   2
loop_
 _symmetry_equiv_pos_site_id
 _symmetry_equiv_pos_as_xyz
  1  'x, y, z'
loop_
 _atom_site_type_symbol
 _atom_site_label
 _atom_site_symmetry_multiplicity
 _atom_site_fract_x
 _atom_site_fract_y
 _atom_site_fract_z
 _atom_site_occupancy
  Li  Li0  1  0.40167087  0.03314825  0.18846749  1
  Li  Li1  1  0.09832913  0.46685175  0.31153251  1
  V  V2  1  0.75000000  0.75000000  0.25000000  1
  V  V3  1  0.25000000  0.25000000  0.75000000  1
  Fe  Fe4  1  0.49539044  0.50349282  0.51026044  1
  Fe  Fe5  1  0.00460956  0.99650718  0.98973956  1
  P  P6  1  0.90416387  0.22661221  0.45082214  1
  P  P7  1  0.40077802  0.72528342  0.95569526  1
  P  P8  1  0.59583613  0.27338779  0.04917786  1
  P  P9  1  0.09922198  0.77471658  0.54430474  1
  H  H10  1  0.78940929  0.49739475  0.15045381  1
  H  H11  1  0.71059071  0.00260525  0.34954619  1
  H  H12  1  0.31265209  0.99516836  0.65163114  1
  H  H13  1  0.18734791  0.50483164  0.84836886  1
  O  O14  1  0.98261165  0.84754511  0.77555031  1
  O  O15  1  0.86001891  0.32107500  0.94408898  1
  O  O16  1  0.87712602  0.81400700  0.46272070  1
  O  O17  1  0.65942316  0.11897914  0.01209034  1
  O  O18  1  0.84057684  0.38102086  0.48790966  1
  O  O19  1  0.73412064  0.93544456  0.21816522  1
  O  O20  1  0.76587936  0.56455544  0.28183478  1
  O  O21  1  0.51738835  0.65245489  0.72444969  1
  O  O22  1  0.63998109  0.17892500  0.55591102  1
  O  O23  1  0.36664729  0.31599255  0.97499705  1
  O  O24  1  0.62287398  0.68599300  0.03727930  1
  O  O25  1  0.35999284  0.82779407  0.44561929  1
  O  O26  1  0.46920802  0.35693729  0.27928844  1
  O  O27  1  0.25418394  0.42909462  0.71603271  1
  O  O28  1  0.24581606  0.07090538  0.78396729  1
  O  O29  1  0.17760705  0.61796242  0.48719294  1
  O  O30  1  0.32239295  0.88203758  0.01280706  1
  O  O31  1  0.13335271  0.18400745  0.52500295  1
  O  O32  1  0.14000716  0.67220593  0.05438071  1
  O  O33  1  0.03079198  0.14306271  0.22071156  1
