# generated using pymatgen
data_Na7(NiO2)10
_symmetry_space_group_name_H-M   'P 1'
_cell_length_a   2.94144098
_cell_length_b   12.69952539
_cell_length_c   10.99462800
_cell_angle_alpha   107.36966233
_cell_angle_beta   91.46479814
_cell_angle_gamma   91.45075637
_symmetry_Int_Tables_number   1
_chemical_formula_structural   Na7(NiO2)10
_chemical_formula_sum   'Na7 Ni10 O20'
_cell_volume   391.61277924
_cell_formula_units_Z   1
loop_
 _symmetry_equiv_pos_site_id
 _symmetry_equiv_pos_as_xyz
  1  'x, y, z'
loop_
 _atom_site_type_symbol
 _atom_site_label
 _atom_site_symmetry_multiplicity
 _atom_site_fract_x
 _atom_site_fract_y
 _atom_site_fract_z
 _atom_site_occupancy
  Na  Na0  1  0.98729499  0.87235628  0.68871780  1
  Na  Na1  1  0.49803047  0.93161214  0.21851574  1
  Na  Na2  1  0.00000000  0.70000000  0.10000000  1
  Na  Na3  1  0.01270501  0.52764372  0.51128220  1
  Na  Na4  1  0.50196953  0.46838786  0.98148426  1
  Na  Na5  1  0.48624026  0.27705339  0.38977753  1
  Na  Na6  1  0.51375974  0.12294661  0.81022247  1
  Ni  Ni7  1  0.99221330  0.80016601  0.39692000  1
  Ni  Ni8  1  0.00778670  0.59983399  0.80308000  1
  Ni  Ni9  1  0.50052497  0.79933151  0.90710727  1
  Ni  Ni10  1  0.49947503  0.60066849  0.29289273  1
  Ni  Ni11  1  0.99638144  0.39938714  0.20245167  1
  Ni  Ni12  1  0.00000000  0.20000000  0.60000000  1
  Ni  Ni13  1  0.50753928  0.40161153  0.69396814  1
  Ni  Ni14  1  0.50000000  0.20000000  0.10000000  1
  Ni  Ni15  1  0.00361856  0.00061286  0.99754833  1
  Ni  Ni16  1  0.49246072  0.99838847  0.50603186  1
  O  O17  1  0.48675308  0.94379949  0.87592119  1
  O  O18  1  0.97113443  0.86289501  0.03216606  1
  O  O19  1  0.96887734  0.65873044  0.41317925  1
  O  O20  1  0.48240063  0.85497713  0.52207521  1
  O  O21  1  0.49669175  0.65237229  0.93072738  1
  O  O22  1  0.98664369  0.45659383  0.81861041  1
  O  O23  1  0.50330825  0.74762771  0.26927262  1
  O  O24  1  0.01335631  0.94340617  0.38138959  1
  O  O25  1  0.03112266  0.74126956  0.78682075  1
  O  O26  1  0.51759937  0.54502287  0.67792479  1
  O  O27  1  0.51324692  0.45620051  0.32407881  1
  O  O28  1  0.96596798  0.25935348  0.22628827  1
  O  O29  1  0.50716924  0.25897155  0.71309832  1
  O  O30  1  0.97253523  0.05621693  0.63441641  1
  O  O31  1  0.47949189  0.34277487  0.08489198  1
  O  O32  1  0.02886557  0.53710499  0.16783394  1
  O  O33  1  0.02746477  0.34378307  0.56558359  1
  O  O34  1  0.49283076  0.14102845  0.48690168  1
  O  O35  1  0.03403202  0.14064652  0.97371173  1
  O  O36  1  0.52050811  0.05722513  0.11510802  1
