# generated using pymatgen
data_VF5
_symmetry_space_group_name_H-M   'P 1'
_cell_length_a   5.97604497
_cell_length_b   5.97604512
_cell_length_c   11.22428112
_cell_angle_alpha   90.00000000
_cell_angle_beta   90.00000000
_cell_angle_gamma   97.76903857
_symmetry_Int_Tables_number   1
_chemical_formula_structural   VF5
_chemical_formula_sum   'V4 F20'
_cell_volume   397.17461009
_cell_formula_units_Z   4
loop_
 _symmetry_equiv_pos_site_id
 _symmetry_equiv_pos_as_xyz
  1  'x, y, z'
loop_
 _atom_site_type_symbol
 _atom_site_label
 _atom_site_symmetry_multiplicity
 _atom_site_fract_x
 _atom_site_fract_y
 _atom_site_fract_z
 _atom_site_occupancy
  V  V0  1  0.15852399  0.15852399  0.40809736  1
  V  V1  1  0.34147601  0.34147601  0.90809736  1
  V  V2  1  0.65852399  0.65852399  0.09190264  1
  V  V3  1  0.84147601  0.84147601  0.59190264  1
  F  F4  1  0.13194903  0.86805097  0.50000000  1
  F  F5  1  0.99918790  0.99918790  0.29632110  1
  F  F6  1  0.10781282  0.41504299  0.34814883  1
  F  F7  1  0.08495701  0.39218718  0.84814883  1
  F  F8  1  0.21377596  0.21377596  0.03848233  1
  F  F9  1  0.36805097  0.63194903  0.00000000  1
  F  F10  1  0.28622404  0.28622404  0.53848233  1
  F  F11  1  0.41504299  0.10781282  0.34814883  1
  F  F12  1  0.39218718  0.08495701  0.84814883  1
  F  F13  1  0.50081210  0.50081210  0.79632110  1
  F  F14  1  0.49918790  0.49918790  0.20367890  1
  F  F15  1  0.60781282  0.91504299  0.15185117  1
  F  F16  1  0.58495701  0.89218718  0.65185117  1
  F  F17  1  0.71377596  0.71377596  0.46151767  1
  F  F18  1  0.63194903  0.36805097  0.00000000  1
  F  F19  1  0.78622404  0.78622404  0.96151767  1
  F  F20  1  0.91504299  0.60781282  0.15185117  1
  F  F21  1  0.89218718  0.58495701  0.65185117  1
  F  F22  1  0.00081210  0.00081210  0.70367890  1
  F  F23  1  0.86805097  0.13194903  0.50000000  1
