# generated using pymatgen
data_NaCoH3(CO2)3
_symmetry_space_group_name_H-M   'P 1'
_cell_length_a   7.91670453
_cell_length_b   7.91670453
_cell_length_c   7.91719492
_cell_angle_alpha   71.27287976
_cell_angle_beta   69.88950907
_cell_angle_gamma   109.57654360
_symmetry_Int_Tables_number   1
_chemical_formula_structural   NaCoH3(CO2)3
_chemical_formula_sum   'Na2 Co2 H6 C6 O12'
_cell_volume   381.93322801
_cell_formula_units_Z   2
loop_
 _symmetry_equiv_pos_site_id
 _symmetry_equiv_pos_as_xyz
  1  'x, y, z'
loop_
 _atom_site_type_symbol
 _atom_site_label
 _atom_site_symmetry_multiplicity
 _atom_site_fract_x
 _atom_site_fract_y
 _atom_site_fract_z
 _atom_site_occupancy
  Na  Na0  1  0.17697077  0.49931412  0.49472506  1
  Na  Na1  1  0.49403918  0.67169583  0.00527494  1
  Co  Co2  1  0.99504914  0.99769581  0.82334555  1
  Co  Co3  1  0.32104137  0.81839470  0.67665445  1
  H  H4  1  0.75599961  0.50599961  0.75000000  1
  H  H5  1  0.25703347  0.24996107  0.00841503  1
  H  H6  1  0.98269367  0.76512741  0.24519344  1
  H  H7  1  0.77851239  0.02851239  0.25000000  1
  H  H8  1  0.51032085  0.22788711  0.25480656  1
  H  H9  1  0.75837610  0.26544849  0.49158497  1
  C  C10  1  0.87799584  0.62799584  0.75000000  1
  C  C11  1  0.23887073  0.35311274  0.89004136  1
  C  C12  1  0.10325986  0.75695212  0.12872718  1
  C  C13  1  0.65632969  0.90632969  0.25000000  1
  C  C14  1  0.38567930  0.23198705  0.37127282  1
  C  C15  1  0.74315410  0.12891208  0.60995864  1
  O  O16  1  0.05423812  0.64121247  0.68263069  1
  O  O17  1  0.30897393  0.53718477  0.85468495  1
  O  O18  1  0.13074356  0.83455580  0.94503925  1
  O  O19  1  0.47208775  0.81066427  0.40056691  1
  O  O20  1  0.15230067  0.27734925  0.80348605  1
  O  O21  1  0.36052192  0.38338300  0.31505056  1
  O  O22  1  0.71123119  0.87265466  0.09943309  1
  O  O23  1  0.58083530  0.95578672  0.69651395  1
  O  O24  1  0.19843356  0.67557248  0.18494944  1
  O  O25  1  0.82384316  0.73686881  0.81736931  1
  O  O26  1  0.89186972  0.16365888  0.64531505  1
  O  O27  1  0.27959505  0.07578281  0.55496075  1
