# generated using pymatgen
data_BaH9IO5
_symmetry_space_group_name_H-M   'P 1'
_cell_length_a   6.37295602
_cell_length_b   8.17308770
_cell_length_c   8.17279075
_cell_angle_alpha   89.91338028
_cell_angle_beta   106.85091346
_cell_angle_gamma   90.19242238
_symmetry_Int_Tables_number   1
_chemical_formula_structural   BaH9IO5
_chemical_formula_sum   'Ba2 H18 I2 O10'
_cell_volume   407.41324570
_cell_formula_units_Z   2
loop_
 _symmetry_equiv_pos_site_id
 _symmetry_equiv_pos_as_xyz
  1  'x, y, z'
loop_
 _atom_site_type_symbol
 _atom_site_label
 _atom_site_symmetry_multiplicity
 _atom_site_fract_x
 _atom_site_fract_y
 _atom_site_fract_z
 _atom_site_occupancy
  Ba  Ba0  1  0.32760551  0.46696296  0.22282812  1
  Ba  Ba1  1  0.67239449  0.53303704  0.77717188  1
  H  H2  1  0.01150888  0.22445238  0.91125466  1
  H  H3  1  0.14033795  0.33489853  0.81612793  1
  H  H4  1  0.20375867  0.65700256  0.82228554  1
  H  H5  1  0.03052004  0.20765837  0.33291077  1
  H  H6  1  0.18156768  0.66638175  0.55956453  1
  H  H7  1  0.17767740  0.32797740  0.55036799  1
  H  H8  1  0.37129268  0.76721456  0.95854861  1
  H  H9  1  0.34531552  0.21025356  0.68292448  1
  H  H10  1  0.33956414  0.77502889  0.48390527  1
  H  H11  1  0.66043586  0.22497111  0.51609473  1
  H  H12  1  0.65468448  0.78974644  0.31707552  1
  H  H13  1  0.62870732  0.23278544  0.04145139  1
  H  H14  1  0.82232260  0.67202260  0.44963201  1
  H  H15  1  0.81843232  0.33361825  0.44043547  1
  H  H16  1  0.96947996  0.79234163  0.66708923  1
  H  H17  1  0.79624133  0.34299744  0.17771446  1
  H  H18  1  0.85966205  0.66510147  0.18387207  1
  H  H19  1  0.98849112  0.77554762  0.08874534  1
  I  I20  1  0.33259209  0.99934488  0.21416876  1
  I  I21  1  0.66740791  0.00065512  0.78583124  1
  O  O22  1  0.06080142  0.33798571  0.90585851  1
  O  O23  1  0.00932749  0.32387330  0.35363574  1
  O  O24  1  0.34120840  0.65242959  0.92395204  1
  O  O25  1  0.28196662  0.32144691  0.67154060  1
  O  O26  1  0.31537283  0.66107957  0.51203084  1
  O  O27  1  0.68462717  0.33892043  0.48796916  1
  O  O28  1  0.71803338  0.67855309  0.32845940  1
  O  O29  1  0.65879160  0.34757041  0.07604796  1
  O  O30  1  0.99067251  0.67612670  0.64636426  1
  O  O31  1  0.93919858  0.66201429  0.09414149  1
