# generated using pymatgen
data_LiVFeP2(HO5)2
_symmetry_space_group_name_H-M   'P 1'
_cell_length_a   5.30510875
_cell_length_b   14.72749827
_cell_length_c   7.41785435
_cell_angle_alpha   95.80045721
_cell_angle_beta   69.84404776
_cell_angle_gamma   87.85377571
_symmetry_Int_Tables_number   1
_chemical_formula_structural   LiVFeP2(HO5)2
_chemical_formula_sum   'Li3 V3 Fe3 P6 H6 O30'
_cell_volume   539.66180047
_cell_formula_units_Z   3
loop_
 _symmetry_equiv_pos_site_id
 _symmetry_equiv_pos_as_xyz
  1  'x, y, z'
loop_
 _atom_site_type_symbol
 _atom_site_label
 _atom_site_symmetry_multiplicity
 _atom_site_fract_x
 _atom_site_fract_y
 _atom_site_fract_z
 _atom_site_occupancy
  Li  Li0  1  0.92139118  0.64331946  0.48931541  1
  Li  Li1  1  0.41251199  0.02176901  0.17726895  1
  Li  Li2  1  0.25381951  0.31105966  0.15505762  1
  V  V3  1  0.66673517  0.83305760  0.33321144  1
  V  V4  1  0.33347873  0.16629857  0.66668408  1
  V  V5  1  0.00051549  0.50162313  0.99673139  1
  Fe  Fe6  1  0.66529697  0.33435635  0.33967913  1
  Fe  Fe7  1  0.33306094  0.66825998  0.67318279  1
  Fe  Fe8  1  0.00283378  0.99730160  0.99135885  1
  P  P9  1  0.98013329  0.15050047  0.37519591  1
  P  P10  1  0.68756603  0.18200704  0.95738340  1
  P  P11  1  0.64528347  0.48433355  0.71010017  1
  P  P12  1  0.35707294  0.51636594  0.28731977  1
  P  P13  1  0.30930286  0.81663218  0.04654054  1
  P  P14  1  0.02481208  0.84940845  0.61913932  1
  H  H15  1  0.95487119  0.33203828  0.98381080  1
  H  H16  1  0.71143999  0.00183001  0.34883746  1
  H  H17  1  0.62378609  0.66412940  0.31723162  1
  H  H18  1  0.35648735  0.33596246  0.67933257  1
  H  H19  1  0.31064165  0.99660593  0.65323344  1
  H  H20  1  0.02292397  0.67061751  0.01301704  1
  O  O21  1  0.93174230  0.89787081  0.82645252  1
  O  O22  1  0.96715955  0.21395700  0.83692611  1
  O  O23  1  0.85102777  0.45770015  0.80686606  1
  O  O24  1  0.69904091  0.07887784  0.97180935  1
  O  O25  1  0.96867422  0.25383095  0.36081267  1
  O  O26  1  0.81544711  0.87570347  0.52480529  1
  O  O27  1  0.63346272  0.58788454  0.69683418  1
  O  O28  1  0.95617150  0.37650080  0.09280952  1
  O  O29  1  0.73496268  0.43203832  0.50613751  1
  O  O30  1  0.70020159  0.11895466  0.49647612  1
  O  O31  1  0.71247562  0.95719445  0.23936392  1
  O  O32  1  0.47217503  0.21102032  0.87008648  1
  O  O33  1  0.62106777  0.70918584  0.42702266  1
  O  O34  1  0.40203804  0.76835366  0.83915189  1
  O  O35  1  0.36525744  0.45211329  0.83203516  1
  O  O36  1  0.63617315  0.55084841  0.17198866  1
  O  O37  1  0.58862079  0.23750941  0.16044575  1
  O  O38  1  0.39713010  0.28574867  0.57208276  1
  O  O39  1  0.51842324  0.79067651  0.14133129  1
  O  O40  1  0.26913132  0.04700330  0.76087307  1
  O  O41  1  0.30263740  0.88515633  0.50299723  1
  O  O42  1  0.25630617  0.56814851  0.49348918  1
  O  O43  1  0.06590707  0.62016329  0.90511469  1
  O  O44  1  0.38236852  0.41172733  0.28246530  1
  O  O45  1  0.19524053  0.12194974  0.46304984  1
  O  O46  1  0.05205421  0.74452573  0.61337666  1
  O  O47  1  0.28262386  0.92147571  0.05206516  1
  O  O48  1  0.13957903  0.54522441  0.20183700  1
  O  O49  1  0.03111440  0.78120120  0.16294801  1
  O  O50  1  0.07818026  0.09520776  0.17248423  1
