# generated using pymatgen
data_ZnH6(SeO4)2
_symmetry_space_group_name_H-M   'P 1'
_cell_length_a   7.23639187
_cell_length_b   8.10560871
_cell_length_c   6.99396760
_cell_angle_alpha   90.00000000
_cell_angle_beta   90.00000000
_cell_angle_gamma   67.42197113
_symmetry_Int_Tables_number   1
_chemical_formula_structural   ZnH6(SeO4)2
_chemical_formula_sum   'Zn2 H12 Se4 O16'
_cell_volume   378.79236419
_cell_formula_units_Z   2
loop_
 _symmetry_equiv_pos_site_id
 _symmetry_equiv_pos_as_xyz
  1  'x, y, z'
loop_
 _atom_site_type_symbol
 _atom_site_label
 _atom_site_symmetry_multiplicity
 _atom_site_fract_x
 _atom_site_fract_y
 _atom_site_fract_z
 _atom_site_occupancy
  Zn  Zn0  1  0.50000000  0.50000000  0.50000000  1
  Zn  Zn1  1  0.00000000  0.00000000  0.00000000  1
  H  H2  1  0.87801687  0.91671309  0.33823673  1
  H  H3  1  0.76220504  0.73728858  0.52239358  1
  H  H4  1  0.73779496  0.76271142  0.02239358  1
  H  H5  1  0.73527882  0.37620835  0.78777723  1
  H  H6  1  0.62198313  0.58328691  0.83823673  1
  H  H7  1  0.76472118  0.12379165  0.28777723  1
  H  H8  1  0.23527882  0.87620835  0.71222277  1
  H  H9  1  0.37801687  0.41671309  0.16176327  1
  H  H10  1  0.26472118  0.62379165  0.21222277  1
  H  H11  1  0.26220504  0.23728858  0.97760642  1
  H  H12  1  0.23779496  0.26271142  0.47760642  1
  H  H13  1  0.12198313  0.08328691  0.66176327  1
  Se  Se14  1  0.94927008  0.37534506  0.27096579  1
  Se  Se15  1  0.44927008  0.87534506  0.22903421  1
  Se  Se16  1  0.55072992  0.12465494  0.77096579  1
  Se  Se17  1  0.05072992  0.62465494  0.72903421  1
  O  O18  1  0.95964406  0.75958510  0.92313805  1
  O  O19  1  0.80838784  -0.00013703  0.23383056  1
  O  O20  1  0.88777294  0.76108522  0.53927730  1
  O  O21  1  0.61222706  0.73891478  0.03927730  1
  O  O22  1  0.69161216  0.50013703  0.73383056  1
  O  O23  1  0.74408320  0.33391549  0.33347649  1
  O  O24  1  0.54035594  0.74041490  0.42313805  1
  O  O25  1  0.75591680  0.16608451  0.83347649  1
  O  O26  1  0.24408320  0.83391549  0.16652351  1
  O  O27  1  0.45964406  0.25958510  0.57686195  1
  O  O28  1  0.25591680  0.66608451  0.66652351  1
  O  O29  1  0.30838784  0.49986297  0.26616944  1
  O  O30  1  0.38777294  0.26108522  0.96072270  1
  O  O31  1  0.11222706  0.23891478  0.46072270  1
  O  O32  1  0.19161216  0.00013703  0.76616944  1
  O  O33  1  0.04035594  0.24041490  0.07686195  1
