# generated using pymatgen
data_LiVCr(P2O7)2
_symmetry_space_group_name_H-M   'P 1'
_cell_length_a   9.72421885
_cell_length_b   16.85099250
_cell_length_c   7.16449836
_cell_angle_alpha   83.86055610
_cell_angle_beta   68.04816099
_cell_angle_gamma   73.29373327
_symmetry_Int_Tables_number   1
_chemical_formula_structural   LiVCr(P2O7)2
_chemical_formula_sum   'Li4 V4 Cr4 P16 O56'
_cell_volume   1042.91731263
_cell_formula_units_Z   4
loop_
 _symmetry_equiv_pos_site_id
 _symmetry_equiv_pos_as_xyz
  1  'x, y, z'
loop_
 _atom_site_type_symbol
 _atom_site_label
 _atom_site_symmetry_multiplicity
 _atom_site_fract_x
 _atom_site_fract_y
 _atom_site_fract_z
 _atom_site_occupancy
  Li  Li0  1  0.03400720  0.43195590  0.67543974  1
  Li  Li1  1  0.40901585  0.68126463  0.32793472  1
  Li  Li2  1  0.65714183  0.18171284  0.32807118  1
  Li  Li3  1  0.78426110  0.93182837  0.67627651  1
  V  V4  1  0.12146050  0.24741865  0.72144967  1
  V  V5  1  0.36648425  0.75336735  0.72820075  1
  V  V6  1  0.61513578  0.25385168  0.72963767  1
  V  V7  1  0.87010311  0.74799423  0.72268822  1
  Cr  Cr8  1  0.00436419  0.50309778  0.27178528  1
  Cr  Cr9  1  0.25529612  0.00221419  0.27552549  1
  Cr  Cr10  1  0.50744368  0.49878796  0.27561930  1
  Cr  Cr11  1  0.75692041  0.99959937  0.27182167  1
  P  P12  1  0.14526579  0.59018643  0.52288708  1
  P  P13  1  0.39520670  0.08885750  0.52153955  1
  P  P14  1  0.11990178  0.89183471  0.08519538  1
  P  P15  1  0.36825855  0.39197669  0.08599694  1
  P  P16  1  0.11390100  0.64125958  0.91528498  1
  P  P17  1  0.36357185  0.14079138  0.91437374  1
  P  P18  1  0.14123976  0.84200730  0.47523810  1
  P  P19  1  0.39066034  0.34152787  0.47527193  1
  P  P20  1  0.64549479  0.58833719  0.51867380  1
  P  P21  1  0.89586995  0.08968339  0.51960756  1
  P  P22  1  0.61783519  0.89096664  0.08908850  1
  P  P23  1  0.86923918  0.39090095  0.08843530  1
  P  P24  1  0.61266837  0.64085268  0.91113838  1
  P  P25  1  0.86318264  0.14120307  0.91225352  1
  P  P26  1  0.64326801  0.83829072  0.47807621  1
  P  P27  1  0.89383851  0.33867601  0.47824704  1
  O  O28  1  0.05736357  0.09049948  0.39029098  1
  O  O29  1  0.01412699  0.26900971  0.53081002  1
  O  O30  1  0.01474051  0.16518605  0.85181127  1
  O  O31  1  0.08593183  0.59538919  0.11092377  1
  O  O32  1  0.33622954  0.09526871  0.11005670  1
  O  O33  1  0.19539079  0.41224258  0.14330938  1
  O  O34  1  0.08872992  0.52051495  0.48352344  1
  O  O35  1  0.34250455  0.02061668  0.47507798  1
  O  O36  1  0.03514011  0.67620139  0.51874666  1
  O  O37  1  0.28621855  0.17627346  0.51959429  1
  O  O38  1  0.22529974  0.33772963  0.60831258  1
  O  O39  1  0.23252833  0.21748049  0.90451507  1
  O  O40  1  0.13825426  0.57389986  0.75239160  1
  O  O41  1  0.38990384  0.07381254  0.75098354  1
  O  O42  1  0.16684332  0.82310999  0.24813370  1
  O  O43  1  0.41683786  0.32296783  0.24792819  1
  O  O44  1  0.17558515  0.96698671  0.08581892  1
  O  O45  1  0.42622686  0.46650054  0.08619174  1
  O  O46  1  0.30863533  0.59124294  0.38935584  1
  O  O47  1  0.56018920  0.09102527  0.39111247  1
  O  O48  1  0.15937695  0.92668629  0.48779006  1
  O  O49  1  0.40875810  0.42635531  0.48839315  1
  O  O50  1  0.26464788  0.77031077  0.52133748  1
  O  O51  1  0.51450753  0.27038191  0.52149214  1
  O  O52  1  0.26342856  0.66894744  0.84967280  1
  O  O53  1  0.51328784  0.16923209  0.84922988  1
  O  O54  1  0.20150201  0.84124905  0.88909875  1
  O  O55  1  0.45041759  0.34157467  0.88928718  1
  O  O56  1  0.57712626  0.59868074  0.11516807  1
  O  O57  1  0.82718752  0.09836084  0.11590989  1
  O  O58  1  0.44613194  0.91022062  0.14417680  1
  O  O59  1  0.69718553  0.40936249  0.14270465  1
  O  O60  1  0.59064434  0.51961161  0.47582299  1
  O  O61  1  0.83754409  0.01931958  0.48388507  1
  O  O62  1  0.52921496  0.67411850  0.51744498  1
  O  O63  1  0.77856113  0.17391600  0.51607980  1
  O  O64  1  0.47881312  0.83372757  0.60794968  1
  O  O65  1  0.72951204  0.33302451  0.60796084  1
  O  O66  1  0.48029380  0.71834210  0.91320055  1
  O  O67  1  0.73010776  0.21816359  0.91457974  1
  O  O68  1  0.63473069  0.57428227  0.75300450  1
  O  O69  1  0.88338632  0.07454604  0.75388756  1
  O  O70  1  0.66784308  0.82344156  0.24947250  1
  O  O71  1  0.91791472  0.32367123  0.24981299  1
  O  O72  1  0.67632609  0.96681229  0.08164982  1
  O  O73  1  0.92558079  0.46736014  0.08116760  1
  O  O74  1  0.80850488  0.59023474  0.39276965  1
  O  O75  1  0.66575917  0.92351419  0.49134257  1
  O  O76  1  0.91601375  0.42380554  0.49157073  1
  O  O77  1  0.76401029  0.76910364  0.53073660  1
  O  O78  1  0.76440403  0.66564273  0.85098417  1
  O  O79  1  0.70597434  0.84412091  0.88621548  1
  O  O80  1  0.95665177  0.34391553  0.88618347  1
  O  O81  1  0.94667715  0.91133266  0.14125323  1
  O  O82  1  0.97572491  0.83744475  0.60827297  1
  O  O83  1  0.98246037  0.71744006  0.90510434  1
