# generated using pymatgen
data_LiVFeP2(HO5)2
_symmetry_space_group_name_H-M   'P 1'
_cell_length_a   5.30089279
_cell_length_b   7.44129749
_cell_length_c   5.21653502
_cell_angle_alpha   109.97125380
_cell_angle_beta   97.90830040
_cell_angle_gamma   105.80436047
_symmetry_Int_Tables_number   1
_chemical_formula_structural   LiVFeP2(HO5)2
_chemical_formula_sum   'Li1 V1 Fe1 P2 H2 O10'
_cell_volume   179.93199104
_cell_formula_units_Z   1
loop_
 _symmetry_equiv_pos_site_id
 _symmetry_equiv_pos_as_xyz
  1  'x, y, z'
loop_
 _atom_site_type_symbol
 _atom_site_label
 _atom_site_symmetry_multiplicity
 _atom_site_fract_x
 _atom_site_fract_y
 _atom_site_fract_z
 _atom_site_occupancy
  Li  Li0  1  0.59063678  0.15485916  0.22581700  1
  V  V1  1  0.00274062  0.50424335  0.00126317  1
  Fe  Fe2  1  0.99434291  0.99576585  0.99565562  1
  P  P3  1  0.35607673  0.22943397  0.68230542  1
  P  P4  1  0.64432445  0.77409912  0.32350121  1
  H  H5  1  0.06041552  0.34863055  0.35426131  1
  H  H6  1  0.96445014  0.65719657  0.64834290  1
  O  O7  1  0.02837879  0.71458862  0.85638535  1
  O  O8  1  0.19171679  0.37855993  0.72797533  1
  O  O9  1  0.34176129  0.65024251  0.27890769  1
  O  O10  1  0.25040771  0.07474830  0.37228289  1
  O  O11  1  0.33549990  0.13020752  0.89714815  1
  O  O12  1  0.66885775  0.89136870  0.12964159  1
  O  O13  1  0.76000288  0.92622012  0.63092044  1
  O  O14  1  0.65864906  0.34342473  0.70802444  1
  O  O15  1  0.80214836  0.61992717  0.26416400  1
  O  O16  1  0.95145733  0.28394283  0.15517648  1
