# generated using pymatgen
data_Li12Nb14ZnO42
_symmetry_space_group_name_H-M   'P 1'
_cell_length_a   9.27627202
_cell_length_b   9.06256169
_cell_length_c   9.89635812
_cell_angle_alpha   81.21075211
_cell_angle_beta   103.61680572
_cell_angle_gamma   80.66200458
_symmetry_Int_Tables_number   1
_chemical_formula_structural   Li12Nb14ZnO42
_chemical_formula_sum   'Li12 Nb14 Zn1 O42'
_cell_volume   781.87150147
_cell_formula_units_Z   1
loop_
 _symmetry_equiv_pos_site_id
 _symmetry_equiv_pos_as_xyz
  1  'x, y, z'
loop_
 _atom_site_type_symbol
 _atom_site_label
 _atom_site_symmetry_multiplicity
 _atom_site_fract_x
 _atom_site_fract_y
 _atom_site_fract_z
 _atom_site_occupancy
  Li  Li0  1  0.83418041  0.61349858  0.49676119  1
  Li  Li1  1  0.90553570  0.96874876  0.28286901  1
  Li  Li2  1  0.97655631  0.32603305  0.06796776  1
  Li  Li3  1  0.69252250  0.89574278  0.92573122  1
  Li  Li4  1  0.54780218  0.18253007  0.35290337  1
  Li  Li5  1  0.40589297  0.46895593  0.78303300  1
  Li  Li6  1  0.62071916  0.54023169  0.13906540  1
  Li  Li7  1  0.33350293  0.11171265  0.99676207  1
  Li  Li8  1  0.47720566  0.82498083  0.56865473  1
  Li  Li9  1  0.19160798  0.39621655  0.42545252  1
  Li  Li10  1  0.04743885  0.68426904  0.85412855  1
  Li  Li11  1  0.26271845  0.75449140  0.21136509  1
  Nb  Nb12  1  0.92875014  0.64225736  0.21365809  1
  Nb  Nb13  1  0.85222997  0.28936587  0.42776632  1
  Nb  Nb14  1  0.71596205  0.57030149  0.85567432  1
  Nb  Nb15  1  0.77982896  0.93533224  0.64159255  1
  Nb  Nb16  1  0.64350500  0.21422338  0.07027700  1
  Nb  Nb17  1  0.50587784  0.49880358  0.50094319  1
  Nb  Nb18  1  0.35864764  0.78172282  0.93127067  1
  Nb  Nb19  1  0.43283685  0.14771682  0.71702724  1
  Nb  Nb20  1  0.57205761  0.85654470  0.28620696  1
  Nb  Nb21  1  0.14244741  0.70832870  0.57120688  1
  Nb  Nb22  1  0.06821262  0.35630187  0.78687455  1
  Nb  Nb23  1  0.28626042  0.42771470  0.14365188  1
  Nb  Nb24  1  0.21440007  0.07131963  0.35543124  1
  Nb  Nb25  1  0.99821083  -0.00005817  0.99807233  1
  Zn  Zn26  1  0.12104933  0.03789148  0.64100177  1
  O  O27  1  0.99539254  0.87393596  0.65399677  1
  O  O28  1  0.99638833  0.24211702  0.64736119  1
  O  O29  1  0.99539720  0.11950723  0.40494725  1
  O  O30  1  0.85931906  0.40942722  0.83564235  1
  O  O31  1  0.98718739  0.74577015  0.39926446  1
  O  O32  1  0.84690109  0.02159124  0.83024153  1
  O  O33  1  0.81216621  0.73253016  0.81035788  1
  O  O34  1  0.95557075  0.44757503  0.38238631  1
  O  O35  1  0.74058721  0.12467884  0.51815824  1
  O  O36  1  0.59773674  0.41180153  0.95466812  1
  O  O37  1  0.88432924  0.84056629  0.09856084  1
  O  O38  1  0.71192117  0.44536113  0.50362580  1
  O  O39  1  0.85253085  0.15473465  0.08206716  1
  O  O40  1  0.56650125  0.72722373  0.93855753  1
  O  O41  1  0.55756623  0.10160009  0.93419262  1
  O  O42  1  0.70228443  0.81743543  0.50709876  1
  O  O43  1  0.84403261  0.53125309  0.07797322  1
  O  O44  1  0.56663630  0.97712170  0.68803940  1
  O  O45  1  0.70937972  0.69044510  0.25978932  1
  O  O46  1  0.70184904  0.31758671  0.25431820  1
  O  O47  1  0.55829446  0.60222364  0.68360231  1
  O  O48  1  0.51870266  0.31050205  0.66487824  1
  O  O49  1  0.66946854  0.01933779  0.23926396  1
  O  O50  1  0.45547707  0.69784535  0.38352945  1
  O  O51  1  0.30777621  0.98273005  0.81028322  1
  O  O52  1  0.27955923  0.29727608  0.79639731  1
  O  O53  1  0.42360054  0.01273414  0.36716826  1
  O  O54  1  0.41773030  0.38856142  0.36425978  1
  O  O55  1  0.27359077  0.67413957  0.79226949  1
  O  O56  1  0.27970360  0.54781393  0.54329196  1
  O  O57  1  0.42391542  0.26188563  0.11704314  1
  O  O58  1  0.13862513  0.83328346  0.97498267  1
  O  O59  1  0.13340037  0.46078368  0.97082565  1
  O  O60  1  0.27265687  0.17223499  0.54423739  1
  O  O61  1  0.41679743  0.88898083  0.11342282  1
  O  O62  1  0.09863376  0.16259906  0.95392690  1
  O  O63  1  0.38509319  0.59094665  0.09753777  1
  O  O64  1  0.24007622  0.87651814  0.52810988  1
  O  O65  1  0.16921128  0.26975008  0.23955969  1
  O  O66  1  0.02664069  0.55592325  0.66870777  1
  O  O67  1  0.13824613  0.58346158  0.22418987  1
  O  O68  1  0.13128292  0.95906552  0.22155762  1
