# generated using pymatgen
data_SrLiLa3MnO8
_symmetry_space_group_name_H-M   'P 1'
_cell_length_a   5.43570744
_cell_length_b   6.90485662
_cell_length_c   10.88719669
_cell_angle_alpha   90.00000000
_cell_angle_beta   90.00000000
_cell_angle_gamma   113.17961036
_symmetry_Int_Tables_number   1
_chemical_formula_structural   SrLiLa3MnO8
_chemical_formula_sum   'Sr2 Li2 La6 Mn2 O16'
_cell_volume   375.64056109
_cell_formula_units_Z   2
loop_
 _symmetry_equiv_pos_site_id
 _symmetry_equiv_pos_as_xyz
  1  'x, y, z'
loop_
 _atom_site_type_symbol
 _atom_site_label
 _atom_site_symmetry_multiplicity
 _atom_site_fract_x
 _atom_site_fract_y
 _atom_site_fract_z
 _atom_site_occupancy
  Sr  Sr0  1  0.63996382  0.27992863  0.00000000  1
  Sr  Sr1  1  0.36003618  0.72007137  0.50000000  1
  Li  Li2  1  0.50000000  0.00000000  0.25000000  1
  Li  Li3  1  0.50000000  0.00000000  0.75000000  1
  La  La4  1  0.86230206  0.72460413  0.25236669  1
  La  La5  1  0.36500710  0.73001420  0.00000000  1
  La  La6  1  0.13769794  0.27539587  0.24763331  1
  La  La7  1  0.63499290  0.26998580  0.50000000  1
  La  La8  1  0.86230206  0.72460413  0.74763331  1
  La  La9  1  0.13769794  0.27539587  0.75236669  1
  Mn  Mn10  1  0.00056666  0.00113332  0.00000000  1
  Mn  Mn11  1  0.99943334  0.99886668  0.50000000  1
  O  O12  1  0.75424453  0.99736829  0.12235735  1
  O  O13  1  0.84131201  0.68262401  0.00000000  1
  O  O14  1  0.68287652  0.36575405  0.26414147  1
  O  O15  1  0.75687624  0.00263171  0.37764265  1
  O  O16  1  0.16187527  0.32375054  0.00000000  1
  O  O17  1  0.24312376  0.99736829  0.12235735  1
  O  O18  1  0.24575547  0.00263171  0.37764265  1
  O  O19  1  0.31712348  0.63424595  0.23585853  1
  O  O20  1  0.83812473  0.67624946  0.50000000  1
  O  O21  1  0.75687624  0.00263171  0.62235735  1
  O  O22  1  0.68287652  0.36575405  0.73585953  1
  O  O23  1  0.15868799  0.31737599  0.50000000  1
  O  O24  1  0.24575547  0.00263171  0.62235735  1
  O  O25  1  0.75424453  0.99736829  0.87764265  1
  O  O26  1  0.31712348  0.63424595  0.76414047  1
  O  O27  1  0.24312376  0.99736829  0.87764265  1
