# generated using pymatgen
data_Na3CuPCO7
_symmetry_space_group_name_H-M   'P 1'
_cell_length_a   5.29019459
_cell_length_b   6.51904867
_cell_length_c   9.05636860
_cell_angle_alpha   90.00000000
_cell_angle_beta   93.33923559
_cell_angle_gamma   90.00000000
_symmetry_Int_Tables_number   1
_chemical_formula_structural   Na3CuPCO7
_chemical_formula_sum   'Na6 Cu2 P2 C2 O14'
_cell_volume   311.79702930
_cell_formula_units_Z   2
loop_
 _symmetry_equiv_pos_site_id
 _symmetry_equiv_pos_as_xyz
  1  'x, y, z'
loop_
 _atom_site_type_symbol
 _atom_site_label
 _atom_site_symmetry_multiplicity
 _atom_site_fract_x
 _atom_site_fract_y
 _atom_site_fract_z
 _atom_site_occupancy
  Na  Na0  1  0.75745584  0.50563591  0.27353235  1
  Na  Na1  1  0.24254416  0.00563591  0.72646765  1
  Na  Na2  1  0.24254416  0.49436409  0.72646765  1
  Na  Na3  1  0.75745584  0.99436409  0.27353235  1
  Na  Na4  1  0.78303531  0.25000000  0.91614671  1
  Na  Na5  1  0.21696469  0.75000000  0.08385329  1
  Cu  Cu6  1  0.75904327  0.75000000  0.65312493  1
  Cu  Cu7  1  0.24095673  0.25000000  0.34687507  1
  P  P8  1  0.69265182  0.25000000  0.58130479  1
  P  P9  1  0.30734818  0.75000000  0.41869521  1
  C  C10  1  0.70852243  0.75000000  0.94751411  1
  C  C11  1  0.29147757  0.25000000  0.05248589  1
  O  O12  1  0.90379485  0.75000000  0.86397980  1
  O  O13  1  0.09620515  0.25000000  0.13602020  1
  O  O14  1  0.48187007  0.75000000  0.88727635  1
  O  O15  1  0.51812993  0.25000000  0.11272365  1
  O  O16  1  0.75375495  0.75000000  0.08920706  1
  O  O17  1  0.24624505  0.25000000  0.91079294  1
  O  O18  1  0.76078604  0.06135557  0.68296024  1
  O  O19  1  0.23921396  0.56135557  0.31703976  1
  O  O20  1  0.23921396  0.93864443  0.31703976  1
  O  O21  1  0.76078604  0.43864443  0.68296024  1
  O  O22  1  0.83084718  0.25000000  0.43812158  1
  O  O23  1  0.16915282  0.75000000  0.56187842  1
  O  O24  1  0.60291335  0.75000000  0.45248905  1
  O  O25  1  0.39708665  0.25000000  0.54751095  1
