# generated using pymatgen
data_HoInO3
_symmetry_space_group_name_H-M   'P 1'
_cell_length_a   6.33981129
_cell_length_b   6.33971645
_cell_length_c   12.33347328
_cell_angle_alpha   89.99950447
_cell_angle_beta   90.00077802
_cell_angle_gamma   120.00013131
_symmetry_Int_Tables_number   1
_chemical_formula_structural   HoInO3
_chemical_formula_sum   'Ho6 In6 O18'
_cell_volume   429.30072250
_cell_formula_units_Z   6
loop_
 _symmetry_equiv_pos_site_id
 _symmetry_equiv_pos_as_xyz
  1  'x, y, z'
loop_
 _atom_site_type_symbol
 _atom_site_label
 _atom_site_symmetry_multiplicity
 _atom_site_fract_x
 _atom_site_fract_y
 _atom_site_fract_z
 _atom_site_occupancy
  Ho  Ho0  1  0.33333314  0.66666492  0.23022263  1
  Ho  Ho1  1  0.99999453  -0.00000356  0.26559625  1
  Ho  Ho2  1  -0.00000154  0.00001642  0.76560039  1
  Ho  Ho3  1  0.33333434  0.66667959  0.73022836  1
  Ho  Ho4  1  0.66667461  0.33334430  0.73021901  1
  Ho  Ho5  1  0.66664898  0.33331962  0.23022121  1
  In  In6  1  0.99994430  0.66672291  0.49592473  1
  In  In7  1  0.00003610  0.33327345  0.99593122  1
  In  In8  1  0.33324156  0.33336333  0.49589118  1
  In  In9  1  0.66673974  0.66663180  0.99588951  1
  In  In10  1  0.33329801  0.00007911  0.99589577  1
  In  In11  1  0.66668006  0.99991481  0.49589731  1
  O  O12  1  0.99999029  0.69478947  0.66875532  1
  O  O13  1  0.00000320  0.63633723  0.32534554  1
  O  O14  1  0.00000206  0.36366082  0.82534894  1
  O  O15  1  0.99999104  0.30521390  0.16875809  1
  O  O16  1  0.33335514  0.66667049  0.02768704  1
  O  O17  1  0.99997439  0.99999846  0.45987771  1
  O  O18  1  0.00000326  0.00000403  0.95987766  1
  O  O19  1  0.33331161  0.66667392  0.52768337  1
  O  O20  1  0.30518993  0.30521125  0.66875187  1
  O  O21  1  0.36365199  0.36364577  0.32533849  1
  O  O22  1  0.30519383  0.99999626  0.16875163  1
  O  O23  1  0.63635399  0.63634607  0.82533993  1
  O  O24  1  0.69479453  0.69479811  0.16875168  1
  O  O25  1  0.36365197  0.00000540  0.82534246  1
  O  O26  1  0.66662391  0.33332576  0.52768579  1
  O  O27  1  0.66666525  0.33331645  0.02769144  1
  O  O28  1  0.63634018  0.00000205  0.32533891  1
  O  O29  1  0.69477960  -0.00000212  0.66875154  1
