# generated using pymatgen
data_Na5Mn2P2(CO7)2
_symmetry_space_group_name_H-M   'P 1'
_cell_length_a   9.07438862
_cell_length_b   6.63488417
_cell_length_c   10.52729804
_cell_angle_alpha   89.75323663
_cell_angle_beta   89.09455313
_cell_angle_gamma   90.30310806
_symmetry_Int_Tables_number   1
_chemical_formula_structural   Na5Mn2P2(CO7)2
_chemical_formula_sum   'Na10 Mn4 P4 C4 O28'
_cell_volume   633.72836063
_cell_formula_units_Z   2
loop_
 _symmetry_equiv_pos_site_id
 _symmetry_equiv_pos_as_xyz
  1  'x, y, z'
loop_
 _atom_site_type_symbol
 _atom_site_label
 _atom_site_symmetry_multiplicity
 _atom_site_fract_x
 _atom_site_fract_y
 _atom_site_fract_z
 _atom_site_occupancy
  Na  Na0  1  0.07069546  0.25928963  0.38076466  1
  Na  Na1  1  0.25567035  0.00587876  0.63128752  1
  Na  Na2  1  0.25536488  0.49328826  0.63323235  1
  Na  Na3  1  0.25274839  0.00771120  0.11570217  1
  Na  Na4  1  0.25354082  0.49201520  0.11439243  1
  Na  Na5  1  0.75125650  0.49801122  0.87392227  1
  Na  Na6  1  0.75195646  0.00492087  0.87664689  1
  Na  Na7  1  0.73729165  0.98779728  0.37648812  1
  Na  Na8  1  0.91631889  0.74055192  0.61110170  1
  Na  Na9  1  0.91678232  0.74068392  0.12469705  1
  Mn  Mn10  1  0.35653774  0.75160403  0.88876356  1
  Mn  Mn11  1  0.35665067  0.74813831  0.38968615  1
  Mn  Mn12  1  0.64786663  0.25647035  0.60414653  1
  Mn  Mn13  1  0.64828905  0.25462246  0.11679502  1
  P  P14  1  0.42516784  0.25109589  0.85109238  1
  P  P15  1  0.41809169  0.24797342  0.35142432  1
  P  P16  1  0.58202949  0.75183716  0.65217192  1
  P  P17  1  0.57866541  0.75190413  0.14837078  1
  C  C18  1  0.06338976  0.75020544  0.86503381  1
  C  C19  1  0.06575801  0.75320584  0.36446494  1
  C  C20  1  0.93376472  0.24671931  0.63443493  1
  C  C21  1  0.93392560  0.24619343  0.13900748  1
  O  O22  1  0.07469023  0.24835452  0.62730891  1
  O  O23  1  0.07518412  0.25024824  0.14253601  1
  O  O24  1  0.13044281  0.74940355  0.97426671  1
  O  O25  1  0.13394042  0.74652835  0.47379909  1
  O  O26  1  0.14416350  0.74963844  0.76166178  1
  O  O27  1  0.14625870  0.74536898  0.26053029  1
  O  O28  1  0.33128315  0.06302281  0.88690457  1
  O  O29  1  0.33312899  0.43938615  0.88648685  1
  O  O30  1  0.31836673  0.06384661  0.38491649  1
  O  O31  1  0.32363023  0.43331874  0.38801392  1
  O  O32  1  0.45131908  0.25123171  0.70142792  1
  O  O33  1  0.43072696  0.74824636  0.58650801  1
  O  O34  1  0.44578958  0.25076412  0.20304178  1
  O  O35  1  0.42749522  0.75135862  0.08242369  1
  O  O36  1  0.57543998  0.25083534  0.91768689  1
  O  O37  1  0.55811534  0.75900012  0.79950391  1
  O  O38  1  0.56646018  0.24069710  0.41857458  1
  O  O39  1  0.55271110  0.75743949  0.29351864  1
  O  O40  1  0.67848271  0.56446942  0.62235718  1
  O  O41  1  0.67756872  0.93784561  0.61115850  1
  O  O42  1  0.67379478  0.56722189  0.10801655  1
  O  O43  1  0.67598474  0.93765304  0.10888781  1
  O  O44  1  0.85581763  0.25075822  0.73752408  1
  O  O45  1  0.85401428  0.23365263  0.24165160  1
  O  O46  1  0.85936767  0.24308124  0.52683320  1
  O  O47  1  0.86293233  0.25713972  0.03122772  1
  O  O48  1  0.92203049  0.75139304  0.86101103  1
  O  O49  1  0.92582099  0.76588093  0.36217031  1
