# generated using pymatgen
data_NaMnPCO7
_symmetry_space_group_name_H-M   'P 1'
_cell_length_a   10.43862361
_cell_length_b   6.24364632
_cell_length_c   10.61204262
_cell_angle_alpha   90.00000000
_cell_angle_beta   121.41305202
_cell_angle_gamma   90.00000000
_symmetry_Int_Tables_number   1
_chemical_formula_structural   NaMnPCO7
_chemical_formula_sum   'Na4 Mn4 P4 C4 O28'
_cell_volume   590.26833471
_cell_formula_units_Z   4
loop_
 _symmetry_equiv_pos_site_id
 _symmetry_equiv_pos_as_xyz
  1  'x, y, z'
loop_
 _atom_site_type_symbol
 _atom_site_label
 _atom_site_symmetry_multiplicity
 _atom_site_fract_x
 _atom_site_fract_y
 _atom_site_fract_z
 _atom_site_occupancy
  Na  Na0  1  0.99701568  0.02988661  0.24087114  1
  Na  Na1  1  0.49701568  0.47011339  0.24087114  1
  Na  Na2  1  0.50298432  0.97011339  0.75912886  1
  Na  Na3  1  0.00298432  0.52988661  0.75912886  1
  Mn  Mn4  1  0.27949245  0.74763048  0.34169968  1
  Mn  Mn5  1  0.77949245  0.75236952  0.34169968  1
  Mn  Mn6  1  0.22050755  0.25236952  0.65830032  1
  Mn  Mn7  1  0.72050755  0.24763048  0.65830032  1
  P  P8  1  0.35730180  0.25023643  0.43286439  1
  P  P9  1  0.85730180  0.24976357  0.43286439  1
  P  P10  1  0.14269820  0.74976357  0.56713561  1
  P  P11  1  0.64269820  0.75023643  0.56713561  1
  C  C12  1  0.17367714  0.75921887  0.07676238  1
  C  C13  1  0.67367714  0.74078113  0.07676238  1
  C  C14  1  0.32632286  0.24078113  0.92323762  1
  C  C15  1  0.82632286  0.25921887  0.92323762  1
  O  O16  1  0.37819124  0.23655872  0.05741728  1
  O  O17  1  0.87819124  0.26344128  0.05741728  1
  O  O18  1  0.09410276  0.75990649  0.14133423  1
  O  O19  1  0.59410276  0.74009351  0.14133423  1
  O  O20  1  0.31964516  0.75118694  0.17857403  1
  O  O21  1  0.81964516  0.74881306  0.17857403  1
  O  O22  1  0.26957006  0.05664608  0.33269406  1
  O  O23  1  0.27840036  0.44244212  0.32808449  1
  O  O24  1  0.77840036  0.05755788  0.32808449  1
  O  O25  1  0.76957006  0.44335392  0.33269406  1
  O  O26  1  0.02438951  0.25081905  0.47561625  1
  O  O27  1  0.14890009  0.74884268  0.42584570  1
  O  O28  1  0.52438951  0.24918095  0.47561625  1
  O  O29  1  0.64890009  0.75115732  0.42584570  1
  O  O30  1  0.35109991  0.25115732  0.57415430  1
  O  O31  1  0.47561049  0.74918095  0.52438375  1
  O  O32  1  0.85109991  0.24884268  0.57415430  1
  O  O33  1  0.97561049  0.75081905  0.52438375  1
  O  O34  1  0.22159964  0.55755788  0.67191551  1
  O  O35  1  0.23042994  0.94335392  0.66730594  1
  O  O36  1  0.73042994  0.55664608  0.66730594  1
  O  O37  1  0.72159964  0.94244212  0.67191551  1
  O  O38  1  0.18035484  0.24881306  0.82142597  1
  O  O39  1  0.68035484  0.25118694  0.82142597  1
  O  O40  1  0.40589724  0.24009351  0.85866577  1
  O  O41  1  0.90589724  0.25990649  0.85866577  1
  O  O42  1  0.12180876  0.76344128  0.94258272  1
  O  O43  1  0.62180876  0.73655872  0.94258272  1
