# generated using pymatgen
data_Na3SrPCO7
_symmetry_space_group_name_H-M   'P 1'
_cell_length_a   9.41329939
_cell_length_b   7.31761217
_cell_length_c   5.24345240
_cell_angle_alpha   90.00000000
_cell_angle_beta   89.55181701
_cell_angle_gamma   90.00000000
_symmetry_Int_Tables_number   1
_chemical_formula_structural   Na3SrPCO7
_chemical_formula_sum   'Na6 Sr2 P2 C2 O14'
_cell_volume   361.17302213
_cell_formula_units_Z   2
loop_
 _symmetry_equiv_pos_site_id
 _symmetry_equiv_pos_as_xyz
  1  'x, y, z'
loop_
 _atom_site_type_symbol
 _atom_site_label
 _atom_site_symmetry_multiplicity
 _atom_site_fract_x
 _atom_site_fract_y
 _atom_site_fract_z
 _atom_site_occupancy
  Na  Na0  1  0.08282773  0.25000000  0.75888360  1
  Na  Na1  1  0.24958713  0.01224873  0.23800952  1
  Na  Na2  1  0.24958713  0.48775127  0.23800952  1
  Na  Na3  1  0.75041287  0.51224873  0.76199048  1
  Na  Na4  1  0.75041287  0.98775127  0.76199048  1
  Na  Na5  1  0.91717227  0.75000000  0.24111640  1
  Sr  Sr6  1  0.36889336  0.75000000  0.76083401  1
  Sr  Sr7  1  0.63110664  0.25000000  0.23916599  1
  P  P8  1  0.39969015  0.25000000  0.70063189  1
  P  P9  1  0.60030985  0.75000000  0.29936811  1
  C  C10  1  0.05190183  0.75000000  0.73325427  1
  C  C11  1  0.94809817  0.25000000  0.26674573  1
  O  O12  1  0.08605679  0.25000000  0.28317070  1
  O  O13  1  0.11193314  0.75000000  0.95682015  1
  O  O14  1  0.12918912  0.75000000  0.52511421  1
  O  O15  1  0.32172631  0.07919127  0.80986587  1
  O  O16  1  0.32172631  0.42080873  0.80986587  1
  O  O17  1  0.38859790  0.25000000  0.40431541  1
  O  O18  1  0.43700345  0.75000000  0.23616271  1
  O  O19  1  0.56299655  0.25000000  0.76383729  1
  O  O20  1  0.61140210  0.75000000  0.59568459  1
  O  O21  1  0.67827369  0.57919127  0.19013413  1
  O  O22  1  0.67827369  0.92080873  0.19013413  1
  O  O23  1  0.87081088  0.25000000  0.47488579  1
  O  O24  1  0.88806686  0.25000000  0.04317985  1
  O  O25  1  0.91394321  0.75000000  0.71682930  1
