# generated using pymatgen
data_Si3Sb2O9
_symmetry_space_group_name_H-M   'P 1'
_cell_length_a   6.98095071
_cell_length_b   6.98093385
_cell_length_c   9.48286455
_cell_angle_alpha   89.99979906
_cell_angle_beta   90.00011922
_cell_angle_gamma   119.99962185
_symmetry_Int_Tables_number   1
_chemical_formula_structural   Si3Sb2O9
_chemical_formula_sum   'Si6 Sb4 O18'
_cell_volume   400.22105087
_cell_formula_units_Z   2
loop_
 _symmetry_equiv_pos_site_id
 _symmetry_equiv_pos_as_xyz
  1  'x, y, z'
loop_
 _atom_site_type_symbol
 _atom_site_label
 _atom_site_symmetry_multiplicity
 _atom_site_fract_x
 _atom_site_fract_y
 _atom_site_fract_z
 _atom_site_occupancy
  Si  Si0  1  0.20541720  0.92798843  0.24999402  1
  Si  Si1  1  0.07202096  0.27742205  0.25000190  1
  Si  Si2  1  0.27741930  0.20540251  0.75000368  1
  Si  Si3  1  0.72258666  0.79459829  0.25000111  1
  Si  Si4  1  0.92798565  0.72257472  0.75000271  1
  Si  Si5  1  0.79459678  0.07201421  0.74999466  1
  Sb  Sb6  1  0.33334179  0.66666111  0.99074688  1
  Sb  Sb7  1  0.33332912  0.66666664  0.50924757  1
  Sb  Sb8  1  0.66666175  0.33334366  0.49075249  1
  Sb  Sb9  1  0.66666851  0.33331780  0.00925341  1
  O  O10  1  0.18188763  0.93677234  0.75000015  1
  O  O11  1  0.32255707  0.90379080  0.10720197  1
  O  O12  1  0.32255862  0.90378884  0.39278502  1
  O  O13  1  0.09622533  0.41876416  0.10720945  1
  O  O14  1  0.09620636  0.41875693  0.39279324  1
  O  O15  1  0.06322675  0.24511419  0.75000255  1
  O  O16  1  0.24512237  0.18189139  0.25000137  1
  O  O17  1  0.58125285  0.67746027  0.10720655  1
  O  O18  1  0.58125022  0.67745934  0.39279558  1
  O  O19  1  0.41875053  0.32255034  0.60720882  1
  O  O20  1  0.41875738  0.32253322  0.89279752  1
  O  O21  1  0.75488750  0.81810694  0.74999401  1
  O  O22  1  0.93678378  0.75489151  0.25000094  1
  O  O23  1  0.90379384  0.58124257  0.60720994  1
  O  O24  1  0.90378801  0.58123586  0.89279462  1
  O  O25  1  0.67744710  0.09621864  0.60721030  1
  O  O26  1  0.67746165  0.09620666  0.89279148  1
  O  O27  1  0.81811729  0.06322958  0.25000007  1
