# generated using pymatgen
data_MgCr3(SO4)6
_symmetry_space_group_name_H-M   'P 1'
_cell_length_a   8.33311481
_cell_length_b   8.87223086
_cell_length_c   8.33311486
_cell_angle_alpha   118.00949328
_cell_angle_beta   59.99999333
_cell_angle_gamma   118.00949111
_symmetry_Int_Tables_number   1
_chemical_formula_structural   MgCr3(SO4)6
_chemical_formula_sum   'Mg1 Cr3 S6 O24'
_cell_volume   448.29484849
_cell_formula_units_Z   1
loop_
 _symmetry_equiv_pos_site_id
 _symmetry_equiv_pos_as_xyz
  1  'x, y, z'
loop_
 _atom_site_type_symbol
 _atom_site_label
 _atom_site_symmetry_multiplicity
 _atom_site_fract_x
 _atom_site_fract_y
 _atom_site_fract_z
 _atom_site_occupancy
  Mg  Mg0  1  0.14736033  0.44208199  0.14736033  1
  Cr  Cr1  1  0.35522025  0.06566076  0.35522025  1
  Cr  Cr2  1  0.64391785  0.93175355  0.64391785  1
  Cr  Cr3  1  0.84997504  0.54992513  0.84997504  1
  S  S4  1  0.03844020  0.25039024  0.46719925  1
  S  S5  1  0.53923305  0.74873284  0.25266471  1
  S  S6  1  0.25266471  0.74873284  0.95683608  1
  S  S7  1  0.74475079  0.25039024  0.03844020  1
  S  S8  1  0.46719925  0.25039024  0.74475079  1
  S  S9  1  0.95683608  0.74873284  0.53923305  1
  O  O10  1  0.29719581  0.92276707  0.10804722  1
  O  O11  1  0.10804722  0.92276707  0.51752504  1
  O  O12  1  0.01317273  0.29239278  0.33367933  1
  O  O13  1  0.02174563  0.39467474  0.65958187  1
  O  O14  1  0.35268922  0.60645259  0.28110973  1
  O  O15  1  0.04769660  0.70650189  0.98153932  1
  O  O16  1  0.51752504  0.92276707  0.29719581  1
  O  O17  1  0.23518790  0.23308783  0.38669340  1
  O  O18  1  0.67726597  0.70650189  0.04769660  1
  O  O19  1  0.38144373  0.77175584  0.76064126  1
  O  O20  1  0.62966985  0.77175584  0.38144373  1
  O  O21  1  0.28110973  0.60645259  0.97265364  1
  O  O22  1  0.71334825  0.39467474  0.02174563  1
  O  O23  1  0.38669340  0.23308783  0.61120653  1
  O  O24  1  0.61120653  0.23308783  0.23518790  1
  O  O25  1  0.33367933  0.29239278  0.94554072  1
  O  O26  1  0.76064126  0.77175584  0.62966985  1
  O  O27  1  0.49535374  0.07676872  0.68904747  1
  O  O28  1  0.94554072  0.29239278  0.01317273  1
  O  O29  1  0.65958187  0.39467474  0.71334825  1
  O  O30  1  0.97265364  0.60645259  0.35268922  1
  O  O31  1  0.98153932  0.70650189  0.67726597  1
  O  O32  1  0.89236651  0.07676872  0.49535374  1
  O  O33  1  0.68904747  0.07676872  0.89236651  1
