# generated using pymatgen
data_Li24Mn7Cr5O36
_symmetry_space_group_name_H-M   'P 1'
_cell_length_a   5.00553720
_cell_length_b   13.29154299
_cell_length_c   9.73957960
_cell_angle_alpha   97.05708155
_cell_angle_beta   94.65673125
_cell_angle_gamma   100.34136215
_symmetry_Int_Tables_number   1
_chemical_formula_structural   Li24Mn7Cr5O36
_chemical_formula_sum   'Li24 Mn7 Cr5 O36'
_cell_volume   629.08460212
_cell_formula_units_Z   1
loop_
 _symmetry_equiv_pos_site_id
 _symmetry_equiv_pos_as_xyz
  1  'x, y, z'
loop_
 _atom_site_type_symbol
 _atom_site_label
 _atom_site_symmetry_multiplicity
 _atom_site_fract_x
 _atom_site_fract_y
 _atom_site_fract_z
 _atom_site_occupancy
  Li  Li0  1  0.83535566  0.16649574  0.00005421  1
  Li  Li1  1  0.94905557  0.38709642  0.99978934  1
  Li  Li2  1  0.00027228  0.74950946  0.25046088  1
  Li  Li3  1  0.66916862  0.08261183  0.24964053  1
  Li  Li4  1  0.94900737  0.88671221  0.50009343  1
  Li  Li5  1  0.61732977  0.22141272  0.50031510  1
  Li  Li6  1  0.83595387  0.66658299  0.49946628  1
  Li  Li7  1  0.50053366  0.99965255  0.50014081  1
  Li  Li8  1  0.71257481  0.44598224  0.49943110  1
  Li  Li9  1  0.66984397  0.58233381  0.74996870  1
  Li  Li10  1  0.50178818  0.49984324  0.00032413  1
  Li  Li11  1  0.71626307  0.94633119  0.00130181  1
  Li  Li12  1  0.38118361  0.28045896  0.00069513  1
  Li  Li13  1  0.61773315  0.72106938  0.00038232  1
  Li  Li14  1  0.28224554  0.05398402  0.99900105  1
  Li  Li15  1  0.33651347  0.41586916  0.24987818  1
  Li  Li16  1  0.28412492  0.55476236  0.50021834  1
  Li  Li17  1  0.16863219  0.33309473  0.49978249  1
  Li  Li18  1  0.38064985  0.77889680  0.49835669  1
  Li  Li19  1  0.04748397  0.11359654  0.50042156  1
  Li  Li20  1  0.33655159  0.91567060  0.74993337  1
  Li  Li21  1  0.16774513  0.83295641  0.00008751  1
  Li  Li22  1  0.00338647  0.24906035  0.75001897  1
  Li  Li23  1  0.04580593  0.61296686  -0.00003956  1
  Mn  Mn24  1  0.77628243  0.30596634  0.24993676  1
  Mn  Mn25  1  0.77626328  0.80593082  0.75007691  1
  Mn  Mn26  1  0.44279128  0.13931731  0.74975670  1
  Mn  Mn27  1  0.55563167  0.86099477  0.25018586  1
  Mn  Mn28  1  0.44611288  0.64041309  0.25140585  1
  Mn  Mn29  1  0.10948267  0.47262676  0.75003073  1
  Mn  Mn30  1  0.10752981  0.97117726  0.24867565  1
  Cr  Cr31  1  0.89362488  0.02642798  0.75006450  1
  Cr  Cr32  1  0.89565968  0.52659132  0.24962912  1
  Cr  Cr33  1  0.56049051  0.35978615  0.75007682  1
  Cr  Cr34  1  0.22734038  0.19256534  0.25018115  1
  Cr  Cr35  1  0.22752045  0.69323722  0.74993742  1
  O  O36  1  0.99638015  0.06846671  0.13642739  1
  O  O37  1  0.93050667  0.21543849  0.36364483  1
  O  O38  1  0.99640786  0.56890226  0.63656132  1
  O  O39  1  0.85384794  0.35809077  0.63891379  1
  O  O40  1  0.73510140  0.11799012  0.63592188  1
  O  O41  1  0.66315241  0.40222516  0.13651442  1
  O  O42  1  0.93055876  0.71568218  0.86384477  1
  O  O43  1  0.81496114  0.47816989  0.86371208  1
  O  O44  1  0.59742200  0.04917010  0.86362697  1
  O  O45  1  0.85730880  0.85663482  0.13870575  1
  O  O46  1  0.73507859  0.61773959  0.13604841  1
  O  O47  1  0.52052667  0.19135259  0.13891646  1
  O  O48  1  0.66305017  0.26256397  0.86099756  1
  O  O49  1  0.80843285  0.97600142  0.36168906  1
  O  O50  1  0.59744911  0.54934319  0.36359518  1
  O  O51  1  0.48162318  0.31149795  0.36364349  1
  O  O52  1  0.66801940  0.76230126  0.36139693  1
  O  O53  1  0.32809071  0.09514309  0.36100945  1
  O  O54  1  0.66334890  0.90247538  0.63675585  1
  O  O55  1  0.32944908  0.23552455  0.63641941  1
  O  O56  1  0.52078469  0.69152459  0.63897407  1
  O  O57  1  0.40176908  0.45133968  0.63635897  1
  O  O58  1  0.18686585  0.02468259  0.63843095  1
  O  O59  1  0.33389896  0.73870074  0.13855023  1
  O  O60  1  0.48140036  0.81151403  0.86351448  1
  O  O61  1  0.26384966  0.38238894  0.86371844  1
  O  O62  1  0.14819285  0.14484445  0.86349246  1
  O  O63  1  0.40307051  0.95180633  0.13639535  1
  O  O64  1  0.18831116  0.52576303  0.13879601  1
  O  O65  1  0.06862388  0.28467084  0.13633943  1
  O  O66  1  0.32965875  0.59611294  0.86137816  1
  O  O67  1  0.26349393  0.88181796  0.36388614  1
  O  O68  1  0.14936251  0.64483526  0.36359756  1
  O  O69  1  0.99654586  0.42932310  0.36096552  1
  O  O70  1  0.06836348  0.78462705  0.63644573  1
  O  O71  1  0.99715711  0.92934801  0.86113369  1
