# generated using pymatgen
data_Li24Mn7Cr5O36
_symmetry_space_group_name_H-M   'P 1'
_cell_length_a   5.01335824
_cell_length_b   13.27801441
_cell_length_c   9.74703141
_cell_angle_alpha   97.06138188
_cell_angle_beta   94.80707573
_cell_angle_gamma   100.48447418
_symmetry_Int_Tables_number   1
_chemical_formula_structural   Li24Mn7Cr5O36
_chemical_formula_sum   'Li24 Mn7 Cr5 O36'
_cell_volume   629.40435486
_cell_formula_units_Z   1
loop_
 _symmetry_equiv_pos_site_id
 _symmetry_equiv_pos_as_xyz
  1  'x, y, z'
loop_
 _atom_site_type_symbol
 _atom_site_label
 _atom_site_symmetry_multiplicity
 _atom_site_fract_x
 _atom_site_fract_y
 _atom_site_fract_z
 _atom_site_occupancy
  Li  Li0  1  0.83213744  0.16673790  0.00046233  1
  Li  Li1  1  0.94834413  0.38564884  -0.00000130  1
  Li  Li2  1  0.00037384  0.74990657  0.25045562  1
  Li  Li3  1  0.66855178  0.08282988  0.24971574  1
  Li  Li4  1  0.95273917  0.88788776  0.49999999  1
  Li  Li5  1  0.61949596  0.22342082  0.50120416  1
  Li  Li6  1  0.83405045  0.66661518  0.50000101  1
  Li  Li7  1  0.49765979  0.99963385  0.49993119  1
  Li  Li8  1  0.71214419  0.44370146  0.49937565  1
  Li  Li9  1  0.66582067  0.58396217  0.74989435  1
  Li  Li10  1  0.49987125  0.49937779  0.00014111  1
  Li  Li11  1  0.72031652  0.94754009  0.00140463  1
  Li  Li12  1  0.38537917  0.28125002  0.00010598  1
  Li  Li13  1  0.61474212  0.71940217  0.00005097  1
  Li  Li14  1  0.28118917  0.05238660  0.99873262  1
  Li  Li15  1  0.33605354  0.41592057  0.24985518  1
  Li  Li16  1  0.28770575  0.55643714  0.50038696  1
  Li  Li17  1  0.16578846  0.33280666  0.49985277  1
  Li  Li18  1  0.38044619  0.77722374  0.49887671  1
  Li  Li19  1  0.04933830  0.11201510  0.49976569  1
  Li  Li20  1  0.33208062  0.91732637  0.75026858  1
  Li  Li21  1  0.16563017  0.83327056  0.99972320  1
  Li  Li22  1  0.00090114  0.25148941  0.74997132  1
  Li  Li23  1  0.05145489  0.61434181  0.00025054  1
  Mn  Mn24  1  0.77654629  0.30595843  0.24996994  1
  Mn  Mn25  1  0.55523846  0.35990897  0.74927247  1
  Mn  Mn26  1  0.44530771  0.13891404  0.74997113  1
  Mn  Mn27  1  0.55563104  0.86095399  0.25021781  1
  Mn  Mn28  1  0.44642800  0.64017829  0.25141074  1
  Mn  Mn29  1  0.22237767  0.69433296  0.74960329  1
  Mn  Mn30  1  0.10810066  0.97124341  0.24863691  1
  Cr  Cr31  1  0.89539247  0.03085724  0.75201979  1
  Cr  Cr32  1  0.89609566  0.52700922  0.24952858  1
  Cr  Cr33  1  0.77109997  0.80647202  0.74914618  1
  Cr  Cr34  1  0.22783211  0.19285002  0.25013498  1
  Cr  Cr35  1  0.10683388  0.47374401  0.74998393  1
  O  O36  1  0.99665076  0.06882787  0.13685863  1
  O  O37  1  0.93067301  0.21530095  0.36356789  1
  O  O38  1  0.00073166  0.57106107  0.63817942  1
  O  O39  1  0.85132596  0.35528347  0.63696384  1
  O  O40  1  0.73541328  0.11632541  0.63624584  1
  O  O41  1  0.66345139  0.40213207  0.13684745  1
  O  O42  1  0.93163442  0.71546183  0.86388878  1
  O  O43  1  0.81344085  0.47451180  0.86159462  1
  O  O44  1  0.59135178  0.04960217  0.86567638  1
  O  O45  1  0.85618460  0.85661563  0.13864164  1
  O  O46  1  0.73468564  0.61722475  0.13613526  1
  O  O47  1  0.52000015  0.19126844  0.13875196  1
  O  O48  1  0.66833983  0.26163566  0.86144013  1
  O  O49  1  0.80950813  0.97627422  0.36166791  1
  O  O50  1  0.59714495  0.54914979  0.36369212  1
  O  O51  1  0.48125505  0.31129177  0.36279491  1
  O  O52  1  0.66822436  0.76246559  0.36155054  1
  O  O53  1  0.32927431  0.09555879  0.36103656  1
  O  O54  1  0.67264696  0.90388519  0.63849780  1
  O  O55  1  0.33165318  0.23774994  0.63834284  1
  O  O56  1  0.51813615  0.68829651  0.63711621  1
  O  O57  1  0.39994793  0.45024367  0.63646932  1
  O  O58  1  0.19706510  0.02476860  0.63687804  1
  O  O59  1  0.33381571  0.73854618  0.13878611  1
  O  O60  1  0.47801857  0.80873787  0.86143199  1
  O  O61  1  0.26558919  0.38133668  0.86461515  1
  O  O62  1  0.14288625  0.14273101  0.86155231  1
  O  O63  1  0.40275139  0.95167511  0.13660023  1
  O  O64  1  0.18831023  0.52516475  0.13846435  1
  O  O65  1  0.06780239  0.28436173  0.13629486  1
  O  O66  1  0.33519627  0.59720484  0.86276330  1
  O  O67  1  0.26407531  0.88174612  0.36362241  1
  O  O68  1  0.14882944  0.64453842  0.36251140  1
  O  O69  1  0.99642690  0.42943309  0.36136149  1
  O  O70  1  0.07020947  0.78466446  0.63592087  1
  O  O71  1  0.99825280  0.93136849  0.86291768  1
