# generated using pymatgen
data_Li24Mn7Cr5O36
_symmetry_space_group_name_H-M   'P 1'
_cell_length_a   5.00756316
_cell_length_b   13.27385759
_cell_length_c   9.73717704
_cell_angle_alpha   97.13252251
_cell_angle_beta   94.72001222
_cell_angle_gamma   100.50879106
_symmetry_Int_Tables_number   1
_chemical_formula_structural   Li24Mn7Cr5O36
_chemical_formula_sum   'Li24 Mn7 Cr5 O36'
_cell_volume   627.78364985
_cell_formula_units_Z   1
loop_
 _symmetry_equiv_pos_site_id
 _symmetry_equiv_pos_as_xyz
  1  'x, y, z'
loop_
 _atom_site_type_symbol
 _atom_site_label
 _atom_site_symmetry_multiplicity
 _atom_site_fract_x
 _atom_site_fract_y
 _atom_site_fract_z
 _atom_site_occupancy
  Li  Li0  1  0.83400140  0.16611511  0.99964766  1
  Li  Li1  1  0.94667499  0.38486015  0.99957609  1
  Li  Li2  1  0.00037335  0.74956171  0.25063593  1
  Li  Li3  1  0.66846131  0.08218127  0.24971665  1
  Li  Li4  1  0.95131230  0.88885400  0.50122717  1
  Li  Li5  1  0.62140280  0.22371489  0.50046150  1
  Li  Li6  1  0.83310077  0.66659007  0.49934142  1
  Li  Li7  1  0.49694370  0.99927957  0.50010825  1
  Li  Li8  1  0.71091391  0.44368175  0.49958437  1
  Li  Li9  1  0.66519694  0.58425739  0.75042115  1
  Li  Li10  1  0.49905358  0.50022215  0.99979091  1
  Li  Li11  1  0.71966178  0.94744072  0.00037180  1
  Li  Li12  1  0.38512357  0.28236903  0.00105680  1
  Li  Li13  1  0.61734561  0.71918417  0.00033026  1
  Li  Li14  1  0.28304828  0.05206618  0.99900656  1
  Li  Li15  1  0.33630511  0.41561351  0.24985215  1
  Li  Li16  1  0.28974674  0.55565153  0.49978108  1
  Li  Li17  1  0.16808097  0.33326589  0.50025433  1
  Li  Li18  1  0.38233984  0.77748608  0.49771384  1
  Li  Li19  1  0.04641525  0.11109712  0.50084200  1
  Li  Li20  1  0.33502598  0.91866560  0.74999926  1
  Li  Li21  1  0.16399007  0.83319177  0.00095376  1
  Li  Li22  1  0.99908750  0.25078454  0.74978275  1
  Li  Li23  1  0.04873509  0.61481311  0.00030231  1
  Mn  Mn24  1  0.88839202  0.02657070  0.74954303  1
  Mn  Mn25  1  0.77647448  0.30574603  0.24958221  1
  Mn  Mn26  1  0.77935238  0.80591511  0.75066479  1
  Mn  Mn27  1  0.55532114  0.36088760  0.74930369  1
  Mn  Mn28  1  0.55565446  0.86105142  0.24998471  1
  Mn  Mn29  1  0.44622932  0.64041315  0.25128983  1
  Mn  Mn30  1  0.10794137  0.97100607  0.24892688  1
  Cr  Cr31  1  0.89571874  0.52683324  0.24971064  1
  Cr  Cr32  1  0.44128113  0.14056030  0.74988770  1
  Cr  Cr33  1  0.22666451  0.19234695  0.25013735  1
  Cr  Cr34  1  0.22979888  0.69766730  0.75179729  1
  Cr  Cr35  1  0.10474916  0.47333461  0.74915144  1
  O  O36  1  0.99710862  0.06842652  0.13685227  1
  O  O37  1  0.93073435  0.21548336  0.36334934  1
  O  O38  1  0.00700400  0.57024883  0.63836605  1
  O  O39  1  0.85150751  0.35493815  0.63652591  1
  O  O40  1  0.73297549  0.11650221  0.63613531  1
  O  O41  1  0.66286590  0.40237273  0.13670166  1
  O  O42  1  0.92523232  0.71607405  0.86581165  1
  O  O43  1  0.81020374  0.47535729  0.86166736  1
  O  O44  1  0.59922219  0.04790104  0.86498146  1
  O  O45  1  0.85656587  0.85655025  0.13832932  1
  O  O46  1  0.73456409  0.61763547  0.13593475  1
  O  O47  1  0.51973992  0.19101640  0.13838112  1
  O  O48  1  0.66756549  0.26340432  0.86222591  1
  O  O49  1  0.80868663  0.97626019  0.36155694  1
  O  O50  1  0.59730448  0.54931913  0.36372140  1
  O  O51  1  0.48113859  0.31126684  0.36298387  1
  O  O52  1  0.66924769  0.76271113  0.36142817  1
  O  O53  1  0.32916343  0.09527584  0.36163531  1
  O  O54  1  0.66508968  0.90444718  0.63857336  1
  O  O55  1  0.33273428  0.23792689  0.63779454  1
  O  O56  1  0.53056180  0.69155374  0.63747603  1
  O  O57  1  0.40482446  0.45155646  0.63570978  1
  O  O58  1  0.18479280  0.02186755  0.63638157  1
  O  O59  1  0.33333521  0.73853271  0.13839538  1
  O  O60  1  0.47774281  0.80989524  0.86226521  1
  O  O61  1  0.26427009  0.38210937  0.86395307  1
  O  O62  1  0.14609985  0.14109693  0.86182306  1
  O  O63  1  0.40302071  0.95172347  0.13645958  1
  O  O64  1  0.18782226  0.52553771  0.13838013  1
  O  O65  1  0.06798821  0.28453237  0.13576552  1
  O  O66  1  0.32908371  0.59781673  0.86315423  1
  O  O67  1  0.26351363  0.88134243  0.36367452  1
  O  O68  1  0.14966548  0.64484234  0.36366581  1
  O  O69  1  0.99685008  0.42942451  0.36127431  1
  O  O70  1  0.06857833  0.78319822  0.63623131  1
  O  O71  1  0.00328188  0.92857367  0.86169724  1
