# generated using pymatgen
data_Li2Co3BiO8
_symmetry_space_group_name_H-M   'P 1'
_cell_length_a   5.79571939
_cell_length_b   5.79571941
_cell_length_c   6.08145487
_cell_angle_alpha   61.54243749
_cell_angle_beta   118.45756259
_cell_angle_gamma   120.00000074
_symmetry_Int_Tables_number   1
_chemical_formula_structural   Li2Co3BiO8
_chemical_formula_sum   'Li2 Co3 Bi1 O8'
_cell_volume   147.72305622
_cell_formula_units_Z   1
loop_
 _symmetry_equiv_pos_site_id
 _symmetry_equiv_pos_as_xyz
  1  'x, y, z'
loop_
 _atom_site_type_symbol
 _atom_site_label
 _atom_site_symmetry_multiplicity
 _atom_site_fract_x
 _atom_site_fract_y
 _atom_site_fract_z
 _atom_site_occupancy
  Li  Li0  1  0.88078643  0.11921357  0.64235829  1
  Li  Li1  1  0.11921357  0.88078643  0.35764171  1
  Co  Co2  1  0.50000000  0.50000000  0.00000000  1
  Co  Co3  1  0.50000000  0.00000000  0.00000000  1
  Co  Co4  1  0.00000000  0.50000000  0.00000000  1
  Bi  Bi5  1  0.50000000  0.50000000  0.50000000  1
  O  O6  1  0.75380260  0.71428812  0.79331807  1
  O  O7  1  0.75380260  0.24619740  0.79331807  1
  O  O8  1  0.26659071  0.73340929  0.79977114  1
  O  O9  1  0.28571188  0.24619740  0.79331807  1
  O  O10  1  0.71428812  0.75380260  0.20668193  1
  O  O11  1  0.73340929  0.26659071  0.20022886  1
  O  O12  1  0.24619740  0.75380260  0.20668193  1
  O  O13  1  0.24619740  0.28571188  0.20668193  1
