# generated using pymatgen
data_Na3MnBPO7
_symmetry_space_group_name_H-M   'P 1'
_cell_length_a   8.79249893
_cell_length_b   7.04060173
_cell_length_c   5.17361614
_cell_angle_alpha   90.00000000
_cell_angle_beta   88.43366039
_cell_angle_gamma   90.00000000
_symmetry_Int_Tables_number   1
_chemical_formula_structural   Na3MnBPO7
_chemical_formula_sum   'Na6 Mn2 B2 P2 O14'
_cell_volume   320.15036305
_cell_formula_units_Z   2
loop_
 _symmetry_equiv_pos_site_id
 _symmetry_equiv_pos_as_xyz
  1  'x, y, z'
loop_
 _atom_site_type_symbol
 _atom_site_label
 _atom_site_symmetry_multiplicity
 _atom_site_fract_x
 _atom_site_fract_y
 _atom_site_fract_z
 _atom_site_occupancy
  Na  Na0  1  0.07942421  0.25000000  0.76269888  1
  Na  Na1  1  0.26001553  0.00666010  0.25508795  1
  Na  Na2  1  0.26001553  0.49333990  0.25508795  1
  Na  Na3  1  0.73998447  0.50666010  0.74491205  1
  Na  Na4  1  0.73998447  0.99333990  0.74491205  1
  Na  Na5  1  0.92057579  0.75000000  0.23730112  1
  Mn  Mn6  1  0.33918826  0.75000000  0.78407252  1
  Mn  Mn7  1  0.66081174  0.25000000  0.21592748  1
  B  B8  1  0.06682658  0.75000000  0.73191067  1
  B  B9  1  0.93317342  0.25000000  0.26808933  1
  P  P10  1  0.41725489  0.25000000  0.71499183  1
  P  P11  1  0.58274511  0.75000000  0.28500817  1
  O  O12  1  0.08403436  0.25000000  0.29404056  1
  O  O13  1  0.14029689  0.75000000  0.97005559  1
  O  O14  1  0.17626309  0.75000000  0.52822612  1
  O  O15  1  0.31977623  0.07252132  0.77605520  1
  O  O16  1  0.31977623  0.42747868  0.77605520  1
  O  O17  1  0.46382159  0.25000000  0.41844930  1
  O  O18  1  0.43247485  0.75000000  0.13258986  1
  O  O19  1  0.56752515  0.25000000  0.86741014  1
  O  O20  1  0.53617841  0.75000000  0.58155070  1
  O  O21  1  0.68022377  0.57252132  0.22394480  1
  O  O22  1  0.68022377  0.92747868  0.22394480  1
  O  O23  1  0.82373691  0.25000000  0.47177388  1
  O  O24  1  0.85970311  0.25000000  0.02994441  1
  O  O25  1  0.91596564  0.75000000  0.70595944  1
