# generated using pymatgen
data_Li4Cr3CoO8
_symmetry_space_group_name_H-M   'P 1'
_cell_length_a   5.07283600
_cell_length_b   5.89596074
_cell_length_c   5.86285770
_cell_angle_alpha   60.18513531
_cell_angle_beta   90.00014270
_cell_angle_gamma   73.33968990
_symmetry_Int_Tables_number   1
_chemical_formula_structural   Li4Cr3CoO8
_chemical_formula_sum   'Li4 Cr3 Co1 O8'
_cell_volume   143.59708898
_cell_formula_units_Z   1
loop_
 _symmetry_equiv_pos_site_id
 _symmetry_equiv_pos_as_xyz
  1  'x, y, z'
loop_
 _atom_site_type_symbol
 _atom_site_label
 _atom_site_symmetry_multiplicity
 _atom_site_fract_x
 _atom_site_fract_y
 _atom_site_fract_z
 _atom_site_occupancy
  Li  Li0  1  0.00000000  0.00000000  0.00000000  1
  Li  Li1  1  0.00000000  0.00000000  0.50000000  1
  Li  Li2  1  0.48923450  0.00454494  0.24773142  1
  Li  Li3  1  0.51076550  0.99545506  0.75226858  1
  Cr  Cr4  1  0.00000000  0.50000000  0.50000000  1
  Cr  Cr5  1  0.49998137  0.50002365  0.24790035  1
  Cr  Cr6  1  0.50001863  0.49997635  0.75209965  1
  Co  Co7  1  0.00000000  0.50000000  0.00000000  1
  O  O8  1  0.23765328  0.27769907  0.35582305  1
  O  O9  1  0.23765104  0.27770176  0.86648132  1
  O  O10  1  0.74791509  0.27731684  0.11134688  1
  O  O11  1  0.25929421  0.72545206  0.38727342  1
  O  O12  1  0.25208591  0.72268316  0.88865312  1
  O  O13  1  0.76234896  0.72229824  0.13351868  1
  O  O14  1  0.74070579  0.27454694  0.61272758  1
  O  O15  1  0.76234572  0.72230093  0.64417695  1
