# generated using pymatgen
data_Li4Cr3CoO8
_symmetry_space_group_name_H-M   'P 1'
_cell_length_a   5.11141770
_cell_length_b   5.86052214
_cell_length_c   5.07330974
_cell_angle_alpha   90.00831443
_cell_angle_beta   80.47696089
_cell_angle_gamma   73.35607494
_symmetry_Int_Tables_number   1
_chemical_formula_structural   Li4Cr3CoO8
_chemical_formula_sum   'Li4 Cr3 Co1 O8'
_cell_volume   143.41832125
_cell_formula_units_Z   1
loop_
 _symmetry_equiv_pos_site_id
 _symmetry_equiv_pos_as_xyz
  1  'x, y, z'
loop_
 _atom_site_type_symbol
 _atom_site_label
 _atom_site_symmetry_multiplicity
 _atom_site_fract_x
 _atom_site_fract_y
 _atom_site_fract_z
 _atom_site_occupancy
  Li  Li0  1  0.99769925  0.99812358  0.00773521  1
  Li  Li1  1  0.00637726  0.24592484  0.50014958  1
  Li  Li2  1  0.99361994  0.50409749  0.99987645  1
  Li  Li3  1  0.00231572  0.75185992  0.49229078  1
  Cr  Cr4  1  0.49964751  0.12308895  0.75040206  1
  Cr  Cr5  1  0.50000709  0.37499563  0.24999095  1
  Cr  Cr6  1  0.50034450  0.62690992  0.74960496  1
  Co  Co7  1  0.49999635  0.87500204  0.24999795  1
  O  O8  1  0.27695839  0.17561744  0.12412138  1
  O  O9  1  0.72161578  0.06451966  0.37707277  1
  O  O10  1  0.27355217  0.43178125  0.62189712  1
  O  O11  1  0.72645754  0.31821249  0.87807955  1
  O  O12  1  0.27837963  0.68548223  0.12291430  1
  O  O13  1  0.72304740  0.57438784  0.37587262  1
  O  O14  1  0.27695894  0.93049262  0.61330832  1
  O  O15  1  0.72302155  0.81950411  0.88668600  1
