# generated using pymatgen
data_Li4Cr3CoO8
_symmetry_space_group_name_H-M   'P 1'
_cell_length_a   5.10333828
_cell_length_b   5.85724723
_cell_length_c   10.15010675
_cell_angle_alpha   90.13544576
_cell_angle_beta   80.49898164
_cell_angle_gamma   73.31776947
_symmetry_Int_Tables_number   1
_chemical_formula_structural   Li4Cr3CoO8
_chemical_formula_sum   'Li8 Cr6 Co2 O16'
_cell_volume   286.24797690
_cell_formula_units_Z   2
loop_
 _symmetry_equiv_pos_site_id
 _symmetry_equiv_pos_as_xyz
  1  'x, y, z'
loop_
 _atom_site_type_symbol
 _atom_site_label
 _atom_site_symmetry_multiplicity
 _atom_site_fract_x
 _atom_site_fract_y
 _atom_site_fract_z
 _atom_site_occupancy
  Li  Li0  1  0.99577361  0.00330816  0.99956075  1
  Li  Li1  1  0.00051430  0.00182576  0.49730465  1
  Li  Li2  1  0.99999777  0.25000728  0.24999317  1
  Li  Li3  1  0.99999505  0.25000367  0.75000662  1
  Li  Li4  1  0.99949158  0.49817154  0.00270236  1
  Li  Li5  1  0.00422411  0.49670913  0.50044091  1
  Li  Li6  1  0.99999718  0.74999880  0.24999523  1
  Li  Li7  1  0.99999570  0.75000322  0.74999941  1
  Cr  Cr8  1  0.50005410  0.12633150  0.87700911  1
  Cr  Cr9  1  0.49994706  0.37367507  0.62299945  1
  Cr  Cr10  1  0.50022883  0.62271809  0.37271109  1
  Cr  Cr11  1  0.49960813  0.62421168  0.87721575  1
  Cr  Cr12  1  0.49977611  0.87726676  0.12728170  1
  Cr  Cr13  1  0.50038769  0.87578750  0.62278781  1
  Co  Co14  1  0.50027219  0.12549471  0.37332035  1
  Co  Co15  1  0.49972850  0.37450661  0.12667050  1
  O  O16  1  0.27671547  0.18603968  0.06329210  1
  O  O17  1  0.27621140  0.18091523  0.55513699  1
  O  O18  1  0.71867176  0.07723439  0.19254628  1
  O  O19  1  0.72728404  0.06856773  0.68954727  1
  O  O20  1  0.28133940  0.42277893  0.30742327  1
  O  O21  1  0.72329135  0.31398205  0.43672149  1
  O  O22  1  0.27271219  0.43143741  0.81045578  1
  O  O23  1  0.72378254  0.31910078  0.94488040  1
  O  O24  1  0.27554205  0.67701317  0.06417724  1
  O  O25  1  0.72328722  0.56436276  0.18790415  1
  O  O26  1  0.27264528  0.68116905  0.55891503  1
  O  O27  1  0.72672688  0.56775213  0.68912734  1
  O  O28  1  0.27670834  0.93560903  0.31208385  1
  O  O29  1  0.72446440  0.82295701  0.43582329  1
  O  O30  1  0.27326541  0.93224662  0.81088119  1
  O  O31  1  0.72736235  0.81881455  0.94108644  1
