# generated using pymatgen
data_Cu(NiO2)2
_symmetry_space_group_name_H-M   'P 1'
_cell_length_a   5.84082065
_cell_length_b   5.84082065
_cell_length_c   5.84082065
_cell_angle_alpha   60.00000000
_cell_angle_beta   90.00000000
_cell_angle_gamma   120.00000000
_symmetry_Int_Tables_number   1
_chemical_formula_structural   Cu(NiO2)2
_chemical_formula_sum   'Cu2 Ni4 O8'
_cell_volume   140.89857959
_cell_formula_units_Z   2
loop_
 _symmetry_equiv_pos_site_id
 _symmetry_equiv_pos_as_xyz
  1  'x, y, z'
loop_
 _atom_site_type_symbol
 _atom_site_label
 _atom_site_symmetry_multiplicity
 _atom_site_fract_x
 _atom_site_fract_y
 _atom_site_fract_z
 _atom_site_occupancy
  Cu  Cu0  1  0.00000000  0.00000000  0.00000000  1
  Cu  Cu1  1  0.25000000  0.50000000  0.25000000  1
  Ni  Ni2  1  0.62500000  0.25000000  0.12500000  1
  Ni  Ni3  1  0.62500000  0.25000000  0.62500000  1
  Ni  Ni4  1  0.62500000  0.75000000  0.62500000  1
  Ni  Ni5  1  0.12500000  0.75000000  0.62500000  1
  O  O6  1  0.84674162  0.23116141  0.38441979  1
  O  O7  1  0.38441979  0.23116141  0.38441979  1
  O  O8  1  0.86558021  0.26883859  0.86558021  1
  O  O9  1  0.86558021  0.73116141  0.40325838  1
  O  O10  1  0.40325838  0.26883859  0.86558021  1
  O  O11  1  0.86558021  0.73116141  0.86558021  1
  O  O12  1  0.38441979  0.76883859  0.38441979  1
  O  O13  1  0.38441979  0.76883859  0.84674162  1
