# generated using pymatgen
data_Li4Cr3CoO8
_symmetry_space_group_name_H-M   'P 1'
_cell_length_a   5.10246342
_cell_length_b   5.85750948
_cell_length_c   10.57094205
_cell_angle_alpha   106.21798054
_cell_angle_beta   85.46245209
_cell_angle_gamma   73.31669852
_symmetry_Int_Tables_number   1
_chemical_formula_structural   Li4Cr3CoO8
_chemical_formula_sum   'Li8 Cr6 Co2 O16'
_cell_volume   286.20786787
_cell_formula_units_Z   2
loop_
 _symmetry_equiv_pos_site_id
 _symmetry_equiv_pos_as_xyz
  1  'x, y, z'
loop_
 _atom_site_type_symbol
 _atom_site_label
 _atom_site_symmetry_multiplicity
 _atom_site_fract_x
 _atom_site_fract_y
 _atom_site_fract_z
 _atom_site_occupancy
  Li  Li0  1  0.99821268  0.12586493  0.75128235  1
  Li  Li1  1  0.99957558  0.99945281  0.00255820  1
  Li  Li2  1  0.00407889  0.24704490  0.50054863  1
  Li  Li3  1  0.99997391  0.37502884  0.25000216  1
  Li  Li4  1  0.00184065  0.62412005  0.74870918  1
  Li  Li5  1  0.99594455  0.50295188  0.99945390  1
  Li  Li6  1  0.00044791  0.75057268  0.49744574  1
  Li  Li7  1  0.99998182  0.87502196  0.25001177  1
  Cr  Cr8  1  0.49977741  0.06274753  0.87748191  1
  Cr  Cr9  1  0.50003829  0.18529959  0.62340828  1
  Cr  Cr10  1  0.50018471  0.30898838  0.37276989  1
  Cr  Cr11  1  0.50002376  0.56470855  0.87658480  1
  Cr  Cr12  1  0.49971008  0.44101617  0.12723383  1
  Cr  Cr13  1  0.50028430  0.68725854  0.62252335  1
  Co  Co14  1  0.50022928  0.81227251  0.37341395  1
  Co  Co15  1  0.49973223  0.93770672  0.12658401  1
  O  O16  1  0.28129884  0.07637923  0.30746762  1
  O  O17  1  0.72310125  0.03250576  0.43706201  1
  O  O18  1  0.27282225  0.33710806  0.81127075  1
  O  O19  1  0.72749893  0.28955105  0.94092925  1
  O  O20  1  0.72316532  0.15831731  0.18786725  1
  O  O21  1  0.27533532  0.20914205  0.06428670  1
  O  O22  1  0.27251257  0.46048380  0.55908895  1
  O  O23  1  0.72726163  0.41286276  0.68872008  1
  O  O24  1  0.27669757  0.59170547  0.31214503  1
  O  O25  1  0.72456579  0.54086239  0.43570295  1
  O  O26  1  0.27311188  0.83707868  0.81006956  1
  O  O27  1  0.72391995  0.79112003  0.94474475  1
  O  O28  1  0.27692182  0.71748827  0.06291032  1
  O  O29  1  0.27615750  0.95887541  0.55525920  1
  O  O30  1  0.71862589  0.67355864  0.19253545  1
  O  O31  1  0.72697048  0.91290606  0.68992918  1
