# generated using pymatgen
data_Na2Ge2O5
_symmetry_space_group_name_H-M   'P 1'
_cell_length_a   12.70778921
_cell_length_b   5.05538945
_cell_length_c   8.51221191
_cell_angle_alpha   90.00000000
_cell_angle_beta   103.50135909
_cell_angle_gamma   90.00000000
_symmetry_Int_Tables_number   1
_chemical_formula_structural   Na2Ge2O5
_chemical_formula_sum   'Na8 Ge8 O20'
_cell_volume   531.73603071
_cell_formula_units_Z   4
loop_
 _symmetry_equiv_pos_site_id
 _symmetry_equiv_pos_as_xyz
  1  'x, y, z'
loop_
 _atom_site_type_symbol
 _atom_site_label
 _atom_site_symmetry_multiplicity
 _atom_site_fract_x
 _atom_site_fract_y
 _atom_site_fract_z
 _atom_site_occupancy
  Na  Na0  1  0.02649733  0.71828127  0.86020967  1
  Na  Na1  1  0.05361603  0.25817398  0.61910786  1
  Na  Na2  1  0.44638397  0.75817398  0.38089214  1
  Na  Na3  1  0.52649733  0.78171873  0.86020967  1
  Na  Na4  1  0.47350267  0.21828127  0.13979033  1
  Na  Na5  1  0.55361603  0.24182602  0.61910786  1
  Na  Na6  1  0.94638397  0.74182602  0.38089214  1
  Na  Na7  1  0.97350267  0.28171873  0.13979033  1
  Ge  Ge8  1  0.22261141  0.79647822  0.59924003  1
  Ge  Ge9  1  0.32231446  0.68165377  0.97759884  1
  Ge  Ge10  1  0.17768554  0.18165377  0.02240116  1
  Ge  Ge11  1  0.27738859  0.29647822  0.40075997  1
  Ge  Ge12  1  0.72261141  0.70352178  0.59924003  1
  Ge  Ge13  1  0.82231446  0.81834623  0.97759884  1
  Ge  Ge14  1  0.67768554  0.31834623  0.02240116  1
  Ge  Ge15  1  0.77738859  0.20352178  0.40075997  1
  O  O16  1  0.05498912  0.25274962  0.89399303  1
  O  O17  1  0.09206351  0.72229594  0.61176795  1
  O  O18  1  0.29805649  0.33080214  0.98842142  1
  O  O19  1  0.22485108  0.14803233  0.55853751  1
  O  O20  1  0.16782787  0.24610775  0.22632214  1
  O  O21  1  0.33217213  0.74610775  0.77367786  1
  O  O22  1  0.27514892  0.64803233  0.44146249  1
  O  O23  1  0.20194351  0.83080214  0.01157858  1
  O  O24  1  0.40793649  0.22229594  0.38823205  1
  O  O25  1  0.55498912  0.24725038  0.89399303  1
  O  O26  1  0.44501088  0.75274962  0.10600697  1
  O  O27  1  0.59206351  0.77770406  0.61176795  1
  O  O28  1  0.79805649  0.16919786  0.98842142  1
  O  O29  1  0.72485108  0.35196767  0.55853751  1
  O  O30  1  0.66782787  0.25389225  0.22632214  1
  O  O31  1  0.83217213  0.75389225  0.77367786  1
  O  O32  1  0.77514892  0.85196767  0.44146249  1
  O  O33  1  0.70194351  0.66919786  0.01157858  1
  O  O34  1  0.90793649  0.27770406  0.38823205  1
  O  O35  1  0.94501088  0.74725038  0.10600697  1
