# generated using pymatgen
data_Li3Ni4SnO8
_symmetry_space_group_name_H-M   'P 1'
_cell_length_a   6.00955286
_cell_length_b   6.00955279
_cell_length_c   5.98198456
_cell_angle_alpha   89.89423254
_cell_angle_beta   60.09989978
_cell_angle_gamma   59.62647685
_symmetry_Int_Tables_number   1
_chemical_formula_structural   Li3Ni4SnO8
_chemical_formula_sum   'Li3 Ni4 Sn1 O8'
_cell_volume   152.26732985
_cell_formula_units_Z   1
loop_
 _symmetry_equiv_pos_site_id
 _symmetry_equiv_pos_as_xyz
  1  'x, y, z'
loop_
 _atom_site_type_symbol
 _atom_site_label
 _atom_site_symmetry_multiplicity
 _atom_site_fract_x
 _atom_site_fract_y
 _atom_site_fract_z
 _atom_site_occupancy
  Li  Li0  1  0.00000000  0.00000000  0.50000000  1
  Li  Li1  1  0.50000000  0.00000000  0.50000000  1
  Li  Li2  1  0.50000000  0.50000000  0.50000000  1
  Ni  Ni3  1  0.00000000  0.50000000  0.50000000  1
  Ni  Ni4  1  0.00000000  0.00000000  0.00000000  1
  Ni  Ni5  1  0.50000000  0.00000000  0.00000000  1
  Ni  Ni6  1  0.00000000  0.50000000  0.00000000  1
  Sn  Sn7  1  0.50000000  0.50000000  0.00000000  1
  O  O8  1  0.48561981  0.25438207  0.76876226  1
  O  O9  1  0.99175933  0.25331970  0.75400206  1
  O  O10  1  0.49931764  0.74576138  0.75400206  1
  O  O11  1  0.97704363  0.74925402  0.77221038  1
  O  O12  1  0.02295637  0.25074598  0.22778962  1
  O  O13  1  0.50068236  0.25423862  0.24599794  1
  O  O14  1  0.00824067  0.74668030  0.24599794  1
  O  O15  1  0.51438019  0.74561793  0.23123774  1
