# generated using pymatgen
data_Li2Cr3SbO8
_symmetry_space_group_name_H-M   'P 1'
_cell_length_a   5.96971532
_cell_length_b   5.96971996
_cell_length_c   9.62556584
_cell_angle_alpha   90.00117337
_cell_angle_beta   89.99928047
_cell_angle_gamma   120.00009793
_symmetry_Int_Tables_number   1
_chemical_formula_structural   Li2Cr3SbO8
_chemical_formula_sum   'Li4 Cr6 Sb2 O16'
_cell_volume   297.07359511
_cell_formula_units_Z   2
loop_
 _symmetry_equiv_pos_site_id
 _symmetry_equiv_pos_as_xyz
  1  'x, y, z'
loop_
 _atom_site_type_symbol
 _atom_site_label
 _atom_site_symmetry_multiplicity
 _atom_site_fract_x
 _atom_site_fract_y
 _atom_site_fract_z
 _atom_site_occupancy
  Li  Li0  1  0.33333391  0.66668414  0.90362061  1
  Li  Li1  1  0.00000236  0.00000800  0.99129790  1
  Li  Li2  1  0.00000405  0.00000539  0.49130065  1
  Li  Li3  1  0.66666279  0.33334802  0.40362686  1
  Cr  Cr4  1  0.16993793  0.83005870  0.21391842  1
  Cr  Cr5  1  0.16993060  0.33991732  0.21390500  1
  Cr  Cr6  1  0.66007185  0.83004426  0.21391111  1
  Cr  Cr7  1  0.33992126  0.16995928  0.71396302  1
  Cr  Cr8  1  0.83004873  0.66010145  0.71397409  1
  Cr  Cr9  1  0.83006563  0.16997305  0.71396374  1
  Sb  Sb10  1  0.33334383  0.66668709  0.48770795  1
  Sb  Sb11  1  0.66666343  0.33334477  0.98772967  1
  O  O12  1  0.16554972  0.83446592  0.59492734  1
  O  O13  1  0.03722296  0.51863208  0.34329102  1
  O  O14  1  0.33331360  0.66667779  0.10861907  1
  O  O15  1  0.99998027  0.00001435  0.30616819  1
  O  O16  1  0.00001744  0.00001397  0.80618868  1
  O  O17  1  0.16556550  0.33110271  0.59492197  1
  O  O18  1  0.48138478  0.96278738  0.34328583  1
  O  O19  1  0.48137622  0.51862499  0.34327791  1
  O  O20  1  0.33106914  0.16554684  0.09489761  1
  O  O21  1  0.66892081  0.83445767  0.59492745  1
  O  O22  1  0.51861239  0.48139484  0.84332405  1
  O  O23  1  0.51862724  0.03723746  0.84331571  1
  O  O24  1  0.66668525  0.33334026  0.60866544  1
  O  O25  1  0.83445735  0.66893234  0.09489661  1
  O  O26  1  0.96277775  0.48139559  0.84332303  1
  O  O27  1  0.83445323  0.16554232  0.09489103  1
