# generated using pymatgen
data_Mn(PO3)3
_symmetry_space_group_name_H-M   'P 1'
_cell_length_a   11.77262241
_cell_length_b   11.77262241
_cell_length_c   9.43979637
_cell_angle_alpha   71.01036966
_cell_angle_beta   108.98963034
_cell_angle_gamma   68.23399647
_symmetry_Int_Tables_number   1
_chemical_formula_structural   Mn(PO3)3
_chemical_formula_sum   'Mn6 P18 O54'
_cell_volume   989.65468095
_cell_formula_units_Z   6
loop_
 _symmetry_equiv_pos_site_id
 _symmetry_equiv_pos_as_xyz
  1  'x, y, z'
loop_
 _atom_site_type_symbol
 _atom_site_label
 _atom_site_symmetry_multiplicity
 _atom_site_fract_x
 _atom_site_fract_y
 _atom_site_fract_z
 _atom_site_occupancy
  Mn  Mn0  1  0.07373639  0.41651572  0.53901540  1
  Mn  Mn1  1  0.43792841  0.73914310  0.57625266  1
  Mn  Mn2  1  0.58348428  0.92626361  0.03901540  1
  Mn  Mn3  1  0.26085690  0.56207159  0.07625266  1
  Mn  Mn4  1  0.76667677  0.07389242  0.57108205  1
  Mn  Mn5  1  0.92610758  0.23332323  0.07108205  1
  P  P6  1  0.13362606  0.90526267  0.84921935  1
  P  P7  1  0.32916435  0.94366803  0.72355247  1
  P  P8  1  0.99514955  0.60522076  0.71847348  1
  P  P9  1  0.09473733  0.86637394  0.34921935  1
  P  P10  1  0.11454754  0.15621043  0.88695264  1
  P  P11  1  0.05633197  0.67083565  0.22355247  1
  P  P12  1  0.78059886  0.83044334  0.87831815  1
  P  P13  1  0.46561736  0.47786574  0.91451541  1
  P  P14  1  0.39477924  0.00485045  0.21847348  1
  P  P15  1  0.42748440  0.28250968  0.78259872  1
  P  P16  1  0.77959857  0.59148960  0.82254888  1
  P  P17  1  0.84378957  0.88545246  0.38695264  1
  P  P18  1  0.16955666  0.21940114  0.37831815  1
  P  P19  1  0.52213426  0.53438264  0.41451541  1
  P  P20  1  0.67979167  0.26036869  0.74846262  1
  P  P21  1  0.71749032  0.57251560  0.28259872  1
  P  P22  1  0.40851040  0.22040143  0.32254888  1
  P  P23  1  0.73963131  0.32020833  0.24846262  1
  O  O24  1  0.38856707  0.98754601  0.84623549  1
  O  O25  1  0.24152378  0.88148071  0.77647947  1
  O  O26  1  0.07553777  0.63657955  0.84125225  1
  O  O27  1  0.65146201  0.92354641  0.87884016  1
  O  O28  1  0.35955965  0.56872810  0.94786055  1
  O  O29  1  0.43663719  0.83722983  0.70666455  1
  O  O30  1  0.23534108  0.80818516  0.50255253  1
  O  O31  1  0.08433355  0.49220912  0.69122637  1
  O  O32  1  0.01245399  0.61143293  0.34623549  1
  O  O33  1  0.11851929  0.75847622  0.27647947  1
  O  O34  1  0.36342045  0.92446223  0.34125225  1
  O  O35  1  0.10107587  0.23184640  0.71576403  1
  O  O36  1  0.50706527  0.55218125  0.80117799  1
  O  O37  1  0.77873015  0.89626664  0.71111265  1
  O  O38  1  0.39955907  0.40087162  0.83819294  1
  O  O39  1  0.80213803  0.67914309  0.92021377  1
  O  O40  1  0.15551735  0.99696004  0.93885855  1
  O  O41  1  0.64047520  0.68579539  0.65157716  1
  O  O42  1  0.98804409  0.98309223  0.69867751  1
  O  O43  1  0.28823725  0.33065376  0.63722875  1
  O  O44  1  0.07645359  0.34853799  0.37884016  1
  O  O45  1  0.43127190  0.64044035  0.44786055  1
  O  O46  1  0.16277017  0.56336281  0.20666455  1
  O  O47  1  0.19181484  0.76465892  0.00255253  1
  O  O48  1  0.50779088  0.91566645  0.19122637  1
  O  O49  1  0.81138618  0.45677864  0.95550193  1
  O  O50  1  0.51025856  0.14048644  0.94401913  1
  O  O51  1  0.52111576  0.29838027  0.69248950  1
  O  O52  1  0.87088689  0.74754337  0.53668175  1
  O  O53  1  0.20669416  0.08042925  0.53502091  1
  O  O54  1  0.90518074  0.55119198  0.78016273  1
  O  O55  1  0.76815360  0.89892413  0.21576403  1
  O  O56  1  0.74619435  0.25222524  0.91994516  1
  O  O57  1  0.44781875  0.49293473  0.30117799  1
  O  O58  1  0.10373336  0.22126985  0.21111265  1
  O  O59  1  0.59912838  0.60044093  0.33819294  1
  O  O60  1  0.65478952  0.39589152  0.59790094  1
  O  O61  1  0.32085691  0.19786197  0.42021377  1
  O  O62  1  0.00303996  0.84448265  0.43885855  1
  O  O63  1  0.31420461  0.35952480  0.15157716  1
  O  O64  1  0.01690777  0.01195591  0.19867751  1
  O  O65  1  0.66934624  0.71176275  0.13722875  1
  O  O66  1  0.54322136  0.18861382  0.45550193  1
  O  O67  1  0.98632456  0.23024556  0.90173632  1
  O  O68  1  0.76472939  0.12872063  0.74603911  1
  O  O69  1  0.85951356  0.48974144  0.44401913  1
  O  O70  1  0.70161973  0.47888424  0.19248950  1
  O  O71  1  0.25245663  0.12911311  0.03668175  1
  O  O72  1  0.91957075  0.79330584  0.03502091  1
  O  O73  1  0.44880802  0.09481926  0.28016273  1
  O  O74  1  0.74777476  0.25380565  0.41994516  1
  O  O75  1  0.60410848  0.34521048  0.09790094  1
  O  O76  1  0.76975444  0.01367544  0.40173632  1
  O  O77  1  0.87127937  0.23527061  0.24603911  1
