# generated using pymatgen
data_Sr3LaCl9
_symmetry_space_group_name_H-M   'P 1'
_cell_length_a   7.38935337
_cell_length_b   28.95387885
_cell_length_c   6.88462835
_cell_angle_alpha   90.00000000
_cell_angle_beta   90.00000000
_cell_angle_gamma   91.94006720
_symmetry_Int_Tables_number   1
_chemical_formula_structural   Sr3LaCl9
_chemical_formula_sum   'Sr12 La4 Cl36'
_cell_volume   1472.12495372
_cell_formula_units_Z   4
loop_
 _symmetry_equiv_pos_site_id
 _symmetry_equiv_pos_as_xyz
  1  'x, y, z'
loop_
 _atom_site_type_symbol
 _atom_site_label
 _atom_site_symmetry_multiplicity
 _atom_site_fract_x
 _atom_site_fract_y
 _atom_site_fract_z
 _atom_site_occupancy
  Sr  Sr0  1  0.32609316  0.93305193  0.97163996  1
  Sr  Sr1  1  0.29419344  0.69220554  0.00373784  1
  Sr  Sr2  1  0.32609316  0.43305193  0.02836004  1
  Sr  Sr3  1  0.29419344  0.19220554  0.99626216  1
  Sr  Sr4  1  0.68520679  0.56879120  0.98994352  1
  Sr  Sr5  1  0.71888391  0.80908964  0.98603794  1
  Sr  Sr6  1  0.68520679  0.06879120  0.01005648  1
  Sr  Sr7  1  0.71888391  0.30908964  0.01396206  1
  Sr  Sr8  1  0.78322372  0.69205938  0.52043431  1
  Sr  Sr9  1  0.81969744  0.93170542  0.51347901  1
  Sr  Sr10  1  0.78322372  0.19205938  0.47956569  1
  Sr  Sr11  1  0.81969744  0.43170542  0.48652099  1
  La  La12  1  0.20670030  0.80712612  0.52030951  1
  La  La13  1  0.18143403  0.56725520  0.54300283  1
  La  La14  1  0.20670030  0.30712612  0.47969049  1
  La  La15  1  0.18143403  0.06725520  0.45699717  1
  Cl  Cl16  1  0.01659801  0.86962491  0.79858120  1
  Cl  Cl17  1  0.01024904  0.75147555  0.81976010  1
  Cl  Cl18  1  0.00172897  0.62874407  0.81550572  1
  Cl  Cl19  1  0.01659801  0.36962491  0.20141880  1
  Cl  Cl20  1  0.01024904  0.25147555  0.18023990  1
  Cl  Cl21  1  0.10719019  0.99123176  0.70921352  1
  Cl  Cl22  1  0.00172897  0.12874407  0.18449428  1
  Cl  Cl23  1  0.14916817  0.89419757  0.32637750  1
  Cl  Cl24  1  0.10719019  0.49123176  0.29078648  1
  Cl  Cl25  1  0.15536996  0.70656874  0.39388780  1
  Cl  Cl26  1  0.14916817  0.39419757  0.67362250  1
  Cl  Cl27  1  0.15536996  0.20656874  0.60611220  1
  Cl  Cl28  1  0.35748637  0.79528571  0.15055427  1
  Cl  Cl29  1  0.35487791  0.60026556  0.19947837  1
  Cl  Cl30  1  0.35748637  0.29528571  0.84944573  1
  Cl  Cl31  1  0.35487791  0.10026556  0.80052163  1
  Cl  Cl32  1  0.41713049  0.51050912  0.75451885  1
  Cl  Cl33  1  0.49852829  0.86808244  0.68452332  1
  Cl  Cl34  1  0.49395256  0.75092552  0.69617555  1
  Cl  Cl35  1  0.48240007  0.62869423  0.70292481  1
  Cl  Cl36  1  0.41713049  0.01050912  0.24548115  1
  Cl  Cl37  1  0.49852829  0.36808244  0.31547668  1
  Cl  Cl38  1  0.49395256  0.25092552  0.30382445  1
  Cl  Cl39  1  0.48240007  0.12869423  0.29707519  1
  Cl  Cl40  1  0.60369452  0.98931119  0.76279072  1
  Cl  Cl41  1  0.60369452  0.48931119  0.23720928  1
  Cl  Cl42  1  0.65399880  0.89997466  0.15573011  1
  Cl  Cl43  1  0.67036978  0.69929243  0.11847894  1
  Cl  Cl44  1  0.65399880  0.39997466  0.84426989  1
  Cl  Cl45  1  0.67036978  0.19929243  0.88152106  1
  Cl  Cl46  1  0.84702467  0.79688260  0.38810760  1
  Cl  Cl47  1  0.86853346  0.59952982  0.35100177  1
  Cl  Cl48  1  0.84702467  0.29688260  0.61189240  1
  Cl  Cl49  1  0.86853346  0.09952982  0.64899823  1
  Cl  Cl50  1  0.92699895  0.50993169  0.75736823  1
  Cl  Cl51  1  0.92699895  0.00993169  0.24263177  1
