# generated using pymatgen
data_Li3Mn4CoO8
_symmetry_space_group_name_H-M   'P 1'
_cell_length_a   6.02525735
_cell_length_b   6.02525741
_cell_length_c   6.03463300
_cell_angle_alpha   91.92799427
_cell_angle_beta   61.12030699
_cell_angle_gamma   61.14592986
_symmetry_Int_Tables_number   1
_chemical_formula_structural   Li3Mn4CoO8
_chemical_formula_sum   'Li3 Mn4 Co1 O8'
_cell_volume   157.53023149
_cell_formula_units_Z   1
loop_
 _symmetry_equiv_pos_site_id
 _symmetry_equiv_pos_as_xyz
  1  'x, y, z'
loop_
 _atom_site_type_symbol
 _atom_site_label
 _atom_site_symmetry_multiplicity
 _atom_site_fract_x
 _atom_site_fract_y
 _atom_site_fract_z
 _atom_site_occupancy
  Li  Li0  1  0.00000000  0.00000000  0.50000000  1
  Li  Li1  1  0.50000000  0.00000000  0.50000000  1
  Li  Li2  1  0.50000000  0.50000000  0.50000000  1
  Mn  Mn3  1  0.00000000  0.50000000  0.50000000  1
  Mn  Mn4  1  0.00000000  0.00000000  0.00000000  1
  Mn  Mn5  1  0.50000000  0.00000000  0.00000000  1
  Mn  Mn6  1  0.00000000  0.50000000  0.00000000  1
  Co  Co7  1  0.50000000  0.50000000  0.00000000  1
  O  O8  1  0.45755922  0.25254020  0.79498098  1
  O  O9  1  0.99725046  0.26327788  0.76577694  1
  O  O10  1  0.49750195  0.76302640  0.76577694  1
  O  O11  1  0.01966120  0.74627880  0.72661760  1
  O  O12  1  0.98033880  0.25372120  0.27338240  1
  O  O13  1  0.50249805  0.23697360  0.23422306  1
  O  O14  1  0.00274954  0.73672212  0.23422306  1
  O  O15  1  0.54244078  0.74745980  0.20501902  1
