# generated using pymatgen
data_Li2Ti4O9
_symmetry_space_group_name_H-M   'P 1'
_cell_length_a   5.07312061
_cell_length_b   5.07312614
_cell_length_c   13.97506252
_cell_angle_alpha   89.99974148
_cell_angle_beta   90.00003365
_cell_angle_gamma   120.00001966
_symmetry_Int_Tables_number   1
_chemical_formula_structural   Li2Ti4O9
_chemical_formula_sum   'Li4 Ti8 O18'
_cell_volume   311.48357685
_cell_formula_units_Z   2
loop_
 _symmetry_equiv_pos_site_id
 _symmetry_equiv_pos_as_xyz
  1  'x, y, z'
loop_
 _atom_site_type_symbol
 _atom_site_label
 _atom_site_symmetry_multiplicity
 _atom_site_fract_x
 _atom_site_fract_y
 _atom_site_fract_z
 _atom_site_occupancy
  Li  Li0  1  0.99998438  0.00000585  0.14418587  1
  Li  Li1  1  0.99998516  0.99999460  0.35581582  1
  Li  Li2  1  0.99999873  0.00000229  0.64418513  1
  Li  Li3  1  0.99999508  0.00000228  0.85581663  1
  Ti  Ti4  1  0.33332745  0.66667553  0.02485147  1
  Ti  Ti5  1  0.33334660  0.66667766  0.31239359  1
  Ti  Ti6  1  0.33332247  0.66666554  0.52485229  1
  Ti  Ti7  1  0.33331748  0.66664822  0.81239155  1
  Ti  Ti8  1  0.66666673  0.33332294  0.18760627  1
  Ti  Ti9  1  0.66666536  0.33332690  0.68760924  1
  Ti  Ti10  1  0.66665414  0.33333287  0.47514856  1
  Ti  Ti11  1  0.66665870  0.33334260  0.97514673  1
  O  O12  1  0.99998720  0.65794566  0.75000035  1
  O  O13  1  0.02485133  0.64089242  0.41864417  1
  O  O14  1  0.35910882  0.97513858  0.91864404  1
  O  O15  1  -0.00000299  0.34206274  0.25000102  1
  O  O16  1  0.02486010  0.38397097  0.91864328  1
  O  O17  1  0.35909123  0.38396569  0.41864521  1
  O  O18  1  0.34204228  0.34204708  0.75000149  1
  O  O19  1  0.38396905  0.35911353  0.08135258  1
  O  O20  1  0.61602274  0.97512891  0.41864449  1
  O  O21  1  0.34205000  0.00000265  0.25000206  1
  O  O22  1  0.38396628  0.02486408  0.58135631  1
  O  O23  1  0.61602423  0.64090080  0.91864376  1
  O  O24  1  0.65793782  0.65794160  0.24999874  1
  O  O25  1  0.64088430  0.61602554  0.58135515  1
  O  O26  1  0.97512750  0.61602970  0.08135345  1
  O  O27  1  0.64088895  0.02487211  0.08135577  1
  O  O28  1  0.65794429  0.00000000  0.74999843  1
  O  O29  1  0.97512358  0.35910166  0.58135554  1
