# generated using pymatgen
data_Li4Cr3CoO8
_symmetry_space_group_name_H-M   'P 1'
_cell_length_a   5.10918514
_cell_length_b   5.86102178
_cell_length_c   10.56570145
_cell_angle_alpha   106.11825934
_cell_angle_beta   85.44213391
_cell_angle_gamma   73.34834710
_symmetry_Int_Tables_number   1
_chemical_formula_structural   Li4Cr3CoO8
_chemical_formula_sum   'Li8 Cr6 Co2 O16'
_cell_volume   286.82779342
_cell_formula_units_Z   2
loop_
 _symmetry_equiv_pos_site_id
 _symmetry_equiv_pos_as_xyz
  1  'x, y, z'
loop_
 _atom_site_type_symbol
 _atom_site_label
 _atom_site_symmetry_multiplicity
 _atom_site_fract_x
 _atom_site_fract_y
 _atom_site_fract_z
 _atom_site_occupancy
  Li  Li0  1  0.00618292  0.12096359  0.75004127  1
  Li  Li1  1  0.99778653  0.99997819  0.00376168  1
  Li  Li2  1  0.99186963  0.25505085  0.50145633  1
  Li  Li3  1  0.00811872  0.36998076  0.24854512  1
  Li  Li4  1  0.00224617  0.62502180  0.74623969  1
  Li  Li5  1  0.99382818  0.50403080  0.99996004  1
  Li  Li6  1  0.00000966  0.74898801  0.50218216  1
  Li  Li7  1  0.99996485  0.87603932  0.24781660  1
  Cr  Cr8  1  0.49969843  0.06058858  0.87517207  1
  Cr  Cr9  1  0.50019820  0.18742627  0.62521123  1
  Cr  Cr10  1  0.49997739  0.31249989  0.37497389  1
  Cr  Cr11  1  0.50033676  0.56439560  0.87484691  1
  Cr  Cr12  1  0.49979048  0.43761050  0.12480924  1
  Cr  Cr13  1  0.49998836  0.81248497  0.37496778  1
  Co  Co14  1  0.49990066  0.68746738  0.62482235  1
  Co  Co15  1  0.50010408  0.93752462  0.12517622  1
  O  O16  1  0.27653563  0.08468710  0.30744777  1
  O  O17  1  0.72695959  0.03837270  0.43971482  1
  O  O18  1  0.27306312  0.33750406  0.81126166  1
  O  O19  1  0.72695572  0.28748782  0.93875251  1
  O  O20  1  0.72237336  0.15945902  0.18833893  1
  O  O21  1  0.27650204  0.20656242  0.06196944  1
  O  O22  1  0.27762476  0.46552701  0.56166458  1
  O  O23  1  0.72351752  0.41842336  0.68802838  1
  O  O24  1  0.27298616  0.58663824  0.31028300  1
  O  O25  1  0.72342713  0.54030665  0.44254031  1
  O  O26  1  0.27655343  0.83390109  0.80657269  1
  O  O27  1  0.72348219  0.79107949  0.94343154  1
  O  O28  1  0.27792352  0.71650179  0.06144245  1
  O  O29  1  0.27674670  0.95753500  0.56195434  1
  O  O30  1  0.72324667  0.66747356  0.18805469  1
  O  O31  1  0.72210344  0.90848955  0.68855929  1
