# generated using pymatgen
data_Li3Mn(BO3)2
_symmetry_space_group_name_H-M   'P 1'
_cell_length_a   5.26012322
_cell_length_b   8.99817292
_cell_length_c   9.55486144
_cell_angle_alpha   90.00000000
_cell_angle_beta   91.81867154
_cell_angle_gamma   90.00000000
_symmetry_Int_Tables_number   1
_chemical_formula_structural   Li3Mn(BO3)2
_chemical_formula_sum   'Li12 Mn4 B8 O24'
_cell_volume   452.01809885
_cell_formula_units_Z   4
loop_
 _symmetry_equiv_pos_site_id
 _symmetry_equiv_pos_as_xyz
  1  'x, y, z'
loop_
 _atom_site_type_symbol
 _atom_site_label
 _atom_site_symmetry_multiplicity
 _atom_site_fract_x
 _atom_site_fract_y
 _atom_site_fract_z
 _atom_site_occupancy
  Li  Li0  1  0.15387857  0.97906245  0.66023065  1
  Li  Li1  1  0.17223321  0.65613041  0.62305369  1
  Li  Li2  1  0.17596011  0.99076778  0.10677517  1
  Li  Li3  1  0.32776679  0.15613041  0.87694631  1
  Li  Li4  1  0.32403989  0.49076778  0.39322483  1
  Li  Li5  1  0.34612143  0.47906245  0.83976935  1
  Li  Li6  1  0.65387857  0.52093755  0.16023065  1
  Li  Li7  1  0.67596011  0.50923222  0.60677517  1
  Li  Li8  1  0.67223321  0.84386959  0.12305369  1
  Li  Li9  1  0.82403989  0.00923222  0.89322483  1
  Li  Li10  1  0.82776679  0.34386959  0.37694631  1
  Li  Li11  1  0.84612143  0.02093755  0.33976935  1
  Mn  Mn12  1  0.14508357  0.31639896  0.12425043  1
  Mn  Mn13  1  0.35491643  0.81639896  0.37574957  1
  Mn  Mn14  1  0.64508357  0.18360104  0.62425043  1
  Mn  Mn15  1  0.85491643  0.68360104  0.87574957  1
  B  B16  1  0.16938560  0.32284908  0.62088714  1
  B  B17  1  0.16690025  0.66230546  0.13017872  1
  B  B18  1  0.33061440  0.82284908  0.87911286  1
  B  B19  1  0.33309975  0.16230546  0.36982128  1
  B  B20  1  0.66690025  0.83769454  0.63017872  1
  B  B21  1  0.66938560  0.17715092  0.12088714  1
  B  B22  1  0.83309975  0.33769454  0.86982128  1
  B  B23  1  0.83061440  0.67715092  0.37911286  1
  O  O24  1  0.08705566  0.32477141  0.92088605  1
  O  O25  1  0.09056713  0.66682179  0.40844039  1
  O  O26  1  0.18306190  0.94820049  0.88144417  1
  O  O27  1  0.21166573  0.02975963  0.35995290  1
  O  O28  1  0.20673080  0.29374452  0.32610257  1
  O  O29  1  0.22603413  0.68315813  0.84724033  1
  O  O30  1  0.27396587  0.18315813  0.65275967  1
  O  O31  1  0.29326920  0.79374452  0.17389743  1
  O  O32  1  0.28833427  0.52975963  0.14004710  1
  O  O33  1  0.31693810  0.44820049  0.61855583  1
  O  O34  1  0.41294434  0.82477141  0.57911395  1
  O  O35  1  0.40943287  0.16682179  0.09155961  1
  O  O36  1  0.59056713  0.83317821  0.90844039  1
  O  O37  1  0.58705566  0.17522859  0.42088605  1
  O  O38  1  0.68306190  0.55179951  0.38144417  1
  O  O39  1  0.71166573  0.47024037  0.85995290  1
  O  O40  1  0.70673080  0.20625548  0.82610257  1
  O  O41  1  0.72603413  0.81684187  0.34724033  1
  O  O42  1  0.77396587  0.31684187  0.15275967  1
  O  O43  1  0.79326920  0.70625548  0.67389743  1
  O  O44  1  0.78833427  0.97024037  0.64004710  1
  O  O45  1  0.81693810  0.05179951  0.11855583  1
  O  O46  1  0.90943287  0.33317821  0.59155961  1
  O  O47  1  0.91294434  0.67522859  0.07911395  1
