# generated using pymatgen
data_MoPt
_symmetry_space_group_name_H-M   'P 1'
_cell_length_a   4.50379489
_cell_length_b   5.64626142
_cell_length_c   5.67413459
_cell_angle_alpha   120.16996803
_cell_angle_beta   90.00000000
_cell_angle_gamma   90.00000000
_symmetry_Int_Tables_number   1
_chemical_formula_structural   MoPt
_chemical_formula_sum   'Mo4 Pt4'
_cell_volume   124.74509521
_cell_formula_units_Z   4
loop_
 _symmetry_equiv_pos_site_id
 _symmetry_equiv_pos_as_xyz
  1  'x, y, z'
loop_
 _atom_site_type_symbol
 _atom_site_label
 _atom_site_symmetry_multiplicity
 _atom_site_fract_x
 _atom_site_fract_y
 _atom_site_fract_z
 _atom_site_occupancy
  Mo  Mo0  1  0.75000000  0.66957022  0.33475968  1
  Mo  Mo1  1  0.25000000  0.33344213  0.66674043  1
  Mo  Mo2  1  0.75000000  0.15957152  0.33902206  1
  Mo  Mo3  1  0.75000000  0.15947610  0.82048345  1
  Pt  Pt4  1  0.75000000  0.67008855  0.83505340  1
  Pt  Pt5  1  0.25000000  0.83648959  0.67036429  1
  Pt  Pt6  1  0.25000000  0.83649241  0.16613852  1
  Pt  Pt7  1  0.25000000  0.33486948  0.16743818  1
