# generated using pymatgen
data_Li2CoNi3O8
_symmetry_space_group_name_H-M   'P 1'
_cell_length_a   8.20923439
_cell_length_b   8.09635606
_cell_length_c   8.14900084
_cell_angle_alpha   90.04238552
_cell_angle_beta   90.05684441
_cell_angle_gamma   89.81740264
_symmetry_Int_Tables_number   1
_chemical_formula_structural   Li2CoNi3O8
_chemical_formula_sum   'Li8 Co4 Ni12 O32'
_cell_volume   541.61923667
_cell_formula_units_Z   4
loop_
 _symmetry_equiv_pos_site_id
 _symmetry_equiv_pos_as_xyz
  1  'x, y, z'
loop_
 _atom_site_type_symbol
 _atom_site_label
 _atom_site_symmetry_multiplicity
 _atom_site_fract_x
 _atom_site_fract_y
 _atom_site_fract_z
 _atom_site_occupancy
  Li  Li0  1  0.99928068  0.00075357  0.99807364  1
  Li  Li1  1  0.25003144  0.24903323  0.25230453  1
  Li  Li2  1  0.24807260  0.74831002  0.74784102  1
  Li  Li3  1  0.49913078  0.00107683  0.49800752  1
  Li  Li4  1  0.50252731  0.49935374  0.00135683  1
  Li  Li5  1  0.75038086  0.24927203  0.75314525  1
  Li  Li6  1  0.74781725  0.75042169  0.24886894  1
  Li  Li7  1  0.00270131  0.50160880  0.50093042  1
  Co  Co8  1  0.12372701  0.87466433  0.37462253  1
  Co  Co9  1  0.37478648  0.12501013  0.87505961  1
  Co  Co10  1  0.62501346  0.62518947  0.62441859  1
  Co  Co11  1  0.87702614  0.37509630  0.12635043  1
  Ni  Ni12  1  0.12613209  0.12357039  0.62454903  1
  Ni  Ni13  1  0.12567910  0.37470214  0.87745945  1
  Ni  Ni14  1  0.12342218  0.62488382  0.12713294  1
  Ni  Ni15  1  0.37706113  0.37493078  0.62682570  1
  Ni  Ni16  1  0.37544193  0.62612500  0.37566264  1
  Ni  Ni17  1  0.37202433  0.87642419  0.12362774  1
  Ni  Ni18  1  0.62825998  0.37610029  0.37580911  1
  Ni  Ni19  1  0.62536953  0.12604765  0.12346044  1
  Ni  Ni20  1  0.62258310  0.87455082  0.87239949  1
  Ni  Ni21  1  0.87668121  0.12500035  0.37314577  1
  Ni  Ni22  1  0.87375088  0.87371205  0.62286671  1
  Ni  Ni23  1  0.87287073  0.62401050  0.87577136  1
  O  O24  1  0.10906482  0.10938223  0.38712001  1
  O  O25  1  0.11602156  0.88950452  0.60851911  1
  O  O26  1  0.11022481  0.60955472  0.89210705  1
  O  O27  1  0.14093878  0.14053843  0.86277481  1
  O  O28  1  0.11010719  0.39054556  0.11593499  1
  O  O29  1  0.14271220  0.35953016  0.63755816  1
  O  O30  1  0.13298341  0.64082324  0.35872787  1
  O  O31  1  0.13642929  0.86008957  0.13925599  1
  O  O32  1  0.36243061  0.13898102  0.64078591  1
  O  O33  1  0.36785744  0.36000527  0.85973381  1
  O  O34  1  0.35831213  0.64083946  0.13775895  1
  O  O35  1  0.39184810  0.61121818  0.61200450  1
  O  O36  1  0.35754097  0.86159787  0.36211911  1
  O  O37  1  0.39134636  0.38959180  0.39122058  1
  O  O38  1  0.37976109  0.10909318  0.10794266  1
  O  O39  1  0.38898528  0.88974575  0.88522885  1
  O  O40  1  0.61151208  0.39022918  0.61415373  1
  O  O41  1  0.61838081  0.60863113  0.39070695  1
  O  O42  1  0.60822438  0.88938526  0.10786055  1
  O  O43  1  0.64336335  0.36145405  0.13760046  1
  O  O44  1  0.60725662  0.10975837  0.88602046  1
  O  O45  1  0.64359793  0.14095712  0.36259952  1
  O  O46  1  0.63143036  0.85984901  0.64041169  1
  O  O47  1  0.63723437  0.63989295  0.85921616  1
  O  O48  1  0.86390497  0.36021660  0.36112671  1
  O  O49  1  0.87031899  0.14110289  0.14186052  1
  O  O50  1  0.85643257  0.85987247  0.86176202  1
  O  O51  1  0.89059740  0.88971590  0.38535655  1
  O  O52  1  0.85815744  0.63978632  0.63503281  1
  O  O53  1  0.88867448  0.10920139  0.60892444  1
  O  O54  1  0.88390657  0.38986078  0.89283843  1
  O  O55  1  0.89067315  0.60933946  0.11618197  1
