# generated using pymatgen
data_Ti3Mn2V(PO4)6
_symmetry_space_group_name_H-M   'P 1'
_cell_length_a   8.68386489
_cell_length_b   8.66733652
_cell_length_c   8.66733677
_cell_angle_alpha   60.00000188
_cell_angle_beta   60.06293676
_cell_angle_gamma   60.06294032
_symmetry_Int_Tables_number   1
_chemical_formula_structural   Ti3Mn2V(PO4)6
_chemical_formula_sum   'Ti3 Mn2 V1 P6 O24'
_cell_volume   461.72340891
_cell_formula_units_Z   1
loop_
 _symmetry_equiv_pos_site_id
 _symmetry_equiv_pos_as_xyz
  1  'x, y, z'
loop_
 _atom_site_type_symbol
 _atom_site_label
 _atom_site_symmetry_multiplicity
 _atom_site_fract_x
 _atom_site_fract_y
 _atom_site_fract_z
 _atom_site_occupancy
  Ti  Ti0  1  0.06264502  0.64578533  0.64578533  1
  Ti  Ti1  1  0.43514683  0.85495072  0.85495072  1
  Ti  Ti2  1  0.93961185  0.35346272  0.35346272  1
  Mn  Mn3  1  0.99870605  0.00043165  0.00043165  1
  Mn  Mn4  1  0.49788036  0.50070621  0.50070621  1
  V  V5  1  0.57109914  0.14296695  0.14296695  1
  P  P6  1  0.25197536  0.24958515  0.54226579  1
  P  P7  1  0.25197536  0.95617371  0.24958515  1
  P  P8  1  0.25197536  0.54226579  0.95617371  1
  P  P9  1  0.75014336  0.45674469  0.04384587  1
  P  P10  1  0.75014336  0.04384587  0.74926508  1
  P  P11  1  0.75014336  0.74926508  0.45674469  1
  O  O12  1  0.07097043  0.11942366  0.30957048  1
  O  O13  1  0.07097043  0.50003543  0.11942366  1
  O  O14  1  0.07097043  0.30957048  0.50003543  1
  O  O15  1  0.23510912  0.08635893  0.73733649  1
  O  O16  1  0.42793442  0.19409601  0.38745666  1
  O  O17  1  0.25707035  0.41559125  0.56437804  1
  O  O18  1  0.23510912  0.94119445  0.08635893  1
  O  O19  1  0.25707035  0.76295936  0.41559125  1
  O  O20  1  0.57177083  0.61904543  0.00050605  1
  O  O21  1  0.25707035  0.56437804  0.76295936  1
  O  O22  1  0.76944389  0.26546309  0.05658155  1
  O  O23  1  0.57177083  0.00050605  0.80867769  1
  O  O24  1  0.42793442  0.99051291  0.19409601  1
  O  O25  1  0.23510912  0.73733649  0.94119445  1
  O  O26  1  0.73658524  0.44424295  0.23575769  1
  O  O27  1  0.42793442  0.38745666  0.99051291  1
  O  O28  1  0.73658524  0.23575769  0.58341412  1
  O  O29  1  0.76944389  0.05658155  0.90851147  1
  O  O30  1  0.73658524  0.58341412  0.44424295  1
  O  O31  1  0.57177083  0.80867769  0.61904543  1
  O  O32  1  0.76944389  0.90851147  0.26546309  1
  O  O33  1  0.92729958  0.68646741  0.50372093  1
  O  O34  1  0.92729958  0.50372093  0.88251208  1
  O  O35  1  0.92729958  0.88251208  0.68646741  1
