# generated using pymatgen
data_NaMnPCO7
_symmetry_space_group_name_H-M   'P 1'
_cell_length_a   9.16097651
_cell_length_b   8.13129576
_cell_length_c   8.14556021
_cell_angle_alpha   100.66520001
_cell_angle_beta   88.63547452
_cell_angle_gamma   88.51263571
_symmetry_Int_Tables_number   1
_chemical_formula_structural   NaMnPCO7
_chemical_formula_sum   'Na4 Mn4 P4 C4 O28'
_cell_volume   595.83220357
_cell_formula_units_Z   4
loop_
 _symmetry_equiv_pos_site_id
 _symmetry_equiv_pos_as_xyz
  1  'x, y, z'
loop_
 _atom_site_type_symbol
 _atom_site_label
 _atom_site_symmetry_multiplicity
 _atom_site_fract_x
 _atom_site_fract_y
 _atom_site_fract_z
 _atom_site_occupancy
  Na  Na0  1  0.75451298  0.60390977  0.14914923  1
  Na  Na1  1  0.75498792  0.89962276  0.85396753  1
  Na  Na2  1  0.24501208  0.60037724  0.64603247  1
  Na  Na3  1  0.24548702  0.89609023  0.35085077  1
  Mn  Mn4  1  0.65959508  0.47627560  0.72806053  1
  Mn  Mn5  1  0.65542822  0.98923180  0.23768019  1
  Mn  Mn6  1  0.34457178  0.51076820  0.26231981  1
  Mn  Mn7  1  0.34040492  0.02372440  0.77193947  1
  P  P8  1  0.56678463  0.26515354  0.01254236  1
  P  P9  1  0.56596976  0.76704924  0.51870378  1
  P  P10  1  0.43321537  0.23484646  0.48745764  1
  P  P11  1  0.43403024  0.73295076  0.98129622  1
  C  C12  1  0.91842734  0.01299879  0.25802821  1
  C  C13  1  0.92052447  0.50988481  0.76386570  1
  C  C14  1  0.08157266  0.48700121  0.24197179  1
  C  C15  1  0.07947553  0.99011519  0.73613430  1
  O  O16  1  0.94877971  0.47368704  0.23129521  1
  O  O17  1  0.94802063  0.97222601  0.71586432  1
  O  O18  1  0.86015852  0.39822313  0.65048880  1
  O  O19  1  0.85258915  0.89830720  0.14746178  1
  O  O20  1  0.81901688  0.10867364  0.35350598  1
  O  O21  1  0.81574840  0.60552192  0.85753633  1
  O  O22  1  0.66540953  0.13061399  0.07286375  1
  O  O23  1  0.66849258  0.63949690  0.58241814  1
  O  O24  1  0.67240237  0.33308016  0.89102907  1
  O  O25  1  0.66311599  0.82468542  0.38169368  1
  O  O26  1  0.52649958  0.41143077  0.16122086  1
  O  O27  1  0.57311731  0.30693999  0.56527062  1
  O  O28  1  0.57691192  0.80884200  0.05501617  1
  O  O29  1  0.52505261  0.91432542  0.66503099  1
  O  O30  1  0.47350042  0.08856923  0.33877914  1
  O  O31  1  0.42688269  0.19306001  0.93472938  1
  O  O32  1  0.42308808  0.69115800  0.44498383  1
  O  O33  1  0.47494739  0.58567458  0.83496901  1
  O  O34  1  0.32759763  0.16691984  0.60897093  1
  O  O35  1  0.33459047  0.36938601  0.42713625  1
  O  O36  1  0.33688401  0.67531458  0.11830632  1
  O  O37  1  0.33150742  0.86050310  0.91758186  1
  O  O38  1  0.18098312  0.39132636  0.14649402  1
  O  O39  1  0.18425160  0.89447808  0.64246367  1
  O  O40  1  0.13984148  0.10177687  0.84951120  1
  O  O41  1  0.14741085  0.60169280  0.35253822  1
  O  O42  1  0.05122029  0.02631296  0.26870479  1
  O  O43  1  0.05197937  0.52777399  0.78413568  1
