# generated using pymatgen
data_LiVCrO4
_symmetry_space_group_name_H-M   'P 1'
_cell_length_a   5.91783825
_cell_length_b   5.95567743
_cell_length_c   5.95567682
_cell_angle_alpha   60.60241404
_cell_angle_beta   60.20994595
_cell_angle_gamma   60.20994935
_symmetry_Int_Tables_number   1
_chemical_formula_structural   LiVCrO4
_chemical_formula_sum   'Li2 V2 Cr2 O8'
_cell_volume   149.56575948
_cell_formula_units_Z   2
loop_
 _symmetry_equiv_pos_site_id
 _symmetry_equiv_pos_as_xyz
  1  'x, y, z'
loop_
 _atom_site_type_symbol
 _atom_site_label
 _atom_site_symmetry_multiplicity
 _atom_site_fract_x
 _atom_site_fract_y
 _atom_site_fract_z
 _atom_site_occupancy
  Li  Li0  1  0.12241310  0.12758690  0.12758690  1
  Li  Li1  1  0.87758690  0.87241310  0.87241310  1
  V  V2  1  0.00000000  0.50000000  0.50000000  1
  V  V3  1  0.50000000  0.50000000  0.50000000  1
  Cr  Cr4  1  0.50000000  0.00000000  0.50000000  1
  Cr  Cr5  1  0.50000000  0.50000000  0.00000000  1
  O  O6  1  0.25726773  0.26651173  0.26651173  1
  O  O7  1  0.25809483  0.27507631  0.70873404  1
  O  O8  1  0.25809483  0.70873404  0.27507631  1
  O  O9  1  0.70970880  0.26651173  0.26651173  1
  O  O10  1  0.29029120  0.73348827  0.73348827  1
  O  O11  1  0.74190517  0.72492369  0.29126596  1
  O  O12  1  0.74190517  0.29126596  0.72492369  1
  O  O13  1  0.74273227  0.73348827  0.73348827  1
