# generated using pymatgen
data_Li3Mn2(PO4)3
_symmetry_space_group_name_H-M   'P 1'
_cell_length_a   8.55590288
_cell_length_b   12.46532460
_cell_length_c   8.78739925
_cell_angle_alpha   90.00000000
_cell_angle_beta   90.00000000
_cell_angle_gamma   91.92474383
_symmetry_Int_Tables_number   1
_chemical_formula_structural   Li3Mn2(PO4)3
_chemical_formula_sum   'Li12 Mn8 P12 O48'
_cell_volume   936.66588086
_cell_formula_units_Z   4
loop_
 _symmetry_equiv_pos_site_id
 _symmetry_equiv_pos_as_xyz
  1  'x, y, z'
loop_
 _atom_site_type_symbol
 _atom_site_label
 _atom_site_symmetry_multiplicity
 _atom_site_fract_x
 _atom_site_fract_y
 _atom_site_fract_z
 _atom_site_occupancy
  Li  Li0  1  0.06336993  0.70554180  0.06572522  1
  Li  Li1  1  0.22080178  0.17643658  0.77715459  1
  Li  Li2  1  0.20338500  0.81326359  0.73449439  1
  Li  Li3  1  0.29661500  0.68673641  0.23449439  1
  Li  Li4  1  0.27919822  0.32356342  0.27715459  1
  Li  Li5  1  0.43663007  0.79445820  0.56572522  1
  Li  Li6  1  0.56336993  0.20554180  0.43427478  1
  Li  Li7  1  0.72080178  0.67643658  0.72284541  1
  Li  Li8  1  0.70338500  0.31326359  0.76550561  1
  Li  Li9  1  0.79661500  0.18673641  0.26550561  1
  Li  Li10  1  0.77919822  0.82356342  0.22284541  1
  Li  Li11  1  0.93663007  0.29445820  0.93427478  1
  Mn  Mn12  1  0.24872627  0.60129733  0.54241835  1
  Mn  Mn13  1  0.25127373  0.89870267  0.04241835  1
  Mn  Mn14  1  0.24415780  0.11104701  0.45712065  1
  Mn  Mn15  1  0.25584220  0.38895299  0.95712065  1
  Mn  Mn16  1  0.74415780  0.61104701  0.04287935  1
  Mn  Mn17  1  0.75584220  0.88895299  0.54287935  1
  Mn  Mn18  1  0.74872627  0.10129733  0.95758165  1
  Mn  Mn19  1  0.75127373  0.39870267  0.45758165  1
  P  P20  1  0.03929793  0.50390919  0.24970604  1
  P  P21  1  0.10621493  0.85890567  0.39266112  1
  P  P22  1  0.10606775  0.15329329  0.09625859  1
  P  P23  1  0.39393225  0.34670671  0.59625859  1
  P  P24  1  0.39378507  0.64109433  0.89266112  1
  P  P25  1  0.46070207  0.99609081  0.74970604  1
  P  P26  1  0.53929793  0.00390919  0.25029396  1
  P  P27  1  0.60621493  0.35890567  0.10733888  1
  P  P28  1  0.60606775  0.65329329  0.40374141  1
  P  P29  1  0.89393225  0.84670671  0.90374141  1
  P  P30  1  0.89378507  0.14109433  0.60733888  1
  P  P31  1  0.96070207  0.49609081  0.75029396  1
  O  O32  1  0.05059092  0.42869066  0.86855342  1
  O  O33  1  0.06771469  0.57623261  0.66159135  1
  O  O34  1  0.07860280  0.84731292  0.90727503  1
  O  O35  1  0.07285652  0.16460653  0.59041575  1
  O  O36  1  0.12454087  0.59109899  0.34942615  1
  O  O37  1  0.13768023  0.98075519  0.40044722  1
  O  O38  1  0.14838885  0.81752062  0.22796633  1
  O  O39  1  0.15155315  0.24198048  0.97402972  1
  O  O40  1  0.16104543  0.43435838  0.17338727  1
  O  O41  1  0.15662471  0.18899245  0.25471758  1
  O  O42  1  0.16967608  0.04873894  0.04102096  1
  O  O43  1  0.20219675  0.79949653  0.51324547  1
  O  O44  1  0.29780325  0.70050347  0.01324547  1
  O  O45  1  0.33032392  0.45126106  0.54102096  1
  O  O46  1  0.34337529  0.31100755  0.75471758  1
  O  O47  1  0.33895457  0.06564162  0.67338727  1
  O  O48  1  0.34844685  0.25801952  0.47402972  1
  O  O49  1  0.35161115  0.68247938  0.72796633  1
  O  O50  1  0.36231977  0.51924481  0.90044722  1
  O  O51  1  0.37545913  0.90890101  0.84942615  1
  O  O52  1  0.42139720  0.65268708  0.40727503  1
  O  O53  1  0.42714348  0.33539347  0.09041575  1
  O  O54  1  0.43228531  0.92376739  0.16159135  1
  O  O55  1  0.44940908  0.07130934  0.36855342  1
  O  O56  1  0.55059092  0.92869066  0.63144658  1
  O  O57  1  0.56771469  0.07623261  0.83840865  1
  O  O58  1  0.57285652  0.66460653  0.90958425  1
  O  O59  1  0.57860280  0.34731292  0.59272497  1
  O  O60  1  0.62454087  0.09109899  0.15057385  1
  O  O61  1  0.63768023  0.48075519  0.09955278  1
  O  O62  1  0.64838885  0.31752062  0.27203367  1
  O  O63  1  0.65155315  0.74198048  0.52597028  1
  O  O64  1  0.66104543  0.93435838  0.32661273  1
  O  O65  1  0.65662471  0.68899245  0.24528242  1
  O  O66  1  0.66967608  0.54873894  0.45897904  1
  O  O67  1  0.70219675  0.29949653  0.98675453  1
  O  O68  1  0.79780325  0.20050347  0.48675453  1
  O  O69  1  0.83032392  0.95126106  0.95897904  1
  O  O70  1  0.84337529  0.81100755  0.74528242  1
  O  O71  1  0.83895457  0.56564162  0.82661273  1
  O  O72  1  0.84844685  0.75801952  0.02597028  1
  O  O73  1  0.85161115  0.18247938  0.77203367  1
  O  O74  1  0.86231977  0.01924481  0.59955278  1
  O  O75  1  0.87545913  0.40890101  0.65057385  1
  O  O76  1  0.92714348  0.83539347  0.40958425  1
  O  O77  1  0.92139720  0.15268708  0.09272497  1
  O  O78  1  0.93228531  0.42376739  0.33840865  1
  O  O79  1  0.94940908  0.57130934  0.13144658  1
