# generated using pymatgen
data_Li2Ti3FeO8
_symmetry_space_group_name_H-M   'P 1'
_cell_length_a   8.50926209
_cell_length_b   8.50648945
_cell_length_c   8.50579550
_cell_angle_alpha   89.92432147
_cell_angle_beta   90.20787683
_cell_angle_gamma   90.23098884
_symmetry_Int_Tables_number   1
_chemical_formula_structural   Li2Ti3FeO8
_chemical_formula_sum   'Li8 Ti12 Fe4 O32'
_cell_volume   615.67348043
_cell_formula_units_Z   4
loop_
 _symmetry_equiv_pos_site_id
 _symmetry_equiv_pos_as_xyz
  1  'x, y, z'
loop_
 _atom_site_type_symbol
 _atom_site_label
 _atom_site_symmetry_multiplicity
 _atom_site_fract_x
 _atom_site_fract_y
 _atom_site_fract_z
 _atom_site_occupancy
  Li  Li0  1  0.99954849  0.99987712  0.99928060  1
  Li  Li1  1  0.25002118  0.25077503  0.24988080  1
  Li  Li2  1  0.24862420  0.74869776  0.75094540  1
  Li  Li3  1  0.49960876  0.00066687  0.49898487  1
  Li  Li4  1  0.49899822  0.50182583  0.00186763  1
  Li  Li5  1  0.75136964  0.24780306  0.74763519  1
  Li  Li6  1  0.75020934  0.75108454  0.24965752  1
  Li  Li7  1  0.00159508  0.49943752  0.50166648  1
  Ti  Ti8  1  0.12885301  0.11848474  0.62740758  1
  Ti  Ti9  1  0.12402475  0.37707934  0.87264458  1
  Ti  Ti10  1  0.12169040  0.62337854  0.13069908  1
  Ti  Ti11  1  0.37550544  0.37721066  0.62885625  1
  Ti  Ti12  1  0.37927533  0.62958982  0.37534246  1
  Ti  Ti13  1  0.37155204  0.87590543  0.11859670  1
  Ti  Ti14  1  0.61887931  0.37053663  0.37635739  1
  Ti  Ti15  1  0.62536774  0.12761298  0.12235108  1
  Ti  Ti16  1  0.63078977  0.87455553  0.87861520  1
  Ti  Ti17  1  0.87928297  0.13271305  0.37476390  1
  Ti  Ti18  1  0.87052272  0.87361418  0.61913925  1
  Ti  Ti19  1  0.87411359  0.62218290  0.87389895  1
  Fe  Fe20  1  0.12509713  0.87572992  0.37418456  1
  Fe  Fe21  1  0.37472848  0.12429377  0.87498845  1
  Fe  Fe22  1  0.62501345  0.62535564  0.62454295  1
  Fe  Fe23  1  0.87508590  0.37512642  0.12595375  1
  O  O24  1  0.10247242  0.12837286  0.39144836  1
  O  O25  1  0.10756539  0.89669531  0.62950800  1
  O  O26  1  0.11191472  0.61156374  0.88649314  1
  O  O27  1  0.12486835  0.14769904  0.85898049  1
  O  O28  1  0.12413051  0.39109609  0.10229620  1
  O  O29  1  0.13814133  0.36357576  0.63850715  1
  O  O30  1  0.14247555  0.62079843  0.35303914  1
  O  O31  1  0.14792367  0.85826388  0.12094320  1
  O  O32  1  0.35267971  0.14304425  0.62069648  1
  O  O33  1  0.35885709  0.37569364  0.85457791  1
  O  O34  1  0.36259000  0.63778352  0.13780233  1
  O  O35  1  0.37093230  0.60718419  0.60234241  1
  O  O36  1  0.37353618  0.85300185  0.35936999  1
  O  O37  1  0.38827330  0.38626499  0.38671303  1
  O  O38  1  0.39330576  0.10172908  0.12936093  1
  O  O39  1  0.39785438  0.87472621  0.89051380  1
  O  O40  1  0.60348850  0.37381259  0.60830640  1
  O  O41  1  0.60863946  0.60274710  0.37511586  1
  O  O42  1  0.61330602  0.88671468  0.11188105  1
  O  O43  1  0.62458160  0.35387592  0.14165092  1
  O  O44  1  0.62639565  0.10826555  0.89613552  1
  O  O45  1  0.63666288  0.13820495  0.36329154  1
  O  O46  1  0.64132192  0.87573635  0.64725643  1
  O  O47  1  0.64622259  0.64150146  0.87513543  1
  O  O48  1  0.85215713  0.35969671  0.37623410  1
  O  O49  1  0.85669365  0.12067519  0.14837142  1
  O  O50  1  0.86159626  0.86286968  0.86388023  1
  O  O51  1  0.87658883  0.89054555  0.39657081  1
  O  O52  1  0.87901665  0.64745980  0.64297603  1
  O  O53  1  0.88765567  0.11198453  0.61180064  1
  O  O54  1  0.89109962  0.39566333  0.87349265  1
  O  O55  1  0.89729592  0.62936251  0.10719880  1
