# generated using pymatgen
data_Na3Mn2P2(CO7)2
_symmetry_space_group_name_H-M   'P 1'
_cell_length_a   10.36602390
_cell_length_b   6.57297486
_cell_length_c   10.43403589
_cell_angle_alpha   90.00000000
_cell_angle_beta   121.20850673
_cell_angle_gamma   90.00000000
_symmetry_Int_Tables_number   1
_chemical_formula_structural   Na3Mn2P2(CO7)2
_chemical_formula_sum   'Na6 Mn4 P4 C4 O28'
_cell_volume   608.04895490
_cell_formula_units_Z   2
loop_
 _symmetry_equiv_pos_site_id
 _symmetry_equiv_pos_as_xyz
  1  'x, y, z'
loop_
 _atom_site_type_symbol
 _atom_site_label
 _atom_site_symmetry_multiplicity
 _atom_site_fract_x
 _atom_site_fract_y
 _atom_site_fract_z
 _atom_site_occupancy
  Na  Na0  1  0.00084039  0.47769206  0.24161478  1
  Na  Na1  1  0.49645156  0.00981064  0.24340694  1
  Na  Na2  1  0.49748638  0.49286615  0.24203010  1
  Na  Na3  1  0.50354844  0.50981064  0.75659306  1
  Na  Na4  1  0.50251362  0.99286615  0.75796990  1
  Na  Na5  1  0.99915961  0.97769206  0.75838522  1
  Mn  Mn6  1  0.27522652  0.75810483  0.34410823  1
  Mn  Mn7  1  0.78662538  0.75446774  0.34864197  1
  Mn  Mn8  1  0.21337462  0.25446774  0.65135803  1
  Mn  Mn9  1  0.72477348  0.25810483  0.65589177  1
  P  P10  1  0.35860699  0.25252432  0.42417516  1
  P  P11  1  0.85480134  0.25118641  0.42573179  1
  P  P12  1  0.14519866  0.75118641  0.57426821  1
  P  P13  1  0.64139301  0.75252432  0.57582484  1
  C  C14  1  0.17015187  0.74589648  0.07256012  1
  C  C15  1  0.67200806  0.74894693  0.07493683  1
  C  C16  1  0.32799194  0.24894693  0.92506317  1
  C  C17  1  0.82984813  0.24589648  0.92743988  1
  O  O18  1  0.39042343  0.24985111  0.06406405  1
  O  O19  1  0.88240870  0.24569465  0.06354081  1
  O  O20  1  0.09162863  0.74351616  0.13931559  1
  O  O21  1  0.59634246  0.75425596  0.14573759  1
  O  O22  1  0.31802764  0.75052082  0.17468487  1
  O  O23  1  0.81771270  0.74292241  0.16921064  1
  O  O24  1  0.28134811  0.06488998  0.32616303  1
  O  O25  1  0.27422772  0.44063403  0.32853621  1
  O  O26  1  0.76858313  0.06498864  0.32819205  1
  O  O27  1  0.77010744  0.43955044  0.32995328  1
  O  O28  1  0.02133594  0.25698104  0.46277350  1
  O  O29  1  0.14013280  0.74492812  0.42349459  1
  O  O30  1  0.52682739  0.25795422  0.46117618  1
  O  O31  1  0.63859932  0.74971787  0.42555581  1
  O  O32  1  0.36140068  0.24971787  0.57444419  1
  O  O33  1  0.47317261  0.75795422  0.53882382  1
  O  O34  1  0.85986720  0.24492812  0.57650541  1
  O  O35  1  0.97866406  0.75698104  0.53722650  1
  O  O36  1  0.23141687  0.56498864  0.67180795  1
  O  O37  1  0.22989256  0.93955044  0.67004672  1
  O  O38  1  0.71865189  0.56488998  0.67383697  1
  O  O39  1  0.72577228  0.94063403  0.67146379  1
  O  O40  1  0.18228730  0.24292241  0.83078936  1
  O  O41  1  0.68197236  0.25052082  0.82531513  1
  O  O42  1  0.40365754  0.25425596  0.85426241  1
  O  O43  1  0.90837137  0.24351616  0.86068441  1
  O  O44  1  0.11759130  0.74569465  0.93645919  1
  O  O45  1  0.60957657  0.74985111  0.93593595  1
