# generated using pymatgen
data_Li2AlCr2SbO8
_symmetry_space_group_name_H-M   'P 1'
_cell_length_a   5.89089136
_cell_length_b   5.87838478
_cell_length_c   28.78574141
_cell_angle_alpha   90.04821439
_cell_angle_beta   89.85807554
_cell_angle_gamma   119.83236989
_symmetry_Int_Tables_number   1
_chemical_formula_structural   Li2AlCr2SbO8
_chemical_formula_sum   'Li12 Al6 Cr12 Sb6 O48'
_cell_volume   864.72260593
_cell_formula_units_Z   6
loop_
 _symmetry_equiv_pos_site_id
 _symmetry_equiv_pos_as_xyz
  1  'x, y, z'
loop_
 _atom_site_type_symbol
 _atom_site_label
 _atom_site_symmetry_multiplicity
 _atom_site_fract_x
 _atom_site_fract_y
 _atom_site_fract_z
 _atom_site_occupancy
  Li  Li0  1  0.33353970  0.66706992  0.63408963  1
  Li  Li1  1  0.33257128  0.66678824  0.30100040  1
  Li  Li2  1  0.33257709  0.66653155  0.96676263  1
  Li  Li3  1  0.00039522  0.00010218  0.99446926  1
  Li  Li4  1  0.99779037  0.00266733  0.16388164  1
  Li  Li5  1  0.00059545  0.99959629  0.32938863  1
  Li  Li6  1  0.99510148  0.99743470  0.49796076  1
  Li  Li7  1  0.00078214  0.00024705  0.66194747  1
  Li  Li8  1  0.00056859  0.00013976  0.83145861  1
  Li  Li9  1  0.66820021  0.33233022  0.13511153  1
  Li  Li10  1  0.66767001  0.33365308  0.80281318  1
  Li  Li11  1  0.66865805  0.33381430  0.46916176  1
  Al  Al12  1  0.34145393  0.17087003  0.90483367  1
  Al  Al13  1  0.83007823  0.65881957  0.57168059  1
  Al  Al14  1  0.82897240  0.65858262  0.90480229  1
  Al  Al15  1  0.82912169  0.17057124  0.23821860  1
  Al  Al16  1  0.83020971  0.17145012  0.57167199  1
  Al  Al17  1  0.82909928  0.17055444  0.90478495  1
  Cr  Cr18  1  0.16948015  0.83034482  0.07067100  1
  Cr  Cr19  1  0.16995756  0.83000221  0.40487895  1
  Cr  Cr20  1  0.17087995  0.83123014  0.73828412  1
  Cr  Cr21  1  0.16964587  0.33899553  0.07074319  1
  Cr  Cr22  1  0.17024753  0.33863946  0.40493980  1
  Cr  Cr23  1  0.17086295  0.33978142  0.73825607  1
  Cr  Cr24  1  0.66089985  0.83020689  0.07071496  1
  Cr  Cr25  1  0.66079369  0.82941442  0.40507869  1
  Cr  Cr26  1  0.66163881  0.83090504  0.73833850  1
  Cr  Cr27  1  0.33974903  0.16965113  0.23787623  1
  Cr  Cr28  1  0.34060916  0.17041955  0.57123184  1
  Cr  Cr29  1  0.83024310  0.66030709  0.23779825  1
  Sb  Sb30  1  0.33308252  0.66732050  0.16254850  1
  Sb  Sb31  1  0.33118145  0.66539486  0.49682688  1
  Sb  Sb32  1  0.33388004  0.66679743  0.83049686  1
  Sb  Sb33  1  0.66836592  0.33158904  0.32877119  1
  Sb  Sb34  1  0.67074125  0.33547729  0.66175967  1
  Sb  Sb35  1  0.66649583  0.33328229  0.99419729  1
  O  O36  1  0.15440379  0.82711270  0.53327629  1
  O  O37  1  0.16344398  0.83698036  0.19804269  1
  O  O38  1  0.16506334  0.83559990  0.86763194  1
  O  O39  1  0.03504154  0.51787280  0.11426528  1
  O  O40  1  0.03576834  0.51817255  0.78203854  1
  O  O41  1  0.03475097  0.51709367  0.44823956  1
  O  O42  1  0.33513827  0.66737410  0.70267119  1
  O  O43  1  0.33422487  0.66653180  0.03514846  1
  O  O44  1  0.33475051  0.66638251  0.36932113  1
  O  O45  1  0.99952065  0.99925241  0.43660615  1
  O  O46  1  0.99004862  0.00975028  0.26730649  1
  O  O47  1  0.98227597  0.99121719  0.59911018  1
  O  O48  1  0.15447755  0.32720994  0.53322527  1
  O  O49  1  0.00028850  0.00053850  0.76998880  1
  O  O50  1  0.99967518  0.99996921  0.93117935  1
  O  O51  1  0.99906528  0.99978601  0.10242049  1
  O  O52  1  0.16516885  0.32931848  0.86758070  1
  O  O53  1  0.15778153  0.33207701  0.19960136  1
  O  O54  1  0.48190326  0.96538278  0.11413035  1
  O  O55  1  0.48150421  0.96499277  0.44864587  1
  O  O56  1  0.48276762  0.96581231  0.78200377  1
  O  O57  1  0.48264012  0.51646549  0.11458568  1
  O  O58  1  0.48182449  0.51558190  0.44864517  1
  O  O59  1  0.48318218  0.51712489  0.78191545  1
  O  O60  1  0.32921970  0.16447901  0.03032154  1
  O  O61  1  0.33032631  0.16402713  0.36463760  1
  O  O62  1  0.33107454  0.16542483  0.69757039  1
  O  O63  1  0.66538741  0.83255416  0.53402783  1
  O  O64  1  0.67105570  0.83535409  0.86750360  1
  O  O65  1  0.66798915  0.84236351  0.19951774  1
  O  O66  1  0.51815353  0.48210465  0.28103178  1
  O  O67  1  0.52565616  0.48810305  0.61344257  1
  O  O68  1  0.51875458  0.48128718  0.94572735  1
  O  O69  1  0.52332077  0.03554528  0.28034074  1
  O  O70  1  0.52584058  0.03793792  0.61342526  1
  O  O71  1  0.67561938  0.32431701  0.20362217  1
  O  O72  1  0.68352634  0.34174229  0.53809733  1
  O  O73  1  0.66692957  0.33340104  0.87194093  1
  O  O74  1  0.83588972  0.66949066  0.36475454  1
  O  O75  1  0.83563329  0.67052288  0.03036850  1
  O  O76  1  0.83716550  0.67164938  0.69807541  1
  O  O77  1  0.51894528  0.03781728  0.94570732  1
  O  O78  1  0.96414111  0.47672603  0.28030403  1
  O  O79  1  0.96446994  0.48219868  0.61307562  1
  O  O80  1  0.96162780  0.48080120  0.94565307  1
  O  O81  1  0.83551996  0.16494632  0.03044155  1
  O  O82  1  0.83695418  0.16549135  0.69810583  1
  O  O83  1  0.83595040  0.16403277  0.36511655  1
