# generated using pymatgen
data_Na3Mn2P2(CO7)2
_symmetry_space_group_name_H-M   'P 1'
_cell_length_a   8.92424651
_cell_length_b   6.58318516
_cell_length_c   5.18667276
_cell_angle_alpha   90.37666169
_cell_angle_beta   88.54899729
_cell_angle_gamma   88.85654810
_symmetry_Int_Tables_number   1
_chemical_formula_structural   Na3Mn2P2(CO7)2
_chemical_formula_sum   'Na3 Mn2 P2 C2 O14'
_cell_volume   304.55084554
_cell_formula_units_Z   1
loop_
 _symmetry_equiv_pos_site_id
 _symmetry_equiv_pos_as_xyz
  1  'x, y, z'
loop_
 _atom_site_type_symbol
 _atom_site_label
 _atom_site_symmetry_multiplicity
 _atom_site_fract_x
 _atom_site_fract_y
 _atom_site_fract_z
 _atom_site_occupancy
  Na  Na0  1  0.24317197  0.48069740  0.24121895  1
  Na  Na1  1  0.75845104  0.50721026  0.75673999  1
  Na  Na2  1  0.76097176  0.98972632  0.75380052  1
  Mn  Mn3  1  0.34317341  0.76262700  0.78868626  1
  Mn  Mn4  1  0.65024818  0.24977657  0.21760385  1
  P  P5  1  0.42326780  0.25329115  0.71188909  1
  P  P6  1  0.57221433  0.75041469  0.28646158  1
  C  C7  1  0.07456777  0.74787501  0.73120549  1
  C  C8  1  0.92490557  0.24733739  0.26832312  1
  O  O9  1  0.06175826  0.25324636  0.28886136  1
  O  O10  1  0.13893715  0.75386794  0.95585055  1
  O  O11  1  0.17360852  0.74996595  0.53942902  1
  O  O12  1  0.32988484  0.06724643  0.77759058  1
  O  O13  1  0.32654946  0.44322402  0.78672666  1
  O  O14  1  0.46372653  0.26365789  0.41650662  1
  O  O15  1  0.42425992  0.74409754  0.14117282  1
  O  O16  1  0.57548410  0.25112060  0.85460538  1
  O  O17  1  0.53734670  0.75153559  0.58537660  1
  O  O18  1  0.67438203  0.56302272  0.21884626  1
  O  O19  1  0.66750512  0.93670770  0.21527642  1
  O  O20  1  0.82642874  0.24543330  0.46494885  1
  O  O21  1  0.85392769  0.24409300  0.04640114  1
  O  O22  1  0.93608611  0.74172217  0.70389991  1
