# generated using pymatgen
data_Li24Mn7Cr5O36
_symmetry_space_group_name_H-M   'P 1'
_cell_length_a   5.00763263
_cell_length_b   13.28117125
_cell_length_c   9.74763168
_cell_angle_alpha   97.02125650
_cell_angle_beta   94.65586701
_cell_angle_gamma   100.37961548
_symmetry_Int_Tables_number   1
_chemical_formula_structural   Li24Mn7Cr5O36
_chemical_formula_sum   'Li24 Mn7 Cr5 O36'
_cell_volume   629.35138763
_cell_formula_units_Z   1
loop_
 _symmetry_equiv_pos_site_id
 _symmetry_equiv_pos_as_xyz
  1  'x, y, z'
loop_
 _atom_site_type_symbol
 _atom_site_label
 _atom_site_symmetry_multiplicity
 _atom_site_fract_x
 _atom_site_fract_y
 _atom_site_fract_z
 _atom_site_occupancy
  Li  Li0  1  0.83302744  0.16677918  0.99989746  1
  Li  Li1  1  0.94962657  0.38710149  0.99973789  1
  Li  Li2  1  0.00073971  0.74956517  0.25045886  1
  Li  Li3  1  0.66927148  0.08226273  0.24957632  1
  Li  Li4  1  0.95232329  0.88660003  0.49948860  1
  Li  Li5  1  0.61897173  0.22186774  0.49983455  1
  Li  Li6  1  0.83405997  0.66605587  0.49964533  1
  Li  Li7  1  0.50065716  0.99980365  0.49987520  1
  Li  Li8  1  0.71153556  0.44654503  0.49976890  1
  Li  Li9  1  0.66870169  0.58236218  0.74941170  1
  Li  Li10  1  0.50167892  0.49980545  0.99998698  1
  Li  Li11  1  0.72061878  0.94744915  0.00160133  1
  Li  Li12  1  0.38163342  0.28191116  0.00141866  1
  Li  Li13  1  0.62023320  0.72027038  0.00177755  1
  Li  Li14  1  0.27809068  0.05167380  0.99781999  1
  Li  Li15  1  0.33739865  0.41585233  0.24981298  1
  Li  Li16  1  0.28626600  0.55540045  0.50120485  1
  Li  Li17  1  0.16851908  0.33338581  0.49957543  1
  Li  Li18  1  0.37594443  0.77690942  0.49672196  1
  Li  Li19  1  0.04888178  0.11349793  0.50183205  1
  Li  Li20  1  0.33163511  0.91715595  0.75088973  1
  Li  Li21  1  0.16749459  0.83326888  0.00049358  1
  Li  Li22  1  0.00250812  0.24949114  0.74954471  1
  Li  Li23  1  0.04444117  0.61315859  0.99857611  1
  Mn  Mn24  1  0.89168470  0.02848844  0.75154211  1
  Mn  Mn25  1  0.77632121  0.30604683  0.24974807  1
  Mn  Mn26  1  0.44185218  0.13796071  0.74825438  1
  Mn  Mn27  1  0.55584405  0.86102388  0.25031537  1
  Mn  Mn28  1  0.44669829  0.64046865  0.25152051  1
  Mn  Mn29  1  0.10956740  0.47279885  0.75006885  1
  Mn  Mn30  1  0.10762909  0.97107465  0.24882148  1
  Cr  Cr31  1  0.89675332  0.52699067  0.24945120  1
  Cr  Cr32  1  0.77425184  0.80794976  0.75215305  1
  Cr  Cr33  1  0.56103193  0.35958852  0.75008377  1
  Cr  Cr34  1  0.22724656  0.19253741  0.25021263  1
  Cr  Cr35  1  0.22574580  0.69283335  0.74800549  1
  O  O36  1  0.99637419  0.06845735  0.13695659  1
  O  O37  1  0.92996631  0.21550705  0.36354633  1
  O  O38  1  0.99544780  0.56889366  0.63647853  1
  O  O39  1  0.85409261  0.35791111  0.63918017  1
  O  O40  1  0.73667134  0.11847499  0.63627677  1
  O  O41  1  0.66373331  0.40247901  0.13625381  1
  O  O42  1  0.93104839  0.71653553  0.86447095  1
  O  O43  1  0.81379816  0.47772822  0.86299960  1
  O  O44  1  0.59674138  0.04798861  0.86344862  1
  O  O45  1  0.85683204  0.85652945  0.13883141  1
  O  O46  1  0.73509945  0.61789722  0.13609457  1
  O  O47  1  0.52003684  0.19113073  0.13873380  1
  O  O48  1  0.66055946  0.26160718  0.86088560  1
  O  O49  1  0.80863274  0.97587826  0.36182335  1
  O  O50  1  0.59689162  0.54929292  0.36333181  1
  O  O51  1  0.48141379  0.31134298  0.36332261  1
  O  O52  1  0.66831634  0.76258751  0.36192922  1
  O  O53  1  0.32758685  0.09499796  0.36126071  1
  O  O54  1  0.67225445  0.90507349  0.63935572  1
  O  O55  1  0.33059538  0.23536281  0.63660339  1
  O  O56  1  0.51718636  0.69071316  0.63779157  1
  O  O57  1  0.40142924  0.45107996  0.63652345  1
  O  O58  1  0.19095409  0.02299979  0.63859977  1
  O  O59  1  0.33459089  0.73888087  0.13859044  1
  O  O60  1  0.48361069  0.80971359  0.86269924  1
  O  O61  1  0.26310876  0.38217352  0.86363928  1
  O  O62  1  0.14281522  0.14347213  0.86125404  1
  O  O63  1  0.40304682  0.95170232  0.13674702  1
  O  O64  1  0.18941085  0.52603567  0.13862156  1
  O  O65  1  0.06803498  0.28439722  0.13614136  1
  O  O66  1  0.32920094  0.59598155  0.86092821  1
  O  O67  1  0.26376092  0.88150963  0.36410399  1
  O  O68  1  0.14950444  0.64482980  0.36318731  1
  O  O69  1  0.99547345  0.42942346  0.36071850  1
  O  O70  1  0.06823442  0.78390271  0.63604417  1
  O  O71  1  0.00466261  0.93156934  0.86349991  1
