# generated using pymatgen
data_Li24Mn7Cr5O36
_symmetry_space_group_name_H-M   'P 1'
_cell_length_a   4.99903856
_cell_length_b   13.26916400
_cell_length_c   9.72357520
_cell_angle_alpha   97.12802265
_cell_angle_beta   94.64342588
_cell_angle_gamma   100.46865705
_symmetry_Int_Tables_number   1
_chemical_formula_structural   Li24Mn7Cr5O36
_chemical_formula_sum   'Li24 Mn7 Cr5 O36'
_cell_volume   625.80571038
_cell_formula_units_Z   1
loop_
 _symmetry_equiv_pos_site_id
 _symmetry_equiv_pos_as_xyz
  1  'x, y, z'
loop_
 _atom_site_type_symbol
 _atom_site_label
 _atom_site_symmetry_multiplicity
 _atom_site_fract_x
 _atom_site_fract_y
 _atom_site_fract_z
 _atom_site_occupancy
  Li  Li0  1  0.83311307  0.16672456  0.00009153  1
  Li  Li1  1  0.94525106  0.38495246  0.99889161  1
  Li  Li2  1  0.00056482  0.74965687  0.25052944  1
  Li  Li3  1  0.66689196  0.08241092  0.24978411  1
  Li  Li4  1  0.95347818  0.88833983  0.50124155  1
  Li  Li5  1  0.62011406  0.22228450  0.49916163  1
  Li  Li6  1  0.83416717  0.66633053  0.49934377  1
  Li  Li7  1  0.49780874  0.99987672  0.50000811  1
  Li  Li8  1  0.71456021  0.44559295  0.50029222  1
  Li  Li9  1  0.66838674  0.58274476  0.74880876  1
  Li  Li10  1  0.49923079  0.49996170  0.00044080  1
  Li  Li11  1  0.71980802  0.94720849  0.00007060  1
  Li  Li12  1  0.38569964  0.28195594  0.00196667  1
  Li  Li13  1  0.61897668  0.72061275  0.00162803  1
  Li  Li14  1  0.28139522  0.05145232  0.99845460  1
  Li  Li15  1  0.33636472  0.41548240  0.24968566  1
  Li  Li16  1  0.28598779  0.55578667  0.50033398  1
  Li  Li17  1  0.16939749  0.33347343  0.49985328  1
  Li  Li18  1  0.37754063  0.77730580  0.49715243  1
  Li  Li19  1  0.04631714  0.11062331  0.50041854  1
  Li  Li20  1  0.33221154  0.91788335  0.75079665  1
  Li  Li21  1  0.16805089  0.83359633  0.00004837  1
  Li  Li22  1  0.99852126  0.25075714  0.75038287  1
  Li  Li23  1  0.04743650  0.61441773  0.00023911  1
  Mn  Mn24  1  0.89030952  0.02729801  0.75014449  1
  Mn  Mn25  1  0.77540913  0.30567200  0.24895972  1
  Mn  Mn26  1  0.55743743  0.36219985  0.75117176  1
  Mn  Mn27  1  0.55614312  0.86090617  0.25000895  1
  Mn  Mn28  1  0.44637912  0.64024143  0.25128097  1
  Mn  Mn29  1  0.10826322  0.47173046  0.74854586  1
  Mn  Mn30  1  0.10913139  0.97094363  0.24971764  1
  Cr  Cr31  1  0.89552832  0.52673926  0.24966189  1
  Cr  Cr32  1  0.77498831  0.80739360  0.75201975  1
  Cr  Cr33  1  0.44025026  0.14087338  0.74985596  1
  Cr  Cr34  1  0.22347806  0.19209535  0.25036602  1
  Cr  Cr35  1  0.22606997  0.69253356  0.74832904  1
  O  O36  1  0.99858359  0.06938534  0.13778409  1
  O  O37  1  0.93235560  0.21599535  0.36404076  1
  O  O38  1  0.99556252  0.56855042  0.63601286  1
  O  O39  1  0.85737997  0.35642227  0.63832599  1
  O  O40  1  0.73518066  0.11731794  0.63584896  1
  O  O41  1  0.66248653  0.40253606  0.13660304  1
  O  O42  1  0.93104278  0.71599781  0.86496241  1
  O  O43  1  0.80876556  0.47710985  0.86179218  1
  O  O44  1  0.59858305  0.04853621  0.86436130  1
  O  O45  1  0.85697709  0.85654586  0.13828385  1
  O  O46  1  0.73499324  0.61785748  0.13544483  1
  O  O47  1  0.52040081  0.19106502  0.13828551  1
  O  O48  1  0.66926606  0.26449842  0.86277348  1
  O  O49  1  0.80866042  0.97606919  0.36179999  1
  O  O50  1  0.59719536  0.54945242  0.36362245  1
  O  O51  1  0.47995927  0.31097452  0.36331004  1
  O  O52  1  0.66890924  0.76264103  0.36199201  1
  O  O53  1  0.33099143  0.09424188  0.36224311  1
  O  O54  1  0.66915165  0.90404685  0.63905825  1
  O  O55  1  0.33683328  0.23849663  0.63817576  1
  O  O56  1  0.51748774  0.69029005  0.63760423  1
  O  O57  1  0.40334804  0.45240257  0.63623226  1
  O  O58  1  0.18557823  0.02176133  0.63645029  1
  O  O59  1  0.33370531  0.73860346  0.13814363  1
  O  O60  1  0.48258919  0.80970329  0.86285862  1
  O  O61  1  0.26287432  0.38165236  0.86375847  1
  O  O62  1  0.14643298  0.14197869  0.86158094  1
  O  O63  1  0.40363041  0.95173216  0.13646943  1
  O  O64  1  0.18880366  0.52579376  0.13809182  1
  O  O65  1  0.06784435  0.28531937  0.13524535  1
  O  O66  1  0.32753144  0.59535118  0.86130765  1
  O  O67  1  0.26337288  0.88113666  0.36406023  1
  O  O68  1  0.14932943  0.64493006  0.36337999  1
  O  O69  1  0.99631120  0.42913355  0.36095941  1
  O  O70  1  0.06807949  0.78342880  0.63575109  1
  O  O71  1  0.00513906  0.93098398  0.86370437  1
