# generated using pymatgen
data_Li7Ti5O12
_symmetry_space_group_name_H-M   'P 1'
_cell_length_a   5.08089828
_cell_length_b   5.08089786
_cell_length_c   9.98184154
_cell_angle_alpha   85.16189328
_cell_angle_beta   94.83810812
_cell_angle_gamma   59.98641633
_symmetry_Int_Tables_number   1
_chemical_formula_structural   Li7Ti5O12
_chemical_formula_sum   'Li7 Ti5 O12'
_cell_volume   219.93382367
_cell_formula_units_Z   1
loop_
 _symmetry_equiv_pos_site_id
 _symmetry_equiv_pos_as_xyz
  1  'x, y, z'
loop_
 _atom_site_type_symbol
 _atom_site_label
 _atom_site_symmetry_multiplicity
 _atom_site_fract_x
 _atom_site_fract_y
 _atom_site_fract_z
 _atom_site_occupancy
  Li  Li0  1  0.99558419  0.50404688  0.00688739  1
  Li  Li1  1  0.15797872  0.66927596  0.49432999  1
  Li  Li2  1  0.50404688  0.99558419  0.49311261  1
  Li  Li3  1  0.66927596  0.15797872  0.00567001  1
  Li  Li4  1  0.34251641  0.83252406  0.00814350  1
  Li  Li5  1  0.83252406  0.34251641  0.49185650  1
  Li  Li6  1  0.74798368  0.74798368  0.25000000  1
  Ti  Ti7  1  0.08082165  0.08082165  0.25000000  1
  Ti  Ti8  1  0.25182183  0.25182183  0.75000000  1
  Ti  Ti9  1  0.91867756  0.91867756  0.75000000  1
  Ti  Ti10  1  0.41427625  0.41427625  0.25000000  1
  Ti  Ti11  1  0.58578908  0.58578908  0.75000000  1
  O  O12  1  0.13969181  0.35581707  0.36298257  1
  O  O13  1  0.35581707  0.13969181  0.13701743  1
  O  O14  1  0.06468819  0.78527835  0.13692666  1
  O  O15  1  0.29197934  0.54563849  0.86873948  1
  O  O16  1  0.21225488  0.95818891  0.63081205  1
  O  O17  1  0.54563849  0.29197934  0.63126052  1
  O  O18  1  0.43088796  0.71031382  0.36286703  1
  O  O19  1  0.78527835  0.06468819  0.36307334  1
  O  O20  1  0.71031382  0.43088796  0.13713297  1
  O  O21  1  0.95818891  0.21225488  0.86918795  1
  O  O22  1  0.62546627  0.87849766  0.87143856  1
  O  O23  1  0.87849766  0.62546627  0.62856144  1
