# generated using pymatgen
data_Na3CuO2
_symmetry_space_group_name_H-M   'P 1'
_cell_length_a   10.96477397
_cell_length_b   10.98943519
_cell_length_c   11.88857643
_cell_angle_alpha   90.00000000
_cell_angle_beta   90.00000000
_cell_angle_gamma   90.00000000
_symmetry_Int_Tables_number   1
_chemical_formula_structural   Na3CuO2
_chemical_formula_sum   'Na48 Cu16 O32'
_cell_volume   1432.53390553
_cell_formula_units_Z   16
loop_
 _symmetry_equiv_pos_site_id
 _symmetry_equiv_pos_as_xyz
  1  'x, y, z'
loop_
 _atom_site_type_symbol
 _atom_site_label
 _atom_site_symmetry_multiplicity
 _atom_site_fract_x
 _atom_site_fract_y
 _atom_site_fract_z
 _atom_site_occupancy
  Na  Na0  1  0.01035403  0.29271272  0.00431040  1
  Na  Na1  1  0.00133552  0.78833974  0.77099942  1
  Na  Na2  1  0.01432667  0.49834051  0.43279768  1
  Na  Na3  1  0.02560579  0.22531083  0.49817329  1
  Na  Na4  1  0.04784082  0.25269629  0.24352647  1
  Na  Na5  1  0.07036344  0.07881059  0.86960058  1
  Na  Na6  1  0.19446161  0.80520411  0.13424955  1
  Na  Na7  1  0.20482216  0.70026310  0.34804950  1
  Na  Na8  1  0.20944676  0.98801082  0.49099021  1
  Na  Na9  1  0.22065306  0.51950029  0.00592799  1
  Na  Na10  1  0.23233382  0.53622755  0.74268342  1
  Na  Na11  1  0.23956758  0.03828658  0.23685161  1
  Na  Na12  1  0.26043242  0.96171342  0.73685161  1
  Na  Na13  1  0.26766618  0.46377245  0.24268342  1
  Na  Na14  1  0.27934694  0.48049971  0.50592799  1
  Na  Na15  1  0.29055324  0.01198918  0.99099021  1
  Na  Na16  1  0.29517784  0.29973690  0.84804950  1
  Na  Na17  1  0.30553839  0.19479589  0.63424955  1
  Na  Na18  1  0.42963656  0.92118941  0.36960058  1
  Na  Na19  1  0.45215918  0.74730371  0.74352647  1
  Na  Na20  1  0.47439421  0.77468917  0.99817329  1
  Na  Na21  1  0.48567333  0.50165949  0.93279768  1
  Na  Na22  1  0.49866448  0.21166026  0.27099942  1
  Na  Na23  1  0.48964597  0.70728728  0.50431040  1
  Na  Na24  1  0.51035403  0.20728728  0.99568960  1
  Na  Na25  1  0.50133552  0.71166026  0.22900058  1
  Na  Na26  1  0.51432667  0.00166049  0.56720232  1
  Na  Na27  1  0.52560579  0.27468917  0.50182671  1
  Na  Na28  1  0.54784082  0.24730371  0.75647353  1
  Na  Na29  1  0.57036344  0.42118941  0.13039942  1
  Na  Na30  1  0.69446161  0.69479589  0.86575045  1
  Na  Na31  1  0.70482216  0.79973690  0.65195050  1
  Na  Na32  1  0.70944676  0.51198918  0.50900979  1
  Na  Na33  1  0.72065306  0.98049971  0.99407201  1
  Na  Na34  1  0.73233382  0.96377245  0.25731658  1
  Na  Na35  1  0.73956758  0.46171342  0.76314839  1
  Na  Na36  1  0.76043242  0.53828658  0.26314839  1
  Na  Na37  1  0.76766618  0.03622755  0.75731658  1
  Na  Na38  1  0.77934694  0.01950029  0.49407201  1
  Na  Na39  1  0.79055324  0.48801082  0.00900979  1
  Na  Na40  1  0.79517784  0.20026310  0.15195050  1
  Na  Na41  1  0.80553839  0.30520411  0.36575045  1
  Na  Na42  1  0.92963656  0.57881059  0.63039942  1
  Na  Na43  1  0.95215918  0.75269629  0.25647353  1
  Na  Na44  1  0.97439421  0.72531083  0.00182671  1
  Na  Na45  1  0.98567333  0.99834051  0.06720232  1
  Na  Na46  1  0.99866448  0.28833974  0.72900058  1
  Na  Na47  1  0.98964597  0.79271272  0.49568960  1
  Cu  Cu48  1  0.00282212  0.50510071  0.16756008  1
  Cu  Cu49  1  0.00067547  0.00937756  0.64570460  1
  Cu  Cu50  1  0.23003156  0.76292827  0.90102187  1
  Cu  Cu51  1  0.23645274  0.74467394  0.58553360  1
  Cu  Cu52  1  0.26354726  0.25532606  0.08553360  1
  Cu  Cu53  1  0.26996844  0.23707173  0.40102187  1
  Cu  Cu54  1  0.49932453  0.99062244  0.14570460  1
  Cu  Cu55  1  0.49717788  0.49489929  0.66756008  1
  Cu  Cu56  1  0.50282212  0.99489929  0.83243992  1
  Cu  Cu57  1  0.50067547  0.49062244  0.35429540  1
  Cu  Cu58  1  0.73003156  0.73707173  0.09897813  1
  Cu  Cu59  1  0.73645274  0.75532606  0.41446640  1
  Cu  Cu60  1  0.76354726  0.24467394  0.91446640  1
  Cu  Cu61  1  0.76996844  0.26292827  0.59897813  1
  Cu  Cu62  1  0.99932453  0.50937756  0.85429540  1
  Cu  Cu63  1  0.99717788  0.00510071  0.33243992  1
  O  O64  1  0.11363394  0.88710400  0.33132567  1
  O  O65  1  0.11972184  0.12053138  0.66476256  1
  O  O66  1  0.11755493  0.88048235  0.93162569  1
  O  O67  1  0.11867470  0.62196224  0.17222299  1
  O  O68  1  0.12230461  0.62658089  0.56878572  1
  O  O69  1  0.11682147  0.39524046  0.86125248  1
  O  O70  1  0.14370053  0.14031200  0.08556573  1
  O  O71  1  0.15440130  0.35293385  0.38670650  1
  O  O72  1  0.34559870  0.64706615  0.88670650  1
  O  O73  1  0.35629947  0.85968800  0.58556573  1
  O  O74  1  0.38317853  0.60475954  0.36125248  1
  O  O75  1  0.37769539  0.37341911  0.06878572  1
  O  O76  1  0.38132530  0.37803776  0.67222299  1
  O  O77  1  0.38244507  0.11951765  0.43162569  1
  O  O78  1  0.38027816  0.87946862  0.16476256  1
  O  O79  1  0.38636606  0.11289600  0.83132567  1
  O  O80  1  0.61363394  0.61289600  0.66867433  1
  O  O81  1  0.61972184  0.37946862  0.33523744  1
  O  O82  1  0.61755493  0.61951765  0.06837431  1
  O  O83  1  0.61867470  0.87803776  0.82777701  1
  O  O84  1  0.62230461  0.87341911  0.43121428  1
  O  O85  1  0.61682147  0.10475954  0.13874752  1
  O  O86  1  0.64370053  0.35968800  0.91443427  1
  O  O87  1  0.65440130  0.14706615  0.61329350  1
  O  O88  1  0.84559870  0.85293385  0.11329350  1
  O  O89  1  0.85629947  0.64031200  0.41443427  1
  O  O90  1  0.88317853  0.89524046  0.63874752  1
  O  O91  1  0.87769539  0.12658089  0.93121428  1
  O  O92  1  0.88132530  0.12196224  0.32777701  1
  O  O93  1  0.88244507  0.38048235  0.56837431  1
  O  O94  1  0.88027816  0.62053138  0.83523744  1
  O  O95  1  0.88636606  0.38710400  0.16867433  1
