# generated using pymatgen
data_Li3Sb3P8O29
_symmetry_space_group_name_H-M   'P 1'
_cell_length_a   9.81433819
_cell_length_b   9.84211289
_cell_length_c   14.34933460
_cell_angle_alpha   90.00029286
_cell_angle_beta   89.75985280
_cell_angle_gamma   59.90604331
_symmetry_Int_Tables_number   1
_chemical_formula_structural   Li3Sb3P8O29
_chemical_formula_sum   'Li6 Sb6 P16 O58'
_cell_volume   1199.20849863
_cell_formula_units_Z   2
loop_
 _symmetry_equiv_pos_site_id
 _symmetry_equiv_pos_as_xyz
  1  'x, y, z'
loop_
 _atom_site_type_symbol
 _atom_site_label
 _atom_site_symmetry_multiplicity
 _atom_site_fract_x
 _atom_site_fract_y
 _atom_site_fract_z
 _atom_site_occupancy
  Li  Li0  1  0.01808683  0.03472953  0.49652379  1
  Li  Li1  1  0.01808599  0.94720120  0.99652769  1
  Li  Li2  1  0.22823285  0.09639007  0.05123311  1
  Li  Li3  1  0.22824140  0.67539088  0.55123881  1
  Li  Li4  1  0.67193709  0.10192186  0.55181126  1
  Li  Li5  1  0.67194203  0.22614393  0.05181576  1
  Sb  Sb6  1  0.99794413  0.43846080  0.74940257  1
  Sb  Sb7  1  0.99794235  0.56359989  0.24940263  1
  Sb  Sb8  1  0.43590349  0.99815739  0.25340204  1
  Sb  Sb9  1  0.56523843  0.99604588  0.74936980  1
  Sb  Sb10  1  0.43590574  0.56593228  0.75340283  1
  Sb  Sb11  1  0.56522650  0.43872480  0.24936473  1
  P  P12  1  0.08102495  0.22381492  0.34584437  1
  P  P13  1  0.22296367  0.08694685  0.84247977  1
  P  P14  1  0.08102147  0.69517550  0.84584400  1
  P  P15  1  0.33523981  0.33077239  0.12812367  1
  P  P16  1  0.33524570  0.33397765  0.62812488  1
  P  P17  1  0.22294667  0.69010150  0.34248129  1
  P  P18  1  0.30336506  0.78010127  0.15712814  1
  P  P19  1  0.68844223  0.08788193  0.34451295  1
  P  P20  1  0.30337796  0.91653233  0.65712197  1
  P  P21  1  0.68845080  0.22367482  0.84452249  1
  P  P22  1  0.77897644  0.30621755  0.66111243  1
  P  P23  1  0.66700110  0.66630670  0.87220025  1
  P  P24  1  0.66699762  0.66668342  0.37220381  1
  P  P25  1  0.92005635  0.30376168  0.15795737  1
  P  P26  1  0.77896734  0.91480748  0.16110584  1
  P  P27  1  0.92006167  0.77618543  0.65795805  1
  O  O28  1  0.99445911  0.21182278  0.25278578  1
  O  O29  1  0.00832530  0.20485599  0.07714929  1
  O  O30  1  0.08045010  0.25590102  0.83382329  1
  O  O31  1  0.21464637  0.98968751  0.75512679  1
  O  O32  1  0.20272957  0.99697904  0.57667445  1
  O  O33  1  0.25335602  0.08284488  0.33895114  1
  O  O34  1  0.08497379  0.38012727  0.33661826  1
  O  O35  1  0.19681171  0.32238955  0.67506086  1
  O  O36  1  0.08496556  0.53491495  0.83661821  1
  O  O37  1  0.00832956  0.78681507  0.57714626  1
  O  O38  1  0.99446925  0.79372796  0.75278151  1
  O  O39  1  0.08042296  0.66367729  0.33382707  1
  O  O40  1  0.32400492  0.18660297  0.16988083  1
  O  O41  1  0.37712261  0.09603604  0.83176174  1
  O  O42  1  0.19681646  0.48079713  0.17506923  1
  O  O43  1  0.33933608  0.32264393  0.02517073  1
  O  O44  1  0.33936269  0.33797672  0.52517000  1
  O  O45  1  0.32400627  0.48939375  0.66987065  1
  O  O46  1  0.52453117  0.09915097  0.33340772  1
  O  O47  1  0.49321691  0.18690370  0.66635929  1
  O  O48  1  0.25335856  0.66380099  0.83895185  1
  O  O49  1  0.21462975  0.79568328  0.25513257  1
  O  O50  1  0.20272178  0.80029452  0.07668260  1
  O  O51  1  0.21359807  0.77161888  0.43122630  1
  O  O52  1  0.37710243  0.52685177  0.33175402  1
  O  O53  1  0.49321645  0.31989204  0.16633784  1
  O  O54  1  0.33786983  0.74165248  0.66004779  1
  O  O55  1  0.52453412  0.37631761  0.83341783  1
  O  O56  1  0.66299106  0.08061262  0.83423523  1
  O  O57  1  0.21360466  0.01478559  0.93122379  1
  O  O58  1  0.78877238  0.00746612  0.08228629  1
  O  O59  1  0.79665460  0.98788584  0.25842365  1
  O  O60  1  0.33785423  0.92049082  0.16005028  1
  O  O61  1  0.46474049  0.62269924  0.16246103  1
  O  O62  1  0.66297545  0.25640446  0.33422447  1
  O  O63  1  0.51084455  0.68362935  0.82719363  1
  O  O64  1  0.62113914  0.46592604  0.66711002  1
  O  O65  1  0.78877867  0.20375240  0.58229070  1
  O  O66  1  0.76802404  0.21420702  0.93380941  1
  O  O67  1  0.79666055  0.21545490  0.75843038  1
  O  O68  1  0.74591051  0.33553874  0.15729165  1
  O  O69  1  0.51084329  0.80552377  0.32719498  1
  O  O70  1  0.46474665  0.91257036  0.66245579  1
  O  O71  1  0.68169259  0.51221969  0.32604646  1
  O  O72  1  0.66597602  0.66676238  0.97459077  1
  O  O73  1  0.66595666  0.66724529  0.47459185  1
  O  O74  1  0.80571562  0.51198370  0.82617459  1
  O  O75  1  0.62112647  0.91294255  0.16710098  1
  O  O76  1  0.68169766  0.80607652  0.82604794  1
  O  O77  1  0.91770444  0.33943042  0.66009168  1
  O  O78  1  0.00017402  0.20799387  0.42799914  1
  O  O79  1  0.91093495  0.46635020  0.16388537  1
  O  O80  1  0.80571234  0.68228908  0.32617741  1
  O  O81  1  0.91093361  0.62272308  0.66388887  1
  O  O82  1  0.74591738  0.91855879  0.65729561  1
  O  O83  1  0.76801965  0.01778593  0.43380009  1
  O  O84  1  0.91769459  0.74286321  0.16008655  1
  O  O85  1  0.00016664  0.79186002  0.92799117  1
