# generated using pymatgen
data_MnZnSe4
_symmetry_space_group_name_H-M   'P 1'
_cell_length_a   6.38744211
_cell_length_b   6.39114410
_cell_length_c   6.39122126
_cell_angle_alpha   89.83413515
_cell_angle_beta   90.00000000
_cell_angle_gamma   90.00000000
_symmetry_Int_Tables_number   1
_chemical_formula_structural   MnZnSe4
_chemical_formula_sum   'Mn2 Zn2 Se8'
_cell_volume   260.90813461
_cell_formula_units_Z   2
loop_
 _symmetry_equiv_pos_site_id
 _symmetry_equiv_pos_as_xyz
  1  'x, y, z'
loop_
 _atom_site_type_symbol
 _atom_site_label
 _atom_site_symmetry_multiplicity
 _atom_site_fract_x
 _atom_site_fract_y
 _atom_site_fract_z
 _atom_site_occupancy
  Mn  Mn0  1  0.50000000  -0.00000000  0.50000000  1
  Mn  Mn1  1  -0.00000000  0.50000000  0.50000000  1
  Zn  Zn2  1  0.50000000  0.50000000  0.00000000  1
  Zn  Zn3  1  -0.00000000  0.00000000  -0.00000000  1
  Se  Se4  1  0.89130020  0.39136653  0.10925727  1
  Se  Se5  1  0.39130020  0.10863347  0.89074273  1
  Se  Se6  1  0.10958186  0.89053898  0.39087175  1
  Se  Se7  1  0.60958186  0.60946102  0.60912825  1
  Se  Se8  1  0.10869980  0.60863347  0.89074273  1
  Se  Se9  1  0.60869980  0.89136653  0.10925727  1
  Se  Se10  1  0.89041814  0.10946102  0.60912825  1
  Se  Se11  1  0.39041814  0.39053898  0.39087175  1
