# generated using pymatgen
data_Rb3DyO3
_symmetry_space_group_name_H-M   'P 1'
_cell_length_a   11.76353643
_cell_length_b   7.39395730
_cell_length_c   8.01509896
_cell_angle_alpha   90.00000000
_cell_angle_beta   94.01732297
_cell_angle_gamma   90.00000000
_symmetry_Int_Tables_number   1
_chemical_formula_structural   Rb3DyO3
_chemical_formula_sum   'Rb12 Dy4 O12'
_cell_volume   695.43303498
_cell_formula_units_Z   4
loop_
 _symmetry_equiv_pos_site_id
 _symmetry_equiv_pos_as_xyz
  1  'x, y, z'
loop_
 _atom_site_type_symbol
 _atom_site_label
 _atom_site_symmetry_multiplicity
 _atom_site_fract_x
 _atom_site_fract_y
 _atom_site_fract_z
 _atom_site_occupancy
  Rb  Rb0  1  0.07932000  0.33191599  0.64181005  1
  Rb  Rb1  1  0.15525407  0.62159475  0.06944626  1
  Rb  Rb2  1  0.19232819  0.80384316  0.62434275  1
  Rb  Rb3  1  0.30767181  0.30384316  0.37565725  1
  Rb  Rb4  1  0.34474593  0.12159475  0.93055374  1
  Rb  Rb5  1  0.42068000  0.83191599  0.35818995  1
  Rb  Rb6  1  0.57932000  0.16808401  0.64181005  1
  Rb  Rb7  1  0.65525407  0.87840525  0.06944626  1
  Rb  Rb8  1  0.69232819  0.69615684  0.62434275  1
  Rb  Rb9  1  0.80767181  0.19615684  0.37565725  1
  Rb  Rb10  1  0.84474593  0.37840525  0.93055374  1
  Rb  Rb11  1  0.92068000  0.66808401  0.35818995  1
  Dy  Dy12  1  0.06747881  0.08944433  0.16217795  1
  Dy  Dy13  1  0.43252119  0.58944433  0.83782205  1
  Dy  Dy14  1  0.56747881  0.41055567  0.16217795  1
  Dy  Dy15  1  0.93252119  0.91055567  0.83782205  1
  O  O16  1  0.04349217  0.35612106  0.25375518  1
  O  O17  1  0.09642314  0.05075484  0.89298630  1
  O  O18  1  0.18917276  0.94113263  0.31137541  1
  O  O19  1  0.31082724  0.44113263  0.68862459  1
  O  O20  1  0.40357686  0.55075484  0.10701370  1
  O  O21  1  0.45650783  0.85612106  0.74624482  1
  O  O22  1  0.54349217  0.14387894  0.25375518  1
  O  O23  1  0.59642314  0.44924516  0.89298630  1
  O  O24  1  0.68917276  0.55886737  0.31137541  1
  O  O25  1  0.81082724  0.05886737  0.68862459  1
  O  O26  1  0.90357686  0.94924516  0.10701370  1
  O  O27  1  0.95650783  0.64387894  0.74624482  1
