# generated using pymatgen
data_ZrCuF6
_symmetry_space_group_name_H-M   'P 1'
_cell_length_a   5.73104800
_cell_length_b   5.73104713
_cell_length_c   5.73104745
_cell_angle_alpha   59.01368925
_cell_angle_beta   59.01369461
_cell_angle_gamma   59.01369240
_symmetry_Int_Tables_number   1
_chemical_formula_structural   ZrCuF6
_chemical_formula_sum   'Zr1 Cu1 F6'
_cell_volume   130.10842544
_cell_formula_units_Z   1
loop_
 _symmetry_equiv_pos_site_id
 _symmetry_equiv_pos_as_xyz
  1  'x, y, z'
loop_
 _atom_site_type_symbol
 _atom_site_label
 _atom_site_symmetry_multiplicity
 _atom_site_fract_x
 _atom_site_fract_y
 _atom_site_fract_z
 _atom_site_occupancy
  Zr  Zr0  1  0.50000000  0.50000000  0.50000000  1
  Cu  Cu1  1  0.00000000  0.00000000  0.00000000  1
  F  F2  1  0.80514965  0.69606944  0.24922539  1
  F  F3  1  0.75077461  0.19485035  0.30393056  1
  F  F4  1  0.69606944  0.24922539  0.80514965  1
  F  F5  1  0.19485035  0.30393056  0.75077461  1
  F  F6  1  0.30393056  0.75077461  0.19485035  1
  F  F7  1  0.24922539  0.80514965  0.69606944  1
