# generated using pymatgen
data_La2Ti2O7
_symmetry_space_group_name_H-M   'P 1'
_cell_length_a   3.90419533
_cell_length_b   5.67660575
_cell_length_c   13.07035271
_cell_angle_alpha   90.00000000
_cell_angle_beta   98.58943956
_cell_angle_gamma   90.00000000
_symmetry_Int_Tables_number   1
_chemical_formula_structural   La2Ti2O7
_chemical_formula_sum   'La4 Ti4 O14'
_cell_volume   286.42371672
_cell_formula_units_Z   2
loop_
 _symmetry_equiv_pos_site_id
 _symmetry_equiv_pos_as_xyz
  1  'x, y, z'
loop_
 _atom_site_type_symbol
 _atom_site_label
 _atom_site_symmetry_multiplicity
 _atom_site_fract_x
 _atom_site_fract_y
 _atom_site_fract_z
 _atom_site_occupancy
  O  O0  1  0.77998276  0.41021840  0.55996551  1
  O  O1  1  0.22001724  0.91021840  0.44003449  1
  O  O2  1  0.88044195  0.56399684  0.76088389  1
  O  O3  1  0.11955805  0.06399684  0.23911611  1
  O  O4  1  0.34735610  0.24852589  0.69471219  1
  O  O5  1  0.65264390  0.74852589  0.30528781  1
  O  O6  1  0.45053769  0.78012270  0.90107538  1
  O  O7  1  0.54946231  0.28012270  0.09892462  1
  O  O8  1  0.98666827  0.48278603  0.97333653  1
  O  O9  1  0.01333173  0.98278603  0.02666347  1
  O  O10  1  0.09148535  0.56496108  0.18297070  1
  O  O11  1  0.90851465  0.06496108  0.81702930  1
  O  O12  1  0.20144932  0.43375208  0.40289864  1
  O  O13  1  0.79855068  0.93375208  0.59710136  1
  Ti  Ti14  1  0.83731300  0.19796503  0.67462600  1
  Ti  Ti15  1  0.16268700  0.69796503  0.32537400  1
  Ti  Ti16  1  0.93755460  0.73828838  0.87510920  1
  Ti  Ti17  1  0.06244540  0.23828838  0.12489080  1
  La  La18  1  0.29707861  0.65125362  0.59415722  1
  La  La19  1  0.70292139  0.15125362  0.40584278  1
  La  La20  1  0.44918245  0.23252995  0.89836491  1
  La  La21  1  0.55081755  0.73252995  0.10163509  1
