# generated using pymatgen
data_V4(OF3)3
_symmetry_space_group_name_H-M   'P 1'
_cell_length_a   5.20880829
_cell_length_b   5.46347662
_cell_length_c   9.08707404
_cell_angle_alpha   73.71624045
_cell_angle_beta   91.11749002
_cell_angle_gamma   60.70141918
_symmetry_Int_Tables_number   1
_chemical_formula_structural   V4(OF3)3
_chemical_formula_sum   'V4 O3 F9'
_cell_volume   212.64747986
_cell_formula_units_Z   1
loop_
 _symmetry_equiv_pos_site_id
 _symmetry_equiv_pos_as_xyz
  1  'x, y, z'
loop_
 _atom_site_type_symbol
 _atom_site_label
 _atom_site_symmetry_multiplicity
 _atom_site_fract_x
 _atom_site_fract_y
 _atom_site_fract_z
 _atom_site_occupancy
  V  V0  1  0.72658874  0.51801489  0.23787667  1
  V  V1  1  0.46385327  0.02139970  0.49395813  1
  V  V2  1  0.27214977  0.48252283  0.76211055  1
  V  V3  1  0.99931130  0.00063119  0.99929330  1
  O  O4  1  0.42805867  0.74103658  0.09139125  1
  O  O5  1  0.56885939  0.25945087  0.90981441  1
  O  O6  1  0.09743135  0.24436787  0.41521933  1
  F  F7  1  0.91955332  0.74889881  0.58476637  1
  F  F8  1  0.92484240  0.74942979  0.17478799  1
  F  F9  1  0.97505192  0.25295018  0.12354625  1
  F  F10  1  0.54137486  0.73516949  0.38347098  1
  F  F11  1  0.42058400  0.75609924  0.67532986  1
  F  F12  1  0.59537279  0.23352341  0.32920455  1
  F  F13  1  0.47240169  0.25514452  0.62160240  1
  F  F14  1  0.02184831  0.74952939  0.87456233  1
  F  F15  1  0.07271822  0.25183125  0.82306563  1
