# generated using pymatgen
data_V4OF11
_symmetry_space_group_name_H-M   'P 1'
_cell_length_a   5.28513523
_cell_length_b   5.44732778
_cell_length_c   9.03157924
_cell_angle_alpha   74.62377858
_cell_angle_beta   90.00000000
_cell_angle_gamma   60.98014075
_symmetry_Int_Tables_number   1
_chemical_formula_structural   V4OF11
_chemical_formula_sum   'V4 O1 F11'
_cell_volume   216.66811769
_cell_formula_units_Z   1
loop_
 _symmetry_equiv_pos_site_id
 _symmetry_equiv_pos_as_xyz
  1  'x, y, z'
loop_
 _atom_site_type_symbol
 _atom_site_label
 _atom_site_symmetry_multiplicity
 _atom_site_fract_x
 _atom_site_fract_y
 _atom_site_fract_z
 _atom_site_occupancy
  V  V0  1  0.76481324  0.48535781  0.24263552  1
  V  V1  1  0.50169322  0.99758445  0.49852470  1
  V  V2  1  0.24927767  0.50241555  0.75147530  1
  V  V3  1  0.00017105  0.01464219  0.00736448  1
  O  O4  1  0.95058336  0.25000000  0.12500000  1
  F  F5  1  0.92786925  0.74833612  0.57554639  1
  F  F6  1  0.92909819  0.74747631  0.17584382  1
  F  F7  1  0.53090970  0.74320696  0.37070922  1
  F  F8  1  0.42657450  0.75252369  0.07415618  1
  F  F9  1  0.42620536  0.75166388  0.67445361  1
  F  F10  1  0.57109257  0.25223327  0.32507624  1
  F  F11  1  0.57332584  0.24776673  0.92492376  1
  F  F12  1  0.47638279  0.25000000  0.62500000  1
  F  F13  1  0.02411566  0.75679304  0.87929078  1
  F  F14  1  0.07467870  0.24853019  0.82509926  1
  F  F15  1  0.07320890  0.25146981  0.42490074  1
