# generated using pymatgen
data_H5NO5
_symmetry_space_group_name_H-M   'P 1'
_cell_length_a   17.69899285
_cell_length_b   7.65043279
_cell_length_c   6.32024953
_cell_angle_alpha   90.00000000
_cell_angle_beta   107.98023089
_cell_angle_gamma   90.00000000
_symmetry_Int_Tables_number   1
_chemical_formula_structural   H5NO5
_chemical_formula_sum   'H40 N8 O40'
_cell_volume   813.99880701
_cell_formula_units_Z   8
loop_
 _symmetry_equiv_pos_site_id
 _symmetry_equiv_pos_as_xyz
  1  'x, y, z'
loop_
 _atom_site_type_symbol
 _atom_site_label
 _atom_site_symmetry_multiplicity
 _atom_site_fract_x
 _atom_site_fract_y
 _atom_site_fract_z
 _atom_site_occupancy
  H  H0  1  0.02680624  0.65661377  0.83281527  1
  H  H1  1  0.06163652  0.85958851  0.87588981  1
  H  H2  1  0.04125287  0.85025052  0.33932139  1
  H  H3  1  0.12715724  0.68968834  0.91036665  1
  H  H4  1  0.07124546  0.64779869  0.39024739  1
  H  H5  1  0.14362684  0.80117228  0.40569370  1
  H  H6  1  0.20620614  0.57307584  0.76272701  1
  H  H7  1  0.24505842  0.73192264  0.92687328  1
  H  H8  1  0.23950282  0.93728429  0.41771926  1
  H  H9  1  0.25494158  0.23192264  0.57312672  1
  H  H10  1  0.25613313  0.73253756  0.44944889  1
  H  H11  1  0.29379386  0.07307584  0.73727299  1
  H  H12  1  0.24386687  0.23253756  0.05055111  1
  H  H13  1  0.26049718  0.43728429  0.08228074  1
  H  H14  1  0.37284276  0.18968834  0.58963335  1
  H  H15  1  0.35637316  0.30117228  0.09430630  1
  H  H16  1  0.43836348  0.35958851  0.62411019  1
  H  H17  1  0.47319376  0.15661377  0.66718473  1
  H  H18  1  0.42875454  0.14779869  0.10975261  1
  H  H19  1  0.45874713  0.35025052  0.16067861  1
  H  H20  1  0.54125287  0.64974948  0.83932139  1
  H  H21  1  0.57124546  0.85220131  0.89024739  1
  H  H22  1  0.52680624  0.84338623  0.33281527  1
  H  H23  1  0.56163652  0.64041149  0.37588981  1
  H  H24  1  0.64362684  0.69882772  0.90569370  1
  H  H25  1  0.62715724  0.81031166  0.41036665  1
  H  H26  1  0.73950282  0.56271571  0.91771926  1
  H  H27  1  0.75613313  0.76746244  0.94944889  1
  H  H28  1  0.70620614  0.92692416  0.26272701  1
  H  H29  1  0.74386687  0.26746244  0.55055111  1
  H  H30  1  0.74505842  0.76807736  0.42687328  1
  H  H31  1  0.76049718  0.06271571  0.58228074  1
  H  H32  1  0.75494158  0.26807736  0.07312672  1
  H  H33  1  0.79379386  0.42692416  0.23727299  1
  H  H34  1  0.85637316  0.19882772  0.59430630  1
  H  H35  1  0.92875454  0.35220131  0.60975261  1
  H  H36  1  0.87284276  0.31031166  0.08963335  1
  H  H37  1  0.95874713  0.14974948  0.66067861  1
  H  H38  1  0.93836348  0.14041149  0.12411019  1
  H  H39  1  0.97319376  0.34338623  0.16718473  1
  N  N40  1  0.10172098  0.14916371  0.86507317  1
  N  N41  1  0.11266845  0.34409872  0.39633593  1
  N  N42  1  0.39827902  0.64916371  0.63492683  1
  N  N43  1  0.38733155  0.84409872  0.10366407  1
  N  N44  1  0.61266845  0.15590128  0.89633593  1
  N  N45  1  0.60172098  0.35083629  0.36507317  1
  N  N46  1  0.88733155  0.65590128  0.60366407  1
  N  N47  1  0.89827902  0.85083629  0.13492683  1
  O  O48  1  0.03998523  0.04572541  0.80569651  1
  O  O49  1  0.07281402  0.72985448  0.92644064  1
  O  O50  1  0.09118695  0.30975009  0.85195877  1
  O  O51  1  0.05221145  0.44844593  0.32536964  1
  O  O52  1  0.08595336  0.77475788  0.43389026  1
  O  O53  1  0.10352428  0.18511390  0.35871218  1
  O  O54  1  0.16931310  0.07911038  0.93317822  1
  O  O55  1  0.20818991  0.63031504  0.90375238  1
  O  O56  1  0.17965470  0.40968960  0.50152322  1
  O  O57  1  0.21527618  0.82140537  0.37382082  1
  O  O58  1  0.29181009  0.13031504  0.59624762  1
  O  O59  1  0.28472382  0.32140537  0.12617918  1
  O  O60  1  0.33068690  0.57911038  0.56682178  1
  O  O61  1  0.32034530  0.90968960  0.99847678  1
  O  O62  1  0.40881305  0.80975009  0.64804123  1
  O  O63  1  0.42718598  0.22985448  0.57355936  1
  O  O64  1  0.39647572  0.68511390  0.14128782  1
  O  O65  1  0.46001477  0.54572541  0.69430349  1
  O  O66  1  0.41404664  0.27475788  0.06610974  1
  O  O67  1  0.44778855  0.94844593  0.17463036  1
  O  O68  1  0.55221145  0.05155407  0.82536964  1
  O  O69  1  0.58595336  0.72524212  0.93389026  1
  O  O70  1  0.53998523  0.45427459  0.30569651  1
  O  O71  1  0.60352428  0.31488610  0.85871218  1
  O  O72  1  0.57281402  0.77014552  0.42644064  1
  O  O73  1  0.59118695  0.19024991  0.35195877  1
  O  O74  1  0.67965470  0.09031040  0.00152322  1
  O  O75  1  0.66931310  0.42088962  0.43317822  1
  O  O76  1  0.71527618  0.67859463  0.87382082  1
  O  O77  1  0.70818991  0.86968496  0.40375238  1
  O  O78  1  0.78472382  0.17859463  0.62617918  1
  O  O79  1  0.82034530  0.59031040  0.49847678  1
  O  O80  1  0.79181009  0.36968496  0.09624762  1
  O  O81  1  0.83068690  0.92088962  0.06682178  1
  O  O82  1  0.89647572  0.81488610  0.64128782  1
  O  O83  1  0.91404664  0.22524212  0.56610974  1
  O  O84  1  0.94778855  0.55155407  0.67463036  1
  O  O85  1  0.90881305  0.69024991  0.14804123  1
  O  O86  1  0.92718598  0.27014552  0.07355936  1
  O  O87  1  0.96001477  0.95427459  0.19430349  1
