# generated using pymatgen
data_SmScSi
_symmetry_space_group_name_H-M   'P 1'
_cell_length_a   4.26178239
_cell_length_b   4.26178239
_cell_length_c   8.42317265
_cell_angle_alpha   104.65390231
_cell_angle_beta   104.65390233
_cell_angle_gamma   90.00000002
_symmetry_Int_Tables_number   1
_chemical_formula_structural   SmScSi
_chemical_formula_sum   'Sm2 Sc2 Si2'
_cell_volume   142.86213429
_cell_formula_units_Z   2
loop_
 _symmetry_equiv_pos_site_id
 _symmetry_equiv_pos_as_xyz
  1  'x, y, z'
loop_
 _atom_site_type_symbol
 _atom_site_label
 _atom_site_symmetry_multiplicity
 _atom_site_fract_x
 _atom_site_fract_y
 _atom_site_fract_z
 _atom_site_occupancy
  Si  Si0  1  0.87597766  0.87597766  0.75195533  1
  Si  Si1  1  0.12402234  0.12402234  0.24804467  1
  Sc  Sc2  1  0.00000000  0.50000000  0.00000000  1
  Sc  Sc3  1  0.50000000  0.00000000  0.00000000  1
  Sm  Sm4  1  0.32293540  0.32293540  0.64587079  1
  Sm  Sm5  1  0.67706460  0.67706460  0.35412921  1
