# generated using pymatgen
data_Ba9La5Cl33
_symmetry_space_group_name_H-M   'P 1'
_cell_length_a   11.62012615
_cell_length_b   11.58642873
_cell_length_c   22.29045904
_cell_angle_alpha   99.46763745
_cell_angle_beta   79.83837101
_cell_angle_gamma   71.64734261
_symmetry_Int_Tables_number   1
_chemical_formula_structural   Ba9La5Cl33
_chemical_formula_sum   'Ba18 La10 Cl66'
_cell_volume   2724.88999963
_cell_formula_units_Z   2
loop_
 _symmetry_equiv_pos_site_id
 _symmetry_equiv_pos_as_xyz
  1  'x, y, z'
loop_
 _atom_site_type_symbol
 _atom_site_label
 _atom_site_symmetry_multiplicity
 _atom_site_fract_x
 _atom_site_fract_y
 _atom_site_fract_z
 _atom_site_occupancy
  Ba  Ba0  1  0.74549920  0.92766744  0.93060464  1
  Ba  Ba1  1  0.90742357  0.32071442  0.96742993  1
  Ba  Ba2  1  0.97902406  0.47105990  0.19438701  1
  Ba  Ba3  1  0.73142355  0.87042530  0.33891782  1
  Ba  Ba4  1  0.87726204  0.25068441  0.37576451  1
  Ba  Ba5  1  0.59979619  0.67717801  0.53813936  1
  Ba  Ba6  1  0.75801713  0.07234763  0.56405964  1
  Ba  Ba7  1  0.63835475  0.75623847  0.12246122  1
  Ba  Ba8  1  0.77323205  0.13415787  0.16071193  1
  Ba  Ba9  1  0.22676795  0.86584213  0.83928807  1
  Ba  Ba10  1  0.36164525  0.24376153  0.87753878  1
  Ba  Ba11  1  0.24198287  0.92765237  0.43594036  1
  Ba  Ba12  1  0.40020381  0.32282199  0.46186064  1
  Ba  Ba13  1  0.12273796  0.74931559  0.62423549  1
  Ba  Ba14  1  0.26857645  0.12957470  0.66108218  1
  Ba  Ba15  1  0.02097594  0.52894010  0.80561299  1
  Ba  Ba16  1  0.09257643  0.67928558  0.03257007  1
  Ba  Ba17  1  0.25450080  0.07233256  0.06939536  1
  La  La18  1  0.95552236  0.38216742  0.58644418  1
  La  La19  1  0.85599951  0.18113655  0.76604056  1
  La  La20  1  0.64944407  0.85527844  0.73268128  1
  La  La21  1  0.54194713  0.62441969  0.92519905  1
  La  La22  1  0.46493984  0.46192286  0.68774498  1
  La  La23  1  0.53506016  0.53807714  0.31225502  1
  La  La24  1  0.45805287  0.37558031  0.07480095  1
  La  La25  1  0.35055593  0.14472156  0.26731872  1
  La  La26  1  0.14400049  0.81886345  0.23395944  1
  La  La27  1  0.04447764  0.61783258  0.41355582  1
  Cl  Cl28  1  0.85815948  0.77397520  0.78330837  1
  Cl  Cl29  1  0.84364527  0.95183465  0.67589144  1
  Cl  Cl30  1  0.78769028  0.62163845  0.91981724  1
  Cl  Cl31  1  0.95524023  0.74211121  0.19457870  1
  Cl  Cl32  1  0.98212097  0.16252898  0.63753118  1
  Cl  Cl33  1  0.92253564  0.06456855  0.87328935  1
  Cl  Cl34  1  0.81553417  0.65355098  0.62807453  1
  Cl  Cl35  1  0.81958540  0.43860163  0.73795509  1
  Cl  Cl36  1  0.77945555  0.80824363  0.47361399  1
  Cl  Cl37  1  0.88500919  0.58130395  0.33964190  1
  Cl  Cl38  1  0.88227172  0.47958711  0.47541445  1
  Cl  Cl39  1  0.96252573  0.16227992  0.48899446  1
  Cl  Cl40  1  0.70110404  0.35769261  0.87903141  1
  Cl  Cl41  1  0.81423869  0.88608741  0.06113326  1
  Cl  Cl42  1  0.54614599  0.81745724  0.85456552  1
  Cl  Cl43  1  0.89484588  0.55149987  0.07363413  1
  Cl  Cl44  1  0.57133627  0.94295933  0.62661609  1
  Cl  Cl45  1  0.96466977  0.24085694  0.09362060  1
  Cl  Cl46  1  0.69825230  0.39738870  0.59078572  1
  Cl  Cl47  1  0.61585241  0.98162918  0.22649860  1
  Cl  Cl48  1  0.78660180  0.35304914  0.26375796  1
  Cl  Cl49  1  0.68427188  0.65598432  0.24208493  1
  Cl  Cl50  1  0.88538126  0.03140886  0.27476623  1
  Cl  Cl51  1  0.64117257  0.25167555  0.71125593  1
  Cl  Cl52  1  0.50095985  0.70324850  0.69353692  1
  Cl  Cl53  1  0.64784652  0.07368656  0.82139367  1
  Cl  Cl54  1  0.53313823  0.75089873  0.40467914  1
  Cl  Cl55  1  0.44006719  0.56796453  0.82102058  1
  Cl  Cl56  1  0.60580260  0.45188341  0.42242430  1
  Cl  Cl57  1  0.28744177  0.79782029  0.96843001  1
  Cl  Cl58  1  0.38941409  0.47391859  0.96607705  1
  Cl  Cl59  1  0.68317717  0.12621453  0.43692818  1
  Cl  Cl60  1  0.47125485  0.15124164  0.98458480  1
  Cl  Cl61  1  0.52874515  0.84875836  0.01541520  1
  Cl  Cl62  1  0.31682283  0.87378547  0.56307182  1
  Cl  Cl63  1  0.61058591  0.52608141  0.03392295  1
  Cl  Cl64  1  0.71255823  0.20217971  0.03156999  1
  Cl  Cl65  1  0.39419740  0.54811659  0.57757570  1
  Cl  Cl66  1  0.55993281  0.43203547  0.17897942  1
  Cl  Cl67  1  0.46686177  0.24910127  0.59532086  1
  Cl  Cl68  1  0.35215348  0.92631344  0.17860633  1
  Cl  Cl69  1  0.49904015  0.29675150  0.30646308  1
  Cl  Cl70  1  0.35882743  0.74832445  0.28874407  1
  Cl  Cl71  1  0.11461874  0.96859114  0.72523377  1
  Cl  Cl72  1  0.31572812  0.34401568  0.75791507  1
  Cl  Cl73  1  0.21339820  0.64695086  0.73624204  1
  Cl  Cl74  1  0.38414759  0.01837082  0.77350140  1
  Cl  Cl75  1  0.30174770  0.60261130  0.40921528  1
  Cl  Cl76  1  0.03533023  0.75914306  0.90637940  1
  Cl  Cl77  1  0.42866373  0.05704067  0.37338391  1
  Cl  Cl78  1  0.10515412  0.44850013  0.92636587  1
  Cl  Cl79  1  0.45385401  0.18254276  0.14543448  1
  Cl  Cl80  1  0.18576131  0.11391259  0.93886674  1
  Cl  Cl81  1  0.29889596  0.64230739  0.12096859  1
  Cl  Cl82  1  0.03747427  0.83772008  0.51100554  1
  Cl  Cl83  1  0.11772828  0.52041289  0.52458555  1
  Cl  Cl84  1  0.11499081  0.41869605  0.66035810  1
  Cl  Cl85  1  0.22054445  0.19175637  0.52638601  1
  Cl  Cl86  1  0.18041460  0.56139837  0.26204491  1
  Cl  Cl87  1  0.18446583  0.34644902  0.37192547  1
  Cl  Cl88  1  0.07746436  0.93543145  0.12671065  1
  Cl  Cl89  1  0.01787903  0.83747102  0.36246882  1
  Cl  Cl90  1  0.04475977  0.25788879  0.80542130  1
  Cl  Cl91  1  0.21230972  0.37836155  0.08018276  1
  Cl  Cl92  1  0.15635473  0.04816535  0.32410856  1
  Cl  Cl93  1  0.14184052  0.22602480  0.21669163  1
