# generated using pymatgen
data_Na2Bi4O7
_symmetry_space_group_name_H-M   'P 1'
_cell_length_a   10.52151075
_cell_length_b   10.52151075
_cell_length_c   9.93761832
_cell_angle_alpha   62.75465183
_cell_angle_beta   117.24534817
_cell_angle_gamma   65.16489250
_symmetry_Int_Tables_number   1
_chemical_formula_structural   Na2Bi4O7
_chemical_formula_sum   'Na4 Bi8 O14'
_cell_volume   525.73066027
_cell_formula_units_Z   2
loop_
 _symmetry_equiv_pos_site_id
 _symmetry_equiv_pos_as_xyz
  1  'x, y, z'
loop_
 _atom_site_type_symbol
 _atom_site_label
 _atom_site_symmetry_multiplicity
 _atom_site_fract_x
 _atom_site_fract_y
 _atom_site_fract_z
 _atom_site_occupancy
  Na  Na0  1  0.41086547  0.91495766  0.57722902  1
  Na  Na1  1  0.91495766  0.41086547  0.92277098  1
  Na  Na2  1  0.08504234  0.58913453  0.07722902  1
  Na  Na3  1  0.58913453  0.08504234  0.42277098  1
  Bi  Bi4  1  0.20504614  0.78049489  0.82555372  1
  Bi  Bi5  1  0.12484392  0.51536741  0.75286297  1
  Bi  Bi6  1  0.21950511  0.79495386  0.32555372  1
  Bi  Bi7  1  0.48463259  0.87515608  0.25286297  1
  Bi  Bi8  1  0.51536741  0.12484392  0.74713703  1
  Bi  Bi9  1  0.78049489  0.20504614  0.67444628  1
  Bi  Bi10  1  0.87515608  0.48463259  0.24713703  1
  Bi  Bi11  1  0.79495386  0.21950511  0.17444628  1
  O  O12  1  0.30257885  0.46984414  0.02259132  1
  O  O13  1  0.04389705  0.83338741  0.53968750  1
  O  O14  1  0.73587444  0.79668007  0.92269087  1
  O  O15  1  0.92953968  0.92953968  0.75000000  1
  O  O16  1  0.53015586  0.69742115  0.52259132  1
  O  O17  1  0.16661259  0.95610295  0.03968750  1
  O  O18  1  0.79668007  0.73587444  0.57730913  1
  O  O19  1  0.20331993  0.26412556  0.42269087  1
  O  O20  1  0.83338741  0.04389705  0.96031250  1
  O  O21  1  0.46984414  0.30257885  0.47740868  1
  O  O22  1  0.07046032  0.07046032  0.25000000  1
  O  O23  1  0.26412556  0.20331993  0.07730913  1
  O  O24  1  0.95610295  0.16661259  0.46031250  1
  O  O25  1  0.69742115  0.53015586  0.97740868  1
