# generated using pymatgen
data_Ta3AgO8
_symmetry_space_group_name_H-M   'P 1'
_cell_length_a   17.16001490
_cell_length_b   7.88279045
_cell_length_c   9.17149324
_cell_angle_alpha   89.99999991
_cell_angle_beta   89.99999896
_cell_angle_gamma   90.00001695
_symmetry_Int_Tables_number   1
_chemical_formula_structural   Ta3AgO8
_chemical_formula_sum   'Ta24 Ag8 O64'
_cell_volume   1240.61689923
_cell_formula_units_Z   8
loop_
 _symmetry_equiv_pos_site_id
 _symmetry_equiv_pos_as_xyz
  1  'x, y, z'
loop_
 _atom_site_type_symbol
 _atom_site_label
 _atom_site_symmetry_multiplicity
 _atom_site_fract_x
 _atom_site_fract_y
 _atom_site_fract_z
 _atom_site_occupancy
  Ta  Ta0  1  0.06065105  0.50017501  0.81190337  1
  Ta  Ta1  1  0.06065100  0.99982480  0.81190327  1
  Ta  Ta2  1  0.13582263  0.49849252  0.39725710  1
  Ta  Ta3  1  0.13582265  0.00150742  0.39725701  1
  Ta  Ta4  1  0.24999996  0.00035662  0.69001309  1
  Ta  Ta5  1  0.25000003  0.49722528  0.04934856  1
  Ta  Ta6  1  0.25000002  0.49964341  0.69001299  1
  Ta  Ta7  1  0.25000002  0.00277475  0.04934852  1
  Ta  Ta8  1  0.36417739  0.49849264  0.39725691  1
  Ta  Ta9  1  0.36417730  0.00150726  0.39725700  1
  Ta  Ta10  1  0.43934905  0.50017525  0.81190334  1
  Ta  Ta11  1  0.43934917  0.99982480  0.81190367  1
  Ta  Ta12  1  0.56065083  0.00017520  0.18809633  1
  Ta  Ta13  1  0.56065095  0.49982475  0.18809666  1
  Ta  Ta14  1  0.63582270  0.99849274  0.60274300  1
  Ta  Ta15  1  0.63582261  0.50150736  0.60274309  1
  Ta  Ta16  1  0.74999998  0.50035659  0.30998701  1
  Ta  Ta17  1  0.74999997  0.50277472  0.95065144  1
  Ta  Ta18  1  0.74999998  0.99722525  0.95065148  1
  Ta  Ta19  1  0.75000004  0.99964338  0.30998691  1
  Ta  Ta20  1  0.86417735  0.99849258  0.60274299  1
  Ta  Ta21  1  0.86417737  0.50150748  0.60274290  1
  Ta  Ta22  1  0.93934900  0.00017520  0.18809673  1
  Ta  Ta23  1  0.93934895  0.49982499  0.18809663  1
  Ag  Ag24  1  -0.00011208  0.74999997  0.50222138  1
  Ag  Ag25  1  0.09152167  0.75000007  0.09475122  1
  Ag  Ag26  1  0.40847829  0.74999998  0.09475123  1
  Ag  Ag27  1  0.50011202  0.75000004  0.50222138  1
  Ag  Ag28  1  0.49988798  0.24999996  0.49777862  1
  Ag  Ag29  1  0.59152171  0.25000002  0.90524877  1
  Ag  Ag30  1  0.90847833  0.24999993  0.90524878  1
  Ag  Ag31  1  0.00011208  0.25000003  0.49777862  1
  O  O32  1  0.00000000  0.00000000  0.00000000  1
  O  O33  1  0.00000000  0.50000000  0.00000000  1
  O  O34  1  0.02466050  0.01318631  0.33076831  1
  O  O35  1  0.02466049  0.48681379  0.33076840  1
  O  O36  1  0.05392508  0.25000006  0.81083989  1
  O  O37  1  0.06549994  0.74999996  0.82427754  1
  O  O38  1  0.12638669  0.74999997  0.40517412  1
  O  O39  1  0.13130637  0.00142560  0.62074172  1
  O  O40  1  0.13130635  0.49857427  0.62074162  1
  O  O41  1  0.13817664  0.24999994  0.40038940  1
  O  O42  1  0.16810556  0.51214729  0.19484295  1
  O  O43  1  0.16810572  0.98785288  0.19484277  1
  O  O44  1  0.17465978  0.00906536  0.87435977  1
  O  O45  1  0.17465969  0.49093465  0.87435963  1
  O  O46  1  0.25000000  0.24999998  0.68422924  1
  O  O47  1  0.25000008  0.50897648  0.45950061  1
  O  O48  1  0.25000010  0.74999981  0.03389415  1
  O  O49  1  0.24999999  0.75000001  0.69530126  1
  O  O50  1  0.25000003  0.25000009  0.05542701  1
  O  O51  1  0.25000001  0.99102353  0.45950040  1
  O  O52  1  0.32534038  0.00906547  0.87435993  1
  O  O53  1  0.32534035  0.49093464  0.87435975  1
  O  O54  1  0.33189438  0.51214706  0.19484304  1
  O  O55  1  0.33189435  0.98785294  0.19484289  1
  O  O56  1  0.36182333  0.24999992  0.40038926  1
  O  O57  1  0.36869364  0.00142563  0.62074167  1
  O  O58  1  0.36869367  0.49857424  0.62074169  1
  O  O59  1  0.37361339  0.74999991  0.40517417  1
  O  O60  1  0.43450027  0.75000001  0.82427757  1
  O  O61  1  0.44607494  0.25000008  0.81083996  1
  O  O62  1  0.47533956  0.01318613  0.33076806  1
  O  O63  1  0.47533952  0.48681377  0.33076830  1
  O  O64  1  0.50000000  0.00000000  0.00000000  1
  O  O65  1  0.50000000  0.50000000  0.00000000  1
  O  O66  1  0.52466048  0.51318623  0.66923170  1
  O  O67  1  0.52466044  0.98681387  0.66923194  1
  O  O68  1  0.55392506  0.74999992  0.18916004  1
  O  O69  1  0.56549973  0.24999999  0.17572243  1
  O  O70  1  0.62638661  0.25000009  0.59482583  1
  O  O71  1  0.63130633  0.50142576  0.37925831  1
  O  O72  1  0.63130636  0.99857437  0.37925833  1
  O  O73  1  0.63817667  0.75000008  0.59961074  1
  O  O74  1  0.66810565  0.01214706  0.80515711  1
  O  O75  1  0.66810562  0.48785294  0.80515696  1
  O  O76  1  0.67465965  0.50906536  0.12564025  1
  O  O77  1  0.67465962  0.99093453  0.12564007  1
  O  O78  1  0.74999999  0.00897647  0.54049960  1
  O  O79  1  0.74999990  0.25000019  0.96610585  1
  O  O80  1  0.75000001  0.24999999  0.30469874  1
  O  O81  1  0.74999992  0.49102352  0.54049939  1
  O  O82  1  0.75000000  0.75000002  0.31577076  1
  O  O83  1  0.74999997  0.74999991  0.94457299  1
  O  O84  1  0.82534031  0.50906535  0.12564037  1
  O  O85  1  0.82534022  0.99093464  0.12564023  1
  O  O86  1  0.83189428  0.01214712  0.80515723  1
  O  O87  1  0.83189444  0.48785271  0.80515705  1
  O  O88  1  0.86182336  0.75000006  0.59961060  1
  O  O89  1  0.86869365  0.50142573  0.37925838  1
  O  O90  1  0.86869363  0.99857440  0.37925828  1
  O  O91  1  0.87361331  0.25000003  0.59482588  1
  O  O92  1  0.93450006  0.25000004  0.17572246  1
  O  O93  1  0.94607492  0.74999994  0.18916011  1
  O  O94  1  0.97533951  0.51318621  0.66923160  1
  O  O95  1  0.97533950  0.98681369  0.66923169  1
