# generated using pymatgen
data_Li4V3CrO8
_symmetry_space_group_name_H-M   'P 1'
_cell_length_a   5.18829978
_cell_length_b   6.00054679
_cell_length_c   10.35904548
_cell_angle_alpha   89.85321230
_cell_angle_beta   80.23651978
_cell_angle_gamma   73.09182412
_symmetry_Int_Tables_number   1
_chemical_formula_structural   Li4V3CrO8
_chemical_formula_sum   'Li8 V6 Cr2 O16'
_cell_volume   303.71989062
_cell_formula_units_Z   2
loop_
 _symmetry_equiv_pos_site_id
 _symmetry_equiv_pos_as_xyz
  1  'x, y, z'
loop_
 _atom_site_type_symbol
 _atom_site_label
 _atom_site_symmetry_multiplicity
 _atom_site_fract_x
 _atom_site_fract_y
 _atom_site_fract_z
 _atom_site_occupancy
  Li  Li0  1  0.99741034  0.00330489  0.99981577  1
  Li  Li1  1  0.99884216  0.00218336  0.49904134  1
  Li  Li2  1  0.00049971  0.25022198  0.24972252  1
  Li  Li3  1  0.99999345  0.24884624  0.74985722  1
  Li  Li4  1  0.00107834  0.49658909  0.00186736  1
  Li  Li5  1  0.00295130  0.49810677  0.50006386  1
  Li  Li6  1  0.99964523  0.74965528  0.25020236  1
  Li  Li7  1  0.99950347  0.75112848  0.74931466  1
  V  V8  1  0.49947423  0.12480762  0.87513078  1
  V  V9  1  0.50061547  0.37534518  0.62526103  1
  V  V10  1  0.50000191  0.62578713  0.37480155  1
  V  V11  1  0.49950362  0.62495997  0.87572804  1
  V  V12  1  0.49977968  0.87398586  0.12474614  1
  V  V13  1  0.50102867  0.87509670  0.62419767  1
  Cr  Cr14  1  0.50082715  0.12590223  0.37408568  1
  Cr  Cr15  1  0.49868528  0.37392688  0.12582272  1
  O  O16  1  0.27299740  0.18300610  0.06089816  1
  O  O17  1  0.27508686  0.18213561  0.55887503  1
  O  O18  1  0.72441276  0.06989755  0.18921697  1
  O  O19  1  0.72920931  0.06732509  0.68870085  1
  O  O20  1  0.27424425  0.42849231  0.31005583  1
  O  O21  1  0.72512818  0.31889344  0.43915659  1
  O  O22  1  0.27143876  0.43191039  0.81139559  1
  O  O23  1  0.72600307  0.31857379  0.94127427  1
  O  O24  1  0.27127164  0.67922697  0.06257439  1
  O  O25  1  0.72576332  0.56459830  0.18946987  1
  O  O26  1  0.27164891  0.68281299  0.56093851  1
  O  O27  1  0.73044534  0.56722541  0.68945808  1
  O  O28  1  0.27521137  0.93326852  0.31090684  1
  O  O29  1  0.72935323  0.82328922  0.43757600  1
  O  O30  1  0.26908928  0.93176280  0.81116541  1
  O  O31  1  0.72885633  0.81773386  0.93867790  1
