# generated using pymatgen
data_Li2MnSiO4
_symmetry_space_group_name_H-M   'P 1'
_cell_length_a   6.41698687
_cell_length_b   10.97865083
_cell_length_c   5.10751875
_cell_angle_alpha   90.00000000
_cell_angle_beta   90.00000000
_cell_angle_gamma   90.00000000
_symmetry_Int_Tables_number   1
_chemical_formula_structural   Li2MnSiO4
_chemical_formula_sum   'Li8 Mn4 Si4 O16'
_cell_volume   359.82397183
_cell_formula_units_Z   4
loop_
 _symmetry_equiv_pos_site_id
 _symmetry_equiv_pos_as_xyz
  1  'x, y, z'
loop_
 _atom_site_type_symbol
 _atom_site_label
 _atom_site_symmetry_multiplicity
 _atom_site_fract_x
 _atom_site_fract_y
 _atom_site_fract_z
 _atom_site_occupancy
  Li  Li0  1  0.99746796  0.33265563  0.20504688  1
  Li  Li1  1  0.99746796  0.83265563  0.29495312  1
  Li  Li2  1  0.50253204  0.33265563  0.20504688  1
  Li  Li3  1  0.50253204  0.83265563  0.29495312  1
  Li  Li4  1  0.49746796  0.16734437  0.70504688  1
  Li  Li5  1  0.49746796  0.66734437  0.79495312  1
  Li  Li6  1  0.00253204  0.66734437  0.79495312  1
  Li  Li7  1  0.00253204  0.16734437  0.70504688  1
  Mn  Mn8  1  0.25000000  0.42094857  0.79152065  1
  Mn  Mn9  1  0.25000000  0.92094857  0.70847935  1
  Mn  Mn10  1  0.75000000  0.07905143  0.29152065  1
  Mn  Mn11  1  0.75000000  0.57905143  0.20847935  1
  Si  Si12  1  0.25000000  0.08950743  0.19311960  1
  Si  Si13  1  0.25000000  0.58950743  0.30688040  1
  Si  Si14  1  0.75000000  0.41049257  0.69311960  1
  Si  Si15  1  0.75000000  0.91049257  0.80688040  1
  O  O16  1  0.04047227  0.16071769  0.30330439  1
  O  O17  1  0.04047227  0.66071769  0.19669561  1
  O  O18  1  0.25000000  0.09366878  0.86910788  1
  O  O19  1  0.25000000  0.44491350  0.21288992  1
  O  O20  1  0.25000000  0.94491350  0.28711008  1
  O  O21  1  0.25000000  0.59366878  0.63089212  1
  O  O22  1  0.45952773  0.16071769  0.30330439  1
  O  O23  1  0.45952773  0.66071769  0.19669561  1
  O  O24  1  0.54047227  0.33928231  0.80330439  1
  O  O25  1  0.54047227  0.83928231  0.69669561  1
  O  O26  1  0.75000000  0.05508650  0.71288992  1
  O  O27  1  0.75000000  0.40633122  0.36910788  1
  O  O28  1  0.75000000  0.55508650  0.78711008  1
  O  O29  1  0.75000000  0.90633122  0.13089212  1
  O  O30  1  0.95952773  0.33928231  0.80330439  1
  O  O31  1  0.95952773  0.83928231  0.69669561  1
