# generated using pymatgen
data_Li2V2(PO4)3
_symmetry_space_group_name_H-M   'P 1'
_cell_length_a   8.57019697
_cell_length_b   12.22726600
_cell_length_c   8.68955823
_cell_angle_alpha   90.00000000
_cell_angle_beta   90.00000000
_cell_angle_gamma   90.05141483
_symmetry_Int_Tables_number   1
_chemical_formula_structural   Li2V2(PO4)3
_chemical_formula_sum   'Li8 V8 P12 O48'
_cell_volume   910.57911785
_cell_formula_units_Z   4
loop_
 _symmetry_equiv_pos_site_id
 _symmetry_equiv_pos_as_xyz
  1  'x, y, z'
loop_
 _atom_site_type_symbol
 _atom_site_label
 _atom_site_symmetry_multiplicity
 _atom_site_fract_x
 _atom_site_fract_y
 _atom_site_fract_z
 _atom_site_occupancy
  Li  Li0  1  0.08012991  0.69753972  0.07868385  1
  Li  Li1  1  0.20891400  0.18135863  0.77729910  1
  Li  Li2  1  0.29108600  0.31864137  0.27729910  1
  Li  Li3  1  0.41987009  0.80246028  0.57868385  1
  Li  Li4  1  0.58012991  0.19753972  0.42131615  1
  Li  Li5  1  0.70891400  0.68135863  0.72270090  1
  Li  Li6  1  0.79108600  0.81864137  0.22270090  1
  Li  Li7  1  0.91987009  0.30246028  0.92131615  1
  V  V8  1  0.25437098  0.88734037  0.03225398  1
  V  V9  1  0.24562902  0.61265963  0.53225398  1
  V  V10  1  0.25470392  0.38745423  0.96122655  1
  V  V11  1  0.24529608  0.11254577  0.46122655  1
  V  V12  1  0.75470392  0.88745423  0.53877345  1
  V  V13  1  0.74529608  0.61254577  0.03877345  1
  V  V14  1  0.75437098  0.38734037  0.46774602  1
  V  V15  1  0.74562902  0.11265963  0.96774602  1
  P  P16  1  0.03514159  0.49470125  0.25143095  1
  P  P17  1  0.10677023  0.85049725  0.38374326  1
  P  P18  1  0.10381078  0.14415784  0.10355812  1
  P  P19  1  0.39322977  0.64950275  0.88374326  1
  P  P20  1  0.39618922  0.35584216  0.60355812  1
  P  P21  1  0.46485841  0.00529875  0.75143095  1
  P  P22  1  0.53514159  0.99470125  0.24856905  1
  P  P23  1  0.60381078  0.64415784  0.39644188  1
  P  P24  1  0.60677023  0.35049725  0.11625674  1
  P  P25  1  0.89618922  0.85584216  0.89644188  1
  P  P26  1  0.89322977  0.14950275  0.61625674  1
  P  P27  1  0.96485841  0.50529875  0.74856905  1
  O  O28  1  0.04848425  0.43104917  0.86717420  1
  O  O29  1  0.07757182  0.86556692  0.89715087  1
  O  O30  1  0.08084627  0.58761179  0.67414524  1
  O  O31  1  0.07045193  0.17009535  0.59238629  1
  O  O32  1  0.10712843  0.57444850  0.36831724  1
  O  O33  1  0.15144680  0.96801994  0.41898637  1
  O  O34  1  0.13538721  0.82355190  0.20952353  1
  O  O35  1  0.14299622  0.23375059  0.98101579  1
  O  O36  1  0.16353160  0.18112165  0.26216788  1
  O  O37  1  0.16405808  0.42735862  0.17446844  1
  O  O38  1  0.17997694  0.03651240  0.05403964  1
  O  O39  1  0.20370836  0.77286031  0.48953599  1
  O  O40  1  0.29629164  0.72713969  0.98953599  1
  O  O41  1  0.32002306  0.46348760  0.55403964  1
  O  O42  1  0.33594192  0.07264138  0.67446844  1
  O  O43  1  0.33646840  0.31887835  0.76216788  1
  O  O44  1  0.36461279  0.67644810  0.70952353  1
  O  O45  1  0.34855320  0.53198006  0.91898637  1
  O  O46  1  0.35700378  0.26624941  0.48101579  1
  O  O47  1  0.39287157  0.92555150  0.86831724  1
  O  O48  1  0.41915373  0.91238821  0.17414524  1
  O  O49  1  0.42242818  0.63443308  0.39715087  1
  O  O50  1  0.42954807  0.32990465  0.09238629  1
  O  O51  1  0.45151575  0.06895083  0.36717420  1
  O  O52  1  0.54848425  0.93104917  0.63282580  1
  O  O53  1  0.57045193  0.67009535  0.90761371  1
  O  O54  1  0.57757182  0.36556692  0.60284913  1
  O  O55  1  0.58084627  0.08761179  0.82585476  1
  O  O56  1  0.60712843  0.07444850  0.13168276  1
  O  O57  1  0.64299622  0.73375059  0.51898421  1
  O  O58  1  0.65144680  0.46801994  0.08101363  1
  O  O59  1  0.63538721  0.32355190  0.29047647  1
  O  O60  1  0.66353160  0.68112165  0.23783212  1
  O  O61  1  0.66405808  0.92735862  0.32553156  1
  O  O62  1  0.67997694  0.53651240  0.44596036  1
  O  O63  1  0.70370836  0.27286031  0.01046401  1
  O  O64  1  0.79629164  0.22713969  0.51046401  1
  O  O65  1  0.82002306  0.96348760  0.94596036  1
  O  O66  1  0.83594192  0.57264138  0.82553156  1
  O  O67  1  0.83646840  0.81887835  0.73783212  1
  O  O68  1  0.85700378  0.76624941  0.01898421  1
  O  O69  1  0.86461279  0.17644810  0.79047647  1
  O  O70  1  0.84855320  0.03198006  0.58101363  1
  O  O71  1  0.89287157  0.42555150  0.63168276  1
  O  O72  1  0.92954807  0.82990465  0.40761371  1
  O  O73  1  0.91915373  0.41238821  0.32585476  1
  O  O74  1  0.92242818  0.13443308  0.10284913  1
  O  O75  1  0.95151575  0.56895083  0.13282580  1
