# generated using pymatgen
data_LiMnPO4
_symmetry_space_group_name_H-M   'P 1'
_cell_length_a   10.25369117
_cell_length_b   13.93172039
_cell_length_c   5.15846985
_cell_angle_alpha   90.00000000
_cell_angle_beta   90.00000000
_cell_angle_gamma   90.00000000
_symmetry_Int_Tables_number   1
_chemical_formula_structural   LiMnPO4
_chemical_formula_sum   'Li8 Mn8 P8 O32'
_cell_volume   736.89545675
_cell_formula_units_Z   8
loop_
 _symmetry_equiv_pos_site_id
 _symmetry_equiv_pos_as_xyz
  1  'x, y, z'
loop_
 _atom_site_type_symbol
 _atom_site_label
 _atom_site_symmetry_multiplicity
 _atom_site_fract_x
 _atom_site_fract_y
 _atom_site_fract_z
 _atom_site_occupancy
  Li  Li0  1  0.03060212  0.50171651  0.92888296  1
  Li  Li1  1  0.22236929  0.75066716  0.55318830  1
  Li  Li2  1  0.27763071  0.25066716  0.55318830  1
  Li  Li3  1  0.46939788  0.00171651  0.92888296  1
  Li  Li4  1  0.53060212  0.50171651  0.07111704  1
  Li  Li5  1  0.72236929  0.75066716  0.44681170  1
  Li  Li6  1  0.77763071  0.25066716  0.44681170  1
  Li  Li7  1  0.96939788  0.00171651  0.07111704  1
  Mn  Mn8  1  0.03436160  0.75287289  0.05919753  1
  Mn  Mn9  1  0.21635578  0.00127831  0.55668068  1
  Mn  Mn10  1  0.28364422  0.50127831  0.55668068  1
  Mn  Mn11  1  0.46563840  0.25287289  0.05919753  1
  Mn  Mn12  1  0.53436160  0.75287289  0.94080247  1
  Mn  Mn13  1  0.71635578  0.00127831  0.44331932  1
  Mn  Mn14  1  0.78364422  0.50127831  0.44331932  1
  Mn  Mn15  1  0.96563840  0.25287289  0.94080247  1
  P  P16  1  0.03164574  0.37618888  0.43451490  1
  P  P17  1  0.21629331  0.12751130  0.05329467  1
  P  P18  1  0.28370669  0.62751130  0.05329467  1
  P  P19  1  0.46835426  0.87618888  0.43451490  1
  P  P20  1  0.53164574  0.37618888  0.56548510  1
  P  P21  1  0.71629331  0.12751130  0.94670533  1
  P  P22  1  0.78370669  0.62751130  0.94670533  1
  P  P23  1  0.96835426  0.87618888  0.56548510  1
  O  O24  1  0.99794288  0.88078401  0.86162091  1
  O  O25  1  0.97359361  0.46770925  0.56497374  1
  O  O26  1  0.03466942  0.78419306  0.45499104  1
  O  O27  1  0.06710639  0.12474122  0.99617304  1
  O  O28  1  0.18059348  0.37340484  0.48909220  1
  O  O29  1  0.22123230  0.53583876  0.93189816  1
  O  O30  1  0.27585784  0.21968802  0.93128619  1
  O  O31  1  0.24422491  0.12900578  0.34992623  1
  O  O32  1  0.25577509  0.62900578  0.34992623  1
  O  O33  1  0.22414216  0.71968802  0.93128619  1
  O  O34  1  0.27876770  0.03583876  0.93189816  1
  O  O35  1  0.31940652  0.87340484  0.48909220  1
  O  O36  1  0.43289361  0.62474122  0.99617304  1
  O  O37  1  0.46533058  0.28419306  0.45499104  1
  O  O38  1  0.52640639  0.96770925  0.56497374  1
  O  O39  1  0.50205712  0.38078401  0.86162091  1
  O  O40  1  0.49794288  0.88078401  0.13837909  1
  O  O41  1  0.47359361  0.46770925  0.43502626  1
  O  O42  1  0.53466942  0.78419306  0.54500896  1
  O  O43  1  0.56710639  0.12474122  0.00382696  1
  O  O44  1  0.68059348  0.37340484  0.51090780  1
  O  O45  1  0.72123230  0.53583876  0.06810184  1
  O  O46  1  0.77585784  0.21968802  0.06871381  1
  O  O47  1  0.74422491  0.12900578  0.65007377  1
  O  O48  1  0.75577509  0.62900578  0.65007377  1
  O  O49  1  0.72414216  0.71968802  0.06871381  1
  O  O50  1  0.77876770  0.03583876  0.06810184  1
  O  O51  1  0.81940652  0.87340484  0.51090780  1
  O  O52  1  0.93289361  0.62474122  0.00382696  1
  O  O53  1  0.96533058  0.28419306  0.54500896  1
  O  O54  1  0.02640639  0.96770925  0.43502626  1
  O  O55  1  0.00205712  0.38078401  0.13837909  1
