# generated using pymatgen
data_LiFe(Si2O5)2
_symmetry_space_group_name_H-M   'P 1'
_cell_length_a   11.55615796
_cell_length_b   5.23954256
_cell_length_c   7.86363977
_cell_angle_alpha   90.00000000
_cell_angle_beta   74.11888716
_cell_angle_gamma   90.00000000
_symmetry_Int_Tables_number   1
_chemical_formula_structural   LiFe(Si2O5)2
_chemical_formula_sum   'Li2 Fe2 Si8 O20'
_cell_volume   457.96203687
_cell_formula_units_Z   2
loop_
 _symmetry_equiv_pos_site_id
 _symmetry_equiv_pos_as_xyz
  1  'x, y, z'
loop_
 _atom_site_type_symbol
 _atom_site_label
 _atom_site_symmetry_multiplicity
 _atom_site_fract_x
 _atom_site_fract_y
 _atom_site_fract_z
 _atom_site_occupancy
  Li  Li0  1  0.25000000  0.25727901  0.75000000  1
  Li  Li1  1  0.75000000  0.74272099  0.25000000  1
  Fe  Fe2  1  0.25000000  0.75708597  0.75000000  1
  Fe  Fe3  1  0.75000000  0.24291403  0.25000000  1
  Si  Si4  1  0.99936980  0.47725074  0.70639944  1
  Si  Si5  1  0.14807062  0.02068767  0.14657407  1
  Si  Si6  1  0.35192938  0.02068767  0.35342593  1
  Si  Si7  1  0.50063020  0.47725074  0.79360056  1
  Si  Si8  1  0.49936980  0.52274926  0.20639944  1
  Si  Si9  1  0.64807062  0.97931233  0.64657407  1
  Si  Si10  1  0.85192938  0.97931233  0.85342593  1
  Si  Si11  1  0.00063020  0.52274926  0.29360056  1
  O  O12  1  0.00000000  0.50000000  0.50000000  1
  O  O13  1  0.13430604  0.51845408  0.72706399  1
  O  O14  1  0.20723608  0.99620254  0.93380048  1
  O  O15  1  0.04138834  0.80916302  0.21711751  1
  O  O16  1  0.09429446  0.30998600  0.18116886  1
  O  O17  1  0.29276392  0.99620254  0.56619952  1
  O  O18  1  0.36569396  0.51845408  0.77293601  1
  O  O19  1  0.25000000  0.97078149  0.25000000  1
  O  O20  1  0.40570554  0.30998600  0.31883114  1
  O  O21  1  0.54138834  0.19083698  0.71711751  1
  O  O22  1  0.45861166  0.80916302  0.28288249  1
  O  O23  1  0.59429446  0.69001400  0.68116886  1
  O  O24  1  0.50000000  0.50000000  0.00000000  1
  O  O25  1  0.75000000  0.02921851  0.75000000  1
  O  O26  1  0.63430604  0.48154592  0.22706399  1
  O  O27  1  0.70723608  0.00379746  0.43380048  1
  O  O28  1  0.90570554  0.69001400  0.81883114  1
  O  O29  1  0.95861166  0.19083698  0.78288249  1
  O  O30  1  0.79276392  0.00379746  0.06619952  1
  O  O31  1  0.86569396  0.48154592  0.27293601  1
