# generated using pymatgen
data_LiNiPO4
_symmetry_space_group_name_H-M   'P 1'
_cell_length_a   18.54606840
_cell_length_b   5.42462936
_cell_length_c   8.22762425
_cell_angle_alpha   90.00000000
_cell_angle_beta   90.00000000
_cell_angle_gamma   90.00000000
_symmetry_Int_Tables_number   1
_chemical_formula_structural   LiNiPO4
_chemical_formula_sum   'Li12 Ni12 P12 O48'
_cell_volume   827.74463946
_cell_formula_units_Z   12
loop_
 _symmetry_equiv_pos_site_id
 _symmetry_equiv_pos_as_xyz
  1  'x, y, z'
loop_
 _atom_site_type_symbol
 _atom_site_label
 _atom_site_symmetry_multiplicity
 _atom_site_fract_x
 _atom_site_fract_y
 _atom_site_fract_z
 _atom_site_occupancy
  Li  Li0  1  0.08225209  0.24959399  0.07628757  1
  Li  Li1  1  0.08421911  0.72069608  0.57858607  1
  Li  Li2  1  0.24872873  0.24077402  0.41844815  1
  Li  Li3  1  0.25127127  0.74077402  0.91844815  1
  Li  Li4  1  0.41578089  0.22069608  0.07858607  1
  Li  Li5  1  0.41774791  0.74959399  0.57628757  1
  Li  Li6  1  0.58225209  0.24959399  0.42371243  1
  Li  Li7  1  0.58421911  0.72069608  0.92141393  1
  Li  Li8  1  0.74872873  0.24077402  0.08155185  1
  Li  Li9  1  0.75127127  0.74077402  0.58155185  1
  Li  Li10  1  0.91578089  0.22069608  0.42141393  1
  Li  Li11  1  0.91774791  0.74959399  0.92371243  1
  Ni  Ni12  1  0.99969645  0.23382407  0.74881607  1
  Ni  Ni13  1  0.16683233  0.73575751  0.24853971  1
  Ni  Ni14  1  0.16653502  0.23763538  0.75003146  1
  Ni  Ni15  1  0.33346498  0.73763538  0.25003146  1
  Ni  Ni16  1  0.33316767  0.23575751  0.74853971  1
  Ni  Ni17  1  0.50030355  0.73382407  0.24881607  1
  Ni  Ni18  1  0.49969645  0.23382407  0.75118393  1
  Ni  Ni19  1  0.66683233  0.73575751  0.25146029  1
  Ni  Ni20  1  0.66653502  0.23763538  0.74996854  1
  Ni  Ni21  1  0.83346498  0.73763538  0.24996854  1
  Ni  Ni22  1  0.83316767  0.23575751  0.75146029  1
  Ni  Ni23  1  0.00030355  0.73382407  0.25118393  1
  P  P24  1  0.08285679  0.23175032  0.40001149  1
  P  P25  1  0.08388785  0.73798799  0.90042666  1
  P  P26  1  0.24949596  0.23742404  0.09850691  1
  P  P27  1  0.25050404  0.73742404  0.59850691  1
  P  P28  1  0.41611215  0.23798799  0.40042666  1
  P  P29  1  0.41714321  0.73175032  0.90001149  1
  P  P30  1  0.58285679  0.23175032  0.09998851  1
  P  P31  1  0.58388785  0.73798799  0.59957334  1
  P  P32  1  0.74949596  0.23742404  0.40149309  1
  P  P33  1  0.75050404  0.73742404  0.90149309  1
  P  P34  1  0.91611215  0.23798799  0.09957334  1
  P  P35  1  0.91714321  0.73175032  0.59998851  1
  O  O36  1  0.01436737  0.23231910  0.50358596  1
  O  O37  1  0.01606810  0.73631466  0.00625082  1
  O  O38  1  0.08332910  0.96749392  0.78179393  1
  O  O39  1  0.08326204  0.50578385  0.78300319  1
  O  O40  1  0.08298407  0.46240853  0.28139033  1
  O  O41  1  0.08347339  0.00078696  0.28267639  1
  O  O42  1  0.15087079  0.23637339  0.50519583  1
  O  O43  1  0.15259866  0.73759022  0.00317095  1
  O  O44  1  0.18101162  0.23841877  0.99501147  1
  O  O45  1  0.18240140  0.73485047  0.49371753  1
  O  O46  1  0.25000214  0.96857238  0.71639803  1
  O  O47  1  0.25049014  0.50748636  0.71727332  1
  O  O48  1  0.24950986  0.00748636  0.21727332  1
  O  O49  1  0.24999786  0.46857238  0.21639803  1
  O  O50  1  0.31759860  0.23485047  0.99371753  1
  O  O51  1  0.31898838  0.73841877  0.49501147  1
  O  O52  1  0.34740134  0.23759022  0.50317095  1
  O  O53  1  0.34912921  0.73637339  0.00519583  1
  O  O54  1  0.41652661  0.50078696  0.78267639  1
  O  O55  1  0.41701593  0.96240853  0.78139033  1
  O  O56  1  0.41673796  0.00578385  0.28300319  1
  O  O57  1  0.41667090  0.46749392  0.28179393  1
  O  O58  1  0.48393190  0.23631466  0.50625082  1
  O  O59  1  0.48563263  0.73231910  0.00358596  1
  O  O60  1  0.51436737  0.23231910  0.99641404  1
  O  O61  1  0.51606810  0.73631466  0.49374918  1
  O  O62  1  0.58332910  0.96749392  0.71820607  1
  O  O63  1  0.58326204  0.50578385  0.71699681  1
  O  O64  1  0.58298407  0.46240853  0.21860967  1
  O  O65  1  0.58347339  0.00078696  0.21732361  1
  O  O66  1  0.65087079  0.23637339  0.99480417  1
  O  O67  1  0.65259866  0.73759022  0.49682905  1
  O  O68  1  0.68101162  0.23841877  0.50498853  1
  O  O69  1  0.68240140  0.73485047  0.00628247  1
  O  O70  1  0.75000214  0.96857238  0.78360197  1
  O  O71  1  0.75049014  0.50748636  0.78272668  1
  O  O72  1  0.74950986  0.00748636  0.28272668  1
  O  O73  1  0.74999786  0.46857238  0.28360197  1
  O  O74  1  0.81759860  0.23485047  0.50628247  1
  O  O75  1  0.81898838  0.73841877  0.00498853  1
  O  O76  1  0.84740134  0.23759022  0.99682905  1
  O  O77  1  0.84912921  0.73637339  0.49480417  1
  O  O78  1  0.91652661  0.50078696  0.71732361  1
  O  O79  1  0.91701593  0.96240853  0.71860967  1
  O  O80  1  0.91673796  0.00578385  0.21699681  1
  O  O81  1  0.91667090  0.46749392  0.21820607  1
  O  O82  1  0.98393190  0.23631466  0.99374918  1
  O  O83  1  0.98563263  0.73231910  0.49641404  1
