# generated using pymatgen
data_Li2Mg2MnFe(PO4)4
_symmetry_space_group_name_H-M   'P 1'
_cell_length_a   4.81817091
_cell_length_b   10.07450874
_cell_length_c   5.95548445
_cell_angle_alpha   89.93192536
_cell_angle_beta   90.55621904
_cell_angle_gamma   89.26630760
_symmetry_Int_Tables_number   1
_chemical_formula_structural   Li2Mg2MnFe(PO4)4
_chemical_formula_sum   'Li2 Mg2 Mn1 Fe1 P4 O16'
_cell_volume   289.04584261
_cell_formula_units_Z   1
loop_
 _symmetry_equiv_pos_site_id
 _symmetry_equiv_pos_as_xyz
  1  'x, y, z'
loop_
 _atom_site_type_symbol
 _atom_site_label
 _atom_site_symmetry_multiplicity
 _atom_site_fract_x
 _atom_site_fract_y
 _atom_site_fract_z
 _atom_site_occupancy
  Li  Li0  1  0.00028808  0.99938761  0.51949309  1
  Li  Li1  1  0.49619019  0.50182217  0.98121697  1
  Mg  Mg2  1  0.02872677  0.72079820  0.75154950  1
  Mg  Mg3  1  0.47540834  0.22427119  0.74669849  1
  Mn  Mn4  1  0.55067211  0.78177222  0.25134659  1
  Fe  Fe5  1  0.97230286  0.27657177  0.24805390  1
  P  P6  1  0.08676597  0.59982524  0.25111927  1
  P  P7  1  0.41754899  0.09585677  0.24845410  1
  P  P8  1  0.57387953  0.90521438  0.75102831  1
  P  P9  1  0.92163510  0.40460987  0.74938995  1
  O  O10  1  0.15960554  0.44939403  0.24861310  1
  O  O11  1  0.23268233  0.66205679  0.04261101  1
  O  O12  1  0.21744065  0.67306705  0.45201622  1
  O  O13  1  0.23703236  0.39121152  0.76244164  1
  O  O14  1  0.26040172  0.89203152  0.73762773  1
  O  O15  1  0.27699033  0.17207821  0.04955125  1
  O  O16  1  0.26115864  0.16248879  0.45273898  1
  O  O17  1  0.33700790  0.94686267  0.25230055  1
  O  O18  1  0.67565847  0.04853840  0.74443515  1
  O  O19  1  0.72865855  0.83262251  0.54758209  1
  O  O20  1  0.71023146  0.82687420  0.95331391  1
  O  O21  1  0.73375705  0.11201011  0.26054435  1
  O  O22  1  0.76379627  0.61680503  0.24049933  1
  O  O23  1  0.79295866  0.32528944  0.54543316  1
  O  O24  1  0.77460050  0.33100255  0.95616383  1
  O  O25  1  0.81460262  0.54753779  0.75577651  1
