# generated using pymatgen
data_P4WO12
_symmetry_space_group_name_H-M   'P 1'
_cell_length_a   12.96770269
_cell_length_b   8.42362616
_cell_length_c   9.59297290
_cell_angle_alpha   90.00000000
_cell_angle_beta   90.00000000
_cell_angle_gamma   90.00000000
_symmetry_Int_Tables_number   1
_chemical_formula_structural   P4WO12
_chemical_formula_sum   'P16 W4 O48'
_cell_volume   1047.88915847
_cell_formula_units_Z   4
loop_
 _symmetry_equiv_pos_site_id
 _symmetry_equiv_pos_as_xyz
  1  'x, y, z'
loop_
 _atom_site_type_symbol
 _atom_site_label
 _atom_site_symmetry_multiplicity
 _atom_site_fract_x
 _atom_site_fract_y
 _atom_site_fract_z
 _atom_site_occupancy
  P  P0  1  0.13927372  0.17591764  0.50214110  1
  P  P1  1  0.13927372  0.82408236  0.00214110  1
  P  P2  1  0.15375687  0.46871848  0.01241505  1
  P  P3  1  0.15375687  0.53128152  0.51241505  1
  P  P4  1  0.34624313  0.03128152  0.51241505  1
  P  P5  1  0.34624313  0.96871848  0.01241505  1
  P  P6  1  0.36072628  0.32408236  0.00214110  1
  P  P7  1  0.36072628  0.67591764  0.50214110  1
  P  P8  1  0.63927372  0.32408236  0.49785890  1
  P  P9  1  0.63927372  0.67591764  0.99785890  1
  P  P10  1  0.65375687  0.03128152  0.98758495  1
  P  P11  1  0.65375687  0.96871848  0.48758495  1
  P  P12  1  0.84624313  0.46871848  0.48758495  1
  P  P13  1  0.84624313  0.53128152  0.98758495  1
  P  P14  1  0.86072628  0.17591764  0.99785890  1
  P  P15  1  0.86072628  0.82408236  0.49785890  1
  W  W16  1  0.00000000  0.63999844  0.25000000  1
  W  W17  1  0.00000000  0.36000156  0.75000000  1
  W  W18  1  0.50000000  0.13999844  0.25000000  1
  W  W19  1  0.50000000  0.86000156  0.75000000  1
  O  O20  1  0.06789381  0.19165044  0.62793038  1
  O  O21  1  0.06789381  0.80834956  0.12793038  1
  O  O22  1  0.07263904  0.53386400  0.62654404  1
  O  O23  1  0.07263904  0.46613600  0.12654404  1
  O  O24  1  0.10784836  0.09106230  0.37661843  1
  O  O25  1  0.10784836  0.90893770  0.87661843  1
  O  O26  1  0.12467054  0.62406879  0.38193766  1
  O  O27  1  0.12467054  0.37593121  0.88193766  1
  O  O28  1  0.18109144  0.64367376  0.96563829  1
  O  O29  1  0.18109144  0.35632624  0.46563829  1
  O  O30  1  0.24466788  0.10505742  0.57491362  1
  O  O31  1  0.24466788  0.89494258  0.07491362  1
  O  O32  1  0.25533212  0.39494258  0.07491362  1
  O  O33  1  0.25533212  0.60505742  0.57491362  1
  O  O34  1  0.31890856  0.85632624  0.46563829  1
  O  O35  1  0.31890856  0.14367376  0.96563829  1
  O  O36  1  0.37532946  0.87593121  0.88193766  1
  O  O37  1  0.37532946  0.12406879  0.38193766  1
  O  O38  1  0.39215164  0.59106230  0.37661843  1
  O  O39  1  0.39215164  0.40893770  0.87661843  1
  O  O40  1  0.42736096  0.03386400  0.62654404  1
  O  O41  1  0.42736096  0.96613600  0.12654404  1
  O  O42  1  0.43210619  0.69165044  0.62793038  1
  O  O43  1  0.43210619  0.30834956  0.12793038  1
  O  O44  1  0.56789381  0.30834956  0.37206962  1
  O  O45  1  0.56789381  0.69165044  0.87206962  1
  O  O46  1  0.57263904  0.03386400  0.87345596  1
  O  O47  1  0.57263904  0.96613600  0.37345596  1
  O  O48  1  0.60784836  0.40893770  0.62338157  1
  O  O49  1  0.60784836  0.59106230  0.12338157  1
  O  O50  1  0.62467054  0.12406879  0.11806234  1
  O  O51  1  0.62467054  0.87593121  0.61806234  1
  O  O52  1  0.68109144  0.14367376  0.53436171  1
  O  O53  1  0.68109144  0.85632624  0.03436171  1
  O  O54  1  0.74466788  0.39494258  0.42508638  1
  O  O55  1  0.74466788  0.60505742  0.92508638  1
  O  O56  1  0.75533212  0.10505742  0.92508638  1
  O  O57  1  0.75533212  0.89494258  0.42508638  1
  O  O58  1  0.81890856  0.35632624  0.03436171  1
  O  O59  1  0.81890856  0.64367376  0.53436171  1
  O  O60  1  0.87532946  0.37593121  0.61806234  1
  O  O61  1  0.87532946  0.62406879  0.11806234  1
  O  O62  1  0.89215164  0.09106230  0.12338157  1
  O  O63  1  0.89215164  0.90893770  0.62338157  1
  O  O64  1  0.92736096  0.46613600  0.37345596  1
  O  O65  1  0.92736096  0.53386400  0.87345596  1
  O  O66  1  0.93210619  0.19165044  0.87206962  1
  O  O67  1  0.93210619  0.80834956  0.37206962  1
