# generated using pymatgen
data_Mn4SbAs
_symmetry_space_group_name_H-M   'P 1'
_cell_length_a   3.74148882
_cell_length_b   3.74148882
_cell_length_c   6.48657444
_cell_angle_alpha   90.00000000
_cell_angle_beta   90.00000000
_cell_angle_gamma   90.00000000
_symmetry_Int_Tables_number   1
_chemical_formula_structural   Mn4SbAs
_chemical_formula_sum   'Mn4 Sb1 As1'
_cell_volume   90.80385993
_cell_formula_units_Z   1
loop_
 _symmetry_equiv_pos_site_id
 _symmetry_equiv_pos_as_xyz
  1  'x, y, z'
loop_
 _atom_site_type_symbol
 _atom_site_label
 _atom_site_symmetry_multiplicity
 _atom_site_fract_x
 _atom_site_fract_y
 _atom_site_fract_z
 _atom_site_occupancy
  Mn  Mn0  1  0.75000000  0.25000000  0.01439587  1
  Mn  Mn1  1  0.25000000  0.75000000  0.01439587  1
  Mn  Mn2  1  0.75000000  0.75000000  0.64504892  1
  Mn  Mn3  1  0.25000000  0.25000000  0.32926788  1
  Sb  Sb4  1  0.25000000  0.25000000  0.73263000  1
  As  As5  1  0.75000000  0.75000000  0.26426146  1
