# generated using pymatgen
data_KBiO3
_symmetry_space_group_name_H-M   'P 1'
_cell_length_a   8.77023122
_cell_length_b   8.77023122
_cell_length_c   8.94538683
_cell_angle_alpha   109.61138854
_cell_angle_beta   109.82062306
_cell_angle_gamma   108.16831186
_symmetry_Int_Tables_number   1
_chemical_formula_structural   KBiO3
_chemical_formula_sum   'K6 Bi6 O18'
_cell_volume   534.81429380
_cell_formula_units_Z   6
loop_
 _symmetry_equiv_pos_site_id
 _symmetry_equiv_pos_as_xyz
  1  'x, y, z'
loop_
 _atom_site_type_symbol
 _atom_site_label
 _atom_site_symmetry_multiplicity
 _atom_site_fract_x
 _atom_site_fract_y
 _atom_site_fract_z
 _atom_site_occupancy
  K  K0  1  0.50000000  0.00000000  0.00000000  1
  K  K1  1  0.98916679  0.98799182  0.30890748  1
  K  K2  1  0.32091566  0.31974069  0.30890748  1
  K  K3  1  0.00000000  0.50000000  0.00000000  1
  K  K4  1  0.01083321  0.01200818  0.69109252  1
  K  K5  1  0.67908434  0.68025931  0.69109252  1
  Bi  Bi6  1  0.84113869  0.34113869  0.50000000  1
  Bi  Bi7  1  0.65980822  0.49993308  0.15974030  1
  Bi  Bi8  1  0.50191764  0.15898178  0.66089941  1
  Bi  Bi9  1  0.49808236  0.84101822  0.33910059  1
  Bi  Bi10  1  0.15886131  0.65886131  0.50000000  1
  Bi  Bi11  1  0.34019178  0.50006692  0.84025970  1
  O  O12  1  0.71676009  0.04824137  0.33991373  1
  O  O13  1  0.64084734  0.99462943  0.63547677  1
  O  O14  1  0.35915266  0.00537057  0.36452323  1
  O  O15  1  0.36040438  0.36040438  0.00000000  1
  O  O16  1  0.63959562  0.63959562  0.00000000  1
  O  O17  1  0.62201289  0.33807338  0.28921148  1
  O  O18  1  0.95113910  0.66719859  0.28921148  1
  O  O19  1  0.70832764  0.37684636  0.66008627  1
  O  O20  1  0.33512975  0.71411799  0.04924774  1
  O  O21  1  0.66714008  0.71279598  0.37993707  1
  O  O22  1  0.33285992  0.28720402  0.62006293  1
  O  O23  1  0.66487025  0.28588201  0.95075226  1
  O  O24  1  0.29167236  0.62315364  0.33991373  1
  O  O25  1  0.00395147  0.35998438  0.36393585  1
  O  O26  1  0.37798711  0.66192662  0.71078852  1
  O  O27  1  0.04886090  0.33280141  0.71078852  1
  O  O28  1  0.99604853  0.64001562  0.63606415  1
  O  O29  1  0.28323991  0.95175863  0.66008627  1
