# generated using pymatgen
data_Rb3CO3F
_symmetry_space_group_name_H-M   'P 1'
_cell_length_a   7.39180053
_cell_length_b   7.39180052
_cell_length_c   7.39180052
_cell_angle_alpha   65.41878949
_cell_angle_beta   65.41878954
_cell_angle_gamma   65.41878952
_symmetry_Int_Tables_number   1
_chemical_formula_structural   Rb3CO3F
_chemical_formula_sum   'Rb6 C2 O6 F2'
_cell_volume   319.25309312
_cell_formula_units_Z   2
loop_
 _symmetry_equiv_pos_site_id
 _symmetry_equiv_pos_as_xyz
  1  'x, y, z'
loop_
 _atom_site_type_symbol
 _atom_site_label
 _atom_site_symmetry_multiplicity
 _atom_site_fract_x
 _atom_site_fract_y
 _atom_site_fract_z
 _atom_site_occupancy
  C  C0  1  0.75000000  0.75000000  0.75000000  1
  C  C1  1  0.25000000  0.25000000  0.25000000  1
  O  O2  1  0.25000000  0.41401951  0.08598049  1
  O  O3  1  0.41401951  0.08598049  0.25000000  1
  O  O4  1  0.08598049  0.25000000  0.41401951  1
  O  O5  1  0.75000000  0.58598049  0.91401951  1
  O  O6  1  0.91401951  0.75000000  0.58598049  1
  O  O7  1  0.58598049  0.91401951  0.75000000  1
  F  F8  1  0.50000000  0.50000000  0.50000000  1
  F  F9  1  0.00000000  0.00000000  0.00000000  1
  Rb  Rb10  1  0.25000000  0.82922934  0.67077066  1
  Rb  Rb11  1  0.82922934  0.67077066  0.25000000  1
  Rb  Rb12  1  0.67077066  0.25000000  0.82922934  1
  Rb  Rb13  1  0.75000000  0.17077066  0.32922934  1
  Rb  Rb14  1  0.17077066  0.32922934  0.75000000  1
  Rb  Rb15  1  0.32922934  0.75000000  0.17077066  1
