# generated using pymatgen
data_Y2S2O
_symmetry_space_group_name_H-M   'P 1'
_cell_length_a   6.90258594
_cell_length_b   6.92445770
_cell_length_c   8.31888287
_cell_angle_alpha   90.00000000
_cell_angle_beta   99.33676061
_cell_angle_gamma   90.00000000
_symmetry_Int_Tables_number   1
_chemical_formula_structural   Y2S2O
_chemical_formula_sum   'Y8 S8 O4'
_cell_volume   392.34718294
_cell_formula_units_Z   4
loop_
 _symmetry_equiv_pos_site_id
 _symmetry_equiv_pos_as_xyz
  1  'x, y, z'
loop_
 _atom_site_type_symbol
 _atom_site_label
 _atom_site_symmetry_multiplicity
 _atom_site_fract_x
 _atom_site_fract_y
 _atom_site_fract_z
 _atom_site_occupancy
  O  O0  1  0.35044901  0.08739321  0.38282365  1
  O  O1  1  0.85044901  0.41260679  0.38282365  1
  O  O2  1  0.64955099  0.91260679  0.61717635  1
  O  O3  1  0.14955099  0.58739321  0.61717635  1
  S  S4  1  0.96967566  0.72338929  0.92495419  1
  S  S5  1  0.42275602  0.63345847  0.31957982  1
  S  S6  1  0.57724398  0.36654153  0.68042018  1
  S  S7  1  0.92275602  0.86654153  0.31957982  1
  S  S8  1  0.53032434  0.22338929  0.07504581  1
  S  S9  1  0.03032434  0.27661071  0.07504581  1
  S  S10  1  0.46967566  0.77661071  0.92495419  1
  S  S11  1  0.07724398  0.13345847  0.68042018  1
  Y  Y12  1  0.75039677  0.05450661  0.86193560  1
  Y  Y13  1  0.74960323  0.55450661  0.13806440  1
  Y  Y14  1  0.24960323  0.94549339  0.13806440  1
  Y  Y15  1  0.25039677  0.44549339  0.86193560  1
  Y  Y16  1  0.67855346  0.14403678  0.42392592  1
  Y  Y17  1  0.82144654  0.64403678  0.57607408  1
  Y  Y18  1  0.32144654  0.85596322  0.57607408  1
  Y  Y19  1  0.17855346  0.35596322  0.42392592  1
