# generated using pymatgen
data_Mn3Ga
_symmetry_space_group_name_H-M   'P 1'
_cell_length_a   2.59924251
_cell_length_b   2.60195627
_cell_length_c   8.15771004
_cell_angle_alpha   90.00000000
_cell_angle_beta   90.00000000
_cell_angle_gamma   59.96547014
_symmetry_Int_Tables_number   1
_chemical_formula_structural   Mn3Ga
_chemical_formula_sum   'Mn3 Ga1'
_cell_volume   47.76331645
_cell_formula_units_Z   1
loop_
 _symmetry_equiv_pos_site_id
 _symmetry_equiv_pos_as_xyz
  1  'x, y, z'
loop_
 _atom_site_type_symbol
 _atom_site_label
 _atom_site_symmetry_multiplicity
 _atom_site_fract_x
 _atom_site_fract_y
 _atom_site_fract_z
 _atom_site_occupancy
  Mn  Mn0  1  0.33369000  0.33315500  0.87500000  1
  Mn  Mn1  1  0.66650482  0.66674759  0.11422127  1
  Mn  Mn2  1  0.66650482  0.66674759  0.63577873  1
  Ga  Ga3  1  0.33330036  0.33334982  0.37500000  1
