# generated using pymatgen
data_CdSeO3
_symmetry_space_group_name_H-M   'P 1'
_cell_length_a   5.37756873
_cell_length_b   6.42439909
_cell_length_c   8.31644586
_cell_angle_alpha   90.00000000
_cell_angle_beta   90.00000000
_cell_angle_gamma   90.00000000
_symmetry_Int_Tables_number   1
_chemical_formula_structural   CdSeO3
_chemical_formula_sum   'Cd4 Se4 O12'
_cell_volume   287.31364132
_cell_formula_units_Z   4
loop_
 _symmetry_equiv_pos_site_id
 _symmetry_equiv_pos_as_xyz
  1  'x, y, z'
loop_
 _atom_site_type_symbol
 _atom_site_label
 _atom_site_symmetry_multiplicity
 _atom_site_fract_x
 _atom_site_fract_y
 _atom_site_fract_z
 _atom_site_occupancy
  O  O0  1  0.63205686  0.17626431  0.41201671  1
  O  O1  1  0.13205686  0.32373569  0.58798329  1
  O  O2  1  0.86794314  0.67626431  0.08798329  1
  O  O3  1  0.36794314  0.82373569  0.91201671  1
  O  O4  1  0.36794314  0.82373569  0.58798329  1
  O  O5  1  0.86794314  0.67626431  0.41201671  1
  O  O6  1  0.13205686  0.32373569  0.91201671  1
  O  O7  1  0.63205686  0.17626431  0.08798329  1
  O  O8  1  0.20173251  0.09233710  0.25000000  1
  O  O9  1  0.70173251  0.40766290  0.75000000  1
  O  O10  1  0.29826749  0.59233710  0.25000000  1
  O  O11  1  0.79826749  0.90766290  0.75000000  1
  Se  Se12  1  0.48355316  0.96816187  0.75000000  1
  Se  Se13  1  0.98355316  0.53183813  0.25000000  1
  Se  Se14  1  0.01644684  0.46816187  0.75000000  1
  Se  Se15  1  0.51644684  0.03183813  0.25000000  1
  Cd  Cd16  1  0.00000000  0.00000000  0.50000000  1
  Cd  Cd17  1  0.50000000  0.50000000  0.50000000  1
  Cd  Cd18  1  0.50000000  0.50000000  0.00000000  1
  Cd  Cd19  1  0.00000000  0.00000000  0.00000000  1
