# generated using pymatgen
data_La14Mn13O42
_symmetry_space_group_name_H-M   'P 1'
_cell_length_a   9.68085974
_cell_length_b   9.68085970
_cell_length_c   9.68085992
_cell_angle_alpha   100.23967028
_cell_angle_beta   79.76033217
_cell_angle_gamma   79.76032555
_symmetry_Int_Tables_number   1
_chemical_formula_structural   La14Mn13O42
_chemical_formula_sum   'La14 Mn13 O42'
_cell_volume   857.83041131
_cell_formula_units_Z   1
loop_
 _symmetry_equiv_pos_site_id
 _symmetry_equiv_pos_as_xyz
  1  'x, y, z'
loop_
 _atom_site_type_symbol
 _atom_site_label
 _atom_site_symmetry_multiplicity
 _atom_site_fract_x
 _atom_site_fract_y
 _atom_site_fract_z
 _atom_site_occupancy
  La  La0  1  0.03459131  0.10773212  0.67786586  1
  La  La1  1  0.10826569  0.32083888  0.03642014  1
  La  La2  1  0.17798188  0.53500786  0.39398069  1
  La  La3  1  0.39215086  0.17744831  0.46369588  1
  La  La4  1  0.46597745  0.40747370  0.82460666  1
  La  La5  1  0.34012209  0.94559291  0.08844991  1
  La  La6  1  0.26461670  0.74682234  0.75169145  1
  La  La7  1  0.75070614  0.25112269  0.25058912  1
  La  La8  1  0.67687955  0.02109830  0.88967934  1
  La  La9  1  0.53889266  0.60883445  0.16395530  1
  La  La10  1  0.60396434  0.81973655  0.55033070  1
  La  La11  1  0.80273491  0.48297909  0.62583609  1
  La  La12  1  0.87824030  0.68174966  0.96259355  1
  La  La13  1  0.96487512  0.89356314  0.32030531  1
  Mn  Mn14  1  0.00037678  0.00082636  0.99999776  1
  Mn  Mn15  1  0.07142900  0.21428600  0.35714300  1
  Mn  Mn16  1  0.21076518  0.64249710  0.07206452  1
  Mn  Mn17  1  0.42857324  0.28533722  0.14368336  1
  Mn  Mn18  1  0.35650748  0.07494882  0.78535510  1
  Mn  Mn19  1  0.14248022  0.42774564  0.71428824  1
  Mn  Mn20  1  0.28488864  0.85714076  0.42819422  1
  Mn  Mn21  1  0.49964010  0.49936448  0.49648018  1
  Mn  Mn22  1  0.71428376  0.14323378  0.57060264  1
  Mn  Mn23  1  0.64321690  0.92920752  0.21780582  1
  Mn  Mn24  1  0.85796936  0.57143124  0.28609078  1
  Mn  Mn25  1  0.78634952  0.35362318  0.92893090  1
  Mn  Mn26  1  0.93209182  0.78607390  0.64222148  1
  O  O27  1  0.04235137  0.13752062  0.16033596  1
  O  O28  1  0.14819438  0.01747896  0.38621963  1
  O  O29  1  0.10050563  0.29105138  0.55395004  1
  O  O30  1  0.01625016  0.61889423  0.14533698  1
  O  O31  1  0.15860729  0.04990778  0.86542011  1
  O  O32  1  0.26823504  0.24336263  0.28037762  1
  O  O33  1  0.29010573  0.44594072  0.10122358  1
  O  O34  1  0.00640501  0.58864998  0.66963523  1
  O  O35  1  0.56315189  0.12710671  0.19276478  1
  O  O36  1  0.28323402  0.26946384  0.76175223  1
  O  O37  1  0.13645199  0.83992202  0.04465077  1
  O  O38  1  0.58762969  0.33429780  0.00965538  1
  O  O39  1  0.30308372  0.47020542  0.57581973  1
  O  O40  1  0.38392023  0.14926201  0.98277902  1
  O  O41  1  0.23580622  0.72256311  0.26996471  1
  O  O42  1  0.66681977  0.00247998  0.41232084  1
  O  O43  1  0.47603723  0.42609202  0.30196516  1
  O  O44  1  0.19144080  0.56177362  0.87334469  1
  O  O45  1  0.55522731  0.09427420  0.70463062  1
  O  O46  1  0.12660684  0.80967677  0.56894902  1
  O  O47  1  0.57970511  0.30146429  0.52152022  1
  O  O48  1  0.41891562  0.69808431  0.47715480  1
  O  O49  1  0.44579298  0.90179377  0.29211901  1
  O  O50  1  0.52172431  0.57632918  0.68326869  1
  O  O51  1  0.87462196  0.18520837  0.43390838  1
  O  O52  1  0.81550958  0.43296273  0.12548728  1
  O  O53  1  0.32734842  0.99560827  0.58879772  1
  O  O54  1  0.75893677  0.27930899  0.73150698  1
  O  O55  1  0.62113269  0.85224182  0.03101731  1
  O  O56  1  0.69706502  0.52677823  0.42216599  1
  O  O57  1  0.39755369  0.66458131  0.99509882  1
  O  O58  1  0.85962298  0.15910816  0.95253377  1
  O  O59  1  0.72394138  0.73048769  0.23713120  1
  O  O60  1  0.43347218  0.88816031  0.80743831  1
  O  O61  1  0.99466262  0.41109204  0.32806637  1
  O  O62  1  0.70938482  0.54041069  0.90684669  1
  O  O63  1  0.74530331  0.76398969  0.71918618  1
  O  O64  1  0.83977328  0.95836658  0.13846527  1
  O  O65  1  0.90705078  0.70600889  0.44432129  1
  O  O66  1  0.98424971  0.37866322  0.84886589  1
  O  O67  1  0.85275127  0.98263028  0.61306242  1
  O  O68  1  0.95141620  0.86679838  0.84094131  1
