# generated using pymatgen
data_Ce3MnAlS7
_symmetry_space_group_name_H-M   'P 1'
_cell_length_a   10.06508752
_cell_length_b   10.05940572
_cell_length_c   5.99889888
_cell_angle_alpha   90.00000000
_cell_angle_beta   90.00000000
_cell_angle_gamma   120.09361432
_symmetry_Int_Tables_number   1
_chemical_formula_structural   Ce3MnAlS7
_chemical_formula_sum   'Ce6 Mn2 Al2 S14'
_cell_volume   525.51074609
_cell_formula_units_Z   2
loop_
 _symmetry_equiv_pos_site_id
 _symmetry_equiv_pos_as_xyz
  1  'x, y, z'
loop_
 _atom_site_type_symbol
 _atom_site_label
 _atom_site_symmetry_multiplicity
 _atom_site_fract_x
 _atom_site_fract_y
 _atom_site_fract_z
 _atom_site_occupancy
  Ce  Ce0  1  0.14089785  0.37237541  0.24394539  1
  Ce  Ce1  1  0.85910215  0.62762459  0.74394639  1
  Ce  Ce2  1  0.62759121  0.76805204  0.24310440  1
  Ce  Ce3  1  0.23239081  0.85999020  0.24381571  1
  Ce  Ce4  1  0.76760819  0.14000980  0.74381471  1
  Ce  Ce5  1  0.37240879  0.23194796  0.74310440  1
  Mn  Mn6  1  0.00008040  0.00009912  0.02157195  1
  Mn  Mn7  1  -0.00008140  0.99990088  0.52157295  1
  Al  Al8  1  0.33365173  0.66684362  0.66264534  1
  Al  Al9  1  0.66634827  0.33315638  0.16264634  1
  S  S10  1  0.33355239  0.66671087  0.03491398  1
  S  S11  1  0.66644861  0.33328913  0.53491498  1
  S  S12  1  0.09241211  0.23843955  0.78875619  1
  S  S13  1  0.90758689  0.76156145  0.28875719  1
  S  S14  1  0.76148575  0.85366175  0.78844726  1
  S  S15  1  0.14613579  0.90811873  0.78794898  1
  S  S16  1  0.85386421  0.09188027  0.28794798  1
  S  S17  1  0.23851425  0.14633725  0.28844626  1
  S  S18  1  0.42095348  0.51970111  0.51649804  1
  S  S19  1  0.57904652  0.48029889  0.01649804  1
  S  S20  1  0.48110416  0.90169877  0.51647149  1
  S  S21  1  0.09840369  0.57928669  0.51587828  1
  S  S22  1  0.90159631  0.42071331  0.01587728  1
  S  S23  1  0.51889584  0.09830123  0.01647049  1
