# generated using pymatgen
data_KBeH3
_symmetry_space_group_name_H-M   'P 1'
_cell_length_a   6.86125831
_cell_length_b   5.49743762
_cell_length_c   9.04422070
_cell_angle_alpha   90.00005918
_cell_angle_beta   105.89146896
_cell_angle_gamma   89.99994757
_symmetry_Int_Tables_number   1
_chemical_formula_structural   KBeH3
_chemical_formula_sum   'K4 Be4 H12'
_cell_volume   328.10429622
_cell_formula_units_Z   4
loop_
 _symmetry_equiv_pos_site_id
 _symmetry_equiv_pos_as_xyz
  1  'x, y, z'
loop_
 _atom_site_type_symbol
 _atom_site_label
 _atom_site_symmetry_multiplicity
 _atom_site_fract_x
 _atom_site_fract_y
 _atom_site_fract_z
 _atom_site_occupancy
  K  K0  1  0.23092461  0.75140789  0.19821442  1
  K  K1  1  0.76907664  0.25140980  0.30178410  1
  K  K2  1  0.23092169  0.74858892  0.69821645  1
  K  K3  1  0.76907844  0.24858922  0.80178486  1
  Be  Be4  1  0.75411044  0.74405860  0.00297016  1
  Be  Be5  1  0.24588894  0.24405489  0.49702928  1
  Be  Be6  1  0.75411283  0.75594194  0.50297095  1
  Be  Be7  1  0.24588702  0.25594024  0.99702809  1
  H  H8  1  0.81722252  0.97283808  0.06647137  1
  H  H9  1  0.83885688  0.53292099  0.08052525  1
  H  H10  1  0.37566748  0.27405851  0.14614103  1
  H  H11  1  0.62433110  0.77405681  0.35385839  1
  H  H12  1  0.16114377  0.03292261  0.41947485  1
  H  H13  1  0.18277680  0.47283955  0.43352816  1
  H  H14  1  0.81722277  0.52716163  0.56647138  1
  H  H15  1  0.83885736  0.96707905  0.58052527  1
  H  H16  1  0.37566719  0.22594350  0.64614096  1
  H  H17  1  0.62433328  0.72594380  0.85385918  1
  H  H18  1  0.16114261  0.46707953  0.91947386  1
  H  H19  1  0.18277664  0.02716444  0.93352898  1
