# generated using pymatgen
data_Zn3Cu
_symmetry_space_group_name_H-M   'P 1'
_cell_length_a   5.42246829
_cell_length_b   5.42246840
_cell_length_c   4.31885877
_cell_angle_alpha   90.00000000
_cell_angle_beta   90.00000000
_cell_angle_gamma   119.99999927
_symmetry_Int_Tables_number   1
_chemical_formula_structural   Zn3Cu
_chemical_formula_sum   'Zn6 Cu2'
_cell_volume   109.97492847
_cell_formula_units_Z   2
loop_
 _symmetry_equiv_pos_site_id
 _symmetry_equiv_pos_as_xyz
  1  'x, y, z'
loop_
 _atom_site_type_symbol
 _atom_site_label
 _atom_site_symmetry_multiplicity
 _atom_site_fract_x
 _atom_site_fract_y
 _atom_site_fract_z
 _atom_site_occupancy
  Zn  Zn0  1  0.16918913  0.33837826  0.25000000  1
  Zn  Zn1  1  0.66162074  0.83080887  0.25000000  1
  Zn  Zn2  1  0.16918813  0.83080887  0.25000000  1
  Zn  Zn3  1  0.83081087  0.66162074  0.74999900  1
  Zn  Zn4  1  0.33837926  0.16919013  0.74999900  1
  Zn  Zn5  1  0.83081087  0.16919013  0.74999900  1
  Cu  Cu6  1  0.33333300  0.66666600  0.74999900  1
  Cu  Cu7  1  0.66666700  0.33333300  0.25000000  1
