# generated using pymatgen
data_La3Sn4
_symmetry_space_group_name_H-M   'P 1'
_cell_length_a   4.56876542
_cell_length_b   6.42683459
_cell_length_c   16.03025856
_cell_angle_alpha   90.00000000
_cell_angle_beta   90.00000000
_cell_angle_gamma   69.17930875
_symmetry_Int_Tables_number   1
_chemical_formula_structural   La3Sn4
_chemical_formula_sum   'La6 Sn8'
_cell_volume   439.95426567
_cell_formula_units_Z   2
loop_
 _symmetry_equiv_pos_site_id
 _symmetry_equiv_pos_as_xyz
  1  'x, y, z'
loop_
 _atom_site_type_symbol
 _atom_site_label
 _atom_site_symmetry_multiplicity
 _atom_site_fract_x
 _atom_site_fract_y
 _atom_site_fract_z
 _atom_site_occupancy
  La  La0  1  0.67180068  0.65639964  0.09755671  1
  La  La1  1  0.95728560  0.08543080  0.25000000  1
  La  La2  1  0.67180068  0.65639964  0.40244229  1
  La  La3  1  0.32820032  0.34360036  0.59755771  1
  La  La4  1  0.04271540  0.91456920  0.75000000  1
  La  La5  1  0.32820032  0.34360036  0.90244329  1
  Sn  Sn6  1  0.00000000  0.00000000  0.00000000  1
  Sn  Sn7  1  0.38367686  0.23264629  0.10702422  1
  Sn  Sn8  1  0.22721098  0.54557904  0.25000000  1
  Sn  Sn9  1  0.38367686  0.23264629  0.39297578  1
  Sn  Sn10  1  0.00000000  0.00000000  0.50000000  1
  Sn  Sn11  1  0.61632314  0.76735371  0.60702422  1
  Sn  Sn12  1  0.77279002  0.45442096  0.75000000  1
  Sn  Sn13  1  0.61632314  0.76735371  0.89297578  1
