# generated using pymatgen
data_MgV3O8
_symmetry_space_group_name_H-M   'P 1'
_cell_length_a   6.88102541
_cell_length_b   6.88102541
_cell_length_c   7.78722301
_cell_angle_alpha   67.33220778
_cell_angle_beta   67.33220778
_cell_angle_gamma   79.46013860
_symmetry_Int_Tables_number   1
_chemical_formula_structural   MgV3O8
_chemical_formula_sum   'Mg2 V6 O16'
_cell_volume   313.69456627
_cell_formula_units_Z   2
loop_
 _symmetry_equiv_pos_site_id
 _symmetry_equiv_pos_as_xyz
  1  'x, y, z'
loop_
 _atom_site_type_symbol
 _atom_site_label
 _atom_site_symmetry_multiplicity
 _atom_site_fract_x
 _atom_site_fract_y
 _atom_site_fract_z
 _atom_site_occupancy
  Mg  Mg0  1  0.06744365  0.70046070  0.29671404  1
  Mg  Mg1  1  0.29953930  0.93255635  0.70328596  1
  V  V2  1  0.62263309  0.62370619  0.22254205  1
  V  V3  1  0.37629381  0.37736691  0.77745795  1
  V  V4  1  0.17870258  0.18101305  0.29990624  1
  V  V5  1  0.81898695  0.82129742  0.70009376  1
  V  V6  1  0.71542670  0.07645212  0.27437310  1
  V  V7  1  0.92354788  0.28457330  0.72562690  1
  O  O8  1  0.19244503  0.80755497  0.00000000  1
  O  O9  1  0.80898656  0.19101344  0.00000000  1
  O  O10  1  0.00280398  0.00918333  0.31505426  1
  O  O11  1  0.99081667  0.99719602  0.68494574  1
  O  O12  1  0.75904458  0.77321196  0.28031676  1
  O  O13  1  0.22678804  0.24095542  0.71968324  1
  O  O14  1  0.05420050  0.37161935  0.40563348  1
  O  O15  1  0.39315806  0.06089753  0.37421501  1
  O  O16  1  0.93910247  0.60684194  0.62578499  1
  O  O17  1  0.62838065  0.94579950  0.59436652  1
  O  O18  1  0.68611417  0.35863635  0.29682857  1
  O  O19  1  0.36458491  0.67166247  0.30543699  1
  O  O20  1  0.32833753  0.63541509  0.69456301  1
  O  O21  1  0.64136365  0.31388583  0.70317143  1
  O  O22  1  0.29284094  0.31154170  0.04630207  1
  O  O23  1  0.68845830  0.70715906  0.95369793  1
