# generated using pymatgen
data_MoO3
_symmetry_space_group_name_H-M   'P 1'
_cell_length_a   5.40001815
_cell_length_b   5.44034009
_cell_length_c   7.79665791
_cell_angle_alpha   90.47567236
_cell_angle_beta   89.10702631
_cell_angle_gamma   92.13463219
_symmetry_Int_Tables_number   1
_chemical_formula_structural   MoO3
_chemical_formula_sum   'Mo4 O12'
_cell_volume   228.85613250
_cell_formula_units_Z   4
loop_
 _symmetry_equiv_pos_site_id
 _symmetry_equiv_pos_as_xyz
  1  'x, y, z'
loop_
 _atom_site_type_symbol
 _atom_site_label
 _atom_site_symmetry_multiplicity
 _atom_site_fract_x
 _atom_site_fract_y
 _atom_site_fract_z
 _atom_site_occupancy
  Mo  Mo0  1  0.52272836  0.98955818  0.02471046  1
  Mo  Mo1  1  0.03218035  0.48130954  0.01495661  1
  Mo  Mo2  1  0.02132471  0.48677935  0.52504888  1
  Mo  Mo3  1  0.53824419  0.99663278  0.51469175  1
  O  O4  1  0.71195767  0.28684326  0.46081126  1
  O  O5  1  0.21127476  0.22690967  0.52660065  1
  O  O6  1  0.76743529  0.78156357  0.02546230  1
  O  O7  1  0.26468731  0.73018787  0.96212763  1
  O  O8  1  0.26384908  0.73144389  0.51775097  1
  O  O9  1  0.77149093  0.78270870  0.46757871  1
  O  O10  1  0.21362515  0.22246925  0.96632443  1
  O  O11  1  0.70988966  0.28201436  0.01856159  1
  O  O12  1  0.05122327  0.49332876  0.24167157  1
  O  O13  1  0.55227876  0.00902994  0.74161190  1
  O  O14  1  0.93344776  0.50683953  0.74607077  1
  O  O15  1  0.43435874  0.99237736  0.24602252  1
