# generated using pymatgen
data_InGeCl3
_symmetry_space_group_name_H-M   'P 1'
_cell_length_a   5.54604933
_cell_length_b   5.55333364
_cell_length_c   5.64770081
_cell_angle_alpha   90.31876808
_cell_angle_beta   90.11620240
_cell_angle_gamma   85.23207510
_symmetry_Int_Tables_number   1
_chemical_formula_structural   InGeCl3
_chemical_formula_sum   'In1 Ge1 Cl3'
_cell_volume   173.33906787
_cell_formula_units_Z   1
loop_
 _symmetry_equiv_pos_site_id
 _symmetry_equiv_pos_as_xyz
  1  'x, y, z'
loop_
 _atom_site_type_symbol
 _atom_site_label
 _atom_site_symmetry_multiplicity
 _atom_site_fract_x
 _atom_site_fract_y
 _atom_site_fract_z
 _atom_site_occupancy
  In  In0  1  0.91153273  0.90497509  0.08197756  1
  Ge  Ge1  1  0.48585340  0.48394322  0.44897758  1
  Cl  Cl2  1  0.04875917  0.52029851  0.44199553  1
  Cl  Cl3  1  0.53270580  0.53222606  0.02823278  1
  Cl  Cl4  1  0.52115090  0.04855911  0.43881955  1
