# generated using pymatgen
data_DyHoIr2
_symmetry_space_group_name_H-M   'P 1'
_cell_length_a   4.84070544
_cell_length_b   4.84070760
_cell_length_c   4.84072291
_cell_angle_alpha   59.99988524
_cell_angle_beta   60.00015318
_cell_angle_gamma   60.00017903
_symmetry_Int_Tables_number   1
_chemical_formula_structural   DyHoIr2
_chemical_formula_sum   'Dy1 Ho1 Ir2'
_cell_volume   80.20721677
_cell_formula_units_Z   1
loop_
 _symmetry_equiv_pos_site_id
 _symmetry_equiv_pos_as_xyz
  1  'x, y, z'
loop_
 _atom_site_type_symbol
 _atom_site_label
 _atom_site_symmetry_multiplicity
 _atom_site_fract_x
 _atom_site_fract_y
 _atom_site_fract_z
 _atom_site_occupancy
  Dy  Dy0  1  0.24999927  0.24999984  0.24999818  1
  Ho  Ho1  1  0.74999875  0.74999976  0.75000108  1
  Ir  Ir2  1  0.99999934  0.99999820  0.00000213  1
  Ir  Ir3  1  0.50000064  0.50000020  0.49999661  1
