# generated using pymatgen
data_BaWN3
_symmetry_space_group_name_H-M   'P 1'
_cell_length_a   3.93444084
_cell_length_b   6.57394299
_cell_length_c   7.22983999
_cell_angle_alpha   104.57817261
_cell_angle_beta   105.78911042
_cell_angle_gamma   90.00000111
_symmetry_Int_Tables_number   1
_chemical_formula_structural   BaWN3
_chemical_formula_sum   'Ba2 W2 N6'
_cell_volume   173.67800838
_cell_formula_units_Z   2
loop_
 _symmetry_equiv_pos_site_id
 _symmetry_equiv_pos_as_xyz
  1  'x, y, z'
loop_
 _atom_site_type_symbol
 _atom_site_label
 _atom_site_symmetry_multiplicity
 _atom_site_fract_x
 _atom_site_fract_y
 _atom_site_fract_z
 _atom_site_occupancy
  Ba  Ba0  1  0.39411000  0.68557000  0.78822000  1
  Ba  Ba1  1  0.60589000  0.31443000  0.21178000  1
  W  W2  1  0.16047000  0.87936000  0.32094000  1
  W  W3  1  0.83953000  0.12064000  0.67906000  1
  N  N4  1  0.85417000  0.40195000  0.70834000  1
  N  N5  1  0.14583000  0.59805000  0.29166000  1
  N  N6  1  0.96653000  0.05524000  0.93306000  1
  N  N7  1  0.69057000  0.97698000  0.38114000  1
  N  N8  1  0.30943000  0.02302000  0.61886000  1
  N  N9  1  0.03347000  0.94476000  0.06694000  1
