# generated using pymatgen
data_Mg7(SiO4)4
_symmetry_space_group_name_H-M   'P 1'
_cell_length_a   5.68407726
_cell_length_b   7.70732069
_cell_length_c   7.70732069
_cell_angle_alpha   80.13975903
_cell_angle_beta   110.13193434
_cell_angle_gamma   69.86806566
_symmetry_Int_Tables_number   1
_chemical_formula_structural   Mg7(SiO4)4
_chemical_formula_sum   'Mg7 Si4 O16'
_cell_volume   281.11854405
_cell_formula_units_Z   1
loop_
 _symmetry_equiv_pos_site_id
 _symmetry_equiv_pos_as_xyz
  1  'x, y, z'
loop_
 _atom_site_type_symbol
 _atom_site_label
 _atom_site_symmetry_multiplicity
 _atom_site_fract_x
 _atom_site_fract_y
 _atom_site_fract_z
 _atom_site_occupancy
  Mg  Mg0  1  0.00245034  0.48016810  0.51251625  1
  Mg  Mg1  1  0.99754966  0.01251625  0.98016810  1
  Mg  Mg2  1  0.96286032  0.28122331  0.22323789  1
  Mg  Mg3  1  0.03713968  0.72323789  0.78122331  1
  Mg  Mg4  1  0.50000000  0.86027953  0.36027953  1
  Mg  Mg5  1  0.50000000  0.12287585  0.62287585  1
  Mg  Mg6  1  0.00000000  0.87455718  0.37455718  1
  Si  Si7  1  0.61929714  0.76321406  0.99690291  1
  Si  Si8  1  0.39526488  0.23769782  0.01397446  1
  Si  Si9  1  0.38070286  0.49690291  0.26321406  1
  Si  Si10  1  0.60473512  0.51397446  0.73769782  1
  O  O11  1  0.27938384  0.26056217  0.78041083  1
  O  O12  1  0.75032160  0.74319133  0.23223861  1
  O  O13  1  0.72061616  0.28041083  0.76056217  1
  O  O14  1  0.24967840  0.73223861  0.24319133  1
  O  O15  1  0.23339150  0.02307056  0.45887265  1
  O  O16  1  0.76660850  0.95887265  0.52307056  1
  O  O17  1  0.71664910  0.53723853  0.96492925  1
  O  O18  1  0.28335090  0.46492925  0.03723853  1
  O  O19  1  0.71899310  0.39642986  0.35596510  1
  O  O20  1  0.74839085  0.61816063  0.62692949  1
  O  O21  1  0.74837524  0.87556853  0.87960513  1
  O  O22  1  0.73822909  0.12711270  0.12363726  1
  O  O23  1  0.26177091  0.62363726  0.62711270  1
  O  O24  1  0.25162476  0.37960513  0.37556853  1
  O  O25  1  0.25160915  0.12692949  0.11816063  1
  O  O26  1  0.28100690  0.85596510  0.89642986  1
