# generated using pymatgen
data_CsNaF3
_symmetry_space_group_name_H-M   'P 1'
_cell_length_a   4.56773697
_cell_length_b   4.61800699
_cell_length_c   4.56877688
_cell_angle_alpha   87.59767918
_cell_angle_beta   84.92640082
_cell_angle_gamma   87.95767135
_symmetry_Int_Tables_number   1
_chemical_formula_structural   CsNaF3
_chemical_formula_sum   'Cs1 Na1 F3'
_cell_volume   95.86171031
_cell_formula_units_Z   1
loop_
 _symmetry_equiv_pos_site_id
 _symmetry_equiv_pos_as_xyz
  1  'x, y, z'
loop_
 _atom_site_type_symbol
 _atom_site_label
 _atom_site_symmetry_multiplicity
 _atom_site_fract_x
 _atom_site_fract_y
 _atom_site_fract_z
 _atom_site_occupancy
  Cs  Cs0  1  0.99054239  0.99767262  0.99636343  1
  Na  Na1  1  0.48397253  0.49891431  0.49471983  1
  F  F2  1  0.48721215  0.99930256  0.49344550  1
  F  F3  1  0.98066360  0.50611585  0.51217547  1
  F  F4  1  0.49760733  0.49799466  0.99329777  1
