# generated using pymatgen
data_InAs
_symmetry_space_group_name_H-M   'P 1'
_cell_length_a   4.36919556
_cell_length_b   4.36893019
_cell_length_c   7.16380079
_cell_angle_alpha   90.00000000
_cell_angle_beta   90.00000000
_cell_angle_gamma   120.00200931
_symmetry_Int_Tables_number   1
_chemical_formula_structural   InAs
_chemical_formula_sum   'In2 As2'
_cell_volume   118.42460023
_cell_formula_units_Z   2
loop_
 _symmetry_equiv_pos_site_id
 _symmetry_equiv_pos_as_xyz
  1  'x, y, z'
loop_
 _atom_site_type_symbol
 _atom_site_label
 _atom_site_symmetry_multiplicity
 _atom_site_fract_x
 _atom_site_fract_y
 _atom_site_fract_z
 _atom_site_occupancy
  In  In0  1  0.66669743  0.33339485  0.50011388  1
  In  In1  1  0.33330257  0.66660515  0.00011388  1
  As  As2  1  0.66667168  0.33334336  0.87538612  1
  As  As3  1  0.33332832  0.66665664  0.37538612  1
