# generated using pymatgen
data_Cd4SF6
_symmetry_space_group_name_H-M   'P 1'
_cell_length_a   8.00526860
_cell_length_b   8.00516226
_cell_length_c   5.61136982
_cell_angle_alpha   90.00163268
_cell_angle_beta   90.00097351
_cell_angle_gamma   90.00078157
_symmetry_Int_Tables_number   1
_chemical_formula_structural   Cd4SF6
_chemical_formula_sum   'Cd8 S2 F12'
_cell_volume   359.59607229
_cell_formula_units_Z   2
loop_
 _symmetry_equiv_pos_site_id
 _symmetry_equiv_pos_as_xyz
  1  'x, y, z'
loop_
 _atom_site_type_symbol
 _atom_site_label
 _atom_site_symmetry_multiplicity
 _atom_site_fract_x
 _atom_site_fract_y
 _atom_site_fract_z
 _atom_site_occupancy
  Cd  Cd0  1  0.51371687  0.74999245  0.48324015  1
  Cd  Cd1  1  0.98631740  0.74996989  0.48319816  1
  Cd  Cd2  1  0.74997411  0.51370762  0.98324639  1
  Cd  Cd3  1  0.74998412  0.98630007  0.98321206  1
  Cd  Cd4  1  0.48629647  0.25003376  0.51679490  1
  Cd  Cd5  1  0.01373770  0.25002970  0.51680042  1
  Cd  Cd6  1  0.25004012  0.48628403  0.01678389  1
  Cd  Cd7  1  0.25001292  0.01373395  0.01679214  1
  S  S8  1  0.75001481  0.25002397  0.74998312  1
  S  S9  1  0.25003921  0.75000076  0.24995735  1
  F  F10  1  0.03640491  0.53603089  0.74978957  1
  F  F11  1  0.46376626  0.53614806  0.74990905  1
  F  F12  1  0.03617486  0.96376179  0.75004679  1
  F  F13  1  0.46393462  0.96366845  0.75019969  1
  F  F14  1  0.53605363  0.03636429  0.24980808  1
  F  F15  1  0.96379549  0.03620269  0.25002816  1
  F  F16  1  0.53614998  0.46376334  0.24992762  1
  F  F17  1  0.96359558  0.46399111  0.25028192  1
  F  F18  1  0.74997697  0.75002636  0.22177488  1
  F  F19  1  0.75002446  0.74997376  0.72177388  1
  F  F20  1  0.25002172  0.24996833  0.77822653  1
  F  F21  1  0.24996780  0.25002473  0.27822723  1
