# generated using pymatgen
data_Ba2NdNb(CuO4)2
_symmetry_space_group_name_H-M   'P 1'
_cell_length_a   4.00206621
_cell_length_b   4.00206621
_cell_length_c   12.19306317
_cell_angle_alpha   90.00000000
_cell_angle_beta   90.00000000
_cell_angle_gamma   90.00000000
_symmetry_Int_Tables_number   1
_chemical_formula_structural   Ba2NdNb(CuO4)2
_chemical_formula_sum   'Ba2 Nd1 Nb1 Cu2 O8'
_cell_volume   195.29061021
_cell_formula_units_Z   1
loop_
 _symmetry_equiv_pos_site_id
 _symmetry_equiv_pos_as_xyz
  1  'x, y, z'
loop_
 _atom_site_type_symbol
 _atom_site_label
 _atom_site_symmetry_multiplicity
 _atom_site_fract_x
 _atom_site_fract_y
 _atom_site_fract_z
 _atom_site_occupancy
  O  O0  1  0.50000000  0.00000000  0.62460135  1
  O  O1  1  0.00000000  0.50000000  0.62460135  1
  O  O2  1  0.50000000  0.00000000  0.37539865  1
  O  O3  1  0.00000000  0.50000000  0.37539865  1
  O  O4  1  0.00000000  0.50000000  0.00000000  1
  O  O5  1  0.50000000  0.00000000  0.00000000  1
  O  O6  1  0.00000000  0.00000000  0.16394768  1
  O  O7  1  0.00000000  0.00000000  0.83605232  1
  Cu  Cu8  1  0.00000000  0.00000000  0.36092711  1
  Cu  Cu9  1  0.00000000  0.00000000  0.63907289  1
  Nb  Nb10  1  0.00000000  0.00000000  0.00000000  1
  Ba  Ba11  1  0.50000000  0.50000000  0.80412716  1
  Ba  Ba12  1  0.50000000  0.50000000  0.19587284  1
  Nd  Nd13  1  0.50000000  0.50000000  0.50000000  1
