# generated using pymatgen
data_KMn4O8
_symmetry_space_group_name_H-M   'P 1'
_cell_length_a   5.94273868
_cell_length_b   5.83224663
_cell_length_c   7.39018760
_cell_angle_alpha   90.24665354
_cell_angle_beta   113.18435328
_cell_angle_gamma   119.32144367
_symmetry_Int_Tables_number   1
_chemical_formula_structural   KMn4O8
_chemical_formula_sum   'K1 Mn4 O8'
_cell_volume   198.98565455
_cell_formula_units_Z   1
loop_
 _symmetry_equiv_pos_site_id
 _symmetry_equiv_pos_as_xyz
  1  'x, y, z'
loop_
 _atom_site_type_symbol
 _atom_site_label
 _atom_site_symmetry_multiplicity
 _atom_site_fract_x
 _atom_site_fract_y
 _atom_site_fract_z
 _atom_site_occupancy
  K  K0  1  0.49991075  0.99980117  0.49999474  1
  Mn  Mn1  1  0.99992778  0.99992613  0.00001607  1
  Mn  Mn2  1  0.00005137  0.50004639  0.00003054  1
  Mn  Mn3  1  0.50009109  0.99998910  0.00000332  1
  Mn  Mn4  1  0.49970068  0.49975562  0.99995247  1
  O  O5  1  0.07273786  0.78536813  0.84989303  1
  O  O6  1  0.03063797  0.26440303  0.84221895  1
  O  O7  1  0.57645729  0.28525672  0.85417754  1
  O  O8  1  0.57698638  0.79109330  0.85352292  1
  O  O9  1  0.42362933  0.71495087  0.14587655  1
  O  O10  1  0.42312407  0.20893791  0.14656850  1
  O  O11  1  0.92732597  0.21479853  0.14995251  1
  O  O12  1  0.96941945  0.73567311  0.15780885  1
