# generated using pymatgen
data_Ca2TaVO6
_symmetry_space_group_name_H-M   'P 1'
_cell_length_a   5.49263588
_cell_length_b   5.67608820
_cell_length_c   7.75293960
_cell_angle_alpha   90.00000000
_cell_angle_beta   90.00000000
_cell_angle_gamma   89.86543157
_symmetry_Int_Tables_number   1
_chemical_formula_structural   Ca2TaVO6
_chemical_formula_sum   'Ca4 Ta2 V2 O12'
_cell_volume   241.71029442
_cell_formula_units_Z   2
loop_
 _symmetry_equiv_pos_site_id
 _symmetry_equiv_pos_as_xyz
  1  'x, y, z'
loop_
 _atom_site_type_symbol
 _atom_site_label
 _atom_site_symmetry_multiplicity
 _atom_site_fract_x
 _atom_site_fract_y
 _atom_site_fract_z
 _atom_site_occupancy
  Ca  Ca0  1  0.01307749  0.95652276  0.25000000  1
  Ca  Ca1  1  0.48624618  0.43767167  0.25000000  1
  Ca  Ca2  1  0.51375382  0.56232833  0.75000000  1
  Ca  Ca3  1  0.98692251  0.04347724  0.75000000  1
  Ta  Ta4  1  0.00000000  0.50000000  0.00000000  1
  Ta  Ta5  1  0.00000000  0.50000000  0.50000000  1
  V  V6  1  0.50000000  0.00000000  0.00000000  1
  V  V7  1  0.50000000  0.00000000  0.50000000  1
  O  O8  1  0.80368511  0.78713255  0.54790901  1
  O  O9  1  0.28975001  0.69821445  0.45472352  1
  O  O10  1  0.19631489  0.21286745  0.45209099  1
  O  O11  1  0.71024999  0.30178555  0.95472352  1
  O  O12  1  0.09389832  0.47158755  0.75000000  1
  O  O13  1  0.71024999  0.30178555  0.54527648  1
  O  O14  1  0.28975001  0.69821445  0.04527648  1
  O  O15  1  0.80368511  0.78713255  0.95209099  1
  O  O16  1  0.57860670  0.02046885  0.25000000  1
  O  O17  1  0.19631489  0.21286745  0.04790901  1
  O  O18  1  0.42139330  0.97953115  0.75000000  1
  O  O19  1  0.90610168  0.52841245  0.25000000  1
