# generated using pymatgen
data_YAgO3
_symmetry_space_group_name_H-M   'P 1'
_cell_length_a   6.51376800
_cell_length_b   6.51376761
_cell_length_c   11.65372387
_cell_angle_alpha   90.00000000
_cell_angle_beta   90.00000000
_cell_angle_gamma   120.00000199
_symmetry_Int_Tables_number   1
_chemical_formula_structural   YAgO3
_chemical_formula_sum   'Y6 Ag6 O18'
_cell_volume   428.21304450
_cell_formula_units_Z   6
loop_
 _symmetry_equiv_pos_site_id
 _symmetry_equiv_pos_as_xyz
  1  'x, y, z'
loop_
 _atom_site_type_symbol
 _atom_site_label
 _atom_site_symmetry_multiplicity
 _atom_site_fract_x
 _atom_site_fract_y
 _atom_site_fract_z
 _atom_site_occupancy
  Y  Y0  1  0.66666700  0.33333300  0.23298785  1
  Y  Y1  1  0.33333300  0.66666700  0.73298785  1
  Y  Y2  1  0.66666700  0.33333300  0.73298785  1
  Y  Y3  1  0.33333300  0.66666700  0.23298785  1
  Y  Y4  1  0.00000000  0.00000000  0.77295266  1
  Y  Y5  1  0.00000000  0.00000000  0.27295266  1
  Ag  Ag6  1  0.66731551  0.00000000  0.50116939  1
  Ag  Ag7  1  0.66731551  0.66731551  0.00116939  1
  Ag  Ag8  1  0.00000000  0.33268449  0.00116939  1
  Ag  Ag9  1  1.00000000  0.66731551  0.50116939  1
  Ag  Ag10  1  0.33268449  0.33268449  0.50116939  1
  Ag  Ag11  1  0.33268449  0.00000000  0.00116939  1
  O  O12  1  0.66666700  0.33333300  0.02750762  1
  O  O13  1  0.33333300  0.66666700  0.52750762  1
  O  O14  1  0.66666700  0.33333300  0.52750762  1
  O  O15  1  0.33333300  0.66666700  0.02750762  1
  O  O16  1  0.00000000  0.00000000  0.97173496  1
  O  O17  1  0.00000000  0.00000000  0.47173496  1
  O  O18  1  0.35657982  0.00000000  0.82776230  1
  O  O19  1  0.35657982  0.35657982  0.32776230  1
  O  O20  1  0.00000000  0.64342018  0.32776230  1
  O  O21  1  1.00000000  0.35657982  0.82776230  1
  O  O22  1  0.64342018  0.64342018  0.82776230  1
  O  O23  1  0.64342018  0.00000000  0.32776230  1
  O  O24  1  0.31037737  0.00000000  0.17417546  1
  O  O25  1  0.31037737  0.31037737  0.67417546  1
  O  O26  1  1.00000000  0.68962263  0.67417546  1
  O  O27  1  0.00000000  0.31037737  0.17417546  1
  O  O28  1  0.68962263  0.68962263  0.17417546  1
  O  O29  1  0.68962263  0.00000000  0.67417546  1
