# generated using pymatgen
data_Ba5As3
_symmetry_space_group_name_H-M   'P 1'
_cell_length_a   9.56572714
_cell_length_b   9.56572713
_cell_length_c   7.80490680
_cell_angle_alpha   90.00000000
_cell_angle_beta   90.00000000
_cell_angle_gamma   120.00000003
_symmetry_Int_Tables_number   1
_chemical_formula_structural   Ba5As3
_chemical_formula_sum   'Ba10 As6'
_cell_volume   618.49234643
_cell_formula_units_Z   2
loop_
 _symmetry_equiv_pos_site_id
 _symmetry_equiv_pos_as_xyz
  1  'x, y, z'
loop_
 _atom_site_type_symbol
 _atom_site_label
 _atom_site_symmetry_multiplicity
 _atom_site_fract_x
 _atom_site_fract_y
 _atom_site_fract_z
 _atom_site_occupancy
  As  As0  1  0.60699041  0.00000000  0.75000000  1
  As  As1  1  0.60699041  0.60699041  0.25000000  1
  As  As2  1  0.00000000  0.39300959  0.25000000  1
  As  As3  1  0.00000000  0.60699041  0.75000000  1
  As  As4  1  0.39300959  0.39300959  0.75000000  1
  As  As5  1  0.39300959  0.00000000  0.25000000  1
  Ba  Ba6  1  0.00000000  0.25709392  0.75000000  1
  Ba  Ba7  1  0.00000000  0.74290608  0.25000000  1
  Ba  Ba8  1  0.25709392  0.25709392  0.25000000  1
  Ba  Ba9  1  0.25709392  0.00000000  0.75000000  1
  Ba  Ba10  1  0.74290608  0.74290608  0.75000000  1
  Ba  Ba11  1  0.74290608  0.00000000  0.25000000  1
  Ba  Ba12  1  0.33333333  0.66666667  0.50000000  1
  Ba  Ba13  1  0.66666667  0.33333333  0.00000000  1
  Ba  Ba14  1  0.66666667  0.33333333  0.50000000  1
  Ba  Ba15  1  0.33333333  0.66666667  0.00000000  1
