# generated using pymatgen
data_MgSiO3
_symmetry_space_group_name_H-M   'P 1'
_cell_length_a   18.53142235
_cell_length_b   8.98205496
_cell_length_c   5.25605956
_cell_angle_alpha   90.00000000
_cell_angle_beta   89.77495946
_cell_angle_gamma   90.00000000
_symmetry_Int_Tables_number   1
_chemical_formula_structural   MgSiO3
_chemical_formula_sum   'Mg16 Si16 O48'
_cell_volume   874.86570127
_cell_formula_units_Z   16
loop_
 _symmetry_equiv_pos_site_id
 _symmetry_equiv_pos_as_xyz
  1  'x, y, z'
loop_
 _atom_site_type_symbol
 _atom_site_label
 _atom_site_symmetry_multiplicity
 _atom_site_fract_x
 _atom_site_fract_y
 _atom_site_fract_z
 _atom_site_occupancy
  Mg  Mg0  1  0.87426387  0.84876031  0.07075834  1
  Mg  Mg1  1  0.12573613  0.34876031  0.42924166  1
  Mg  Mg2  1  0.12573613  0.15123969  0.92924166  1
  Mg  Mg3  1  0.87426387  0.65123969  0.57075834  1
  Mg  Mg4  1  0.87423751  0.49096677  0.06949632  1
  Mg  Mg5  1  0.12576249  0.99096677  0.43050368  1
  Mg  Mg6  1  0.12576249  0.50903323  0.93050368  1
  Mg  Mg7  1  0.87423751  0.00903323  0.56949632  1
  Mg  Mg8  1  0.37461309  0.84872189  0.36679966  1
  Mg  Mg9  1  0.62538691  0.34872189  0.13320034  1
  Mg  Mg10  1  0.62538691  0.15127811  0.63320034  1
  Mg  Mg11  1  0.37461309  0.65127811  0.86679966  1
  Mg  Mg12  1  0.37940612  0.49097819  0.36448508  1
  Mg  Mg13  1  0.62059388  0.99097819  0.13551492  1
  Mg  Mg14  1  0.62059388  0.50902181  0.63551492  1
  Mg  Mg15  1  0.37940612  0.00902181  0.86448508  1
  Si  Si16  1  0.97716715  0.33962321  0.76767558  1
  Si  Si17  1  0.02283285  0.83962321  0.73232442  1
  Si  Si18  1  0.02283285  0.66037679  0.23232442  1
  Si  Si19  1  0.97716715  0.16037679  0.26767558  1
  Si  Si20  1  0.27374500  0.16131293  0.58376720  1
  Si  Si21  1  0.72625500  0.66131293  0.91623280  1
  Si  Si22  1  0.72625500  0.83868707  0.41623280  1
  Si  Si23  1  0.27374500  0.33868707  0.08376720  1
  Si  Si24  1  0.22755096  0.83874795  0.02337960  1
  Si  Si25  1  0.77244904  0.33874795  0.47662040  1
  Si  Si26  1  0.77244904  0.16125205  0.97662040  1
  Si  Si27  1  0.22755096  0.66125205  0.52337960  1
  Si  Si28  1  0.47394583  0.33640825  0.80240267  1
  Si  Si29  1  0.52605417  0.83640825  0.69759733  1
  Si  Si30  1  0.52605417  0.66359175  0.19759733  1
  Si  Si31  1  0.47394583  0.16359175  0.30240267  1
  O  O32  1  0.06519591  0.33993655  0.76013905  1
  O  O33  1  0.93480409  0.83993655  0.73986095  1
  O  O34  1  0.93480409  0.66006345  0.23986095  1
  O  O35  1  0.06519591  0.16006345  0.26013905  1
  O  O36  1  0.93658167  0.49714166  0.74851783  1
  O  O37  1  0.06341833  0.99714166  0.75148217  1
  O  O38  1  0.06341833  0.50285834  0.25148217  1
  O  O39  1  0.93658167  0.00285834  0.24851783  1
  O  O40  1  0.94690588  0.21801280  0.55316729  1
  O  O41  1  0.05309412  0.71801280  0.94683271  1
  O  O42  1  0.05309412  0.78198720  0.44683271  1
  O  O43  1  0.94690588  0.28198720  0.05316729  1
  O  O44  1  0.18550110  0.16200730  0.58930209  1
  O  O45  1  0.81449890  0.66200730  0.91069791  1
  O  O46  1  0.81449890  0.83799270  0.41069791  1
  O  O47  1  0.18550110  0.33799270  0.08930209  1
  O  O48  1  0.31443383  0.00534054  0.55221002  1
  O  O49  1  0.68556617  0.50534054  0.94778998  1
  O  O50  1  0.68556617  0.99465946  0.44778998  1
  O  O51  1  0.31443383  0.49465946  0.05221002  1
  O  O52  1  0.30306864  0.21341598  0.87316515  1
  O  O53  1  0.69693136  0.71341598  0.62683485  1
  O  O54  1  0.69693136  0.78658402  0.12683485  1
  O  O55  1  0.30306864  0.28658402  0.37316515  1
  O  O56  1  0.31608807  0.84170656  0.03129117  1
  O  O57  1  0.68391193  0.34170656  0.46870883  1
  O  O58  1  0.68391193  0.15829344  0.96870883  1
  O  O59  1  0.31608807  0.65829344  0.53129117  1
  O  O60  1  0.18551432  0.98799273  0.11152046  1
  O  O61  1  0.81448568  0.48799273  0.38847954  1
  O  O62  1  0.81448568  0.01200727  0.88847954  1
  O  O63  1  0.18551432  0.51200727  0.61152046  1
  O  O64  1  0.20051952  0.79297891  0.73000194  1
  O  O65  1  0.79948048  0.29297891  0.76999806  1
  O  O66  1  0.79948048  0.20702109  0.26999806  1
  O  O67  1  0.20051952  0.70702109  0.23000194  1
  O  O68  1  0.56241638  0.33881635  0.80186600  1
  O  O69  1  0.43758362  0.83881635  0.69813400  1
  O  O70  1  0.43758362  0.66118365  0.19813400  1
  O  O71  1  0.56241638  0.16118365  0.30186600  1
  O  O72  1  0.43335354  0.48162169  0.69440699  1
  O  O73  1  0.56664646  0.98162169  0.80559301  1
  O  O74  1  0.56664646  0.51837831  0.30559301  1
  O  O75  1  0.43335354  0.01837831  0.19440699  1
  O  O76  1  0.44825287  0.19626979  0.60696023  1
  O  O77  1  0.55174713  0.69626979  0.89303977  1
  O  O78  1  0.55174713  0.80373021  0.39303977  1
  O  O79  1  0.44825287  0.30373021  0.10696023  1
