# generated using pymatgen
data_MgSiO3
_symmetry_space_group_name_H-M   'P 1'
_cell_length_a   18.64141189
_cell_length_b   8.90002826
_cell_length_c   5.35252073
_cell_angle_alpha   90.00000000
_cell_angle_beta   91.20404012
_cell_angle_gamma   90.00000000
_symmetry_Int_Tables_number   1
_chemical_formula_structural   MgSiO3
_chemical_formula_sum   'Mg16 Si16 O48'
_cell_volume   887.83578420
_cell_formula_units_Z   16
loop_
 _symmetry_equiv_pos_site_id
 _symmetry_equiv_pos_as_xyz
  1  'x, y, z'
loop_
 _atom_site_type_symbol
 _atom_site_label
 _atom_site_symmetry_multiplicity
 _atom_site_fract_x
 _atom_site_fract_y
 _atom_site_fract_z
 _atom_site_occupancy
  Mg  Mg0  1  0.00000000  0.60005295  0.75000000  1
  Mg  Mg1  1  0.00000000  0.39994705  0.25000000  1
  Mg  Mg2  1  0.00000000  0.75737591  0.25000000  1
  Mg  Mg3  1  0.00000000  0.24262409  0.75000000  1
  Mg  Mg4  1  0.24954003  0.09910715  0.72260138  1
  Mg  Mg5  1  0.75045997  0.09910715  0.77739862  1
  Mg  Mg6  1  0.75045997  0.90089285  0.27739862  1
  Mg  Mg7  1  0.24954003  0.90089285  0.22260138  1
  Mg  Mg8  1  0.25214688  0.74196671  0.72330170  1
  Mg  Mg9  1  0.74785312  0.74196671  0.77669830  1
  Mg  Mg10  1  0.74785312  0.25803329  0.27669830  1
  Mg  Mg11  1  0.25214688  0.25803329  0.22330170  1
  Mg  Mg12  1  0.50000000  0.40338212  0.25000000  1
  Mg  Mg13  1  0.50000000  0.59661788  0.75000000  1
  Mg  Mg14  1  0.50000000  0.76102812  0.25000000  1
  Mg  Mg15  1  0.50000000  0.23897188  0.75000000  1
  Si  Si16  1  0.89585136  0.08890066  0.45077053  1
  Si  Si17  1  0.10414864  0.08890066  0.04922947  1
  Si  Si18  1  0.10414864  0.91109934  0.54922947  1
  Si  Si19  1  0.89585136  0.91109934  0.95077053  1
  Si  Si20  1  0.85221477  0.58933604  0.40876682  1
  Si  Si21  1  0.14778523  0.58933604  0.09123318  1
  Si  Si22  1  0.14778523  0.41066396  0.59123318  1
  Si  Si23  1  0.85221477  0.41066396  0.90876682  1
  Si  Si24  1  0.39716570  0.09056252  0.42086056  1
  Si  Si25  1  0.60283430  0.09056252  0.07913944  1
  Si  Si26  1  0.60283430  0.90943748  0.57913944  1
  Si  Si27  1  0.39716570  0.90943748  0.92086056  1
  Si  Si28  1  0.35288400  0.41018003  0.91846474  1
  Si  Si29  1  0.64711600  0.41018003  0.58153526  1
  Si  Si30  1  0.64711600  0.58981997  0.08153526  1
  Si  Si31  1  0.35288400  0.58981997  0.41846474  1
  O  O32  1  0.80821586  0.09181776  0.44641187  1
  O  O33  1  0.19178414  0.09181776  0.05358813  1
  O  O34  1  0.19178414  0.90818224  0.55358813  1
  O  O35  1  0.80821586  0.90818224  0.94641187  1
  O  O36  1  0.93972754  0.24321907  0.42860882  1
  O  O37  1  0.06027246  0.24321907  0.07139118  1
  O  O38  1  0.06027246  0.75678093  0.57139118  1
  O  O39  1  0.93972754  0.75678093  0.92860882  1
  O  O40  1  0.92299420  0.96548264  0.23893216  1
  O  O41  1  0.07700580  0.96548264  0.26106784  1
  O  O42  1  0.07700580  0.03451736  0.76106784  1
  O  O43  1  0.92299420  0.03451736  0.73893216  1
  O  O44  1  0.94011200  0.59249226  0.41720902  1
  O  O45  1  0.05988800  0.59249226  0.08279098  1
  O  O46  1  0.05988800  0.40750774  0.58279098  1
  O  O47  1  0.94011200  0.40750774  0.91720902  1
  O  O48  1  0.80977097  0.74256323  0.47220578  1
  O  O49  1  0.19022903  0.74256323  0.02779422  1
  O  O50  1  0.19022903  0.25743677  0.52779422  1
  O  O51  1  0.80977097  0.25743677  0.97220578  1
  O  O52  1  0.82492743  0.46929601  0.62732325  1
  O  O53  1  0.17507257  0.46929601  0.87267675  1
  O  O54  1  0.17507257  0.53070399  0.37267675  1
  O  O55  1  0.82492743  0.53070399  0.12732325  1
  O  O56  1  0.30985092  0.09215572  0.40148794  1
  O  O57  1  0.69014908  0.09215572  0.09851206  1
  O  O58  1  0.69014908  0.90784428  0.59851206  1
  O  O59  1  0.30985092  0.90784428  0.90148794  1
  O  O60  1  0.43922163  0.24834571  0.42530597  1
  O  O61  1  0.56077837  0.24834571  0.07469403  1
  O  O62  1  0.56077837  0.75165429  0.57469403  1
  O  O63  1  0.43922163  0.75165429  0.92530597  1
  O  O64  1  0.42597954  0.02252387  0.69749233  1
  O  O65  1  0.57402046  0.02252387  0.80250767  1
  O  O66  1  0.57402046  0.97747613  0.30250767  1
  O  O67  1  0.42597954  0.97747613  0.19749233  1
  O  O68  1  0.44042126  0.40891169  0.91493465  1
  O  O69  1  0.55957874  0.40891169  0.58506535  1
  O  O70  1  0.55957874  0.59108831  0.08506535  1
  O  O71  1  0.44042126  0.59108831  0.41493465  1
  O  O72  1  0.31239533  0.25103477  0.90738936  1
  O  O73  1  0.68760467  0.25103477  0.59261064  1
  O  O74  1  0.68760467  0.74896523  0.09261064  1
  O  O75  1  0.31239533  0.74896523  0.40738936  1
  O  O76  1  0.32340040  0.47172295  0.19628303  1
  O  O77  1  0.67659960  0.47172295  0.30371697  1
  O  O78  1  0.67659960  0.52827705  0.80371697  1
  O  O79  1  0.32340040  0.52827705  0.69628303  1
