# generated using pymatgen
data_KAl9O14
_symmetry_space_group_name_H-M   'P 1'
_cell_length_a   8.27819151
_cell_length_b   7.75653865
_cell_length_c   8.89517404
_cell_angle_alpha   90.00000000
_cell_angle_beta   110.59743162
_cell_angle_gamma   90.00000000
_symmetry_Int_Tables_number   1
_chemical_formula_structural   KAl9O14
_chemical_formula_sum   'K2 Al18 O28'
_cell_volume   534.64888934
_cell_formula_units_Z   2
loop_
 _symmetry_equiv_pos_site_id
 _symmetry_equiv_pos_as_xyz
  1  'x, y, z'
loop_
 _atom_site_type_symbol
 _atom_site_label
 _atom_site_symmetry_multiplicity
 _atom_site_fract_x
 _atom_site_fract_y
 _atom_site_fract_z
 _atom_site_occupancy
  K  K0  1  -0.00000000  0.50000000  0.50000000  1
  K  K1  1  0.50000000  0.00000000  -0.00000000  1
  Al  Al2  1  0.99720815  0.99783617  0.67131465  1
  Al  Al3  1  0.49720815  0.50216383  0.17131465  1
  Al  Al4  1  0.00279185  0.00216383  0.32868535  1
  Al  Al5  1  0.50279185  0.49783617  0.82868535  1
  Al  Al6  1  -0.00000000  0.00000000  -0.00000000  1
  Al  Al7  1  0.50000000  0.50000000  0.50000000  1
  Al  Al8  1  0.85079419  0.66557208  0.12161599  1
  Al  Al9  1  0.35079419  0.83442792  0.62161599  1
  Al  Al10  1  0.14920581  0.33442792  0.87838401  1
  Al  Al11  1  0.64920581  0.16557208  0.37838401  1
  Al  Al12  1  0.65580843  0.17738087  0.72154477  1
  Al  Al13  1  0.15580843  0.32261913  0.22154477  1
  Al  Al14  1  0.34419157  0.82261913  0.27845523  1
  Al  Al15  1  0.84419157  0.67738087  0.77845523  1
  Al  Al16  1  0.73080914  0.81078046  0.40707837  1
  Al  Al17  1  0.23080914  0.68921954  0.90707837  1
  Al  Al18  1  0.26919086  0.18921954  0.59292163  1
  Al  Al19  1  0.76919086  0.31078046  0.09292163  1
  O  O20  1  0.85970989  0.79453918  0.61429201  1
  O  O21  1  0.35970989  0.70546082  0.11429201  1
  O  O22  1  0.14029011  0.20546082  0.38570799  1
  O  O23  1  0.64029011  0.29453918  0.88570799  1
  O  O24  1  0.86840170  0.78646461  0.96159251  1
  O  O25  1  0.36840170  0.71353539  0.46159251  1
  O  O26  1  0.13159830  0.21353539  0.03840749  1
  O  O27  1  0.63159830  0.28646461  0.53840749  1
  O  O28  1  0.86905290  0.79272573  0.28986733  1
  O  O29  1  0.36905290  0.70727427  0.78986733  1
  O  O30  1  0.13094710  0.20727427  0.71013267  1
  O  O31  1  0.63094710  0.29272573  0.21013267  1
  O  O32  1  0.86107539  0.08314812  0.78872064  1
  O  O33  1  0.36107539  0.41685188  0.28872064  1
  O  O34  1  0.13892461  0.91685188  0.21127936  1
  O  O35  1  0.63892461  0.58314812  0.71127936  1
  O  O36  1  0.85363590  0.06343477  0.44902294  1
  O  O37  1  0.35363590  0.43656523  0.94902294  1
  O  O38  1  0.14636410  0.93656523  0.55097706  1
  O  O39  1  0.64636410  0.56343477  0.05097706  1
  O  O40  1  0.62814910  0.60233752  0.37402093  1
  O  O41  1  0.12814910  0.89766248  0.87402093  1
  O  O42  1  0.37185090  0.39766248  0.62597907  1
  O  O43  1  0.87185090  0.10233752  0.12597907  1
  O  O44  1  0.53841530  0.95829389  0.33191467  1
  O  O45  1  0.03841530  0.54170611  0.83191467  1
  O  O46  1  0.46158470  0.04170611  0.66808533  1
  O  O47  1  0.96158470  0.45829389  0.16808533  1
