# generated using pymatgen
data_BaLi2Mg(PO4)2
_symmetry_space_group_name_H-M   'P 1'
_cell_length_a   5.10157044
_cell_length_b   5.09998086
_cell_length_c   7.19634507
_cell_angle_alpha   90.00153624
_cell_angle_beta   90.02420370
_cell_angle_gamma   120.02229858
_symmetry_Int_Tables_number   1
_chemical_formula_structural   BaLi2Mg(PO4)2
_chemical_formula_sum   'Ba1 Li2 Mg1 P2 O8'
_cell_volume   162.11282094
_cell_formula_units_Z   1
loop_
 _symmetry_equiv_pos_site_id
 _symmetry_equiv_pos_as_xyz
  1  'x, y, z'
loop_
 _atom_site_type_symbol
 _atom_site_label
 _atom_site_symmetry_multiplicity
 _atom_site_fract_x
 _atom_site_fract_y
 _atom_site_fract_z
 _atom_site_occupancy
  Ba  Ba0  1  0.00000000  -0.00000000  0.50000000  1
  Li  Li1  1  0.66669157  0.33336414  0.23104523  1
  Li  Li2  1  0.33330843  0.66663586  0.76895477  1
  Mg  Mg3  1  0.00000000  -0.00000000  0.00000000  1
  P  P4  1  0.66672951  0.33337459  0.75118915  1
  P  P5  1  0.33327049  0.66662541  0.24881085  1
  O  O6  1  0.66657347  0.33331879  0.53594087  1
  O  O7  1  0.33342653  0.66668121  0.46405913  1
  O  O8  1  0.35980062  0.29556830  0.82128848  1
  O  O9  1  0.93595862  0.64041446  0.82137298  1
  O  O10  1  0.70435261  0.06409116  0.82131292  1
  O  O11  1  0.64019938  0.70443170  0.17871152  1
  O  O12  1  0.06404138  0.35958554  0.17862702  1
  O  O13  1  0.29564739  0.93590884  0.17868708  1
