# generated using pymatgen
data_SrB4O7
_symmetry_space_group_name_H-M   'P 1'
_cell_length_a   17.30233498
_cell_length_b   17.30233391
_cell_length_c   4.29576776
_cell_angle_alpha   90.00004060
_cell_angle_beta   89.99995169
_cell_angle_gamma   120.00019662
_symmetry_Int_Tables_number   1
_chemical_formula_structural   SrB4O7
_chemical_formula_sum   'Sr9 B36 O63'
_cell_volume   1113.73013367
_cell_formula_units_Z   9
loop_
 _symmetry_equiv_pos_site_id
 _symmetry_equiv_pos_as_xyz
  1  'x, y, z'
loop_
 _atom_site_type_symbol
 _atom_site_label
 _atom_site_symmetry_multiplicity
 _atom_site_fract_x
 _atom_site_fract_y
 _atom_site_fract_z
 _atom_site_occupancy
  Sr  Sr0  1  0.00000035  0.00000007  0.49882074  1
  Sr  Sr1  1  0.66665680  0.33332849  0.70553061  1
  Sr  Sr2  1  0.33334776  0.66667385  0.60697517  1
  Sr  Sr3  1  0.00762464  0.67614733  0.70121766  1
  Sr  Sr4  1  0.66853023  0.99237910  0.70121633  1
  Sr  Sr5  1  0.32384653  0.33147277  0.70121744  1
  Sr  Sr6  1  0.34151313  0.00594631  0.51649463  1
  Sr  Sr7  1  0.66443685  0.65848414  0.51649403  1
  Sr  Sr8  1  0.99405100  0.33556887  0.51649411  1
  B  B9  1  0.18181143  0.71352711  0.32421873  1
  B  B10  1  0.53171721  0.81819080  0.32421612  1
  B  B11  1  0.28647452  0.46828502  0.32422024  1
  B  B12  1  0.30342514  0.81875696  0.99728832  1
  B  B13  1  0.51533513  0.69657496  0.99728912  1
  B  B14  1  0.18124673  0.48467110  0.99728207  1
  B  B15  1  0.96673282  0.80479501  0.24168115  1
  B  B16  1  0.83806209  0.03326715  0.24168194  1
  B  B17  1  0.19520495  0.16193785  0.24168305  1
  B  B18  1  0.85911853  0.81443745  0.90617513  1
  B  B19  1  0.95531880  0.14088137  0.90617456  1
  B  B20  1  0.18556206  0.04468089  0.90617433  1
  B  B21  1  0.84531615  0.47435412  0.27757005  1
  B  B22  1  0.62903772  0.15467989  0.27757496  1
  B  B23  1  0.52563847  0.37096246  0.27756607  1
  B  B24  1  0.86663133  0.37239067  0.94410431  1
  B  B25  1  0.50575675  0.13336629  0.94410786  1
  B  B26  1  0.62760861  0.49424299  0.94410916  1
  B  B27  1  0.17424468  0.84597911  0.11095010  1
  B  B28  1  0.67173600  0.82575603  0.11095381  1
  B  B29  1  0.15402062  0.32826639  0.11095279  1
  B  B30  1  0.11771201  0.89167958  0.59758224  1
  B  B31  1  0.77396805  0.88228805  0.59758407  1
  B  B32  1  0.10831961  0.22603267  0.59758313  1
  B  B33  1  0.83544662  0.66074754  0.04731796  1
  B  B34  1  0.82530142  0.16455336  0.04732039  1
  B  B35  1  0.33925057  0.17469717  0.04731954  1
  B  B36  1  0.77501655  0.55929109  0.55959977  1
  B  B37  1  0.78427604  0.22498275  0.55960177  1
  B  B38  1  0.44070368  0.21572283  0.55959777  1
  B  B39  1  0.00272269  0.50435700  0.17916514  1
  B  B40  1  0.50163451  0.99727640  0.17916354  1
  B  B41  1  0.49564248  0.49836673  0.17916306  1
  B  B42  1  0.10516514  0.56218687  0.68228086  1
  B  B43  1  0.45702319  0.89483781  0.68228260  1
  B  B44  1  0.43781555  0.54297633  0.68228009  1
  O  O45  1  0.15842910  0.65535282  0.56192280  1
  O  O46  1  0.49691582  0.84156401  0.56191624  1
  O  O47  1  0.34464930  0.50308112  0.56191898  1
  O  O48  1  0.13312493  0.75324025  0.24890392  1
  O  O49  1  0.62011728  0.86687820  0.24890998  1
  O  O50  1  0.24676046  0.37988446  0.24891002  1
  O  O51  1  0.26497016  0.74099263  0.18392667  1
  O  O52  1  0.47602539  0.73503239  0.18391511  1
  O  O53  1  0.25901094  0.52397873  0.18392031  1
  O  O54  1  0.26974315  0.87567505  0.00000497  1
  O  O55  1  0.60593434  0.73025764  0.00001259  1
  O  O56  1  0.12432724  0.39407077  0.00000694  1
  O  O57  1  0.36867834  0.82444892  0.80773729  1
  O  O58  1  0.45577338  0.63132195  0.80773728  1
  O  O59  1  0.17555737  0.54423399  0.80772658  1
  O  O60  1  0.02408579  0.84301165  0.47879228  1
  O  O61  1  0.81892521  0.97591460  0.47879633  1
  O  O62  1  0.15698954  0.18107559  0.47879488  1
  O  O63  1  0.93060335  0.71595258  0.16909714  1
  O  O64  1  0.78534847  0.06939557  0.16909883  1
  O  O65  1  0.28404735  0.21465078  0.16910107  1
  O  O66  1  0.93593935  0.85685870  0.09540123  1
  O  O67  1  0.92091920  0.06406077  0.09540202  1
  O  O68  1  0.14314121  0.07908060  0.09540169  1
  O  O69  1  0.80605846  0.72372556  0.90785552  1
  O  O70  1  0.91766644  0.19394073  0.90785341  1
  O  O71  1  0.27627359  0.08233277  0.90785252  1
  O  O72  1  0.84985369  0.87192794  0.71549750  1
  O  O73  1  0.02207407  0.15014631  0.71549710  1
  O  O74  1  0.12807235  0.97792582  0.71549502  1
  O  O75  1  0.78136728  0.48070744  0.44282377  1
  O  O76  1  0.69934061  0.21862942  0.44282464  1
  O  O77  1  0.51928238  0.30065766  0.44280644  1
  O  O78  1  0.93530837  0.52853555  0.30970701  1
  O  O79  1  0.59322717  0.06468824  0.30970688  1
  O  O80  1  0.47146002  0.40677461  0.30970852  1
  O  O81  1  0.80985688  0.40020225  0.07319952  1
  O  O82  1  0.59034203  0.19013823  0.07321750  1
  O  O83  1  0.59979351  0.40965654  0.07320988  1
  O  O84  1  0.95336072  0.41028890  0.04504412  1
  O  O85  1  0.45692475  0.04663582  0.04503808  1
  O  O86  1  0.58971190  0.54307512  0.04504245  1
  O  O87  1  0.83784742  0.31787893  0.69308015  1
  O  O88  1  0.48003811  0.16215874  0.69308384  1
  O  O89  1  0.68211948  0.51996491  0.69308146  1
  O  O90  1  0.18264992  0.90989577  0.35008522  1
  O  O91  1  0.72724660  0.81735068  0.35008820  1
  O  O92  1  0.09010382  0.27275444  0.35008651  1
  O  O93  1  0.11823537  0.83649576  0.85050304  1
  O  O94  1  0.71826079  0.88176479  0.85050476  1
  O  O95  1  0.16350356  0.28174005  0.85050522  1
  O  O96  1  0.77467761  0.61388654  0.29989010  1
  O  O97  1  0.83921046  0.22532148  0.29989366  1
  O  O98  1  0.38610805  0.16078538  0.29989576  1
  O  O99  1  0.84140784  0.60586259  0.80028915  1
  O  O100  1  0.76445466  0.15859180  0.80029450  1
  O  O101  1  0.39413559  0.23554405  0.80029419  1
  O  O102  1  0.05672261  0.49960492  0.43216026  1
  O  O103  1  0.44288269  0.94327778  0.43215839  1
  O  O104  1  0.50039648  0.55711903  0.43215600  1
  O  O105  1  0.05060807  0.56744326  0.93291671  1
  O  O106  1  0.51683844  0.94939373  0.93291153  1
  O  O107  1  0.43255640  0.48316192  0.93290980  1
