# generated using pymatgen
data_Na6Si2O7
_symmetry_space_group_name_H-M   'P 1'
_cell_length_a   5.88493755
_cell_length_b   11.73072769
_cell_length_c   23.45858933
_cell_angle_alpha   89.61972220
_cell_angle_beta   88.77023891
_cell_angle_gamma   88.79256827
_symmetry_Int_Tables_number   1
_chemical_formula_structural   Na6Si2O7
_chemical_formula_sum   'Na48 Si16 O56'
_cell_volume   1618.69082809
_cell_formula_units_Z   8
loop_
 _symmetry_equiv_pos_site_id
 _symmetry_equiv_pos_as_xyz
  1  'x, y, z'
loop_
 _atom_site_type_symbol
 _atom_site_label
 _atom_site_symmetry_multiplicity
 _atom_site_fract_x
 _atom_site_fract_y
 _atom_site_fract_z
 _atom_site_occupancy
  Na  Na0  1  0.24683871  0.00808343  0.76284811  1
  Na  Na1  1  0.75316129  0.99191657  0.23715189  1
  Na  Na2  1  0.37997598  0.98157827  0.62341719  1
  Na  Na3  1  0.62002402  0.01842173  0.37658281  1
  Na  Na4  1  0.74798028  0.99429657  0.72758110  1
  Na  Na5  1  0.25201972  0.00570343  0.27241890  1
  Na  Na6  1  0.63717078  0.02468445  0.85933363  1
  Na  Na7  1  0.36282922  0.97531555  0.14066637  1
  Na  Na8  1  0.75253301  0.47462274  0.99265586  1
  Na  Na9  1  0.24746699  0.52537726  0.00734414  1
  Na  Na10  1  0.25190781  0.96199970  0.49457461  1
  Na  Na11  1  0.74809219  0.03800030  0.50542539  1
  Na  Na12  1  0.25741077  0.47430499  0.74915627  1
  Na  Na13  1  0.74258923  0.52569501  0.25084373  1
  Na  Na14  1  0.38866160  0.49687814  0.87779687  1
  Na  Na15  1  0.61133840  0.50312186  0.12220313  1
  Na  Na16  1  0.88155717  0.25944197  0.74674154  1
  Na  Na17  1  0.11844283  0.74055803  0.25325846  1
  Na  Na18  1  0.75535318  0.49061456  0.49434223  1
  Na  Na19  1  0.24464682  0.50938544  0.50565777  1
  Na  Na20  1  0.24799731  0.98277226  0.99989958  1
  Na  Na21  1  0.75200269  0.01722774  0.00010042  1
  Na  Na22  1  0.87845700  0.72536565  0.98763105  1
  Na  Na23  1  0.12154300  0.27463435  0.01236895  1
  Na  Na24  1  0.39274660  0.21101331  0.68680326  1
  Na  Na25  1  0.60725340  0.78898669  0.31319674  1
  Na  Na26  1  0.10831160  0.74851293  0.75210304  1
  Na  Na27  1  0.89168840  0.25148707  0.24789696  1
  Na  Na28  1  0.74908787  0.52772392  0.76470063  1
  Na  Na29  1  0.25091213  0.47227608  0.23529937  1
  Na  Na30  1  0.85990314  0.76969334  0.48309583  1
  Na  Na31  1  0.14009686  0.23030666  0.51690417  1
  Na  Na32  1  0.43082557  0.76410130  0.92337877  1
  Na  Na33  1  0.56917443  0.23589870  0.07662123  1
  Na  Na34  1  0.10504046  0.15260644  0.89722228  1
  Na  Na35  1  0.89495954  0.84739356  0.10277772  1
  Na  Na36  1  0.58368933  0.78248614  0.80487295  1
  Na  Na37  1  0.41631067  0.21751386  0.19512705  1
  Na  Na38  1  0.61878518  0.52042790  0.64005461  1
  Na  Na39  1  0.38121482  0.47957210  0.35994539  1
  Na  Na40  1  0.91090033  0.37947464  0.86922979  1
  Na  Na41  1  0.08909967  0.62052536  0.13077021  1
  Na  Na42  1  0.89629862  0.87473378  0.59956221  1
  Na  Na43  1  0.10370138  0.12526622  0.40043779  1
  Na  Na44  1  0.60321202  0.29271281  0.57856558  1
  Na  Na45  1  0.39678798  0.70728719  0.42143442  1
  Na  Na46  1  0.07737908  0.64682342  0.62356214  1
  Na  Na47  1  0.92262092  0.35317658  0.37643786  1
  Si  Si48  1  0.44226245  0.25396017  0.81558080  1
  Si  Si49  1  0.55773755  0.74603983  0.18441920  1
  Si  Si50  1  0.56090724  0.24971222  0.94827259  1
  Si  Si51  1  0.43909276  0.75028778  0.05172741  1
  Si  Si52  1  0.06281398  0.89218390  0.86781549  1
  Si  Si53  1  0.93718602  0.10781610  0.13218451  1
  Si  Si54  1  0.93750357  0.62865638  0.87583833  1
  Si  Si55  1  0.06249643  0.37134362  0.12416167  1
  Si  Si56  1  0.55965636  0.74783114  0.68449299  1
  Si  Si57  1  0.44034364  0.25216886  0.31550701  1
  Si  Si58  1  0.43386224  0.75338570  0.55089058  1
  Si  Si59  1  0.56613776  0.24661430  0.44910942  1
  Si  Si60  1  0.93959753  0.12522639  0.62590097  1
  Si  Si61  1  0.06040247  0.87477361  0.37409903  1
  Si  Si62  1  0.06582491  0.39442235  0.62996883  1
  Si  Si63  1  0.93417509  0.60557765  0.37003117  1
  O  O64  1  0.54344510  0.15173330  0.77351628  1
  O  O65  1  0.45655490  0.84826670  0.22648372  1
  O  O66  1  0.16580207  0.27096923  0.81234474  1
  O  O67  1  0.83419793  0.72903077  0.18765526  1
  O  O68  1  0.57647012  0.37394379  0.80607001  1
  O  O69  1  0.42352988  0.62605621  0.19392999  1
  O  O70  1  0.49269730  0.20355267  0.88243476  1
  O  O71  1  0.50730270  0.79644733  0.11756524  1
  O  O72  1  0.45279013  0.15238000  0.99155783  1
  O  O73  1  0.54720987  0.84762000  0.00844217  1
  O  O74  1  0.83809013  0.25642557  0.95005996  1
  O  O75  1  0.16190987  0.74357443  0.04994004  1
  O  O76  1  0.43926966  0.37404289  0.96085271  1
  O  O77  1  0.56073034  0.62595711  0.03914729  1
  O  O78  1  0.91398655  0.90524359  0.80920175  1
  O  O79  1  0.08601345  0.09475641  0.19079825  1
  O  O80  1  0.33452721  0.90773048  0.85334835  1
  O  O81  1  0.66547279  0.09226952  0.14665165  1
  O  O82  1  0.96944113  0.97731888  0.91880152  1
  O  O83  1  0.03055887  0.02268112  0.08119848  1
  O  O84  1  0.04174313  0.75773595  0.89415357  1
  O  O85  1  0.95825687  0.24226405  0.10584643  1
  O  O86  1  0.05422453  0.58489442  0.81569505  1
  O  O87  1  0.94577547  0.41510558  0.18430495  1
  O  O88  1  0.01748249  0.54621749  0.92870256  1
  O  O89  1  0.98251751  0.45378251  0.07129744  1
  O  O90  1  0.66054104  0.64217641  0.87254792  1
  O  O91  1  0.33945896  0.35782359  0.12745208  1
  O  O92  1  0.83695832  0.75671915  0.67863342  1
  O  O93  1  0.16304168  0.24328085  0.32136658  1
  O  O94  1  0.44198707  0.86856771  0.70602650  1
  O  O95  1  0.55801293  0.13143229  0.29397350  1
  O  O96  1  0.47480626  0.64219023  0.72522528  1
  O  O97  1  0.52519374  0.35780977  0.27477472  1
  O  O98  1  0.46274700  0.70870897  0.61930422  1
  O  O99  1  0.53725300  0.29129103  0.38069578  1
  O  O100  1  0.16000011  0.77340251  0.54282668  1
  O  O101  1  0.83999989  0.22659749  0.45717332  1
  O  O102  1  0.57347440  0.87254856  0.54210206  1
  O  O103  1  0.42652560  0.12745144  0.45789794  1
  O  O104  1  0.53541262  0.65224629  0.50899065  1
  O  O105  1  0.46458738  0.34775371  0.49100935  1
  O  O106  1  0.06236010  0.09707760  0.68657067  1
  O  O107  1  0.93763990  0.90292240  0.31342933  1
  O  O108  1  0.66286537  0.11288291  0.62916105  1
  O  O109  1  0.33713463  0.88711709  0.37083895  1
  O  O110  1  0.05423286  0.05116949  0.57288909  1
  O  O111  1  0.94576714  0.94883051  0.42711091  1
  O  O112  1  0.98510442  0.26346946  0.60823656  1
  O  O113  1  0.01489558  0.73653054  0.39176344  1
  O  O114  1  0.34210254  0.38771650  0.63752082  1
  O  O115  1  0.65789746  0.61228350  0.36247918  1
  O  O116  1  0.93557504  0.42808022  0.69014995  1
  O  O117  1  0.06442496  0.57191978  0.30985005  1
  O  O118  1  0.97350345  0.47879920  0.57855789  1
  O  O119  1  0.02649655  0.52120080  0.42144211  1
