# generated using pymatgen
data_LaAs2Au
_symmetry_space_group_name_H-M   'P 1'
_cell_length_a   4.16468179
_cell_length_b   4.16468179
_cell_length_c   10.85551741
_cell_angle_alpha   101.05920759
_cell_angle_beta   101.05920759
_cell_angle_gamma   90.00000000
_symmetry_Int_Tables_number   1
_chemical_formula_structural   LaAs2Au
_chemical_formula_sum   'La2 As4 Au2'
_cell_volume   181.22380525
_cell_formula_units_Z   2
loop_
 _symmetry_equiv_pos_site_id
 _symmetry_equiv_pos_as_xyz
  1  'x, y, z'
loop_
 _atom_site_type_symbol
 _atom_site_label
 _atom_site_symmetry_multiplicity
 _atom_site_fract_x
 _atom_site_fract_y
 _atom_site_fract_z
 _atom_site_occupancy
  La  La0  1  0.11682381  0.11682381  0.23364762  1
  La  La1  1  0.88317619  0.88317619  0.76635238  1
  As  As2  1  0.33777011  0.33777011  0.67554022  1
  As  As3  1  0.66222989  0.66222989  0.32445978  1
  As  As4  1  -0.00000000  0.50000000  -0.00000000  1
  As  As5  1  0.50000000  -0.00000000  0.00000000  1
  Au  Au6  1  0.25000000  0.75000000  0.50000000  1
  Au  Au7  1  0.75000000  0.25000000  0.50000000  1
