# generated using pymatgen
data_LiYb(MoO4)2
_symmetry_space_group_name_H-M   'P 1'
_cell_length_a   5.19477559
_cell_length_b   5.19477559
_cell_length_c   6.73835049
_cell_angle_alpha   67.32748544
_cell_angle_beta   67.32748553
_cell_angle_gamma   90.00000000
_symmetry_Int_Tables_number   1
_chemical_formula_structural   LiYb(MoO4)2
_chemical_formula_sum   'Li1 Yb1 Mo2 O8'
_cell_volume   152.44533412
_cell_formula_units_Z   1
loop_
 _symmetry_equiv_pos_site_id
 _symmetry_equiv_pos_as_xyz
  1  'x, y, z'
loop_
 _atom_site_type_symbol
 _atom_site_label
 _atom_site_symmetry_multiplicity
 _atom_site_fract_x
 _atom_site_fract_y
 _atom_site_fract_z
 _atom_site_occupancy
  Li  Li0  1  0.50000000  0.50000000  0.00000000  1
  Yb  Yb1  1  0.25000000  0.75000000  0.50000000  1
  Mo  Mo2  1  0.75000000  0.25000000  0.50000000  1
  Mo  Mo3  1  -0.00000000  0.00000000  0.00000000  1
  O  O4  1  0.82083508  0.40883146  0.67412967  1
  O  O5  1  0.50503525  0.91703886  0.67412967  1
  O  O6  1  0.59116854  0.49496475  0.32587033  1
  O  O7  1  0.08296114  0.17916492  0.32587033  1
  O  O8  1  0.24369322  0.33354188  0.82245932  1
  O  O9  1  0.93384745  0.84399879  0.82245932  1
  O  O10  1  0.66645812  0.06615255  0.17754068  1
  O  O11  1  0.15600121  0.75630678  0.17754068  1
