# generated using pymatgen
data_BaMgAgF7
_symmetry_space_group_name_H-M   'P 1'
_cell_length_a   5.76187788
_cell_length_b   9.90964221
_cell_length_c   10.18911712
_cell_angle_alpha   90.00000000
_cell_angle_beta   90.00000000
_cell_angle_gamma   93.12509511
_symmetry_Int_Tables_number   1
_chemical_formula_structural   BaMgAgF7
_chemical_formula_sum   'Ba4 Mg4 Ag4 F28'
_cell_volume   580.91454889
_cell_formula_units_Z   4
loop_
 _symmetry_equiv_pos_site_id
 _symmetry_equiv_pos_as_xyz
  1  'x, y, z'
loop_
 _atom_site_type_symbol
 _atom_site_label
 _atom_site_symmetry_multiplicity
 _atom_site_fract_x
 _atom_site_fract_y
 _atom_site_fract_z
 _atom_site_occupancy
  Ba  Ba0  1  0.27212056  0.49789661  0.32382347  1
  Ba  Ba1  1  0.72787944  0.00210339  0.82382347  1
  Ba  Ba2  1  0.72787944  0.50210339  0.67617653  1
  Ba  Ba3  1  0.27212056  0.99789661  0.17617653  1
  Mg  Mg4  1  0.69282841  0.80808833  0.39427849  1
  Mg  Mg5  1  0.30717159  0.69191167  0.89427849  1
  Mg  Mg6  1  0.69282841  0.30808833  0.10572151  1
  Mg  Mg7  1  0.30717159  0.19191167  0.60572151  1
  Ag  Ag8  1  0.19264555  0.81503759  0.61054536  1
  Ag  Ag9  1  0.80735445  0.18496241  0.38945464  1
  Ag  Ag10  1  0.19264555  0.31503759  0.88945464  1
  Ag  Ag11  1  0.80735445  0.68496241  0.11054536  1
  F  F12  1  0.13692540  0.12208162  0.44838259  1
  F  F13  1  0.37614653  0.37534663  0.06091580  1
  F  F14  1  0.48381727  0.74976251  0.72069008  1
  F  F15  1  0.51618273  0.25023749  0.27930992  1
  F  F16  1  0.89886106  0.37788293  0.45992361  1
  F  F17  1  0.26015155  0.50928619  0.80267149  1
  F  F18  1  0.02249014  0.74926713  0.78824510  1
  F  F19  1  0.10113894  0.12211707  0.95992361  1
  F  F20  1  0.37614653  0.87534663  0.43908420  1
  F  F21  1  0.51618273  0.75023749  0.22069008  1
  F  F22  1  0.13692540  0.62208162  0.05161741  1
  F  F23  1  0.86307460  0.87791838  0.55161741  1
  F  F24  1  0.97750986  0.75073287  0.28824510  1
  F  F25  1  0.39454238  0.86924735  0.96129333  1
  F  F26  1  0.10113894  0.62211707  0.54007639  1
  F  F27  1  0.89886106  0.87788293  0.04007639  1
  F  F28  1  0.97750986  0.25073287  0.21175490  1
  F  F29  1  0.86307460  0.37791838  0.94838259  1
  F  F30  1  0.60545762  0.63075265  0.46129333  1
  F  F31  1  0.62385347  0.62465337  0.93908420  1
  F  F32  1  0.60545762  0.13075265  0.03870667  1
  F  F33  1  0.02249014  0.24926713  0.71175490  1
  F  F34  1  0.39454238  0.36924735  0.53870667  1
  F  F35  1  0.73984845  0.99071381  0.30267149  1
  F  F36  1  0.73984845  0.49071381  0.19732851  1
  F  F37  1  0.26015155  0.00928619  0.69732851  1
  F  F38  1  0.62385347  0.12465337  0.56091580  1
  F  F39  1  0.48381727  0.24976251  0.77930992  1
