# generated using pymatgen
data_MgNi(GeO3)2
_symmetry_space_group_name_H-M   'P 1'
_cell_length_a   5.41247504
_cell_length_b   8.98574574
_cell_length_c   9.80003386
_cell_angle_alpha   90.00000000
_cell_angle_beta   103.31455902
_cell_angle_gamma   90.00000000
_symmetry_Int_Tables_number   1
_chemical_formula_structural   MgNi(GeO3)2
_chemical_formula_sum   'Mg4 Ni4 Ge8 O24'
_cell_volume   463.81434770
_cell_formula_units_Z   4
loop_
 _symmetry_equiv_pos_site_id
 _symmetry_equiv_pos_as_xyz
  1  'x, y, z'
loop_
 _atom_site_type_symbol
 _atom_site_label
 _atom_site_symmetry_multiplicity
 _atom_site_fract_x
 _atom_site_fract_y
 _atom_site_fract_z
 _atom_site_occupancy
  Mg  Mg0  1  0.44076312  0.49020545  0.24552828  1
  Mg  Mg1  1  0.05923688  0.99020545  0.75447172  1
  Mg  Mg2  1  0.55923688  0.50979455  0.75447172  1
  Mg  Mg3  1  0.94076312  0.00979455  0.24552828  1
  Ni  Ni4  1  0.95097546  0.65691823  0.24474876  1
  Ni  Ni5  1  0.54902454  0.15691823  0.75525124  1
  Ni  Ni6  1  0.04902454  0.34308177  0.75525124  1
  Ni  Ni7  1  0.45097546  0.84308177  0.24474876  1
  Ge  Ge8  1  0.82703342  0.33992282  0.05570551  1
  Ge  Ge9  1  0.67296658  0.83992282  0.94429449  1
  Ge  Ge10  1  0.17296658  0.66007718  0.94429449  1
  Ge  Ge11  1  0.32703342  0.16007718  0.05570551  1
  Ge  Ge12  1  0.23141338  0.34471220  0.46015288  1
  Ge  Ge13  1  0.26858662  0.84471220  0.53984712  1
  Ge  Ge14  1  0.76858662  0.65528780  0.53984712  1
  Ge  Ge15  1  0.73141338  0.15528780  0.46015288  1
  O  O16  1  0.49643145  0.28959739  0.38648341  1
  O  O17  1  0.00356855  0.78959739  0.61351659  1
  O  O18  1  0.50356855  0.71040261  0.61351659  1
  O  O19  1  0.99643145  0.21040261  0.38648341  1
  O  O20  1  0.17159472  0.32254760  0.11115970  1
  O  O21  1  0.32840528  0.82254760  0.88884130  1
  O  O22  1  0.82840528  0.67745240  0.88884130  1
  O  O23  1  0.67159472  0.17745240  0.11115970  1
  O  O24  1  0.68721239  0.98470131  0.37606995  1
  O  O25  1  0.81278761  0.48470131  0.62393005  1
  O  O26  1  0.31278761  0.01529869  0.62393005  1
  O  O27  1  0.18721239  0.51529869  0.37606995  1
  O  O28  1  0.22353679  0.01217089  0.13969442  1
  O  O29  1  0.27646321  0.51217089  0.86030558  1
  O  O30  1  0.77646321  0.98782911  0.86030558  1
  O  O31  1  0.72353679  0.48782911  0.13969442  1
  O  O32  1  0.76250699  0.33793819  0.86985576  1
  O  O33  1  0.73749301  0.83793819  0.13014424  1
  O  O34  1  0.23749301  0.66206181  0.13014424  1
  O  O35  1  0.26250699  0.16206181  0.86985576  1
  O  O36  1  0.32727545  0.34056824  0.64380568  1
  O  O37  1  0.17272455  0.84056824  0.35619432  1
  O  O38  1  0.67272455  0.65943176  0.35619432  1
  O  O39  1  0.82727545  0.15943176  0.64380568  1
