# generated using pymatgen
data_SrNbO3
_symmetry_space_group_name_H-M   'P 1'
_cell_length_a   5.75490558
_cell_length_b   5.75165399
_cell_length_c   8.19661958
_cell_angle_alpha   90.00000000
_cell_angle_beta   90.00000000
_cell_angle_gamma   90.00000000
_symmetry_Int_Tables_number   1
_chemical_formula_structural   SrNbO3
_chemical_formula_sum   'Sr4 Nb4 O12'
_cell_volume   271.30995759
_cell_formula_units_Z   4
loop_
 _symmetry_equiv_pos_site_id
 _symmetry_equiv_pos_as_xyz
  1  'x, y, z'
loop_
 _atom_site_type_symbol
 _atom_site_label
 _atom_site_symmetry_multiplicity
 _atom_site_fract_x
 _atom_site_fract_y
 _atom_site_fract_z
 _atom_site_occupancy
  O  O0  1  0.71911799  0.28107322  0.51889781  1
  O  O1  1  0.21911799  0.21892678  0.98110219  1
  O  O2  1  0.78088201  0.78107322  0.48110219  1
  O  O3  1  0.28088201  0.71892678  0.01889781  1
  O  O4  1  0.28088201  0.71892678  0.48110219  1
  O  O5  1  0.78088201  0.78107322  0.01889781  1
  O  O6  1  0.21911799  0.21892678  0.51889781  1
  O  O7  1  0.71911799  0.28107322  0.98110219  1
  O  O8  1  0.50571313  0.96230827  0.75000000  1
  O  O9  1  0.00571313  0.53769173  0.75000000  1
  O  O10  1  0.99428687  0.46230827  0.25000000  1
  O  O11  1  0.49428687  0.03769173  0.25000000  1
  Sr  Sr12  1  0.01747008  0.99973844  0.25000000  1
  Sr  Sr13  1  0.51747008  0.50026156  0.25000000  1
  Sr  Sr14  1  0.48252992  0.49973844  0.75000000  1
  Sr  Sr15  1  0.98252992  0.00026156  0.75000000  1
  Nb  Nb16  1  0.00000000  0.50000000  0.50000000  1
  Nb  Nb17  1  0.50000000  0.00000000  0.00000000  1
  Nb  Nb18  1  0.50000000  0.00000000  0.50000000  1
  Nb  Nb19  1  0.00000000  0.50000000  0.00000000  1
