# generated using pymatgen
data_Te8Mo3W
_symmetry_space_group_name_H-M   'P 1'
_cell_length_a   3.55945924
_cell_length_b   3.55919998
_cell_length_c   40.10720013
_cell_angle_alpha   90.00012802
_cell_angle_beta   90.00000000
_cell_angle_gamma   120.00240958
_symmetry_Int_Tables_number   1
_chemical_formula_structural   Te8Mo3W
_chemical_formula_sum   'Te8 Mo3 W1'
_cell_volume   440.02651450
_cell_formula_units_Z   1
loop_
 _symmetry_equiv_pos_site_id
 _symmetry_equiv_pos_as_xyz
  1  'x, y, z'
loop_
 _atom_site_type_symbol
 _atom_site_label
 _atom_site_symmetry_multiplicity
 _atom_site_fract_x
 _atom_site_fract_y
 _atom_site_fract_z
 _atom_site_occupancy
  Te  Te0  1  0.33335399  0.66670897  0.32701315  1
  Te  Te1  1  0.33334891  0.66669881  0.70271079  1
  Te  Te2  1  0.66664331  0.33328563  0.04873188  1
  Te  Te3  1  0.66665083  0.33330065  0.42431021  1
  Te  Te4  1  0.66665286  0.33330472  0.13913922  1
  Te  Te5  1  0.66665151  0.33330201  0.51500228  1
  Te  Te6  1  0.33334757  0.66669614  0.23659082  1
  Te  Te7  1  0.33334798  0.66669695  0.61232452  1
  Mo  Mo8  1  0.33329879  0.66659758  0.09391217  1
  Mo  Mo9  1  0.66670140  0.33340281  0.28180182  1
  Mo  Mo10  1  0.66670285  0.33340569  0.65754447  1
  W  W11  1  0.33330001  0.66660003  0.46966667  1
