# generated using pymatgen
data_Te8Mo3W
_symmetry_space_group_name_H-M   'P 1'
_cell_length_a   3.55761413
_cell_length_b   3.55738030
_cell_length_c   40.07722546
_cell_angle_alpha   90.00047223
_cell_angle_beta   90.00000000
_cell_angle_gamma   120.00217429
_symmetry_Int_Tables_number   1
_chemical_formula_structural   Te8Mo3W
_chemical_formula_sum   'Te8 Mo3 W1'
_cell_volume   439.24608660
_cell_formula_units_Z   1
loop_
 _symmetry_equiv_pos_site_id
 _symmetry_equiv_pos_as_xyz
  1  'x, y, z'
loop_
 _atom_site_type_symbol
 _atom_site_label
 _atom_site_symmetry_multiplicity
 _atom_site_fract_x
 _atom_site_fract_y
 _atom_site_fract_z
 _atom_site_occupancy
  Te  Te0  1  0.33335228  0.66670556  0.32699678  1
  Te  Te1  1  0.33334865  0.66669829  0.70282736  1
  Te  Te2  1  0.66664963  0.33329826  0.04874553  1
  Te  Te3  1  0.66665160  0.33330219  0.42446595  1
  Te  Te4  1  0.66665146  0.33330192  0.13912628  1
  Te  Te5  1  0.66665218  0.33330336  0.51484329  1
  Te  Te6  1  0.33334717  0.66669535  0.23660002  1
  Te  Te7  1  0.33334880  0.66669861  0.61220598  1
  Mo  Mo8  1  0.33329716  0.66659432  0.09391581  1
  Mo  Mo9  1  0.33329943  0.66659887  0.46966876  1
  Mo  Mo10  1  0.66670273  0.33340546  0.28180381  1
  W  W11  1  0.66669891  0.33339782  0.65754844  1
