# generated using pymatgen
data_MgVP2O7
_symmetry_space_group_name_H-M   'P 1'
_cell_length_a   7.10686548
_cell_length_b   8.55202083
_cell_length_c   9.12984443
_cell_angle_alpha   90.00000000
_cell_angle_beta   112.44411083
_cell_angle_gamma   90.00000000
_symmetry_Int_Tables_number   1
_chemical_formula_structural   MgVP2O7
_chemical_formula_sum   'Mg4 V4 P8 O28'
_cell_volume   512.86233006
_cell_formula_units_Z   4
loop_
 _symmetry_equiv_pos_site_id
 _symmetry_equiv_pos_as_xyz
  1  'x, y, z'
loop_
 _atom_site_type_symbol
 _atom_site_label
 _atom_site_symmetry_multiplicity
 _atom_site_fract_x
 _atom_site_fract_y
 _atom_site_fract_z
 _atom_site_occupancy
  Mg  Mg0  1  0.12035173  0.94147368  0.81829998  1
  Mg  Mg1  1  0.37964827  0.44147368  0.68170002  1
  Mg  Mg2  1  0.62035173  0.55852632  0.31829998  1
  Mg  Mg3  1  0.87964827  0.05852632  0.18170002  1
  V  V4  1  0.37323309  0.07381222  0.60988699  1
  V  V5  1  0.62676691  0.92618778  0.39011301  1
  V  V6  1  0.12676691  0.57381222  0.89011301  1
  V  V7  1  0.87323309  0.42618778  0.10988699  1
  P  P8  1  0.18151363  0.73397380  0.24250230  1
  P  P9  1  0.43689686  0.22368316  0.96852606  1
  P  P10  1  0.68151363  0.76602620  0.74250230  1
  P  P11  1  0.93689686  0.27631684  0.46852606  1
  P  P12  1  0.31848637  0.23397380  0.25749770  1
  P  P13  1  0.06310314  0.72368316  0.53147394  1
  P  P14  1  0.56310314  0.77631684  0.03147394  1
  P  P15  1  0.81848637  0.26602620  0.75749770  1
  O  O16  1  0.35035399  0.17516681  0.09982256  1
  O  O17  1  0.57623882  0.61112485  0.69014331  1
  O  O18  1  0.07623882  0.88887515  0.19014331  1
  O  O19  1  0.35334855  0.38453221  0.89743654  1
  O  O20  1  0.64964601  0.82483319  0.90017744  1
  O  O21  1  0.40415901  0.10052610  0.37787790  1
  O  O22  1  0.64665145  0.61546779  0.10256346  1
  O  O23  1  0.35725110  0.09070872  0.84720679  1
  O  O24  1  0.17079164  0.27378387  0.54947079  1
  O  O25  1  0.59584099  0.89947390  0.62212210  1
  O  O26  1  0.90415901  0.39947390  0.87787790  1
  O  O27  1  0.91572680  0.76245018  0.79776323  1
  O  O28  1  0.58427320  0.26245018  0.70223677  1
  O  O29  1  0.85035399  0.32483319  0.59982256  1
  O  O30  1  0.09584099  0.60052610  0.12212210  1
  O  O31  1  0.92376118  0.11112485  0.80985669  1
  O  O32  1  0.08427320  0.23754982  0.20223677  1
  O  O33  1  0.64274890  0.90929128  0.15279321  1
  O  O34  1  0.67079164  0.22621613  0.04947079  1
  O  O35  1  0.32920836  0.77378387  0.95052921  1
  O  O36  1  0.14665145  0.88453221  0.60256346  1
  O  O37  1  0.85725110  0.40929128  0.34720679  1
  O  O38  1  0.14274890  0.59070872  0.65279321  1
  O  O39  1  0.42376118  0.38887515  0.30985669  1
  O  O40  1  0.41572680  0.73754982  0.29776323  1
  O  O41  1  0.85334855  0.11546779  0.39743654  1
  O  O42  1  0.82920836  0.72621613  0.45052921  1
  O  O43  1  0.14964601  0.67516681  0.40017744  1
