# generated using pymatgen
data_VPO5
_symmetry_space_group_name_H-M   'P 1'
_cell_length_a   5.18098433
_cell_length_b   7.90472774
_cell_length_c   7.77024731
_cell_angle_alpha   89.92569804
_cell_angle_beta   41.46272261
_cell_angle_gamma   108.87589998
_symmetry_Int_Tables_number   1
_chemical_formula_structural   VPO5
_chemical_formula_sum   'V2 P2 O10'
_cell_volume   183.66956434
_cell_formula_units_Z   2
loop_
 _symmetry_equiv_pos_site_id
 _symmetry_equiv_pos_as_xyz
  1  'x, y, z'
loop_
 _atom_site_type_symbol
 _atom_site_label
 _atom_site_symmetry_multiplicity
 _atom_site_fract_x
 _atom_site_fract_y
 _atom_site_fract_z
 _atom_site_occupancy
  V  V0  1  0.50312563  0.53782895  0.51741495  1
  V  V1  1  0.50348276  0.03798070  0.47974503  1
  P  P2  1  0.50670018  0.24954695  0.82199257  1
  P  P3  1  0.50695790  0.75009630  0.17156286  1
  O  O4  1  0.65282968  0.12802554  0.63509961  1
  O  O5  1  0.34902360  0.36525708  0.78835633  1
  O  O6  1  0.35045797  0.86644431  0.36190070  1
  O  O7  1  0.65401660  0.62910614  0.21224475  1
  O  O8  1  0.11031792  0.60916237  0.25443505  1
  O  O9  1  0.89518298  0.88222811  0.85885814  1
  O  O10  1  0.89571892  0.38214412  0.74532201  1
  O  O11  1  0.11087246  0.10888285  0.13609219  1
  O  O12  1  0.48078243  0.71995015  0.61112198  1
  O  O13  1  0.48280198  0.22051044  0.40778486  1
