# generated using pymatgen
data_MgMn2O4
_symmetry_space_group_name_H-M   'P 1'
_cell_length_a   6.02842501
_cell_length_b   6.15227445
_cell_length_c   6.15197602
_cell_angle_alpha   89.98333941
_cell_angle_beta   120.66734687
_cell_angle_gamma   120.69665741
_symmetry_Int_Tables_number   1
_chemical_formula_structural   MgMn2O4
_chemical_formula_sum   'Mg2 Mn4 O8'
_cell_volume   157.97951646
_cell_formula_units_Z   2
loop_
 _symmetry_equiv_pos_site_id
 _symmetry_equiv_pos_as_xyz
  1  'x, y, z'
loop_
 _atom_site_type_symbol
 _atom_site_label
 _atom_site_symmetry_multiplicity
 _atom_site_fract_x
 _atom_site_fract_y
 _atom_site_fract_z
 _atom_site_occupancy
  Mg  Mg0  1  0.24996060  0.12546633  0.87544066  1
  Mg  Mg1  1  0.75002616  0.87458795  0.12451123  1
  Mn  Mn2  1  0.49979510  -0.00002113  0.49992106  1
  Mn  Mn3  1  0.50022756  0.50015186  0.50011684  1
  Mn  Mn4  1  -0.00000492  0.49988356  0.00007962  1
  Mn  Mn5  1  -0.00004411  0.49986155  0.49999001  1
  O  O6  1  0.03092249  0.75103792  0.23291902  1
  O  O7  1  0.46954394  0.76686879  0.72003051  1
  O  O8  1  0.46914954  0.70164855  0.24839189  1
  O  O9  1  0.96977928  0.72081347  0.70213061  1
  O  O10  1  0.53092964  0.29839768  0.75165586  1
  O  O11  1  0.53038327  0.23313201  0.27988489  1
  O  O12  1  0.03037716  0.27923808  0.29792915  1
  O  O13  1  0.96895428  0.24893236  0.76699764  1
