# generated using pymatgen
data_BaSr7Fe7CoO20
_symmetry_space_group_name_H-M   'P 1'
_cell_length_a   11.14696491
_cell_length_b   11.52594823
_cell_length_c   17.92394531
_cell_angle_alpha   108.97392908
_cell_angle_beta   108.09277622
_cell_angle_gamma   89.91340575
_symmetry_Int_Tables_number   1
_chemical_formula_structural   BaSr7Fe7CoO20
_chemical_formula_sum   'Ba4 Sr28 Fe28 Co4 O80'
_cell_volume   2057.34551103
_cell_formula_units_Z   4
loop_
 _symmetry_equiv_pos_site_id
 _symmetry_equiv_pos_as_xyz
  1  'x, y, z'
loop_
 _atom_site_type_symbol
 _atom_site_label
 _atom_site_symmetry_multiplicity
 _atom_site_fract_x
 _atom_site_fract_y
 _atom_site_fract_z
 _atom_site_occupancy
  Ba  Ba0  1  0.30985143  0.06137611  0.11372565  1
  Ba  Ba1  1  0.30537982  0.56266173  0.11369662  1
  Ba  Ba2  1  0.81050169  0.06133013  0.11400303  1
  Ba  Ba3  1  0.05474159  0.80459969  0.11319685  1
  Sr  Sr4  1  0.30545868  0.06495415  0.60929307  1
  Sr  Sr5  1  0.30554539  0.56367085  0.60956921  1
  Sr  Sr6  1  0.80575488  0.06528969  0.60892011  1
  Sr  Sr7  1  0.80704639  0.56371741  0.10833310  1
  Sr  Sr8  1  0.80585301  0.56376575  0.60902617  1
  Sr  Sr9  1  0.19770436  0.43879978  0.39153910  1
  Sr  Sr10  1  0.19006963  0.43521819  0.88952672  1
  Sr  Sr11  1  0.19736465  0.93502628  0.39313681  1
  Sr  Sr12  1  0.19668854  0.93691967  0.88923878  1
  Sr  Sr13  1  0.69645539  0.43704640  0.39067602  1
  Sr  Sr14  1  0.69820040  0.43377355  0.88899547  1
  Sr  Sr15  1  0.69759059  0.93482835  0.39227064  1
  Sr  Sr16  1  0.69620471  0.93804296  0.88919644  1
  Sr  Sr17  1  0.05690470  0.29550399  0.10738525  1
  Sr  Sr18  1  0.05604580  0.29469154  0.60985899  1
  Sr  Sr19  1  0.05557502  0.79595939  0.60952485  1
  Sr  Sr20  1  0.55456009  0.29313107  0.10711758  1
  Sr  Sr21  1  0.55587417  0.29423286  0.60942932  1
  Sr  Sr22  1  0.56068497  0.79314634  0.10888158  1
  Sr  Sr23  1  0.55631332  0.79585915  0.60929438  1
  Sr  Sr24  1  0.44753170  0.20705453  0.39523745  1
  Sr  Sr25  1  0.44784488  0.20237034  0.88916255  1
  Sr  Sr26  1  0.44742733  0.70359207  0.39354109  1
  Sr  Sr27  1  0.44754671  0.70385644  0.88922531  1
  Sr  Sr28  1  0.94870492  0.20763398  0.39410000  1
  Sr  Sr29  1  0.94467207  0.20689456  0.88854537  1
  Sr  Sr30  1  0.94753436  0.70313185  0.39268792  1
  Sr  Sr31  1  0.94474082  0.70649333  0.88810242  1
  Fe  Fe32  1  0.00303949  0.99878876  0.49917865  1
  Fe  Fe33  1  0.00476405  0.50071422  0.50170198  1
  Fe  Fe34  1  0.50399604  0.99890637  0.49947365  1
  Fe  Fe35  1  0.50003811  0.49530536  0.99258116  1
  Fe  Fe36  1  0.50456458  0.50023815  0.50172676  1
  Fe  Fe37  1  0.24974767  0.24548260  0.99313127  1
  Fe  Fe38  1  0.25355504  0.25045176  0.49991354  1
  Fe  Fe39  1  0.24980431  0.74719345  0.99063733  1
  Fe  Fe40  1  0.25481759  0.75109116  0.50232362  1
  Fe  Fe41  1  0.75384851  0.24924244  0.99858803  1
  Fe  Fe42  1  0.75404790  0.24998389  0.49960605  1
  Fe  Fe43  1  0.75471081  0.75057604  0.50132036  1
  Fe  Fe44  1  0.11639348  0.09816037  0.26084447  1
  Fe  Fe45  1  0.10700578  0.08929822  0.74853436  1
  Fe  Fe46  1  0.10482539  0.58981854  0.25234214  1
  Fe  Fe47  1  0.10722949  0.58911288  0.74873339  1
  Fe  Fe48  1  0.61534303  0.09441749  0.25729766  1
  Fe  Fe49  1  0.60692669  0.08970493  0.74846689  1
  Fe  Fe50  1  0.61395907  0.59053965  0.25283911  1
  Fe  Fe51  1  0.60560043  0.58832484  0.74742833  1
  Fe  Fe52  1  0.35957070  0.40926212  0.25252888  1
  Fe  Fe53  1  0.35686105  0.40865765  0.74925899  1
  Fe  Fe54  1  0.36814705  0.91215126  0.25639648  1
  Fe  Fe55  1  0.35709403  0.90839995  0.74718819  1
  Fe  Fe56  1  0.85788141  0.41052010  0.24968035  1
  Fe  Fe57  1  0.85595263  0.40920872  0.74681848  1
  Fe  Fe58  1  0.85942979  0.90750794  0.25657749  1
  Fe  Fe59  1  0.85615593  0.90913722  0.74565391  1
  Co  Co60  1  0.99799547  0.99612330  0.98733187  1
  Co  Co61  1  -0.00001371  0.49907562  0.99611464  1
  Co  Co62  1  0.49898262  0.99537640  0.98998289  1
  Co  Co63  1  0.74714845  0.74297930  0.98677083  1
  O  O64  1  0.12444683  0.12263985  0.49328882  1
  O  O65  1  0.11899791  0.12014280  0.98816437  1
  O  O66  1  0.12433820  0.62216920  0.49319616  1
  O  O67  1  0.12072742  0.62303777  0.98777252  1
  O  O68  1  0.62487904  0.12234516  0.49279273  1
  O  O69  1  0.62553946  0.12425074  0.98943222  1
  O  O70  1  0.62448856  0.62156279  0.49223161  1
  O  O71  1  0.61982053  0.61433159  0.98865577  1
  O  O72  1  0.12747057  0.37106499  0.00146917  1
  O  O73  1  0.13226405  0.38008724  0.51029492  1
  O  O74  1  0.12719172  0.87495718  0.99830802  1
  O  O75  1  0.13301990  0.87771270  0.50995756  1
  O  O76  1  0.62976805  0.37784374  0.00504910  1
  O  O77  1  0.63291959  0.37880359  0.50917186  1
  O  O78  1  0.63734854  0.86150351  0.00315205  1
  O  O79  1  0.63347578  0.87738775  0.50964269  1
  O  O80  1  0.37467153  0.11938910  0.49340839  1
  O  O81  1  0.36998712  0.12319958  0.98793689  1
  O  O82  1  0.37446438  0.61973842  0.49300238  1
  O  O83  1  0.37313628  0.61650430  0.98891061  1
  O  O84  1  0.87543940  0.11993208  0.49355982  1
  O  O85  1  0.87628508  0.12085225  0.98834122  1
  O  O86  1  0.87527412  0.61898025  0.49302092  1
  O  O87  1  0.86329495  0.62506630  0.98823710  1
  O  O88  1  0.38080437  0.37790006  0.00168883  1
  O  O89  1  0.38424979  0.38309100  0.51198432  1
  O  O90  1  0.38170825  0.87058289  0.00270534  1
  O  O91  1  0.38241264  0.88028744  0.50935755  1
  O  O92  1  0.87753811  0.37981604  0.00326476  1
  O  O93  1  0.88422326  0.38289077  0.51004086  1
  O  O94  1  0.88052958  0.88217249  0.99802468  1
  O  O95  1  0.88335003  0.88084387  0.51044100  1
  O  O96  1  0.08738080  0.11300973  0.15660407  1
  O  O97  1  0.08271182  0.09568352  0.64053613  1
  O  O98  1  0.07315263  0.59324560  0.14424379  1
  O  O99  1  0.08246153  0.59609345  0.64057422  1
  O  O100  1  0.58586644  0.10712938  0.15190976  1
  O  O101  1  0.58205855  0.09505379  0.63996094  1
  O  O102  1  0.58444699  0.59659075  0.14456340  1
  O  O103  1  0.58125592  0.59539175  0.63927620  1
  O  O104  1  0.43970405  0.40282875  0.36178960  1
  O  O105  1  0.44135333  0.40271582  0.85741480  1
  O  O106  1  0.44740832  0.90208122  0.36480371  1
  O  O107  1  0.44264854  0.89883254  0.85314244  1
  O  O108  1  0.94225660  0.40469882  0.35898607  1
  O  O109  1  0.93765654  0.39939275  0.85225432  1
  O  O110  1  0.94173454  0.90404530  0.36658999  1
  O  O111  1  0.94308323  0.89671655  0.84973060  1
  O  O112  1  0.33170402  0.30691878  0.14026577  1
  O  O113  1  0.33095133  0.29507591  0.64045856  1
  O  O114  1  0.33803198  0.80817396  0.14493989  1
  O  O115  1  0.33013037  0.79420799  0.63786047  1
  O  O116  1  0.83165381  0.30525542  0.13763426  1
  O  O117  1  0.83026247  0.29547014  0.63775165  1
  O  O118  1  0.82919888  0.79573423  0.14890034  1
  O  O119  1  0.82884696  0.79385817  0.63665273  1
  O  O120  1  0.19638755  0.21335557  0.36980886  1
  O  O121  1  0.18983590  0.20282862  0.85749440  1
  O  O122  1  0.19112491  0.70415405  0.36185202  1
  O  O123  1  0.19250016  0.70227815  0.85756945  1
  O  O124  1  0.70046606  0.20902550  0.36668088  1
  O  O125  1  0.68840527  0.20309733  0.85739289  1
  O  O126  1  0.69790816  0.70447635  0.36294537  1
  O  O127  1  0.68911929  0.70412021  0.85500990  1
  O  O128  1  0.44889999  0.06411260  0.26307950  1
  O  O129  1  0.43439778  0.05929936  0.74783467  1
  O  O130  1  0.44729911  0.55937175  0.26015446  1
  O  O131  1  0.43419029  0.55839502  0.74834068  1
  O  O132  1  0.94854594  0.05540880  0.26193699  1
  O  O133  1  0.93422492  0.06049620  0.74742209  1
  O  O134  1  0.93205139  0.56354259  0.25261897  1
  O  O135  1  0.93510920  0.56012795  0.74803177  1
  O  O136  1  0.18677635  0.44078109  0.25134235  1
  O  O137  1  0.18467502  0.43888604  0.74949759  1
  O  O138  1  0.20163866  0.95212650  0.26139656  1
  O  O139  1  0.18527899  0.93894418  0.74850588  1
  O  O140  1  0.68608959  0.43671414  0.25036459  1
  O  O141  1  0.68349701  0.43907371  0.74816975  1
  O  O142  1  0.68703509  0.94031156  0.25336394  1
  O  O143  1  0.68472382  0.93945818  0.74842887  1
