# generated using pymatgen
data_SrBiS2F
_symmetry_space_group_name_H-M   'P 1'
_cell_length_a   4.06504541
_cell_length_b   4.06504541
_cell_length_c   14.25333276
_cell_angle_alpha   90.00000000
_cell_angle_beta   90.00000000
_cell_angle_gamma   90.00000000
_symmetry_Int_Tables_number   1
_chemical_formula_structural   SrBiS2F
_chemical_formula_sum   'Sr2 Bi2 S4 F2'
_cell_volume   235.53053965
_cell_formula_units_Z   2
loop_
 _symmetry_equiv_pos_site_id
 _symmetry_equiv_pos_as_xyz
  1  'x, y, z'
loop_
 _atom_site_type_symbol
 _atom_site_label
 _atom_site_symmetry_multiplicity
 _atom_site_fract_x
 _atom_site_fract_y
 _atom_site_fract_z
 _atom_site_occupancy
  Sr  Sr0  1  0.75000000  0.75000000  0.89714346  1
  Sr  Sr1  1  0.25000000  0.25000000  0.10285654  1
  Bi  Bi2  1  0.75000000  0.75000000  0.36716270  1
  Bi  Bi3  1  0.25000000  0.25000000  0.63283730  1
  S  S4  1  0.75000000  0.75000000  0.61097143  1
  S  S5  1  0.25000000  0.25000000  0.38902857  1
  S  S6  1  0.75000000  0.75000000  0.19083102  1
  S  S7  1  0.25000000  0.25000000  0.80916898  1
  F  F8  1  0.75000000  0.25000000  -0.00000000  1
  F  F9  1  0.25000000  0.75000000  -0.00000000  1
