# generated using pymatgen
data_Li3Cd
_symmetry_space_group_name_H-M   'P 1'
_cell_length_a   3.15848360
_cell_length_b   3.15848360
_cell_length_c   9.58277211
_cell_angle_alpha   90.00000000
_cell_angle_beta   80.51437790
_cell_angle_gamma   120.00000000
_symmetry_Int_Tables_number   1
_chemical_formula_structural   Li3Cd
_chemical_formula_sum   'Li3 Cd1'
_cell_volume   81.27739561
_cell_formula_units_Z   1
loop_
 _symmetry_equiv_pos_site_id
 _symmetry_equiv_pos_as_xyz
  1  'x, y, z'
loop_
 _atom_site_type_symbol
 _atom_site_label
 _atom_site_symmetry_multiplicity
 _atom_site_fract_x
 _atom_site_fract_y
 _atom_site_fract_z
 _atom_site_occupancy
  Li  Li0  1  0.50232786  0.25116393  0.24650821  1
  Li  Li1  1  0.00000000  0.50000000  0.50000000  1
  Li  Li2  1  0.49767214  0.74883607  0.75349179  1
  Cd  Cd3  1  0.00000000  0.00000000  0.00000000  1
