# generated using pymatgen
data_K5Na3Ta7NbO24
_symmetry_space_group_name_H-M   'P 1'
_cell_length_a   8.02436580
_cell_length_b   8.02436580
_cell_length_c   8.02353633
_cell_angle_alpha   90.00153815
_cell_angle_beta   90.00153815
_cell_angle_gamma   90.00134249
_symmetry_Int_Tables_number   1
_chemical_formula_structural   K5Na3Ta7NbO24
_chemical_formula_sum   'K5 Na3 Ta7 Nb1 O24'
_cell_volume   516.63908648
_cell_formula_units_Z   1
loop_
 _symmetry_equiv_pos_site_id
 _symmetry_equiv_pos_as_xyz
  1  'x, y, z'
loop_
 _atom_site_type_symbol
 _atom_site_label
 _atom_site_symmetry_multiplicity
 _atom_site_fract_x
 _atom_site_fract_y
 _atom_site_fract_z
 _atom_site_occupancy
  K  K0  1  0.25004961  0.25004961  0.25004958  1
  K  K1  1  0.25004172  0.74994235  0.25004802  1
  K  K2  1  0.74994235  0.25004172  0.25004802  1
  K  K3  1  0.74995979  0.74995979  0.25004060  1
  K  K4  1  0.74995013  0.74995013  0.74994867  1
  Na  Na5  1  0.25000760  0.25000760  0.74999183  1
  Na  Na6  1  0.25000813  0.74999207  0.74999275  1
  Na  Na7  1  0.74999207  0.25000813  0.74999275  1
  Ta  Ta8  1  0.00023001  0.00023001  0.99930293  1
  Ta  Ta9  1  0.00023039  0.00023039  0.50069957  1
  Ta  Ta10  1  0.00022715  0.49977069  0.99930763  1
  Ta  Ta11  1  0.00023024  0.49977058  0.50069636  1
  Ta  Ta12  1  0.49977069  0.00022715  0.99930763  1
  Ta  Ta13  1  0.49977058  0.00023024  0.50069636  1
  Ta  Ta14  1  0.49976927  0.49976927  0.99930822  1
  Nb  Nb15  1  0.49978300  0.49978300  0.50066648  1
  O  O16  1  0.24999466  0.00008600  0.99837846  1
  O  O17  1  0.24991251  0.00008412  0.50162799  1
  O  O18  1  0.24991500  0.49991673  0.99837127  1
  O  O19  1  0.24895995  0.49992034  0.50161576  1
  O  O20  1  0.75000641  0.00077694  0.99904927  1
  O  O21  1  0.75008915  0.00077974  0.50095017  1
  O  O22  1  0.75008882  0.49922113  0.99904934  1
  O  O23  1  0.75105584  0.49922636  0.50093839  1
  O  O24  1  0.00008600  0.24999466  0.99837846  1
  O  O25  1  0.00008412  0.24991251  0.50162799  1
  O  O26  1  0.00077694  0.75000641  0.99904927  1
  O  O27  1  0.00077974  0.75008915  0.50095017  1
  O  O28  1  0.49991673  0.24991500  0.99837127  1
  O  O29  1  0.49992034  0.24895995  0.50161576  1
  O  O30  1  0.49922113  0.75008882  0.99904934  1
  O  O31  1  0.49922636  0.75105584  0.50093839  1
  O  O32  1  0.00008857  0.00008857  0.24999465  1
  O  O33  1  0.00076092  0.00076092  0.75000575  1
  O  O34  1  0.00008703  0.49991079  0.24990881  1
  O  O35  1  0.00076430  0.49923677  0.75008431  1
  O  O36  1  0.49991079  0.00008703  0.24990881  1
  O  O37  1  0.49923677  0.00076430  0.75008431  1
  O  O38  1  0.49991384  0.49991384  0.24893347  1
  O  O39  1  0.49924140  0.49924140  0.75102118  1
