# generated using pymatgen
data_TiCu2
_symmetry_space_group_name_H-M   'P 1'
_cell_length_a   4.46414371
_cell_length_b   4.51227508
_cell_length_c   4.58639104
_cell_angle_alpha   119.46685674
_cell_angle_beta   90.00000000
_cell_angle_gamma   90.00000000
_symmetry_Int_Tables_number   1
_chemical_formula_structural   TiCu2
_chemical_formula_sum   'Ti2 Cu4'
_cell_volume   80.43473391
_cell_formula_units_Z   2
loop_
 _symmetry_equiv_pos_site_id
 _symmetry_equiv_pos_as_xyz
  1  'x, y, z'
loop_
 _atom_site_type_symbol
 _atom_site_label
 _atom_site_symmetry_multiplicity
 _atom_site_fract_x
 _atom_site_fract_y
 _atom_site_fract_z
 _atom_site_occupancy
  Ti  Ti0  1  0.75000000  0.77384851  -0.00000000  1
  Ti  Ti1  1  0.25000000  0.22615149  -0.00000000  1
  Cu  Cu2  1  0.75000000  0.45735844  0.34424332  1
  Cu  Cu3  1  0.25000000  0.88688488  0.34424332  1
  Cu  Cu4  1  0.25000000  0.54264156  0.65575668  1
  Cu  Cu5  1  0.75000000  0.11311512  0.65575668  1
