# generated using pymatgen
data_MgCu(PO3)4
_symmetry_space_group_name_H-M   'P 1'
_cell_length_a   7.28721522
_cell_length_b   7.29011372
_cell_length_c   9.82875225
_cell_angle_alpha   98.63407475
_cell_angle_beta   109.88345160
_cell_angle_gamma   109.83943470
_symmetry_Int_Tables_number   1
_chemical_formula_structural   MgCu(PO3)4
_chemical_formula_sum   'Mg2 Cu2 P8 O24'
_cell_volume   440.57427066
_cell_formula_units_Z   2
loop_
 _symmetry_equiv_pos_site_id
 _symmetry_equiv_pos_as_xyz
  1  'x, y, z'
loop_
 _atom_site_type_symbol
 _atom_site_label
 _atom_site_symmetry_multiplicity
 _atom_site_fract_x
 _atom_site_fract_y
 _atom_site_fract_z
 _atom_site_occupancy
  Mg  Mg0  1  0.70060654  0.95145439  0.74965056  1
  Mg  Mg1  1  0.29928479  0.04934313  0.25002635  1
  Cu  Cu2  1  0.49960372  0.50022608  0.49947622  1
  Cu  Cu3  1  0.49925358  0.00041373  0.99924953  1
  P  P4  1  0.50969063  0.31660467  0.80360568  1
  P  P5  1  0.01019412  0.70485699  0.69522065  1
  P  P6  1  0.49011816  0.68559386  0.19605275  1
  P  P7  1  0.98864773  0.29417508  0.30337037  1
  P  P8  1  0.76935803  0.73237524  0.02289258  1
  P  P9  1  0.20841657  0.74654532  0.47745810  1
  P  P10  1  0.23058685  0.26982747  0.97677480  1
  P  P11  1  0.79074338  0.25300705  0.52149133  1
  O  O12  1  0.31841552  0.31652189  0.84971576  1
  O  O13  1  0.96520432  0.46772859  0.64869832  1
  O  O14  1  0.68200072  0.68645642  0.15031574  1
  O  O15  1  0.03535620  0.53152074  0.35042607  1
  O  O16  1  0.72114377  0.50604227  0.93302315  1
  O  O17  1  0.07038322  0.78783111  0.56622144  1
  O  O18  1  0.27889286  0.49612325  0.06678110  1
  O  O19  1  0.92690232  0.21019185  0.43166924  1
  O  O20  1  0.46015182  0.34637543  0.65105996  1
  O  O21  1  0.19303544  0.80855112  0.84792496  1
  O  O22  1  0.53897000  0.65578211  0.34861411  1
  O  O23  1  0.80567625  0.19234043  0.15054752  1
  O  O24  1  0.54445555  0.12582172  0.82235591  1
  O  O25  1  0.80068270  0.72020241  0.67633794  1
  O  O26  1  0.45510261  0.87623364  0.17703763  1
  O  O27  1  0.19789338  0.27802992  0.32259725  1
  O  O28  1  0.63166936  0.81376473  0.91652665  1
  O  O29  1  0.39616923  0.71641641  0.58396957  1
  O  O30  1  0.36807058  0.18803810  0.08291710  1
  O  O31  1  0.60350431  0.28446709  0.41565678  1
  O  O32  1  0.00454047  0.84981506  0.09737249  1
  O  O33  1  0.25020882  0.90725110  0.40227546  1
  O  O34  1  0.99532065  0.15254423  0.90188366  1
  O  O35  1  0.74813082  0.09237137  0.59663528  1
