# generated using pymatgen
data_HfSiRu
_symmetry_space_group_name_H-M   'P 1'
_cell_length_a   3.69892257
_cell_length_b   6.66628052
_cell_length_c   6.66504593
_cell_angle_alpha   120.00612508
_cell_angle_beta   90.00000000
_cell_angle_gamma   90.00000000
_symmetry_Int_Tables_number   1
_chemical_formula_structural   HfSiRu
_chemical_formula_sum   'Hf3 Si3 Ru3'
_cell_volume   142.31995412
_cell_formula_units_Z   3
loop_
 _symmetry_equiv_pos_site_id
 _symmetry_equiv_pos_as_xyz
  1  'x, y, z'
loop_
 _atom_site_type_symbol
 _atom_site_label
 _atom_site_symmetry_multiplicity
 _atom_site_fract_x
 _atom_site_fract_y
 _atom_site_fract_z
 _atom_site_occupancy
  Hf  Hf0  1  0.50000000  0.58656139  1.00000000  1
  Hf  Hf1  1  0.50000000  0.41347460  0.41348452  1
  Hf  Hf2  1  0.50000000  0.99999009  0.58651548  1
  Si  Si3  1  -0.00000000  0.33331891  0.66662782  1
  Si  Si4  1  -0.00000000  0.66669109  0.33337218  1
  Si  Si5  1  0.50000000  0.99991767  0.00000000  1
  Ru  Ru6  1  0.00000000  0.24586684  1.00000000  1
  Ru  Ru7  1  0.00000000  0.75409704  0.75411468  1
  Ru  Ru8  1  0.00000000  0.99998236  0.24588532  1
