# generated using pymatgen
data_FeB4
_symmetry_space_group_name_H-M   'P 1'
_cell_length_a   3.00450668
_cell_length_b   4.52051726
_cell_length_c   5.28987320
_cell_angle_alpha   90.00000000
_cell_angle_beta   90.00000000
_cell_angle_gamma   90.00000000
_symmetry_Int_Tables_number   1
_chemical_formula_structural   FeB4
_chemical_formula_sum   'Fe2 B8'
_cell_volume   71.84665738
_cell_formula_units_Z   2
loop_
 _symmetry_equiv_pos_site_id
 _symmetry_equiv_pos_as_xyz
  1  'x, y, z'
loop_
 _atom_site_type_symbol
 _atom_site_label
 _atom_site_symmetry_multiplicity
 _atom_site_fract_x
 _atom_site_fract_y
 _atom_site_fract_z
 _atom_site_occupancy
  Fe  Fe0  1  0.50000000  0.50000000  0.50000000  1
  Fe  Fe1  1  0.00000000  0.00000000  -0.00000000  1
  B  B2  1  0.50000000  0.74915721  0.18764492  1
  B  B3  1  0.50000000  0.25084279  0.81235508  1
  B  B4  1  -0.00000000  0.24915721  0.31235508  1
  B  B5  1  0.00000000  0.75084279  0.68764492  1
  B  B6  1  0.00000000  0.83983336  0.37381035  1
  B  B7  1  -0.00000000  0.16016664  0.62618965  1
  B  B8  1  0.50000000  0.33983336  0.12618965  1
  B  B9  1  0.50000000  0.66016664  0.87381035  1
