# generated using pymatgen
data_Ba2CeNbO6
_symmetry_space_group_name_H-M   'P 1'
_cell_length_a   6.10648765
_cell_length_b   6.10344218
_cell_length_c   6.12600207
_cell_angle_alpha   60.53894089
_cell_angle_beta   60.10532466
_cell_angle_gamma   59.98349743
_symmetry_Int_Tables_number   1
_chemical_formula_structural   Ba2CeNbO6
_chemical_formula_sum   'Ba2 Ce1 Nb1 O6'
_cell_volume   162.20297832
_cell_formula_units_Z   1
loop_
 _symmetry_equiv_pos_site_id
 _symmetry_equiv_pos_as_xyz
  1  'x, y, z'
loop_
 _atom_site_type_symbol
 _atom_site_label
 _atom_site_symmetry_multiplicity
 _atom_site_fract_x
 _atom_site_fract_y
 _atom_site_fract_z
 _atom_site_occupancy
  Ba  Ba0  1  0.75124454  0.75234547  0.74516545  1
  Ba  Ba1  1  0.24875546  0.24765453  0.25483455  1
  Ce  Ce2  1  -0.00000000  0.00000000  -0.00000000  1
  Nb  Nb3  1  0.50000000  0.50000000  0.50000000  1
  O  O4  1  0.73480376  0.31812432  0.21226815  1
  O  O5  1  0.26519624  0.68187568  0.78773185  1
  O  O6  1  0.29120660  0.23787224  0.70583624  1
  O  O7  1  0.23491508  0.76212776  0.29416376  1
  O  O8  1  0.70879340  0.76212776  0.29416376  1
  O  O9  1  0.76508492  0.23787224  0.70583624  1
