# generated using pymatgen
data_ErAgS2
_symmetry_space_group_name_H-M   'P 1'
_cell_length_a   5.39726466
_cell_length_b   5.39726466
_cell_length_c   7.10789387
_cell_angle_alpha   112.31304918
_cell_angle_beta   112.31304918
_cell_angle_gamma   90.00000000
_symmetry_Int_Tables_number   1
_chemical_formula_structural   ErAgS2
_chemical_formula_sum   'Er2 Ag2 S4'
_cell_volume   174.67820484
_cell_formula_units_Z   2
loop_
 _symmetry_equiv_pos_site_id
 _symmetry_equiv_pos_as_xyz
  1  'x, y, z'
loop_
 _atom_site_type_symbol
 _atom_site_label
 _atom_site_symmetry_multiplicity
 _atom_site_fract_x
 _atom_site_fract_y
 _atom_site_fract_z
 _atom_site_occupancy
  Er  Er0  1  0.25141958  0.75141958  0.50283915  1
  Er  Er1  1  0.00141958  0.00141958  0.00283915  1
  Ag  Ag2  1  0.71903444  0.21903444  0.43806889  1
  Ag  Ag3  1  0.46903444  0.46903444  0.93806889  1
  S  S4  1  0.48187166  0.98187166  0.96374332  1
  S  S5  1  0.23187166  0.23187166  0.46374332  1
  S  S6  1  0.02628432  0.52628432  0.05256863  1
  S  S7  1  0.77628432  0.77628432  0.55256863  1
