# generated using pymatgen
data_LiNbWO6
_symmetry_space_group_name_H-M   'P 1'
_cell_length_a   7.38963418
_cell_length_b   7.38963418
_cell_length_c   7.38963418
_cell_angle_alpha   90.11793785
_cell_angle_beta   60.33960140
_cell_angle_gamma   120.47751766
_symmetry_Int_Tables_number   1
_chemical_formula_structural   LiNbWO6
_chemical_formula_sum   'Li2 Nb2 W2 O12'
_cell_volume   285.01797304
_cell_formula_units_Z   2
loop_
 _symmetry_equiv_pos_site_id
 _symmetry_equiv_pos_as_xyz
  1  'x, y, z'
loop_
 _atom_site_type_symbol
 _atom_site_label
 _atom_site_symmetry_multiplicity
 _atom_site_fract_x
 _atom_site_fract_y
 _atom_site_fract_z
 _atom_site_occupancy
  Li  Li0  1  0.75000000  0.37500000  0.87500000  1
  Li  Li1  1  0.25000000  0.37500000  0.37500000  1
  Nb  Nb2  1  0.25000000  0.37500000  0.87500000  1
  Nb  Nb3  1  0.75000000  0.87500000  0.87500000  1
  W  W4  1  0.75000000  0.87500000  0.37500000  1
  W  W5  1  0.25000000  0.87500000  0.87500000  1
  O  O6  1  0.88039249  0.94233639  0.55570258  1
  O  O7  1  0.50196103  0.56390493  0.55570258  1
  O  O8  1  0.50000000  0.93074093  0.56925907  1
  O  O9  1  0.11960751  0.56390493  0.93805610  1
  O  O10  1  0.49803897  0.94233639  0.93805610  1
  O  O11  1  0.50000000  0.54714228  0.95285772  1
  O  O12  1  0.61960751  0.80766361  0.19429742  1
  O  O13  1  0.99803897  0.18609507  0.19429742  1
  O  O14  1  0.00000000  0.81925907  0.18074093  1
  O  O15  1  0.38039249  0.18609507  0.81194390  1
  O  O16  1  0.00196103  0.80766361  0.81194390  1
  O  O17  1  0.00000000  0.20285772  0.79714228  1
