# generated using pymatgen
data_TmSb(PbO3)2
_symmetry_space_group_name_H-M   'P 1'
_cell_length_a   8.28715399
_cell_length_b   5.89534733
_cell_length_c   5.94055756
_cell_angle_alpha   90.00000000
_cell_angle_beta   90.63481011
_cell_angle_gamma   90.00000000
_symmetry_Int_Tables_number   1
_chemical_formula_structural   TmSb(PbO3)2
_chemical_formula_sum   'Tm2 Sb2 Pb4 O12'
_cell_volume   290.21199441
_cell_formula_units_Z   2
loop_
 _symmetry_equiv_pos_site_id
 _symmetry_equiv_pos_as_xyz
  1  'x, y, z'
loop_
 _atom_site_type_symbol
 _atom_site_label
 _atom_site_symmetry_multiplicity
 _atom_site_fract_x
 _atom_site_fract_y
 _atom_site_fract_z
 _atom_site_occupancy
  Tm  Tm0  1  0.50000000  0.50000000  0.50000000  1
  Tm  Tm1  1  -0.00000000  -0.00000000  -0.00000000  1
  Sb  Sb2  1  -0.00000000  0.50000000  0.50000000  1
  Sb  Sb3  1  0.50000000  0.00000000  -0.00000000  1
  Pb  Pb4  1  0.24678084  0.99620300  0.51434405  1
  Pb  Pb5  1  0.74678084  0.50379700  0.01434405  1
  Pb  Pb6  1  0.75321916  0.00379700  0.48565595  1
  Pb  Pb7  1  0.25321916  0.49620300  0.98565595  1
  O  O8  1  0.73675254  0.99859505  0.92893350  1
  O  O9  1  0.23675254  0.50140495  0.42893350  1
  O  O10  1  0.26324746  0.00140495  0.07106650  1
  O  O11  1  0.76324746  0.49859505  0.57106650  1
  O  O12  1  0.45759218  0.76216583  0.76145776  1
  O  O13  1  0.95759218  0.73783417  0.26145776  1
  O  O14  1  0.54240782  0.23783417  0.23854224  1
  O  O15  1  0.04240782  0.26216583  0.73854224  1
  O  O16  1  0.45915887  0.24382874  0.76761910  1
  O  O17  1  0.95915887  0.25617126  0.26761910  1
  O  O18  1  0.54084113  0.75617126  0.23238090  1
  O  O19  1  0.04084113  0.74382874  0.73238090  1
