# generated using pymatgen
data_LiMg5
_symmetry_space_group_name_H-M   'P 1'
_cell_length_a   5.12473492
_cell_length_b   3.16770433
_cell_length_c   16.53231316
_cell_angle_alpha   90.00000000
_cell_angle_beta   90.00000000
_cell_angle_gamma   90.00000000
_symmetry_Int_Tables_number   1
_chemical_formula_structural   LiMg5
_chemical_formula_sum   'Li2 Mg10'
_cell_volume   268.37970281
_cell_formula_units_Z   2
loop_
 _symmetry_equiv_pos_site_id
 _symmetry_equiv_pos_as_xyz
  1  'x, y, z'
loop_
 _atom_site_type_symbol
 _atom_site_label
 _atom_site_symmetry_multiplicity
 _atom_site_fract_x
 _atom_site_fract_y
 _atom_site_fract_z
 _atom_site_occupancy
  Li  Li0  1  0.50000000  0.50000000  0.72230562  1
  Li  Li1  1  0.50000000  0.00000000  0.22230562  1
  Mg  Mg2  1  0.00000000  0.00000000  0.00002954  1
  Mg  Mg3  1  0.00000000  -0.00000000  0.66755631  1
  Mg  Mg4  1  -0.00000000  0.50000000  0.83232428  1
  Mg  Mg5  1  0.50000000  -0.00000000  0.88776025  1
  Mg  Mg6  1  0.50000000  0.00000000  0.55669101  1
  Mg  Mg7  1  0.00000000  0.50000000  0.50002954  1
  Mg  Mg8  1  -0.00000000  0.50000000  0.16755631  1
  Mg  Mg9  1  -0.00000000  0.00000000  0.33232428  1
  Mg  Mg10  1  0.50000000  0.50000000  0.38776025  1
  Mg  Mg11  1  0.50000000  0.50000000  0.05669101  1
