# generated using pymatgen
data_SbPtSe
_symmetry_space_group_name_H-M   'P 1'
_cell_length_a   6.43156519
_cell_length_b   6.43156519
_cell_length_c   6.43156519
_cell_angle_alpha   90.00000000
_cell_angle_beta   90.00000000
_cell_angle_gamma   90.00000000
_symmetry_Int_Tables_number   1
_chemical_formula_structural   SbPtSe
_chemical_formula_sum   'Sb4 Pt4 Se4'
_cell_volume   266.04189213
_cell_formula_units_Z   4
loop_
 _symmetry_equiv_pos_site_id
 _symmetry_equiv_pos_as_xyz
  1  'x, y, z'
loop_
 _atom_site_type_symbol
 _atom_site_label
 _atom_site_symmetry_multiplicity
 _atom_site_fract_x
 _atom_site_fract_y
 _atom_site_fract_z
 _atom_site_occupancy
  Sb  Sb0  1  0.88025825  0.38025825  0.11974175  1
  Sb  Sb1  1  0.38025825  0.11974175  0.88025825  1
  Sb  Sb2  1  0.11974175  0.88025825  0.38025825  1
  Sb  Sb3  1  0.61974175  0.61974175  0.61974175  1
  Pt  Pt4  1  0.49812279  0.99812279  0.50187721  1
  Pt  Pt5  1  0.99812279  0.50187721  0.49812279  1
  Pt  Pt6  1  0.50187721  0.49812279  0.99812279  1
  Pt  Pt7  1  0.00187721  0.00187721  0.00187721  1
  Se  Se8  1  0.12260957  0.62260957  0.87739043  1
  Se  Se9  1  0.62260957  0.87739043  0.12260957  1
  Se  Se10  1  0.87739043  0.12260957  0.62260957  1
  Se  Se11  1  0.37739043  0.37739043  0.37739043  1
