# generated using pymatgen
data_EuMg2
_symmetry_space_group_name_H-M   'P 1'
_cell_length_a   6.23676347
_cell_length_b   6.23676347
_cell_length_c   10.42245105
_cell_angle_alpha   90.00000000
_cell_angle_beta   90.00000000
_cell_angle_gamma   119.83276859
_symmetry_Int_Tables_number   1
_chemical_formula_structural   EuMg2
_chemical_formula_sum   'Eu4 Mg8'
_cell_volume   351.68060983
_cell_formula_units_Z   4
loop_
 _symmetry_equiv_pos_site_id
 _symmetry_equiv_pos_as_xyz
  1  'x, y, z'
loop_
 _atom_site_type_symbol
 _atom_site_label
 _atom_site_symmetry_multiplicity
 _atom_site_fract_x
 _atom_site_fract_y
 _atom_site_fract_z
 _atom_site_occupancy
  Eu  Eu0  1  0.66674511  0.33325489  0.56092767  1
  Eu  Eu1  1  0.33325489  0.66674511  0.43907233  1
  Eu  Eu2  1  0.33325489  0.66674511  0.06092767  1
  Eu  Eu3  1  0.66674511  0.33325489  0.93907233  1
  Mg  Mg4  1  -0.00000000  0.00000000  0.50000000  1
  Mg  Mg5  1  -0.00000000  0.00000000  0.00000000  1
  Mg  Mg6  1  0.16808807  0.33620703  0.75000000  1
  Mg  Mg7  1  0.16814125  0.83185875  0.75000000  1
  Mg  Mg8  1  0.66379297  0.83191193  0.75000000  1
  Mg  Mg9  1  0.83191193  0.66379297  0.25000000  1
  Mg  Mg10  1  0.83185875  0.16814125  0.25000000  1
  Mg  Mg11  1  0.33620703  0.16808807  0.25000000  1
