# generated using pymatgen
data_Li9Mn3N4
_symmetry_space_group_name_H-M   'P 1'
_cell_length_a   3.73210529
_cell_length_b   5.35602557
_cell_length_c   10.03993447
_cell_angle_alpha   80.64510781
_cell_angle_beta   90.00000617
_cell_angle_gamma   110.38962720
_symmetry_Int_Tables_number   1
_chemical_formula_structural   Li9Mn3N4
_chemical_formula_sum   'Li9 Mn3 N4'
_cell_volume   185.26634485
_cell_formula_units_Z   1
loop_
 _symmetry_equiv_pos_site_id
 _symmetry_equiv_pos_as_xyz
  1  'x, y, z'
loop_
 _atom_site_type_symbol
 _atom_site_label
 _atom_site_symmetry_multiplicity
 _atom_site_fract_x
 _atom_site_fract_y
 _atom_site_fract_z
 _atom_site_occupancy
  Li  Li0  1  0.67208592  0.34418783  0.33497126  1
  Li  Li1  1  0.91776384  0.83557609  0.58278322  1
  Li  Li2  1  0.16386245  0.32775718  0.83369196  1
  Li  Li3  1  0.41304784  0.82611251  0.08153771  1
  Li  Li4  1  0.33218775  0.66442391  0.66721678  1
  Li  Li5  1  0.57789809  0.15581217  0.91502874  1
  Li  Li6  1  0.83693533  0.67388749  0.16846229  1
  Li  Li7  1  0.08610527  0.17224282  0.41630804  1
  Li  Li8  1  0.12500979  0.25000000  0.12500000  1
  Mn  Mn9  1  0.37004735  0.74014055  0.37820949  1
  Mn  Mn10  1  0.62481290  0.25000000  0.62500000  1
  Mn  Mn11  1  0.87990680  0.75985945  0.87179051  1
  N  N12  1  0.50081867  0.00168475  0.49893170  1
  N  N13  1  0.74913392  0.49831525  0.75106830  1
  N  N14  1  0.99762790  0.99527172  0.99953091  1
  N  N15  1  0.25235617  0.50472828  0.25046909  1
