# generated using pymatgen
data_Ga2PbSe4
_symmetry_space_group_name_H-M   'P 1'
_cell_length_a   6.33507347
_cell_length_b   6.33507347
_cell_length_c   11.06415544
_cell_angle_alpha   90.00000000
_cell_angle_beta   90.00000000
_cell_angle_gamma   119.89642396
_symmetry_Int_Tables_number   1
_chemical_formula_structural   Ga2PbSe4
_chemical_formula_sum   'Ga4 Pb2 Se8'
_cell_volume   384.95019113
_cell_formula_units_Z   2
loop_
 _symmetry_equiv_pos_site_id
 _symmetry_equiv_pos_as_xyz
  1  'x, y, z'
loop_
 _atom_site_type_symbol
 _atom_site_label
 _atom_site_symmetry_multiplicity
 _atom_site_fract_x
 _atom_site_fract_y
 _atom_site_fract_z
 _atom_site_occupancy
  Ga  Ga0  1  0.76014606  0.23691867  0.50000000  1
  Ga  Ga1  1  0.23985394  0.76308133  0.50000000  1
  Ga  Ga2  1  0.76308133  0.23985394  0.00000000  1
  Ga  Ga3  1  0.23691867  0.76014606  0.00000000  1
  Pb  Pb4  1  0.50000000  0.50000000  0.25000000  1
  Pb  Pb5  1  0.50000000  0.50000000  0.75000000  1
  Se  Se6  1  0.81152586  0.65182272  0.50000000  1
  Se  Se7  1  0.18847414  0.34817728  0.50000000  1
  Se  Se8  1  0.34817728  0.18847414  -0.00000000  1
  Se  Se9  1  0.65182272  0.81152586  -0.00000000  1
  Se  Se10  1  0.00000000  0.50000000  0.17007400  1
  Se  Se11  1  0.50000000  -0.00000000  0.32992600  1
  Se  Se12  1  0.00000000  0.50000000  0.82992600  1
  Se  Se13  1  0.50000000  -0.00000000  0.67007400  1
