# generated using pymatgen
data_Sr(BS2)2
_symmetry_space_group_name_H-M   'P 1'
_cell_length_a   8.96964077
_cell_length_b   8.96964078
_cell_length_c   8.96964078
_cell_angle_alpha   58.05695964
_cell_angle_beta   58.05695967
_cell_angle_gamma   58.05695966
_symmetry_Int_Tables_number   1
_chemical_formula_structural   Sr(BS2)2
_chemical_formula_sum   'Sr3 B6 S12'
_cell_volume   487.54504675
_cell_formula_units_Z   3
loop_
 _symmetry_equiv_pos_site_id
 _symmetry_equiv_pos_as_xyz
  1  'x, y, z'
loop_
 _atom_site_type_symbol
 _atom_site_label
 _atom_site_symmetry_multiplicity
 _atom_site_fract_x
 _atom_site_fract_y
 _atom_site_fract_z
 _atom_site_occupancy
  B  B0  1  0.76403334  0.61335511  0.36566009  1
  B  B1  1  0.61335511  0.36566009  0.76403334  1
  B  B2  1  0.36566009  0.76403334  0.61335511  1
  B  B3  1  0.63433991  0.23596666  0.38664489  1
  B  B4  1  0.23596666  0.38664489  0.63433991  1
  B  B5  1  0.38664489  0.63433991  0.23596666  1
  S  S6  1  0.04782307  0.37384784  0.85610086  1
  S  S7  1  0.62615216  0.14389914  0.95217693  1
  S  S8  1  0.14389914  0.95217693  0.62615216  1
  S  S9  1  0.44971324  0.18512570  0.61124531  1
  S  S10  1  0.61124531  0.44971324  0.18512570  1
  S  S11  1  0.18512570  0.61124531  0.44971324  1
  S  S12  1  0.55028676  0.81487430  0.38875469  1
  S  S13  1  0.38875469  0.55028676  0.81487430  1
  S  S14  1  0.81487430  0.38875469  0.55028676  1
  S  S15  1  0.85610086  0.04782307  0.37384784  1
  S  S16  1  0.95217693  0.62615216  0.14389914  1
  S  S17  1  0.37384784  0.85610086  0.04782307  1
  Sr  Sr18  1  0.80910628  0.80910628  0.80910628  1
  Sr  Sr19  1  0.19089372  0.19089372  0.19089372  1
  Sr  Sr20  1  0.00000000  0.00000000  0.00000000  1
