# generated using pymatgen
data_NbCo2
_symmetry_space_group_name_H-M   'P 1'
_cell_length_a   4.78160297
_cell_length_b   4.78160297
_cell_length_c   7.76508439
_cell_angle_alpha   90.00000000
_cell_angle_beta   90.00000000
_cell_angle_gamma   120.00190597
_symmetry_Int_Tables_number   1
_chemical_formula_structural   NbCo2
_chemical_formula_sum   'Nb4 Co8'
_cell_volume   153.75013153
_cell_formula_units_Z   4
loop_
 _symmetry_equiv_pos_site_id
 _symmetry_equiv_pos_as_xyz
  1  'x, y, z'
loop_
 _atom_site_type_symbol
 _atom_site_label
 _atom_site_symmetry_multiplicity
 _atom_site_fract_x
 _atom_site_fract_y
 _atom_site_fract_z
 _atom_site_occupancy
  Nb  Nb0  1  0.66665864  0.33334136  0.56409125  1
  Nb  Nb1  1  0.33334136  0.66665864  0.43590875  1
  Nb  Nb2  1  0.33334136  0.66665864  0.06409125  1
  Nb  Nb3  1  0.66665864  0.33334136  0.93590875  1
  Co  Co4  1  0.00000000  -0.00000000  0.50000000  1
  Co  Co5  1  0.00000000  -0.00000000  -0.00000000  1
  Co  Co6  1  0.16870687  0.33745188  0.75000000  1
  Co  Co7  1  0.16881754  0.83118246  0.75000000  1
  Co  Co8  1  0.66254812  0.83129313  0.75000000  1
  Co  Co9  1  0.83129313  0.66254812  0.25000000  1
  Co  Co10  1  0.83118246  0.16881754  0.25000000  1
  Co  Co11  1  0.33745188  0.16870687  0.25000000  1
