# generated using pymatgen
data_Er(CrGe)6
_symmetry_space_group_name_H-M   'P 1'
_cell_length_a   5.10088570
_cell_length_b   5.10146139
_cell_length_c   8.30576340
_cell_angle_alpha   90.00000000
_cell_angle_beta   90.00000000
_cell_angle_gamma   119.99627485
_symmetry_Int_Tables_number   1
_chemical_formula_structural   Er(CrGe)6
_chemical_formula_sum   'Er1 Cr6 Ge6'
_cell_volume   187.18312099
_cell_formula_units_Z   1
loop_
 _symmetry_equiv_pos_site_id
 _symmetry_equiv_pos_as_xyz
  1  'x, y, z'
loop_
 _atom_site_type_symbol
 _atom_site_label
 _atom_site_symmetry_multiplicity
 _atom_site_fract_x
 _atom_site_fract_y
 _atom_site_fract_z
 _atom_site_occupancy
  Er  Er0  1  0.99997102  1.00000000  0.00000000  1
  Cr  Cr1  1  0.49999745  0.00000000  0.25025268  1
  Cr  Cr2  1  0.49998953  0.50000400  0.25025459  1
  Cr  Cr3  1  0.99998553  0.49999600  0.25025459  1
  Cr  Cr4  1  0.49999745  0.00000000  0.74974732  1
  Cr  Cr5  1  0.49998953  0.50000400  0.74974541  1
  Cr  Cr6  1  0.99998553  0.49999600  0.74974541  1
  Ge  Ge7  1  0.33325797  0.66657186  0.00000000  1
  Ge  Ge8  1  0.66668610  0.33342814  0.00000000  1
  Ge  Ge9  1  0.33326123  0.66657113  0.50000000  1
  Ge  Ge10  1  0.66669011  0.33342887  0.50000000  1
  Ge  Ge11  1  0.99999428  1.00000000  0.34543353  1
  Ge  Ge12  1  0.99999428  1.00000000  0.65456647  1
