# generated using pymatgen
data_Ho3Ga8Rh3
_symmetry_space_group_name_H-M   'P 1'
_cell_length_a   4.19624985
_cell_length_b   8.15055506
_cell_length_c   8.15055506
_cell_angle_alpha   74.82838909
_cell_angle_beta   75.08290529
_cell_angle_gamma   75.08290529
_symmetry_Int_Tables_number   1
_chemical_formula_structural   Ho3Ga8Rh3
_chemical_formula_sum   'Ho3 Ga8 Rh3'
_cell_volume   254.52500174
_cell_formula_units_Z   1
loop_
 _symmetry_equiv_pos_site_id
 _symmetry_equiv_pos_as_xyz
  1  'x, y, z'
loop_
 _atom_site_type_symbol
 _atom_site_label
 _atom_site_symmetry_multiplicity
 _atom_site_fract_x
 _atom_site_fract_y
 _atom_site_fract_z
 _atom_site_occupancy
  Ho  Ho0  1  0.50000000  0.50000000  0.50000000  1
  Ho  Ho1  1  0.17226193  0.82773807  0.82773807  1
  Ho  Ho2  1  0.82773807  0.17226193  0.17226193  1
  Ga  Ga3  1  0.37504013  0.33889769  0.91102205  1
  Ga  Ga4  1  0.62495987  0.66110231  0.08897795  1
  Ga  Ga5  1  0.37504013  0.91102205  0.33889769  1
  Ga  Ga6  1  0.62495987  0.08897795  0.66110231  1
  Ga  Ga7  1  0.16490983  0.46345408  0.20672626  1
  Ga  Ga8  1  0.83509017  0.53654592  0.79327374  1
  Ga  Ga9  1  0.16490983  0.20672626  0.46345408  1
  Ga  Ga10  1  0.83509017  0.79327374  0.53654592  1
  Rh  Rh11  1  0.50000000  -0.00000000  0.00000000  1
  Rh  Rh12  1  -0.00000000  0.78530961  0.21469039  1
  Rh  Rh13  1  0.00000000  0.21469039  0.78530961  1
