# generated using pymatgen
data_LiCo4O5
_symmetry_space_group_name_H-M   'P 1'
_cell_length_a   4.19012530
_cell_length_b   5.18854694
_cell_length_c   5.18854694
_cell_angle_alpha   80.61642473
_cell_angle_beta   66.18492557
_cell_angle_gamma   66.18492557
_symmetry_Int_Tables_number   1
_chemical_formula_structural   LiCo4O5
_chemical_formula_sum   'Li1 Co4 O5'
_cell_volume   94.41077965
_cell_formula_units_Z   1
loop_
 _symmetry_equiv_pos_site_id
 _symmetry_equiv_pos_as_xyz
  1  'x, y, z'
loop_
 _atom_site_type_symbol
 _atom_site_label
 _atom_site_symmetry_multiplicity
 _atom_site_fract_x
 _atom_site_fract_y
 _atom_site_fract_z
 _atom_site_occupancy
  Li  Li0  1  -0.00000000  0.00000000  -0.00000000  1
  Co  Co1  1  0.20358890  0.19787300  0.39494921  1
  Co  Co2  1  0.40146189  0.39494921  0.80212700  1
  Co  Co3  1  0.59853811  0.60505079  0.19787300  1
  Co  Co4  1  0.79641110  0.80212700  0.60505079  1
  O  O5  1  0.89237235  0.41605228  0.79920302  1
  O  O6  1  0.10762765  0.58394772  0.20079698  1
  O  O7  1  0.30842463  0.79920302  0.58394772  1
  O  O8  1  0.50000000  0.00000000  -0.00000000  1
  O  O9  1  0.69157537  0.20079698  0.41605228  1
