# generated using pymatgen
data_Gd(Ni2B)6
_symmetry_space_group_name_H-M   'P 1'
_cell_length_a   6.02248902
_cell_length_b   6.02248902
_cell_length_c   6.02248922
_cell_angle_alpha   104.41718975
_cell_angle_beta   104.41718975
_cell_angle_gamma   104.41719557
_symmetry_Int_Tables_number   1
_chemical_formula_structural   Gd(Ni2B)6
_chemical_formula_sum   'Gd1 Ni12 B6'
_cell_volume   193.30916774
_cell_formula_units_Z   1
loop_
 _symmetry_equiv_pos_site_id
 _symmetry_equiv_pos_as_xyz
  1  'x, y, z'
loop_
 _atom_site_type_symbol
 _atom_site_label
 _atom_site_symmetry_multiplicity
 _atom_site_fract_x
 _atom_site_fract_y
 _atom_site_fract_z
 _atom_site_occupancy
  Gd  Gd0  1  -0.00000000  0.00000000  -0.00000000  1
  Ni  Ni1  1  0.86876230  0.13123770  0.50000000  1
  Ni  Ni2  1  0.13123770  0.50000000  0.86876230  1
  Ni  Ni3  1  0.50000000  0.86876230  0.13123770  1
  Ni  Ni4  1  0.86876230  0.50000000  0.13123770  1
  Ni  Ni5  1  0.50000000  0.13123770  0.86876230  1
  Ni  Ni6  1  0.13123770  0.86876230  0.50000000  1
  Ni  Ni7  1  0.81223580  0.54690546  0.54690546  1
  Ni  Ni8  1  0.54690546  0.54690546  0.81223580  1
  Ni  Ni9  1  0.54690546  0.81223580  0.54690546  1
  Ni  Ni10  1  0.18776420  0.45309454  0.45309454  1
  Ni  Ni11  1  0.45309454  0.45309454  0.18776420  1
  Ni  Ni12  1  0.45309454  0.18776420  0.45309454  1
  B  B13  1  0.33310990  0.76610667  0.76610667  1
  B  B14  1  0.76610667  0.76610667  0.33310990  1
  B  B15  1  0.76610667  0.33310990  0.76610667  1
  B  B16  1  0.66689010  0.23389333  0.23389333  1
  B  B17  1  0.23389333  0.23389333  0.66689010  1
  B  B18  1  0.23389333  0.66689010  0.23389333  1
