# generated using pymatgen
data_Lu3Tl2Cu5Se8
_symmetry_space_group_name_H-M   'P 1'
_cell_length_a   4.06472293
_cell_length_b   7.44286050
_cell_length_c   14.05125898
_cell_angle_alpha   79.85709304
_cell_angle_beta   81.68361708
_cell_angle_gamma   74.15344806
_symmetry_Int_Tables_number   1
_chemical_formula_structural   Lu3Tl2Cu5Se8
_chemical_formula_sum   'Lu3 Tl2 Cu5 Se8'
_cell_volume   400.45099341
_cell_formula_units_Z   1
loop_
 _symmetry_equiv_pos_site_id
 _symmetry_equiv_pos_as_xyz
  1  'x, y, z'
loop_
 _atom_site_type_symbol
 _atom_site_label
 _atom_site_symmetry_multiplicity
 _atom_site_fract_x
 _atom_site_fract_y
 _atom_site_fract_z
 _atom_site_occupancy
  Lu  Lu0  1  0.03537157  0.33656767  0.59268918  1
  Lu  Lu1  1  0.33632741  0.50158092  0.82576425  1
  Lu  Lu2  1  0.20009988  0.38986719  0.20993305  1
  Tl  Tl3  1  0.00853953  0.97318770  0.00973325  1
  Tl  Tl4  1  0.35875680  0.86715581  0.41533059  1
  Cu  Cu5  1  0.72774766  0.52769396  0.01681072  1
  Cu  Cu6  1  0.65153457  0.29578093  0.40114993  1
  Cu  Cu7  1  0.98297887  0.79344892  0.24059334  1
  Cu  Cu8  1  0.78359809  0.76098168  0.67182214  1
  Cu  Cu9  1  0.58814910  0.07511305  0.74858875  1
  Se  Se10  1  0.57784179  0.67894802  0.16536841  1
  Se  Se11  1  0.32541879  0.33236647  0.01679595  1
  Se  Se12  1  0.69444975  0.75806841  0.85303208  1
  Se  Se13  1  0.80833185  0.12544091  0.25789539  1
  Se  Se14  1  0.05321498  0.49684959  0.39672045  1
  Se  Se15  1  0.67698748  0.07925739  0.56676765  1
  Se  Se16  1  0.38678940  0.60356784  0.62285336  1
  Se  Se17  1  0.98592247  0.23283355  0.79532151  1
