# generated using pymatgen
data_Nd2Co7
_symmetry_space_group_name_H-M   'P 1'
_cell_length_a   4.97901548
_cell_length_b   4.97901548
_cell_length_c   12.48420014
_cell_angle_alpha   78.49738332
_cell_angle_beta   78.49738332
_cell_angle_gamma   59.99999394
_symmetry_Int_Tables_number   1
_chemical_formula_structural   Nd2Co7
_chemical_formula_sum   'Nd4 Co14'
_cell_volume   260.82460341
_cell_formula_units_Z   2
loop_
 _symmetry_equiv_pos_site_id
 _symmetry_equiv_pos_as_xyz
  1  'x, y, z'
loop_
 _atom_site_type_symbol
 _atom_site_label
 _atom_site_symmetry_multiplicity
 _atom_site_fract_x
 _atom_site_fract_y
 _atom_site_fract_z
 _atom_site_occupancy
  Nd  Nd0  1  0.05152608  0.05152608  0.84542177  1
  Nd  Nd1  1  0.94847392  0.94847392  0.15457823  1
  Nd  Nd2  1  0.14830458  0.14830458  0.55508626  1
  Nd  Nd3  1  0.85169542  0.85169542  0.44491374  1
  Co  Co4  1  0.50000000  0.50000000  0.50000000  1
  Co  Co5  1  0.27862836  0.27862836  0.16411492  1
  Co  Co6  1  0.72137164  0.72137164  0.83588508  1
  Co  Co7  1  0.38765099  0.38765099  0.83704703  1
  Co  Co8  1  0.61234901  0.61234901  0.16295297  1
  Co  Co9  1  0.50000000  0.50000000  -0.00000000  1
  Co  Co10  1  0.50000000  0.00000000  -0.00000000  1
  Co  Co11  1  -0.00000000  0.50000000  0.00000000  1
  Co  Co12  1  0.11138590  0.60595471  0.67670468  1
  Co  Co13  1  0.60595471  0.60595471  0.67670468  1
  Co  Co14  1  0.60595471  0.11138590  0.67670468  1
  Co  Co15  1  0.88861410  0.39404529  0.32329532  1
  Co  Co16  1  0.39404529  0.39404529  0.32329532  1
  Co  Co17  1  0.39404529  0.88861410  0.32329532  1
