# generated using pymatgen
data_KYMnWO6
_symmetry_space_group_name_H-M   'P 1'
_cell_length_a   5.54978589
_cell_length_b   5.73043392
_cell_length_c   8.29749456
_cell_angle_alpha   90.00000000
_cell_angle_beta   90.66213523
_cell_angle_gamma   90.00000000
_symmetry_Int_Tables_number   1
_chemical_formula_structural   KYMnWO6
_chemical_formula_sum   'K2 Y2 Mn2 W2 O12'
_cell_volume   263.86495441
_cell_formula_units_Z   2
loop_
 _symmetry_equiv_pos_site_id
 _symmetry_equiv_pos_as_xyz
  1  'x, y, z'
loop_
 _atom_site_type_symbol
 _atom_site_label
 _atom_site_symmetry_multiplicity
 _atom_site_fract_x
 _atom_site_fract_y
 _atom_site_fract_z
 _atom_site_occupancy
  K  K0  1  0.24556344  0.74855636  0.00361396  1
  K  K1  1  0.75443656  0.24855636  0.99638604  1
  Y  Y2  1  0.25830979  0.83709210  0.50185116  1
  Y  Y3  1  0.74169021  0.33709210  0.49814884  1
  Mn  Mn4  1  0.74886506  0.78056306  0.25159844  1
  Mn  Mn5  1  0.25113494  0.28056306  0.74840156  1
  W  W6  1  0.76535247  0.76963373  0.74435054  1
  W  W7  1  0.23464753  0.26963373  0.25564946  1
  O  O8  1  0.56489210  0.04248797  0.67722700  1
  O  O9  1  0.43510790  0.54248797  0.32277300  1
  O  O10  1  0.52606912  0.07701361  0.32479225  1
  O  O11  1  0.47393088  0.57701361  0.67520775  1
  O  O12  1  0.94463614  0.44640945  0.24740620  1
  O  O13  1  0.05536386  0.94640945  0.75259380  1
  O  O14  1  0.92574494  0.47099443  0.75635623  1
  O  O15  1  0.07425506  0.97099443  0.24364377  1
  O  O16  1  0.85629335  0.73012838  0.50373066  1
  O  O17  1  0.14370665  0.23012838  0.49626934  1
  O  O18  1  0.71018319  0.78051091  0.96666771  1
  O  O19  1  0.28981681  0.28051091  0.03333229  1
