# generated using pymatgen
data_Ba2DyGaTe5
_symmetry_space_group_name_H-M   'P 1'
_cell_length_a   4.51871432
_cell_length_b   10.45277710
_cell_length_c   14.31816309
_cell_angle_alpha   90.00000000
_cell_angle_beta   90.00000000
_cell_angle_gamma   102.48294165
_symmetry_Int_Tables_number   1
_chemical_formula_structural   Ba2DyGaTe5
_chemical_formula_sum   'Ba4 Dy2 Ga2 Te10'
_cell_volume   660.30416646
_cell_formula_units_Z   2
loop_
 _symmetry_equiv_pos_site_id
 _symmetry_equiv_pos_as_xyz
  1  'x, y, z'
loop_
 _atom_site_type_symbol
 _atom_site_label
 _atom_site_symmetry_multiplicity
 _atom_site_fract_x
 _atom_site_fract_y
 _atom_site_fract_z
 _atom_site_occupancy
  Ba  Ba0  1  0.87290319  0.74580638  0.82072797  1
  Ba  Ba1  1  0.12709681  0.25419362  0.32072797  1
  Ba  Ba2  1  0.87888907  0.75777813  0.18231165  1
  Ba  Ba3  1  0.12111093  0.24222187  0.68231165  1
  Dy  Dy4  1  0.79519071  0.59038141  0.52022587  1
  Dy  Dy5  1  0.20480929  0.40961859  0.02022587  1
  Ga  Ga6  1  0.55943951  0.11887903  0.92349258  1
  Ga  Ga7  1  0.44056049  0.88112097  0.42349258  1
  Te  Te8  1  0.64808902  0.29617804  0.50287447  1
  Te  Te9  1  0.35191098  0.70382196  0.00287447  1
  Te  Te10  1  0.70362669  0.40725337  0.16431899  1
  Te  Te11  1  0.29637331  0.59274663  0.66431899  1
  Te  Te12  1  0.68711468  0.37422936  0.86650748  1
  Te  Te13  1  0.31288532  0.62577064  0.36650748  1
  Te  Te14  1  0.49844347  0.99688694  0.76305210  1
  Te  Te15  1  0.50155653  0.00311306  0.26305210  1
  Te  Te16  1  0.95497782  0.90995564  0.53163888  1
  Te  Te17  1  0.04502218  0.09004436  0.03163888  1
