# generated using pymatgen
data_Tb(Ni2B)6
_symmetry_space_group_name_H-M   'P 1'
_cell_length_a   5.98927504
_cell_length_b   5.98927504
_cell_length_c   5.98927533
_cell_angle_alpha   104.37408967
_cell_angle_beta   104.37408967
_cell_angle_gamma   104.37409350
_symmetry_Int_Tables_number   1
_chemical_formula_structural   Tb(Ni2B)6
_chemical_formula_sum   'Tb1 Ni12 B6'
_cell_volume   190.29314418
_cell_formula_units_Z   1
loop_
 _symmetry_equiv_pos_site_id
 _symmetry_equiv_pos_as_xyz
  1  'x, y, z'
loop_
 _atom_site_type_symbol
 _atom_site_label
 _atom_site_symmetry_multiplicity
 _atom_site_fract_x
 _atom_site_fract_y
 _atom_site_fract_z
 _atom_site_occupancy
  Tb  Tb0  1  0.00000000  -0.00000000  -0.00000000  1
  Ni  Ni1  1  0.86907870  0.13092130  0.50000000  1
  Ni  Ni2  1  0.13092130  0.50000000  0.86907870  1
  Ni  Ni3  1  0.50000000  0.86907870  0.13092130  1
  Ni  Ni4  1  0.86907870  0.50000000  0.13092130  1
  Ni  Ni5  1  0.50000000  0.13092130  0.86907870  1
  Ni  Ni6  1  0.13092130  0.86907870  0.50000000  1
  Ni  Ni7  1  0.81169893  0.54687945  0.54687945  1
  Ni  Ni8  1  0.54687945  0.54687945  0.81169893  1
  Ni  Ni9  1  0.54687945  0.81169893  0.54687945  1
  Ni  Ni10  1  0.18830107  0.45312055  0.45312055  1
  Ni  Ni11  1  0.45312055  0.45312055  0.18830107  1
  Ni  Ni12  1  0.45312055  0.18830107  0.45312055  1
  B  B13  1  0.33234379  0.76568053  0.76568053  1
  B  B14  1  0.76568053  0.76568053  0.33234379  1
  B  B15  1  0.76568053  0.33234379  0.76568053  1
  B  B16  1  0.66765621  0.23431947  0.23431947  1
  B  B17  1  0.23431947  0.23431947  0.66765621  1
  B  B18  1  0.23431947  0.66765621  0.23431947  1
