# generated using pymatgen
data_Sr19Cu19O41
_symmetry_space_group_name_H-M   'P 1'
_cell_length_a   3.56948894
_cell_length_b   74.88210799
_cell_length_c   5.56880777
_cell_angle_alpha   45.04663964
_cell_angle_beta   90.00000000
_cell_angle_gamma   90.00000000
_symmetry_Int_Tables_number   1
_chemical_formula_structural   Sr19Cu19O41
_chemical_formula_sum   'Sr19 Cu19 O41'
_cell_volume   1053.37878150
_cell_formula_units_Z   1
loop_
 _symmetry_equiv_pos_site_id
 _symmetry_equiv_pos_as_xyz
  1  'x, y, z'
loop_
 _atom_site_type_symbol
 _atom_site_label
 _atom_site_symmetry_multiplicity
 _atom_site_fract_x
 _atom_site_fract_y
 _atom_site_fract_z
 _atom_site_occupancy
  Sr  Sr0  1  0.50000000  0.05230266  0.50311293  1
  Sr  Sr1  1  0.50000000  0.10520907  0.50049566  1
  Sr  Sr2  1  0.50000000  0.15784008  0.50051750  1
  Sr  Sr3  1  0.50000000  0.21049048  0.50035073  1
  Sr  Sr4  1  0.50000000  0.26319653  0.49966701  1
  Sr  Sr5  1  0.50000000  0.31575914  0.50030231  1
  Sr  Sr6  1  0.50000000  0.36846158  0.49960780  1
  Sr  Sr7  1  0.50000000  0.42108731  0.49965786  1
  Sr  Sr8  1  0.50000000  0.47374809  0.49936745  1
  Sr  Sr9  1  0.50000000  0.52664909  0.49683826  1
  Sr  Sr10  1  0.50000000  0.58095586  0.48093548  1
  Sr  Sr11  1  0.50000000  0.63170227  0.49884758  1
  Sr  Sr12  1  0.50000000  0.68245900  0.51662427  1
  Sr  Sr13  1  0.50000000  0.73892866  0.48018631  1
  Sr  Sr14  1  0.50000000  0.78949901  0.49974524  1
  Sr  Sr15  1  0.50000000  0.84005348  0.51949209  1
  Sr  Sr16  1  0.50000000  0.89658607  0.48243015  1
  Sr  Sr17  1  0.50000000  0.94722413  0.50136959  1
  Sr  Sr18  1  0.50000000  0.99785553  0.52037409  1
  Cu  Cu19  1  -0.00000000  0.00109415  0.98962389  1
  Cu  Cu20  1  -0.00000000  0.05249152  0.00127937  1
  Cu  Cu21  1  0.00000000  0.10508832  0.00164195  1
  Cu  Cu22  1  0.00000000  0.21053363  0.99995203  1
  Cu  Cu23  1  -0.00000000  0.36842152  0.99994239  1
  Cu  Cu24  1  0.00000000  0.42110263  0.99949209  1
  Cu  Cu25  1  0.00000000  0.47383893  0.99850020  1
  Cu  Cu26  1  0.00000000  0.57786162  0.01032238  1
  Cu  Cu27  1  -0.00000000  0.68556325  0.98714236  1
  Cu  Cu28  1  -0.00000000  0.73548718  0.01284354  1
  Cu  Cu29  1  -0.00000000  0.78948111  0.99985267  1
  Cu  Cu30  1  0.00000000  0.84344923  0.98723424  1
  Cu  Cu31  1  -0.00000000  0.94740117  0.99971822  1
  Cu  Cu32  1  -0.00000000  0.15786702  0.00024323  1
  Cu  Cu33  1  -0.00000000  0.26313625  0.00026904  1
  Cu  Cu34  1  0.00000000  0.31581584  0.99977348  1
  Cu  Cu35  1  -0.00000000  0.52643083  0.99891866  1
  Cu  Cu36  1  0.00000000  0.63152240  0.00061051  1
  Cu  Cu37  1  0.00000000  0.89337226  0.01293137  1
  O  O38  1  -0.00000000  0.02683394  0.99500238  1
  O  O39  1  -0.00000000  0.07886292  0.50333288  1
  O  O40  1  -0.00000000  0.18419793  0.00030746  1
  O  O41  1  0.00000000  0.18419863  0.49995126  1
  O  O42  1  -0.00000000  0.23687315  0.99970925  1
  O  O43  1  0.00000000  0.28946849  0.00005101  1
  O  O44  1  -0.00000000  0.28946987  0.50017042  1
  O  O45  1  -0.00000000  0.34209076  0.00018219  1
  O  O46  1  0.00000000  0.34208916  0.50006376  1
  O  O47  1  0.00000000  0.39475314  0.99973928  1
  O  O48  1  -0.00000000  0.55208895  0.00509360  1
  O  O49  1  -0.00000000  0.60307309  0.00345177  1
  O  O50  1  -0.00000000  0.55208776  0.50528506  1
  O  O51  1  0.00000000  0.66022897  0.99786998  1
  O  O52  1  -0.00000000  0.71055878  0.99943518  1
  O  O53  1  0.00000000  0.71055489  0.49987271  1
  O  O54  1  -0.00000000  0.81813298  0.99782818  1
  O  O55  1  -0.00000000  0.91869667  0.00220327  1
  O  O56  1  -0.00000000  0.97590499  0.99669131  1
  O  O57  1  0.00000000  0.97590390  0.46115007  1
  O  O58  1  0.50000000  0.63165538  0.99926269  1
  O  O59  1  0.50000000  0.78947062  0.00013952  1
  O  O60  1  0.50000000  0.94730539  0.00057287  1
  O  O61  1  -0.00000000  0.02683816  0.49518445  1
  O  O62  1  0.00000000  0.07886282  0.99819930  1
  O  O63  1  -0.00000000  0.13159405  0.99951647  1
  O  O64  1  -0.00000000  0.13159500  0.50019315  1
  O  O65  1  0.00000000  0.23687088  0.49975577  1
  O  O66  1  0.00000000  0.39475599  0.49991529  1
  O  O67  1  0.00000000  0.44736079  0.00055043  1
  O  O68  1  -0.00000000  0.44736130  0.49952946  1
  O  O69  1  -0.00000000  0.50006656  0.00174270  1
  O  O70  1  -0.00000000  0.50006551  0.49698981  1
  O  O71  1  -0.00000000  0.60306992  0.53822254  1
  O  O72  1  0.00000000  0.66023182  0.45774583  1
  O  O73  1  -0.00000000  0.76081471  0.00207298  1
  O  O74  1  -0.00000000  0.76081530  0.54241633  1
  O  O75  1  -0.00000000  0.81813173  0.45767680  1
  O  O76  1  -0.00000000  0.86841094  0.00030790  1
  O  O77  1  -0.00000000  0.86841104  0.49986576  1
  O  O78  1  -0.00000000  0.91869722  0.54253501  1
