# generated using pymatgen
data_Sr2YCoCu2O7
_symmetry_space_group_name_H-M   'P 1'
_cell_length_a   5.46120668
_cell_length_b   5.48844624
_cell_length_c   12.21560130
_cell_angle_alpha   103.08136233
_cell_angle_beta   102.96579022
_cell_angle_gamma   89.73778900
_symmetry_Int_Tables_number   1
_chemical_formula_structural   Sr2YCoCu2O7
_chemical_formula_sum   'Sr4 Y2 Co2 Cu4 O14'
_cell_volume   347.13829853
_cell_formula_units_Z   2
loop_
 _symmetry_equiv_pos_site_id
 _symmetry_equiv_pos_as_xyz
  1  'x, y, z'
loop_
 _atom_site_type_symbol
 _atom_site_label
 _atom_site_symmetry_multiplicity
 _atom_site_fract_x
 _atom_site_fract_y
 _atom_site_fract_z
 _atom_site_occupancy
  Sr  Sr0  1  0.16033283  0.16332250  0.30205891  1
  Sr  Sr1  1  0.35827309  0.36189249  0.69667380  1
  Sr  Sr2  1  0.64172691  0.63810751  0.30332620  1
  Sr  Sr3  1  0.83966717  0.83667750  0.69794109  1
  Y  Y4  1  0.00000000  -0.00000000  0.00000000  1
  Y  Y5  1  0.50000000  0.50000000  0.00000000  1
  Co  Co6  1  0.18278935  0.80701843  0.49976838  1
  Co  Co7  1  0.81721065  0.19298157  0.50023162  1
  Cu  Cu8  1  0.07248699  0.57335824  0.14479736  1
  Cu  Cu9  1  0.42474694  0.92672715  0.85261500  1
  Cu  Cu10  1  0.57525306  0.07327285  0.14738500  1
  Cu  Cu11  1  0.92751301  0.42664176  0.85520264  1
  O  O12  1  0.18464227  0.18615785  0.87179366  1
  O  O13  1  0.18703418  0.68703578  0.87586805  1
  O  O14  1  0.17660726  0.16451248  0.49941961  1
  O  O15  1  0.18653645  0.64758386  0.35179448  1
  O  O16  1  0.33383430  0.79620549  0.64798175  1
  O  O17  1  0.31118548  0.31165859  0.12228540  1
  O  O18  1  0.31413754  0.81388057  0.12777117  1
  O  O19  1  0.68586246  0.18611943  0.87222883  1
  O  O20  1  0.68881452  0.68834141  0.87771460  1
  O  O21  1  0.66616570  0.20379451  0.35201825  1
  O  O22  1  0.81346355  0.35241614  0.64820552  1
  O  O23  1  0.82339274  0.83548752  0.50058039  1
  O  O24  1  0.81296582  0.31296422  0.12413195  1
  O  O25  1  0.81535773  0.81384215  0.12820634  1
