# generated using pymatgen
data_Na2Ca3Ta2Ti3O15
_symmetry_space_group_name_H-M   'P 1'
_cell_length_a   5.45175604
_cell_length_b   5.54668644
_cell_length_c   39.05695946
_cell_angle_alpha   89.96108512
_cell_angle_beta   90.05068377
_cell_angle_gamma   90.00573261
_symmetry_Int_Tables_number   1
_chemical_formula_structural   Na2Ca3Ta2Ti3O15
_chemical_formula_sum   'Na8 Ca12 Ta8 Ti12 O60'
_cell_volume   1181.04973713
_cell_formula_units_Z   4
loop_
 _symmetry_equiv_pos_site_id
 _symmetry_equiv_pos_as_xyz
  1  'x, y, z'
loop_
 _atom_site_type_symbol
 _atom_site_label
 _atom_site_symmetry_multiplicity
 _atom_site_fract_x
 _atom_site_fract_y
 _atom_site_fract_z
 _atom_site_occupancy
  Na  Na0  1  0.00543110  0.97375603  0.34714531  1
  Na  Na1  1  0.00417798  0.97396682  0.55013561  1
  Na  Na2  1  0.00397338  0.97407043  0.75033825  1
  Na  Na3  1  0.00345039  0.97676036  0.95106419  1
  Na  Na4  1  0.49793907  0.47868345  0.14818114  1
  Na  Na5  1  0.49649423  0.48161305  0.55014624  1
  Na  Na6  1  0.49708757  0.48164926  0.75039423  1
  Na  Na7  1  0.49696267  0.48258769  0.95106523  1
  Ca  Ca8  1  0.00578606  0.95803897  0.14813198  1
  Ca  Ca9  1  0.49809577  0.46572555  0.34689111  1
  Ca  Ca10  1  0.50902085  0.54293403  0.05248378  1
  Ca  Ca11  1  0.50708703  0.54082655  0.25205194  1
  Ca  Ca12  1  0.50870494  0.53897891  0.65027485  1
  Ca  Ca13  1  0.50655407  0.53734891  0.45009893  1
  Ca  Ca14  1  0.50864537  0.53944364  0.85061185  1
  Ca  Ca15  1  0.99123203  0.04889515  0.25196718  1
  Ca  Ca16  1  0.98986647  0.04747567  0.05202500  1
  Ca  Ca17  1  0.98973914  0.05256026  0.45027400  1
  Ca  Ca18  1  0.98895306  0.05121079  0.65028034  1
  Ca  Ca19  1  0.98992265  0.05072186  0.85057934  1
  Ta  Ta20  1  0.49465771  0.00401525  0.50019443  1
  Ta  Ta21  1  0.49623536  0.00530032  0.90156311  1
  Ta  Ta22  1  0.49506152  0.00449294  0.70087339  1
  Ta  Ta23  1  0.49431917  0.01000511  0.00077026  1
  Ta  Ta24  1  0.50010484  0.00735101  0.19947724  1
  Ta  Ta25  1  0.49700188  0.00194724  0.39770036  1
  Ta  Ta26  1  0.49506103  0.00806553  0.59874162  1
  Ta  Ta27  1  0.49496909  0.00834997  0.79942144  1
  Ti  Ti28  1  0.00809399  0.51459030  0.00149360  1
  Ti  Ti29  1  0.00549646  0.51449149  0.10152501  1
  Ti  Ti30  1  0.00814483  0.50468728  0.20000966  1
  Ti  Ti31  1  0.00038491  0.51824311  0.30129766  1
  Ti  Ti32  1  0.00367799  0.51111480  0.40079087  1
  Ti  Ti33  1  0.99692035  0.51000429  0.50350248  1
  Ti  Ti34  1  0.00889012  0.51373162  0.60173804  1
  Ti  Ti35  1  0.99748031  0.50993494  0.70397421  1
  Ti  Ti36  1  0.00904134  0.51393675  0.80200765  1
  Ti  Ti37  1  0.99917842  0.51086770  0.90389032  1
  Ti  Ti38  1  0.49742667  0.01864433  0.10057855  1
  Ti  Ti39  1  0.49434623  0.01190350  0.29941447  1
  O  O40  1  0.07513829  0.47869317  0.04992056  1
  O  O41  1  0.07402792  0.47830600  0.24889894  1
  O  O42  1  0.07747048  0.47776836  0.44750047  1
  O  O43  1  0.07738201  0.47884593  0.64821536  1
  O  O44  1  0.07632516  0.47879215  0.84864041  1
  O  O45  1  0.20941133  0.20259367  0.39219283  1
  O  O46  1  0.20417639  0.20133979  0.59347468  1
  O  O47  1  0.19335631  0.19466150  0.19288748  1
  O  O48  1  0.20303621  0.20041549  0.79390035  1
  O  O49  1  0.20664125  0.19947212  0.10643260  1
  O  O50  1  0.22227532  0.21084462  0.30596101  1
  O  O51  1  0.20471281  0.20377788  0.50492111  1
  O  O52  1  0.20284165  0.20174190  0.99458312  1
  O  O53  1  0.20464790  0.20337282  0.70520106  1
  O  O54  1  0.20444723  0.20271364  0.90541806  1
  O  O55  1  0.28206771  0.71000004  0.10676764  1
  O  O56  1  0.28868660  0.70531147  0.19285160  1
  O  O57  1  0.29505744  0.70383183  0.30608890  1
  O  O58  1  0.30667028  0.69344479  0.39202499  1
  O  O59  1  0.29483250  0.70258872  0.59341353  1
  O  O60  1  0.29384804  0.70107355  0.90563003  1
  O  O61  1  0.29361629  0.70223076  0.70554307  1
  O  O62  1  0.29518635  0.70149418  0.79381276  1
  O  O63  1  0.29297232  0.70241163  0.50524149  1
  O  O64  1  0.29332797  0.70115797  0.99444992  1
  O  O65  1  0.42387460  0.97544758  0.05056022  1
  O  O66  1  0.42174416  0.97724962  0.24986785  1
  O  O67  1  0.42075123  0.97663459  0.64959589  1
  O  O68  1  0.41990633  0.97609292  0.44909612  1
  O  O69  1  0.42185843  0.97628283  0.84995916  1
  O  O70  1  0.57465780  0.01533434  0.34923373  1
  O  O71  1  0.57483199  0.01697495  0.15005348  1
  O  O72  1  0.57478782  0.01499867  0.54945507  1
  O  O73  1  0.57407744  0.01466068  0.74971315  1
  O  O74  1  0.57184542  0.01305861  0.95037580  1
  O  O75  1  0.71000248  0.28241032  0.00977299  1
  O  O76  1  0.71052156  0.27535272  0.09120820  1
  O  O77  1  0.71242302  0.28068900  0.29204919  1
  O  O78  1  0.70227211  0.28904008  0.20961544  1
  O  O79  1  0.71038982  0.28083759  0.60909662  1
  O  O80  1  0.70883103  0.28657893  0.40773749  1
  O  O81  1  0.71268174  0.27969841  0.48974575  1
  O  O82  1  0.71256212  0.28004503  0.69019051  1
  O  O83  1  0.70974423  0.28135338  0.80931108  1
  O  O84  1  0.71265555  0.27976646  0.89057124  1
  O  O85  1  0.78738571  0.78070196  0.09262933  1
  O  O86  1  0.78888384  0.78033375  0.00946068  1
  O  O87  1  0.78614287  0.78029814  0.69036042  1
  O  O88  1  0.79137767  0.79050960  0.20780023  1
  O  O89  1  0.78701920  0.77838033  0.29066579  1
  O  O90  1  0.78558464  0.78006630  0.49005359  1
  O  O91  1  0.79422568  0.78611590  0.40891308  1
  O  O92  1  0.78706415  0.78122201  0.60887663  1
  O  O93  1  0.78674708  0.77975562  0.89073679  1
  O  O94  1  0.78777436  0.78122900  0.80907197  1
  O  O95  1  0.93453462  0.51522367  0.15020637  1
  O  O96  1  0.92978533  0.51525365  0.34922196  1
  O  O97  1  0.93394906  0.51439161  0.54887725  1
  O  O98  1  0.93479894  0.51431940  0.74912813  1
  O  O99  1  0.93653615  0.51388347  0.94971194  1
