# generated using pymatgen
data_NaCa3Fe4(SiO3)8
_symmetry_space_group_name_H-M   'P 1'
_cell_length_a   10.68823417
_cell_length_b   9.41728807
_cell_length_c   9.41728826
_cell_angle_alpha   57.48118935
_cell_angle_beta   44.48150453
_cell_angle_gamma   44.48150327
_symmetry_Int_Tables_number   1
_chemical_formula_structural   NaCa3Fe4(SiO3)8
_chemical_formula_sum   'Na1 Ca3 Fe4 Si8 O24'
_cell_volume   464.58099923
_cell_formula_units_Z   1
loop_
 _symmetry_equiv_pos_site_id
 _symmetry_equiv_pos_as_xyz
  1  'x, y, z'
loop_
 _atom_site_type_symbol
 _atom_site_label
 _atom_site_symmetry_multiplicity
 _atom_site_fract_x
 _atom_site_fract_y
 _atom_site_fract_z
 _atom_site_occupancy
  Na  Na0  1  0.62500000  0.70248130  0.29751870  1
  Ca  Ca1  1  0.12500000  0.70220414  0.29779586  1
  Ca  Ca2  1  0.37164303  0.30258844  0.69819206  1
  Ca  Ca3  1  0.87835697  0.30180794  0.69741156  1
  Fe  Fe4  1  0.12500000  0.09210187  0.90789813  1
  Fe  Fe5  1  0.37502445  0.90428122  0.10005181  1
  Fe  Fe6  1  0.62500000  0.09237202  0.90762798  1
  Fe  Fe7  1  0.87497555  0.89994819  0.09571878  1
  Si  Si8  1  0.09385322  0.38225439  0.19369618  1
  Si  Si9  1  0.34682654  0.19334568  0.37586894  1
  Si  Si10  1  0.59691534  0.37535043  0.19526149  1
  Si  Si11  1  0.15614678  0.80630382  0.61774561  1
  Si  Si12  1  0.84409708  0.19606159  0.38147602  1
  Si  Si13  1  0.40590292  0.61852398  0.80393841  1
  Si  Si14  1  0.65308466  0.80473851  0.62464957  1
  Si  Si15  1  0.90317346  0.62413106  0.80665432  1
  O  O16  1  0.05202576  0.02707194  0.21341020  1
  O  O17  1  0.31553512  0.21084356  0.02299139  1
  O  O18  1  0.14821939  0.36579744  0.33377518  1
  O  O19  1  0.22946759  0.11163597  0.60750597  1
  O  O20  1  0.55582173  0.03951825  0.19283898  1
  O  O21  1  0.02053241  0.39249403  0.88836403  1
  O  O22  1  0.40043278  0.32978410  0.36577595  1
  O  O23  1  0.10178061  0.66622482  0.63420256  1
  O  O24  1  0.47836611  0.60583482  0.11426348  1
  O  O25  1  0.80680673  0.20462364  0.02738080  1
  O  O26  1  0.26800026  0.89077935  0.38926651  1
  O  O27  1  0.64835020  0.35645286  0.33877591  1
  O  O28  1  0.34288627  0.63641013  0.67322025  1
  O  O29  1  0.72047944  0.12083628  0.61887835  1
  O  O30  1  0.19797424  0.78658980  0.97292806  1
  O  O31  1  0.52952056  0.38112165  0.87916372  1
  O  O32  1  0.90711373  0.32677975  0.36358987  1
  O  O33  1  0.60164980  0.66122409  0.64354714  1
  O  O34  1  0.98199974  0.61073349  0.10922065  1
  O  O35  1  0.44319327  0.97261920  0.79537636  1
  O  O36  1  0.77163389  0.88573652  0.39416518  1
  O  O37  1  0.84956722  0.63422405  0.67021590  1
  O  O38  1  0.69417827  0.80716102  0.96048175  1
  O  O39  1  0.93446488  0.97700861  0.78915644  1
