# generated using pymatgen
data_Li9Co7O16
_symmetry_space_group_name_H-M   'P 1'
_cell_length_a   5.68855406
_cell_length_b   7.54563128
_cell_length_c   6.41098261
_cell_angle_alpha   86.10145515
_cell_angle_beta   77.16333868
_cell_angle_gamma   78.97348323
_symmetry_Int_Tables_number   1
_chemical_formula_structural   Li9Co7O16
_chemical_formula_sum   'Li9 Co7 O16'
_cell_volume   263.25901496
_cell_formula_units_Z   1
loop_
 _symmetry_equiv_pos_site_id
 _symmetry_equiv_pos_as_xyz
  1  'x, y, z'
loop_
 _atom_site_type_symbol
 _atom_site_label
 _atom_site_symmetry_multiplicity
 _atom_site_fract_x
 _atom_site_fract_y
 _atom_site_fract_z
 _atom_site_occupancy
  Li  Li0  1  0.93730734  0.37511414  0.87399425  1
  Li  Li1  1  0.19129416  0.87428423  0.37837588  1
  Li  Li2  1  0.43686329  0.37801902  0.87414296  1
  Li  Li3  1  0.06742295  0.62532791  0.12034948  1
  Li  Li4  1  0.31313671  0.12198098  0.62585704  1
  Li  Li5  1  0.55870584  0.62571577  0.12162412  1
  Li  Li6  1  0.68257705  0.87467209  0.37965052  1
  Li  Li7  1  0.81269266  0.12488586  0.62600575  1
  Li  Li8  1  0.37500000  0.75000000  0.75000000  1
  Co  Co9  1  0.00543540  0.99592910  0.99747110  1
  Co  Co10  1  0.87500000  0.75000000  0.75000000  1
  Co  Co11  1  0.25038913  0.50322617  0.50088945  1
  Co  Co12  1  0.49961087  0.99677383  0.99911055  1
  Co  Co13  1  0.74456460  0.50407090  0.50252890  1
  Co  Co14  1  0.62508448  0.25015222  0.25032807  1
  Co  Co15  1  0.12491552  0.24984778  0.24967193  1
  O  O16  1  0.71755183  0.17286385  0.95824377  1
  O  O17  1  0.96461372  0.67678819  0.45623708  1
  O  O18  1  0.21862002  0.17216742  0.95384191  1
  O  O19  1  0.84200657  0.42370988  0.20854894  1
  O  O20  1  0.07438263  0.92922712  0.70631289  1
  O  O21  1  0.34069432  0.42397711  0.20561410  1
  O  O22  1  0.47281316  0.66663756  0.44050223  1
  O  O23  1  0.60838584  0.92957463  0.70614297  1
  O  O24  1  0.14161316  0.57042537  0.79385703  1
  O  O25  1  0.40930568  0.07602289  0.29438590  1
  O  O26  1  0.67561637  0.57077288  0.79368711  1
  O  O27  1  0.27718584  0.83336244  0.05949777  1
  O  O28  1  0.53137998  0.32783258  0.54615809  1
  O  O29  1  0.78538528  0.82321181  0.04376292  1
  O  O30  1  0.90799343  0.07629012  0.29145106  1
  O  O31  1  0.03244717  0.32713615  0.54175623  1
