# generated using pymatgen
data_LaLuC3
_symmetry_space_group_name_H-M   'P 1'
_cell_length_a   7.29021583
_cell_length_b   7.29021583
_cell_length_c   7.29021583
_cell_angle_alpha   70.52877937
_cell_angle_beta   70.52877937
_cell_angle_gamma   109.47122063
_symmetry_Int_Tables_number   1
_chemical_formula_structural   LaLuC3
_chemical_formula_sum   'La4 Lu4 C12'
_cell_volume   298.26292091
_cell_formula_units_Z   4
loop_
 _symmetry_equiv_pos_site_id
 _symmetry_equiv_pos_as_xyz
  1  'x, y, z'
loop_
 _atom_site_type_symbol
 _atom_site_label
 _atom_site_symmetry_multiplicity
 _atom_site_fract_x
 _atom_site_fract_y
 _atom_site_fract_z
 _atom_site_occupancy
  La  La0  1  0.88897769  0.38897769  0.11102231  1
  La  La1  1  0.50000000  0.11102231  0.00000000  1
  La  La2  1  0.61102231  0.50000000  0.50000000  1
  La  La3  1  0.00000000  0.00000000  0.38897769  1
  Lu  Lu4  1  0.50000000  0.59970799  -0.00000000  1
  Lu  Lu5  1  0.40029201  0.90029201  0.59970799  1
  Lu  Lu6  1  0.09970799  0.50000000  0.50000000  1
  Lu  Lu7  1  -0.00000000  0.00000000  0.90029201  1
  C  C8  1  0.43903630  0.25000000  0.31096370  1
  C  C9  1  0.06096370  0.75000000  0.18903630  1
  C  C10  1  0.22010840  0.75000000  0.02989160  1
  C  C11  1  0.27989160  0.25000000  0.47010840  1
  C  C12  1  0.81096370  0.56096370  0.75000000  1
  C  C13  1  0.68903630  0.93903630  0.25000000  1
  C  C14  1  0.52989160  0.77989160  0.25000000  1
  C  C15  1  0.97010840  0.72010840  0.75000000  1
  C  C16  1  0.75000000  0.18903630  0.56096370  1
  C  C17  1  0.25000000  0.31096370  0.93903630  1
  C  C18  1  0.25000000  0.47010840  0.77989160  1
  C  C19  1  0.75000000  0.02989160  0.72010840  1
