# generated using pymatgen
data_Nd26B8O51
_symmetry_space_group_name_H-M   'P 1'
_cell_length_a   6.84064057
_cell_length_b   12.76329790
_cell_length_c   14.39477197
_cell_angle_alpha   90.54714845
_cell_angle_beta   99.56057733
_cell_angle_gamma   90.53796902
_symmetry_Int_Tables_number   1
_chemical_formula_structural   Nd26B8O51
_chemical_formula_sum   'Nd26 B8 O51'
_cell_volume   1239.20559780
_cell_formula_units_Z   1
loop_
 _symmetry_equiv_pos_site_id
 _symmetry_equiv_pos_as_xyz
  1  'x, y, z'
loop_
 _atom_site_type_symbol
 _atom_site_label
 _atom_site_symmetry_multiplicity
 _atom_site_fract_x
 _atom_site_fract_y
 _atom_site_fract_z
 _atom_site_occupancy
  Nd  Nd0  1  0.04546166  0.28774080  0.69947317  1
  Nd  Nd1  1  0.14347433  0.29196428  0.96235757  1
  Nd  Nd2  1  0.99897191  0.99744625  0.00167292  1
  Nd  Nd3  1  0.07548212  0.21693475  0.20222862  1
  Nd  Nd4  1  0.14419630  0.18941391  0.47381590  1
  Nd  Nd5  1  0.23498416  0.00104863  0.66802358  1
  Nd  Nd6  1  0.31669285  0.62514229  0.93478821  1
  Nd  Nd7  1  0.23277496  0.51466015  0.18553128  1
  Nd  Nd8  1  0.33159288  0.88339643  0.44524393  1
  Nd  Nd9  1  0.37688484  0.69906711  0.65923432  1
  Nd  Nd10  1  0.48676141  0.89265768  0.91602204  1
  Nd  Nd11  1  0.37443246  0.80329386  0.15820771  1
  Nd  Nd12  1  0.51112767  0.38962012  0.58470924  1
  Nd  Nd13  1  0.49088353  0.61187118  0.41843919  1
  Nd  Nd14  1  0.61977376  0.19875776  0.83471106  1
  Nd  Nd15  1  0.51993218  0.11497236  0.08594282  1
  Nd  Nd16  1  0.62741541  0.29820680  0.34513861  1
  Nd  Nd17  1  0.66858938  0.11508823  0.55607231  1
  Nd  Nd18  1  0.74890779  0.49834988  0.83114682  1
  Nd  Nd19  1  0.71821452  0.38144872  0.05812560  1
  Nd  Nd20  1  0.76356322  0.99910686  0.33201191  1
  Nd  Nd21  1  0.85643877  0.81115557  0.52819058  1
  Nd  Nd22  1  0.93927497  0.78539305  0.79836487  1
  Nd  Nd23  1  0.84684799  0.68888152  0.02718418  1
  Nd  Nd24  1  0.94321111  0.71794675  0.30042706  1
  Nd  Nd25  1  0.00078088  0.50193701  0.50231653  1
  B  B26  1  0.13594816  0.09299649  0.83719300  1
  B  B27  1  0.14271728  0.40243054  0.33916176  1
  B  B28  1  0.33076281  0.44446133  0.79280541  1
  B  B29  1  0.33045719  0.05652848  0.28881134  1
  B  B30  1  0.66950173  0.94346632  0.71140789  1
  B  B31  1  0.66237228  0.55610156  0.20090873  1
  B  B32  1  0.85986553  0.59377321  0.66554761  1
  B  B33  1  0.85625739  0.90070102  0.16207843  1
  O  O34  1  0.00560491  0.64798074  0.63081115  1
  O  O35  1  0.02270215  0.13370135  0.61057670  1
  O  O36  1  0.00279263  0.84391612  0.12994626  1
  O  O37  1  0.16915511  0.41989116  0.83654159  1
  O  O38  1  0.16247849  0.98568339  0.84579585  1
  O  O39  1  0.07438538  0.37835511  0.09668299  1
  O  O40  1  0.15882635  0.34435282  0.57028716  1
  O  O41  1  0.19109982  0.84199711  0.59276111  1
  O  O42  1  0.15634064  0.08527256  0.32090853  1
  O  O43  1  0.15742768  0.51215263  0.34791380  1
  O  O44  1  0.27290316  0.75947459  0.83007399  1
  O  O45  1  0.26263870  0.15423389  0.79343985  1
  O  O46  1  0.16347377  0.15399471  0.06784668  1
  O  O47  1  0.19350187  0.64948340  0.08515631  1
  O  O48  1  0.27696581  0.73405918  0.32396138  1
  O  O49  1  0.27596752  0.35342064  0.29015897  1
  O  O50  1  0.34251894  0.55404803  0.54909920  1
  O  O51  1  0.33405403  0.04485555  0.53083040  1
  O  O52  1  0.39671963  0.54687702  0.78668435  1
  O  O53  1  0.43632925  0.36589485  0.75743410  1
  O  O54  1  0.48109278  0.26463577  0.98782372  1
  O  O55  1  0.33984213  0.94703399  0.05113002  1
  O  O56  1  0.39983841  0.95523633  0.29060753  1
  O  O57  1  0.44280604  0.13465224  0.25383012  1
  O  O58  1  0.47650957  0.25138767  0.47639916  1
  O  O59  1  0.52436985  0.74934892  0.52485652  1
  O  O60  1  0.56279492  0.86445333  0.74713168  1
  O  O61  1  0.59530697  0.04444745  0.71083079  1
  O  O62  1  0.63346609  0.53735741  0.97095621  1
  O  O63  1  0.65113143  0.06014669  0.95077933  1
  O  O64  1  0.52007517  0.75291642  0.02102733  1
  O  O65  1  0.56303408  0.63089133  0.24461057  1
  O  O66  1  0.56796534  0.45889714  0.18288295  1
  O  O67  1  0.66457589  0.95431458  0.46813405  1
  O  O68  1  0.65967098  0.44610716  0.45039122  1
  O  O69  1  0.72839697  0.64647788  0.71238637  1
  O  O70  1  0.71464538  0.25881338  0.67497592  1
  O  O71  1  0.81401413  0.34066554  0.90520112  1
  O  O72  1  0.83603331  0.84323412  0.93109700  1
  O  O73  1  0.72621780  0.84979105  0.21204879  1
  O  O74  1  0.74863296  0.24346163  0.17134659  1
  O  O75  1  0.84314745  0.48400502  0.65631091  1
  O  O76  1  0.84214317  0.91819102  0.67674066  1
  O  O77  1  0.80863214  0.15761924  0.41052811  1
  O  O78  1  0.84142678  0.65728576  0.43178131  1
  O  O79  1  0.96200896  0.63082703  0.89250589  1
  O  O80  1  0.83861527  0.00827362  0.14821765  1
  O  O81  1  0.84581849  0.57870433  0.17426630  1
  O  O82  1  0.98338625  0.14172151  0.87189781  1
  O  O83  1  0.97962397  0.86971442  0.39151125  1
  O  O84  1  0.99593806  0.34768229  0.37088855  1
