# generated using pymatgen
data_Na7Cr3Co(PO4)6
_symmetry_space_group_name_H-M   'P 1'
_cell_length_a   8.88553838
_cell_length_b   8.88617142
_cell_length_c   17.76725332
_cell_angle_alpha   59.98406412
_cell_angle_beta   60.05551901
_cell_angle_gamma   60.06157960
_symmetry_Int_Tables_number   1
_chemical_formula_structural   Na7Cr3Co(PO4)6
_chemical_formula_sum   'Na14 Cr6 Co2 P12 O48'
_cell_volume   992.73898349
_cell_formula_units_Z   2
loop_
 _symmetry_equiv_pos_site_id
 _symmetry_equiv_pos_as_xyz
  1  'x, y, z'
loop_
 _atom_site_type_symbol
 _atom_site_label
 _atom_site_symmetry_multiplicity
 _atom_site_fract_x
 _atom_site_fract_y
 _atom_site_fract_z
 _atom_site_occupancy
  Na  Na0  1  0.01407770  0.00281515  0.99695089  1
  Na  Na1  1  0.00323142  0.00236182  0.50107461  1
  Na  Na2  1  0.11481420  0.38469284  0.37809140  1
  Na  Na3  1  0.75123036  0.11263178  0.19144914  1
  Na  Na4  1  0.49944683  0.51292248  0.24403439  1
  Na  Na5  1  0.25823716  0.88190780  0.30748809  1
  Na  Na6  1  0.61491780  0.25810231  0.44011447  1
  Na  Na7  1  0.88180846  0.61910271  0.12727985  1
  Na  Na8  1  0.38106984  0.75505449  0.55760037  1
  Na  Na9  1  0.75652796  0.11510687  0.69279991  1
  Na  Na10  1  0.48701375  0.49530541  0.75601401  1
  Na  Na11  1  0.24970320  0.88668389  0.80674855  1
  Na  Na12  1  0.61411364  0.25045164  0.94372246  1
  Na  Na13  1  0.88660395  0.61010060  0.62589776  1
  Cr  Cr14  1  0.15060593  0.14728000  0.06920535  1
  Cr  Cr15  1  0.35513185  0.35866560  0.17402272  1
  Cr  Cr16  1  0.34937291  0.35130039  0.67924743  1
  Cr  Cr17  1  0.85314501  0.85113006  0.42521148  1
  Cr  Cr18  1  0.64721344  0.64649492  0.82693992  1
  Cr  Cr19  1  0.85061911  0.84977506  0.92667926  1
  Co  Co20  1  0.14564471  0.14766890  0.57648434  1
  Co  Co21  1  0.64988366  0.65008942  0.32297203  1
  P  P22  1  0.04788977  0.75040021  0.22563137  1
  P  P23  1  0.45565133  0.04555711  0.37336480  1
  P  P24  1  0.75046070  0.45690584  0.02165608  1
  P  P25  1  0.24763643  0.54347218  0.47823161  1
  P  P26  1  0.54065120  0.96133493  0.12306444  1
  P  P27  1  0.04305772  0.74335454  0.73089745  1
  P  P28  1  0.96096412  0.24699280  0.26930100  1
  P  P29  1  0.45526826  0.04186081  0.87568301  1
  P  P30  1  0.74596984  0.45532055  0.52242247  1
  P  P31  1  0.24842626  0.54100888  0.97988595  1
  P  P32  1  0.54516775  0.95466022  0.62543733  1
  P  P33  1  0.95427697  0.24879207  0.77308220  1
  O  O34  1  0.13004317  0.27728151  0.25776841  1
  O  O35  1  0.27363593  0.51659512  0.06528579  1
  O  O36  1  0.06798417  0.92309446  0.13832262  1
  O  O37  1  0.52174593  0.12927411  0.13798073  1
  O  O38  1  0.01933095  0.77867941  0.31272892  1
  O  O39  1  0.22484208  0.57756861  0.21941155  1
  O  O40  1  0.27701915  0.07044534  0.45660849  1
  O  O41  1  0.43690387  0.22824055  0.28863634  1
  O  O42  1  0.21193528  0.37936660  0.49130140  1
  O  O43  1  0.58460688  0.42957365  0.11295897  1
  O  O44  1  0.07661743  0.72608279  0.46872621  1
  O  O45  1  0.36863310  0.99655427  0.10829092  1
  O  O46  1  0.62689807  0.01797539  0.38926745  1
  O  O47  1  0.12933191  0.27320717  0.75651977  1
  O  O48  1  0.91524496  0.27420712  0.03563614  1
  O  O49  1  0.41176869  0.57016699  0.38821545  1
  O  O50  1  0.78619457  0.62263212  0.00886559  1
  O  O51  1  0.27764237  0.51772319  0.56386482  1
  O  O52  1  0.56516316  0.78052667  0.20492702  1
  O  O53  1  0.06376857  0.90946662  0.64000962  1
  O  O54  1  0.51850579  0.12621940  0.63957618  1
  O  O55  1  0.72143555  0.93831302  0.03793223  1
  O  O56  1  0.01724805  0.78460864  0.81224073  1
  O  O57  1  0.22463288  0.57819666  0.71723871  1
  O  O58  1  0.78037386  0.41071872  0.28181953  1
  O  O59  1  0.98996303  0.21491600  0.18461625  1
  O  O60  1  0.27779614  0.06688570  0.95822662  1
  O  O61  1  0.47991188  0.88198164  0.35584678  1
  O  O62  1  0.93955239  0.07616344  0.36017931  1
  O  O63  1  0.44257221  0.21849641  0.78804201  1
  O  O64  1  0.71229061  0.48042720  0.43999698  1
  O  O65  1  0.22535743  0.37046678  0.99112427  1
  O  O66  1  0.57558977  0.43785874  0.61361034  1
  O  O67  1  0.08007571  0.72190024  0.96685553  1
  O  O68  1  0.88165228  0.72177877  0.23587794  1
  O  O69  1  0.37922668  0.97231366  0.61246665  1
  O  O70  1  0.62754373  0.01645631  0.88923161  1
  O  O71  1  0.91064090  0.27566726  0.53557944  1
  O  O72  1  0.41710783  0.56846685  0.88931044  1
  O  O73  1  0.77802721  0.62608978  0.50913077  1
  O  O74  1  0.57432194  0.77403136  0.70993452  1
  O  O75  1  0.72620251  0.93372678  0.54021499  1
  O  O76  1  0.77515581  0.41872913  0.78738182  1
  O  O77  1  0.96665050  0.22152263  0.69150394  1
  O  O78  1  0.48199967  0.87685318  0.85647824  1
  O  O79  1  0.93218248  0.07993590  0.86405243  1
  O  O80  1  0.71227738  0.48205921  0.93967521  1
  O  O81  1  0.87256229  0.71225061  0.74534423  1
