# generated using pymatgen
data_Ta2FeO6
_symmetry_space_group_name_H-M   'P 1'
_cell_length_a   4.82640903
_cell_length_b   14.44751123
_cell_length_c   9.31667739
_cell_angle_alpha   90.00000000
_cell_angle_beta   90.00000000
_cell_angle_gamma   89.98898231
_symmetry_Int_Tables_number   1
_chemical_formula_structural   Ta2FeO6
_chemical_formula_sum   'Ta12 Fe6 O36'
_cell_volume   649.64816342
_cell_formula_units_Z   6
loop_
 _symmetry_equiv_pos_site_id
 _symmetry_equiv_pos_as_xyz
  1  'x, y, z'
loop_
 _atom_site_type_symbol
 _atom_site_label
 _atom_site_symmetry_multiplicity
 _atom_site_fract_x
 _atom_site_fract_y
 _atom_site_fract_z
 _atom_site_occupancy
  Ta  Ta0  1  0.00155784  0.00416061  0.00106102  1
  Ta  Ta1  1  0.00353442  0.99610836  0.65568777  1
  Ta  Ta2  1  0.99844216  0.32917239  0.00106102  1
  Ta  Ta3  1  0.99646558  0.33722464  0.65568777  1
  Ta  Ta4  1  0.00000000  0.66666700  0.66395867  1
  Ta  Ta5  1  0.50000000  0.16666700  0.50891970  1
  Ta  Ta6  1  0.50000000  0.16666700  0.16976508  1
  Ta  Ta7  1  0.49762860  0.49618669  0.17717495  1
  Ta  Ta8  1  0.50237140  0.83714631  0.17717495  1
  Ta  Ta9  1  0.49716944  0.50402336  0.83216571  1
  Ta  Ta10  1  0.50283056  0.82930964  0.83216571  1
  Ta  Ta11  1  0.00000000  0.66666700  0.32384136  1
  Fe  Fe12  1  0.00716129  0.99897074  0.33319064  1
  Fe  Fe13  1  0.99283871  0.33436226  0.33319064  1
  Fe  Fe14  1  0.00000000  0.66666700  0.99873849  1
  Fe  Fe15  1  0.49285591  0.49977431  0.49972166  1
  Fe  Fe16  1  0.50714409  0.83355869  0.49972166  1
  Fe  Fe17  1  0.50000000  0.16666700  0.83467529  1
  O  O18  1  0.21001973  0.26620953  0.51494369  1
  O  O19  1  0.18809660  0.60511461  0.49923403  1
  O  O20  1  0.19706699  0.92989157  0.51573635  1
  O  O21  1  0.17705121  0.26990542  0.83737366  1
  O  O22  1  0.20157921  0.59693682  0.81846122  1
  O  O23  1  0.20598698  0.93647552  0.83413162  1
  O  O24  1  0.20799655  0.26514039  0.15090505  1
  O  O25  1  0.20560177  0.59813377  0.17828157  1
  O  O26  1  0.20486781  0.92999275  0.14908462  1
  O  O27  1  0.31088099  0.10524346  0.33444779  1
  O  O28  1  0.29355816  0.09858693  0.65522988  1
  O  O29  1  0.30211963  0.43097472  0.31772080  1
  O  O30  1  0.29207506  0.76510789  0.31778773  1
  O  O31  1  0.29321338  0.43047812  0.68388624  1
  O  O32  1  0.29358732  0.76425933  0.68359444  1
  O  O33  1  0.29679269  0.09748222  0.01536845  1
  O  O34  1  0.29470275  0.43583825  0.99900194  1
  O  O35  1  0.32364361  0.76985457  0.99585988  1
  O  O36  1  0.67635639  0.56347943  0.99585988  1
  O  O37  1  0.70320731  0.23585078  0.01536845  1
  O  O38  1  0.70529725  0.89749475  0.99900194  1
  O  O39  1  0.68911901  0.22809054  0.33444779  1
  O  O40  1  0.70644184  0.23474707  0.65522988  1
  O  O41  1  0.70792494  0.56822511  0.31778773  1
  O  O42  1  0.70641268  0.56907367  0.68359444  1
  O  O43  1  0.69788037  0.90235828  0.31772080  1
  O  O44  1  0.70678662  0.90285488  0.68388624  1
  O  O45  1  0.79200345  0.06819261  0.15090505  1
  O  O46  1  0.79513219  0.40334025  0.14908462  1
  O  O47  1  0.79439823  0.73520023  0.17828157  1
  O  O48  1  0.82294879  0.06342758  0.83737366  1
  O  O49  1  0.79401302  0.39685748  0.83413162  1
  O  O50  1  0.79842079  0.73639718  0.81846122  1
  O  O51  1  0.78998027  0.06712447  0.51494369  1
  O  O52  1  0.80293301  0.40344143  0.51573635  1
  O  O53  1  0.81190340  0.72821839  0.49923403  1
