# generated using pymatgen
data_Li3LaGa8
_symmetry_space_group_name_H-M   'P 1'
_cell_length_a   3.62664898
_cell_length_b   4.44750066
_cell_length_c   15.13575672
_cell_angle_alpha   89.99999986
_cell_angle_beta   90.00000000
_cell_angle_gamma   90.00000000
_symmetry_Int_Tables_number   1
_chemical_formula_structural   Li3LaGa8
_chemical_formula_sum   'Li3 La1 Ga8'
_cell_volume   244.13254703
_cell_formula_units_Z   1
loop_
 _symmetry_equiv_pos_site_id
 _symmetry_equiv_pos_as_xyz
  1  'x, y, z'
loop_
 _atom_site_type_symbol
 _atom_site_label
 _atom_site_symmetry_multiplicity
 _atom_site_fract_x
 _atom_site_fract_y
 _atom_site_fract_z
 _atom_site_occupancy
  Li  Li0  1  0.00000000  0.49999381  0.24320660  1
  Li  Li1  1  0.00000000  0.00001463  0.50000000  1
  Li  Li2  1  -0.00000000  0.49999381  0.75679340  1
  La  La3  1  0.00000000  0.99996377  0.00000000  1
  Ga  Ga4  1  0.50000000  -0.00011086  0.17646153  1
  Ga  Ga5  1  0.50000000  0.50003076  0.41862418  1
  Ga  Ga6  1  0.50000000  -0.00003875  0.66067056  1
  Ga  Ga7  1  0.50000000  0.49993584  0.91066015  1
  Ga  Ga8  1  0.50000000  0.49993584  0.08933985  1
  Ga  Ga9  1  0.50000000  -0.00003875  0.33932944  1
  Ga  Ga10  1  0.50000000  0.50003076  0.58137582  1
  Ga  Ga11  1  0.50000000  -0.00011086  0.82353847  1
