# generated using pymatgen
data_LiMnV(P2O7)2
_symmetry_space_group_name_H-M   'P 1'
_cell_length_a   9.69746611
_cell_length_b   8.18654897
_cell_length_c   7.04097288
_cell_angle_alpha   91.99377141
_cell_angle_beta   108.50807162
_cell_angle_gamma   89.18535341
_symmetry_Int_Tables_number   1
_chemical_formula_structural   LiMnV(P2O7)2
_chemical_formula_sum   'Li2 Mn2 V2 P8 O28'
_cell_volume   529.73965365
_cell_formula_units_Z   2
loop_
 _symmetry_equiv_pos_site_id
 _symmetry_equiv_pos_as_xyz
  1  'x, y, z'
loop_
 _atom_site_type_symbol
 _atom_site_label
 _atom_site_symmetry_multiplicity
 _atom_site_fract_x
 _atom_site_fract_y
 _atom_site_fract_z
 _atom_site_occupancy
  Li  Li0  1  0.58457198  0.86261780  0.67106964  1
  Li  Li1  1  0.91293535  0.35775412  0.32891306  1
  Mn  Mn2  1  0.39096564  0.00715390  0.26637154  1
  Mn  Mn3  1  0.89645951  0.99252186  0.27835616  1
  V  V4  1  0.10898359  0.50576722  0.72490433  1
  V  V5  1  0.60136829  0.49550681  0.71934136  1
  P  P6  1  0.19997009  0.17565566  0.51800217  1
  P  P7  1  0.11007523  0.78047192  0.09000067  1
  P  P8  1  0.39152445  0.28689760  0.91279216  1
  P  P9  1  0.30236820  0.67885897  0.48480034  1
  P  P10  1  0.70284333  0.17757580  0.52297015  1
  P  P11  1  0.60974081  0.78095583  0.09240596  1
  P  P12  1  0.89391935  0.29118485  0.90888707  1
  P  P13  1  0.79929622  0.68176657  0.48358026  1
  O  O14  1  0.02200556  0.34050851  0.83875787  1
  O  O15  1  0.06920951  0.67771691  0.89488349  1
  O  O16  1  0.08824917  0.03866052  0.47037801  1
  O  O17  1  0.12488350  0.34496730  0.51381810  1
  O  O18  1  0.19530294  0.66145851  0.60613002  1
  O  O19  1  0.29454815  0.43981167  0.90626489  1
  O  O20  1  0.29968193  0.15278931  0.74745774  1
  O  O21  1  0.20440868  0.65302777  0.25436737  1
  O  O22  1  0.20018439  0.93172534  0.08991971  1
  O  O23  1  0.30154240  0.17465757  0.39034404  1
  O  O24  1  0.37562325  0.84418949  0.51182083  1
  O  O25  1  0.41136527  0.53602916  0.52747855  1
  O  O26  1  0.52155879  0.33861380  0.84417668  1
  O  O27  1  0.57107482  0.68847518  0.88841041  1
  O  O28  1  0.44178145  0.20020761  0.10613762  1
  O  O29  1  0.47243968  0.82692028  0.14498225  1
  O  O30  1  0.59217579  0.03905058  0.48227470  1
  O  O31  1  0.63314400  0.34773865  0.51842723  1
  O  O32  1  0.69298166  0.66869137  0.60698587  1
  O  O33  1  0.79263271  0.44094495  0.90054766  1
  O  O34  1  0.80389099  0.15080317  0.75199816  1
  O  O35  1  0.70140155  0.64864839  0.24974932  1
  O  O36  1  0.70395027  0.93073196  0.09225751  1
  O  O37  1  0.80164772  0.17646805  0.39007582  1
  O  O38  1  0.86598785  0.84789259  0.50548014  1
  O  O39  1  0.90798426  0.53747694  0.51929238  1
  O  O40  1  0.93812634  0.21467267  0.11106293  1
  O  O41  1  0.96984629  0.82157782  0.13873183  1
