# generated using pymatgen
data_Na5Fe2P2(CO7)2
_symmetry_space_group_name_H-M   'P 1'
_cell_length_a   9.01939974
_cell_length_b   8.44033309
_cell_length_c   8.44007896
_cell_angle_alpha   76.80492993
_cell_angle_beta   90.03605828
_cell_angle_gamma   90.71793568
_symmetry_Int_Tables_number   1
_chemical_formula_structural   Na5Fe2P2(CO7)2
_chemical_formula_sum   'Na10 Fe4 P4 C4 O28'
_cell_volume   625.50158237
_cell_formula_units_Z   2
loop_
 _symmetry_equiv_pos_site_id
 _symmetry_equiv_pos_as_xyz
  1  'x, y, z'
loop_
 _atom_site_type_symbol
 _atom_site_label
 _atom_site_symmetry_multiplicity
 _atom_site_fract_x
 _atom_site_fract_y
 _atom_site_fract_z
 _atom_site_occupancy
  Na  Na0  1  0.92085345  0.24220822  0.49274605  1
  Na  Na1  1  0.91644066  0.75626191  0.97883663  1
  Na  Na2  1  0.73569036  0.12278343  0.86134219  1
  Na  Na3  1  0.73308777  0.38882957  0.11775796  1
  Na  Na4  1  0.73996068  0.61989138  0.38435673  1
  Na  Na5  1  0.26691223  0.61117043  0.88224204  1
  Na  Na6  1  0.26003932  0.38010862  0.61564327  1
  Na  Na7  1  0.26430964  0.87721657  0.13865781  1
  Na  Na8  1  0.07914655  0.75779178  0.50725395  1
  Na  Na9  1  0.08355934  0.24373809  0.02116337  1
  Fe  Fe10  1  0.64406169  0.01747145  0.23992611  1
  Fe  Fe11  1  0.65796184  0.52190561  0.73324991  1
  Fe  Fe12  1  0.35593831  0.98252855  0.76007389  1
  Fe  Fe13  1  0.34203816  0.47809439  0.26675009  1
  P  P14  1  0.57986439  0.22799807  0.52218160  1
  P  P15  1  0.58204934  0.73198636  0.02351736  1
  P  P16  1  0.41795066  0.26801364  0.97648264  1
  P  P17  1  0.42013561  0.77200193  0.47781840  1
  C  C18  1  0.94752724  0.48341803  0.76085269  1
  C  C19  1  0.92637909  0.98934988  0.25186484  1
  C  C20  1  0.07362091  0.01065012  0.74813516  1
  C  C21  1  0.05247276  0.51658197  0.23914731  1
  O  O22  1  0.93375054  0.02846428  0.74334023  1
  O  O23  1  0.90984579  0.52717703  0.22602771  1
  O  O24  1  0.88678133  0.59009995  0.64392212  1
  O  O25  1  0.86296502  0.10977133  0.14806506  1
  O  O26  1  0.86153797  0.38760914  0.86684564  1
  O  O27  1  0.83565512  0.89142566  0.35005784  1
  O  O28  1  0.67214056  0.16752334  0.39046962  1
  O  O29  1  0.68090843  0.66771550  0.90324932  1
  O  O30  1  0.68779982  0.34482515  0.58534412  1
  O  O31  1  0.67318846  0.87028489  0.07664540  1
  O  O32  1  0.56482092  0.69412507  0.54628934  1
  O  O33  1  0.56755030  0.19725357  0.05549355  1
  O  O34  1  0.54295585  0.08196186  0.67053145  1
  O  O35  1  0.54806488  0.59216189  0.17365994  1
  O  O36  1  0.45193512  0.40783811  0.82634006  1
  O  O37  1  0.45704415  0.91803814  0.32946855  1
  O  O38  1  0.43244970  0.80274643  0.94450645  1
  O  O39  1  0.43517908  0.30587493  0.45371066  1
  O  O40  1  0.32681154  0.12971511  0.92335460  1
  O  O41  1  0.32785944  0.83247666  0.60953038  1
  O  O42  1  0.31220018  0.65517485  0.41465588  1
  O  O43  1  0.31909157  0.33228450  0.09675068  1
  O  O44  1  0.16434588  0.10857434  0.64994216  1
  O  O45  1  0.13846203  0.61239086  0.13315436  1
  O  O46  1  0.11321867  0.40990005  0.35607788  1
  O  O47  1  0.13703498  0.89022867  0.85193494  1
  O  O48  1  0.09015421  0.47282297  0.77397229  1
  O  O49  1  0.06624946  0.97153572  0.25665977  1
