# generated using pymatgen
data_Li2FeF5
_symmetry_space_group_name_H-M   'P 1'
_cell_length_a   5.10379935
_cell_length_b   5.77095881
_cell_length_c   7.26222678
_cell_angle_alpha   70.60099790
_cell_angle_beta   90.00000000
_cell_angle_gamma   63.75587401
_symmetry_Int_Tables_number   1
_chemical_formula_structural   Li2FeF5
_chemical_formula_sum   'Li4 Fe2 F10'
_cell_volume   178.21141373
_cell_formula_units_Z   2
loop_
 _symmetry_equiv_pos_site_id
 _symmetry_equiv_pos_as_xyz
  1  'x, y, z'
loop_
 _atom_site_type_symbol
 _atom_site_label
 _atom_site_symmetry_multiplicity
 _atom_site_fract_x
 _atom_site_fract_y
 _atom_site_fract_z
 _atom_site_occupancy
  Li  Li0  1  0.62750888  0.71418496  0.74633525  1
  Li  Li1  1  0.65830617  0.71418496  0.24633525  1
  Li  Li2  1  0.34169383  0.28581504  0.75366475  1
  Li  Li3  1  0.37249112  0.28581504  0.25366475  1
  Fe  Fe4  1  -0.00000000  0.00000000  0.50000000  1
  Fe  Fe5  1  -0.00000000  0.00000000  0.00000000  1
  F  F6  1  0.40514372  0.83046776  0.95667915  1
  F  F7  1  0.76438852  0.83046776  0.45667915  1
  F  F8  1  0.33079707  0.64106724  0.64545573  1
  F  F9  1  0.97186431  0.35893276  0.85454427  1
  F  F10  1  0.02813569  0.64106724  0.14545573  1
  F  F11  1  0.66920293  0.35893276  0.35454427  1
  F  F12  1  0.23561148  0.16953224  0.54332085  1
  F  F13  1  0.82235936  0.00000000  0.75000000  1
  F  F14  1  0.59485628  0.16953224  0.04332085  1
  F  F15  1  0.17764064  1.00000000  0.25000000  1
