# generated using pymatgen
data_LiVFe(P2O7)2
_symmetry_space_group_name_H-M   'P 1'
_cell_length_a   9.77068436
_cell_length_b   16.94434521
_cell_length_c   7.19180982
_cell_angle_alpha   83.86691768
_cell_angle_beta   68.09533230
_cell_angle_gamma   73.26800564
_symmetry_Int_Tables_number   1
_chemical_formula_structural   LiVFe(P2O7)2
_chemical_formula_sum   'Li4 V4 Fe4 P16 O56'
_cell_volume   1057.93064151
_cell_formula_units_Z   4
loop_
 _symmetry_equiv_pos_site_id
 _symmetry_equiv_pos_as_xyz
  1  'x, y, z'
loop_
 _atom_site_type_symbol
 _atom_site_label
 _atom_site_symmetry_multiplicity
 _atom_site_fract_x
 _atom_site_fract_y
 _atom_site_fract_z
 _atom_site_occupancy
  Li  Li0  1  0.03422061  0.43176944  0.67253582  1
  Li  Li1  1  0.40775629  0.68072373  0.32970984  1
  Li  Li2  1  0.65580959  0.18131555  0.33044221  1
  Li  Li3  1  0.78446360  0.93154415  0.67411966  1
  V  V4  1  0.12154524  0.24711047  0.72049844  1
  V  V5  1  0.36682263  0.75351924  0.72729470  1
  V  V6  1  0.61534690  0.25394549  0.72914661  1
  V  V7  1  0.87012214  0.74774846  0.72203330  1
  Fe  Fe8  1  0.00502312  0.50474213  0.26637629  1
  Fe  Fe9  1  0.25540364  0.00326104  0.27483215  1
  Fe  Fe10  1  0.50970282  0.49705557  0.27490423  1
  Fe  Fe11  1  0.75897833  0.99875459  0.26665908  1
  P  P12  1  0.14526914  0.59039437  0.52378079  1
  P  P13  1  0.39606771  0.08928486  0.52166238  1
  P  P14  1  0.12194791  0.89071411  0.08533175  1
  P  P15  1  0.36904201  0.39103048  0.08666035  1
  P  P16  1  0.11447791  0.64244792  0.91316301  1
  P  P17  1  0.36389877  0.14171948  0.91254964  1
  P  P18  1  0.14035042  0.84204133  0.47652021  1
  P  P19  1  0.38942058  0.34137312  0.47665872  1
  P  P20  1  0.64452399  0.58878972  0.52021190  1
  P  P21  1  0.89410636  0.08982171  0.52171049  1
  P  P22  1  0.61872022  0.88964036  0.08909020  1
  P  P23  1  0.87149068  0.38941279  0.08802502  1
  P  P24  1  0.61203807  0.64196420  0.91070806  1
  P  P25  1  0.86274370  0.14233300  0.91179271  1
  P  P26  1  0.64277318  0.83839096  0.47929867  1
  P  P27  1  0.89350093  0.33874641  0.47981216  1
  O  O28  1  0.05505822  0.09007557  0.39097440  1
  O  O29  1  0.01334635  0.26900885  0.53173812  1
  O  O30  1  0.01371957  0.16623741  0.85163159  1
  O  O31  1  0.08536004  0.59658154  0.10889694  1
  O  O32  1  0.33530264  0.09616625  0.10780533  1
  O  O33  1  0.19619330  0.41339902  0.14396395  1
  O  O34  1  0.08912975  0.52079099  0.48517854  1
  O  O35  1  0.34381709  0.02140885  0.47360408  1
  O  O36  1  0.03337832  0.67583231  0.52182427  1
  O  O37  1  0.28566785  0.17603613  0.52149922  1
  O  O38  1  0.22502187  0.33675528  0.60758734  1
  O  O39  1  0.23271778  0.21737667  0.90197091  1
  O  O40  1  0.13991110  0.57499234  0.75210993  1
  O  O41  1  0.39147589  0.07471598  0.74992109  1
  O  O42  1  0.16504118  0.82318622  0.24997250  1
  O  O43  1  0.41502363  0.32312282  0.24986126  1
  O  O44  1  0.17865865  0.96500267  0.08611105  1
  O  O45  1  0.42852254  0.46464033  0.08760237  1
  O  O46  1  0.30743053  0.59171133  0.38950548  1
  O  O47  1  0.56045015  0.09102821  0.39109447  1
  O  O48  1  0.15831009  0.92643691  0.48807842  1
  O  O49  1  0.40715374  0.42602417  0.48941074  1
  O  O50  1  0.26416709  0.77070571  0.52134704  1
  O  O51  1  0.51394102  0.27085125  0.52148413  1
  O  O52  1  0.26303958  0.67014132  0.84884041  1
  O  O53  1  0.51251222  0.17038616  0.84834883  1
  O  O54  1  0.20270396  0.83992536  0.89074804  1
  O  O55  1  0.45132796  0.34049603  0.89138841  1
  O  O56  1  0.57512533  0.60012324  0.11431645  1
  O  O57  1  0.82545278  0.09976568  0.11526793  1
  O  O58  1  0.44753826  0.91018385  0.14325231  1
  O  O59  1  0.69966242  0.40929104  0.14072600  1
  O  O60  1  0.59016380  0.52060096  0.47448574  1
  O  O61  1  0.83645148  0.01960060  0.48597390  1
  O  O62  1  0.52809947  0.67390807  0.51930951  1
  O  O63  1  0.77616028  0.17354648  0.51914079  1
  O  O64  1  0.47917643  0.83258363  0.60707837  1
  O  O65  1  0.72989414  0.33180711  0.60720539  1
  O  O66  1  0.48021984  0.71874281  0.91022300  1
  O  O67  1  0.72987776  0.21849727  0.91231842  1
  O  O68  1  0.63506401  0.57536103  0.75281263  1
  O  O69  1  0.88371324  0.07567332  0.75447213  1
  O  O70  1  0.66708952  0.82362098  0.25132699  1
  O  O71  1  0.91710353  0.32380548  0.25184140  1
  O  O72  1  0.67729878  0.96515468  0.08268170  1
  O  O73  1  0.92740507  0.46557391  0.08140492  1
  O  O74  1  0.80790738  0.58906068  0.39348032  1
  O  O75  1  0.66483686  0.92321185  0.49273860  1
  O  O76  1  0.91532363  0.42331741  0.49352085  1
  O  O77  1  0.76334132  0.76937459  0.53141283  1
  O  O78  1  0.76319183  0.66672873  0.85049031  1
  O  O79  1  0.70824640  0.84286305  0.88740465  1
  O  O80  1  0.95942210  0.34235034  0.88727915  1
  O  O81  1  0.94844780  0.91243355  0.14073344  1
  O  O82  1  0.97568009  0.83653066  0.60756028  1
  O  O83  1  0.98244683  0.71747762  0.90321276  1
