# generated using pymatgen
data_Li4Mn3CrO8
_symmetry_space_group_name_H-M   'P 1'
_cell_length_a   10.63549935
_cell_length_b   10.25725437
_cell_length_c   14.67241179
_cell_angle_alpha   19.47820661
_cell_angle_beta   19.68127031
_cell_angle_gamma   34.02853679
_symmetry_Int_Tables_number   1
_chemical_formula_structural   Li4Mn3CrO8
_chemical_formula_sum   'Li4 Mn3 Cr1 O8'
_cell_volume   153.01201598
_cell_formula_units_Z   1
loop_
 _symmetry_equiv_pos_site_id
 _symmetry_equiv_pos_as_xyz
  1  'x, y, z'
loop_
 _atom_site_type_symbol
 _atom_site_label
 _atom_site_symmetry_multiplicity
 _atom_site_fract_x
 _atom_site_fract_y
 _atom_site_fract_z
 _atom_site_occupancy
  Li  Li0  1  0.00002285  0.00004285  0.49994912  1
  Li  Li1  1  -0.00000376  0.50000884  0.49998689  1
  Li  Li2  1  0.49999690  0.99997559  0.50001261  1
  Li  Li3  1  0.50001902  0.50000573  0.49998071  1
  Mn  Mn4  1  0.00001626  0.50001730  -0.00001806  1
  Mn  Mn5  1  0.50015142  0.00036388  -0.00032303  1
  Mn  Mn6  1  0.50001299  0.50009989  0.99994018  1
  Cr  Cr7  1  0.00009526  0.00019321  -0.00012602  1
  O  O8  1  0.95840653  0.99968611  0.28479577  1
  O  O9  1  0.97003522  0.48557417  0.28475388  1
  O  O10  1  0.51955036  0.99719493  0.25133318  1
  O  O11  1  0.04159769  0.00028777  0.71521539  1
  O  O12  1  0.48127868  0.51578273  0.25660220  1
  O  O13  1  0.02981036  0.51408833  0.71556033  1
  O  O14  1  0.48035086  0.00267928  0.74878912  1
  O  O15  1  0.51865936  0.48399939  0.74354874  1
