# generated using pymatgen
data_Y5Ge3C
_symmetry_space_group_name_H-M   'P 1'
_cell_length_a   8.52872958
_cell_length_b   8.52872986
_cell_length_c   6.46213317
_cell_angle_alpha   90.00000000
_cell_angle_beta   90.00000000
_cell_angle_gamma   119.87163116
_symmetry_Int_Tables_number   1
_chemical_formula_structural   Y5Ge3C
_chemical_formula_sum   'Y10 Ge6 C2'
_cell_volume   407.60129865
_cell_formula_units_Z   2
loop_
 _symmetry_equiv_pos_site_id
 _symmetry_equiv_pos_as_xyz
  1  'x, y, z'
loop_
 _atom_site_type_symbol
 _atom_site_label
 _atom_site_symmetry_multiplicity
 _atom_site_fract_x
 _atom_site_fract_y
 _atom_site_fract_z
 _atom_site_occupancy
  Y  Y0  1  0.66616853  0.33384016  0.50000009  1
  Y  Y1  1  0.33384016  0.66616853  0.50000009  1
  Y  Y2  1  0.33383147  0.66615984  0.00000009  1
  Y  Y3  1  0.66615984  0.33383147  0.00000009  1
  Y  Y4  1  0.77732538  0.77732538  0.24999955  1
  Y  Y5  1  0.22132210  0.00032761  0.24999917  1
  Y  Y6  1  0.00032761  0.22132210  0.24999917  1
  Y  Y7  1  0.22267462  0.22267462  0.74999955  1
  Y  Y8  1  0.77867790  0.99967239  0.74999917  1
  Y  Y9  1  0.99967239  0.77867790  0.74999917  1
  Ge  Ge10  1  0.40667126  0.40667126  0.24999233  1
  Ge  Ge11  1  0.59278590  0.99998966  0.25001018  1
  Ge  Ge12  1  0.99998966  0.59278590  0.25001018  1
  Ge  Ge13  1  0.59332874  0.59332874  0.74999233  1
  Ge  Ge14  1  0.40721410  0.00001034  0.75001018  1
  Ge  Ge15  1  0.00001034  0.40721410  0.75001018  1
  C  C16  1  0.00000616  0.00000616  0.49998924  1
  C  C17  1  0.99999384  0.99999384  0.99998924  1
