# generated using pymatgen
data_Na3Mn2P2(CO7)2
_symmetry_space_group_name_H-M   'P 1'
_cell_length_a   10.39814310
_cell_length_b   6.57979396
_cell_length_c   10.50659835
_cell_angle_alpha   90.00000000
_cell_angle_beta   121.24149734
_cell_angle_gamma   90.00000000
_symmetry_Int_Tables_number   1
_chemical_formula_structural   Na3Mn2P2(CO7)2
_chemical_formula_sum   'Na6 Mn4 P4 C4 O28'
_cell_volume   614.59732299
_cell_formula_units_Z   2
loop_
 _symmetry_equiv_pos_site_id
 _symmetry_equiv_pos_as_xyz
  1  'x, y, z'
loop_
 _atom_site_type_symbol
 _atom_site_label
 _atom_site_symmetry_multiplicity
 _atom_site_fract_x
 _atom_site_fract_y
 _atom_site_fract_z
 _atom_site_occupancy
  Na  Na0  1  0.99848591  0.02790728  0.24349858  1
  Na  Na1  1  0.49848591  0.47209272  0.24349858  1
  Na  Na2  1  0.50340240  0.50982571  0.76069459  1
  Na  Na3  1  0.50179356  0.99084691  0.76142733  1
  Na  Na4  1  0.00179356  0.50915309  0.76142733  1
  Na  Na5  1  0.00340240  0.99017429  0.76069459  1
  Mn  Mn6  1  0.27812253  0.74759952  0.34476286  1
  Mn  Mn7  1  0.77812253  0.75240048  0.34476286  1
  Mn  Mn8  1  0.21562333  0.25157814  0.64833305  1
  Mn  Mn9  1  0.71562333  0.24842186  0.64833305  1
  P  P10  1  0.35599129  0.25005087  0.42425787  1
  P  P11  1  0.85599129  0.24994913  0.42425787  1
  P  P12  1  0.14336961  0.75206680  0.57241591  1
  P  P13  1  0.64336961  0.74793320  0.57241591  1
  C  C14  1  0.17338284  0.75163991  0.07640410  1
  C  C15  1  0.67338284  0.74836009  0.07640410  1
  C  C16  1  0.32607605  0.24981802  0.92141487  1
  C  C17  1  0.82607605  0.25018198  0.92141487  1
  O  O18  1  0.38396235  0.24971181  0.05744052  1
  O  O19  1  0.88396235  0.25028819  0.05744052  1
  O  O20  1  0.09389787  0.76233695  0.14077137  1
  O  O21  1  0.59389787  0.73766305  0.14077137  1
  O  O22  1  0.31812906  0.74127140  0.17482882  1
  O  O23  1  0.81812906  0.75872860  0.17482882  1
  O  O24  1  0.26928733  0.06237635  0.33159538  1
  O  O25  1  0.27657854  0.43812338  0.32795201  1
  O  O26  1  0.77657854  0.06187662  0.32795201  1
  O  O27  1  0.76928733  0.43762365  0.33159538  1
  O  O28  1  0.02357381  0.24959902  0.46320428  1
  O  O29  1  0.14035709  0.75939423  0.42420213  1
  O  O30  1  0.52357381  0.25040098  0.46320428  1
  O  O31  1  0.64035709  0.74060577  0.42420213  1
  O  O32  1  0.36176698  0.25295390  0.57587032  1
  O  O33  1  0.47696837  0.74862262  0.53903808  1
  O  O34  1  0.86176698  0.24704610  0.57587032  1
  O  O35  1  0.97696837  0.75137738  0.53903808  1
  O  O36  1  0.22804227  0.56407053  0.66819780  1
  O  O37  1  0.22790268  0.93811005  0.67182263  1
  O  O38  1  0.72790268  0.56188995  0.67182263  1
  O  O39  1  0.72804227  0.93592947  0.66819780  1
  O  O40  1  0.17885342  0.25044481  0.82347615  1
  O  O41  1  0.67885342  0.24955519  0.82347615  1
  O  O42  1  0.40181853  0.25022861  0.85107396  1
  O  O43  1  0.90181853  0.24977139  0.85107396  1
  O  O44  1  0.11733217  0.75031428  0.93817444  1
  O  O45  1  0.61733217  0.74968572  0.93817444  1
