# generated using pymatgen
data_Na2MnPCO7
_symmetry_space_group_name_H-M   'P 1'
_cell_length_a   8.96577615
_cell_length_b   8.53052210
_cell_length_c   8.50536799
_cell_angle_alpha   104.38948657
_cell_angle_beta   89.80682659
_cell_angle_gamma   88.90927883
_symmetry_Int_Tables_number   1
_chemical_formula_structural   Na2MnPCO7
_chemical_formula_sum   'Na8 Mn4 P4 C4 O28'
_cell_volume   629.97031208
_cell_formula_units_Z   4
loop_
 _symmetry_equiv_pos_site_id
 _symmetry_equiv_pos_as_xyz
  1  'x, y, z'
loop_
 _atom_site_type_symbol
 _atom_site_label
 _atom_site_symmetry_multiplicity
 _atom_site_fract_x
 _atom_site_fract_y
 _atom_site_fract_z
 _atom_site_occupancy
  Na  Na0  1  0.76239445  0.38035072  0.37383321  1
  Na  Na1  1  0.76342801  0.12539164  0.63260565  1
  Na  Na2  1  0.74297488  0.61827700  0.13895882  1
  Na  Na3  1  0.74349161  0.88652547  0.87068407  1
  Na  Na4  1  0.25580258  0.12483181  0.14673921  1
  Na  Na5  1  0.24581027  0.36950428  0.86154841  1
  Na  Na6  1  0.23839528  0.61396087  0.61218511  1
  Na  Na7  1  0.08653246  0.76250698  0.02914692  1
  Mn  Mn8  1  0.64689618  0.48829371  0.73492948  1
  Mn  Mn9  1  0.64251133  0.98469928  0.23772525  1
  Mn  Mn10  1  0.35103410  0.52160427  0.26547122  1
  Mn  Mn11  1  0.35008081  0.01543851  0.75759869  1
  P  P12  1  0.57533476  0.27140524  0.02055254  1
  P  P13  1  0.57720250  0.76736359  0.52047509  1
  P  P14  1  0.42657356  0.23297068  0.48073966  1
  P  P15  1  0.41845150  0.72498730  0.97163458  1
  C  C16  1  0.92195168  0.01016625  0.25509476  1
  C  C17  1  0.92589957  0.52042367  0.77261274  1
  C  C18  1  0.07622404  0.48563939  0.23589031  1
  C  C19  1  0.07516361  0.98603774  0.73948960  1
  O  O20  1  0.93678746  0.48083816  0.22742304  1
  O  O21  1  0.93535139  0.98172045  0.74372947  1
  O  O22  1  0.85407818  0.41089408  0.66330359  1
  O  O23  1  0.84220083  0.89825453  0.15174303  1
  O  O24  1  0.83865743  0.11034795  0.36134862  1
  O  O25  1  0.83925414  0.62077333  0.87513627  1
  O  O26  1  0.66868970  0.14265192  0.07896775  1
  O  O27  1  0.67607700  0.64427629  0.58278464  1
  O  O28  1  0.66519818  0.33164309  0.89168441  1
  O  O29  1  0.66654424  0.82594507  0.39099249  1
  O  O30  1  0.54506455  0.42217150  0.17029578  1
  O  O31  1  0.58233298  0.29934867  0.54282330  1
  O  O32  1  0.56812196  0.79235968  0.04651121  1
  O  O33  1  0.54421804  0.91683118  0.67028934  1
  O  O34  1  0.45790104  0.08391650  0.33010241  1
  O  O35  1  0.42337282  0.20143076  0.95363723  1
  O  O36  1  0.42771849  0.69312929  0.45388357  1
  O  O37  1  0.45464129  0.58240037  0.81516867  1
  O  O38  1  0.34049949  0.18111742  0.61496682  1
  O  O39  1  0.33162014  0.35769577  0.42006232  1
  O  O40  1  0.32200107  0.65169927  0.08429489  1
  O  O41  1  0.32150269  0.85500958  0.92028334  1
  O  O42  1  0.16879043  0.38734587  0.13731359  1
  O  O43  1  0.16299019  0.88361531  0.64248616  1
  O  O44  1  0.15024960  0.10104122  0.84236535  1
  O  O45  1  0.14642614  0.59679833  0.34496011  1
  O  O46  1  0.06023080  0.00930933  0.24079238  1
  O  O47  1  0.06660053  0.52743469  0.77720993  1
