# generated using pymatgen
data_La2Ti3CoO10
_symmetry_space_group_name_H-M   'P 1'
_cell_length_a   3.83366991
_cell_length_b   3.83366991
_cell_length_c   13.95917474
_cell_angle_alpha   82.10736553
_cell_angle_beta   82.10736553
_cell_angle_gamma   90.00000000
_symmetry_Int_Tables_number   1
_chemical_formula_structural   La2Ti3CoO10
_chemical_formula_sum   'La2 Ti3 Co1 O10'
_cell_volume   201.25269437
_cell_formula_units_Z   1
loop_
 _symmetry_equiv_pos_site_id
 _symmetry_equiv_pos_as_xyz
  1  'x, y, z'
loop_
 _atom_site_type_symbol
 _atom_site_label
 _atom_site_symmetry_multiplicity
 _atom_site_fract_x
 _atom_site_fract_y
 _atom_site_fract_z
 _atom_site_occupancy
  La  La0  1  0.42018271  0.42018271  0.15963459  1
  La  La1  1  0.57981729  0.57981729  0.84036541  1
  Ti  Ti2  1  0.15659763  0.15659763  0.68680474  1
  Ti  Ti3  1  0.84340237  0.84340237  0.31319526  1
  Ti  Ti4  1  -0.00000000  -0.00000000  0.00000000  1
  Co  Co5  1  0.75000000  0.25000000  0.50000000  1
  O  O6  1  0.22323755  0.22323755  0.55352490  1
  O  O7  1  0.77676245  0.77676245  0.44647510  1
  O  O8  1  0.07148382  0.07148382  0.85703236  1
  O  O9  1  0.92851618  0.92851618  0.14296764  1
  O  O10  1  0.64075897  0.14075897  0.71848206  1
  O  O11  1  0.13977757  0.63977757  0.72044485  1
  O  O12  1  0.36022243  0.86022243  0.27955515  1
  O  O13  1  0.85924103  0.35924103  0.28151794  1
  O  O14  1  0.50011428  0.00011428  0.99977144  1
  O  O15  1  0.99988572  0.49988572  0.00022856  1
