# generated using pymatgen
data_La2Ti3NiO10
_symmetry_space_group_name_H-M   'P 1'
_cell_length_a   3.85659630
_cell_length_b   3.85659630
_cell_length_c   13.65277079
_cell_angle_alpha   81.88047776
_cell_angle_beta   81.88047776
_cell_angle_gamma   90.00000000
_symmetry_Int_Tables_number   1
_chemical_formula_structural   La2Ti3NiO10
_chemical_formula_sum   'La2 Ti3 Ni1 O10'
_cell_volume   198.97025225
_cell_formula_units_Z   1
loop_
 _symmetry_equiv_pos_site_id
 _symmetry_equiv_pos_as_xyz
  1  'x, y, z'
loop_
 _atom_site_type_symbol
 _atom_site_label
 _atom_site_symmetry_multiplicity
 _atom_site_fract_x
 _atom_site_fract_y
 _atom_site_fract_z
 _atom_site_occupancy
  La  La0  1  0.41886828  0.41886828  0.16226343  1
  La  La1  1  0.58113172  0.58113172  0.83773657  1
  Ti  Ti2  1  0.15890380  0.15890380  0.68219240  1
  Ti  Ti3  1  0.84109620  0.84109620  0.31780760  1
  Ti  Ti4  1  0.00000000  0.00000000  -0.00000000  1
  Ni  Ni5  1  0.75000000  0.25000000  0.50000000  1
  O  O6  1  0.07271118  0.07271118  0.85457765  1
  O  O7  1  0.92728882  0.92728882  0.14542235  1
  O  O8  1  0.22686018  0.22686018  0.54627965  1
  O  O9  1  0.77313982  0.77313982  0.45372035  1
  O  O10  1  0.64374235  0.14374235  0.71251529  1
  O  O11  1  0.14123155  0.64123155  0.71753690  1
  O  O12  1  0.35876845  0.85876845  0.28246310  1
  O  O13  1  0.85625765  0.35625765  0.28748471  1
  O  O14  1  0.50098936  0.00098936  0.99802128  1
  O  O15  1  0.99901064  0.49901064  0.00197872  1
