# generated using pymatgen
data_LiMg2Ni
_symmetry_space_group_name_H-M   'P 1'
_cell_length_a   4.48207745
_cell_length_b   4.48207745
_cell_length_c   4.48207745
_cell_angle_alpha   59.94838662
_cell_angle_beta   59.94838662
_cell_angle_gamma   59.94838662
_symmetry_Int_Tables_number   1
_chemical_formula_structural   LiMg2Ni
_chemical_formula_sum   'Li1 Mg2 Ni1'
_cell_volume   63.59374459
_cell_formula_units_Z   1
loop_
 _symmetry_equiv_pos_site_id
 _symmetry_equiv_pos_as_xyz
  1  'x, y, z'
loop_
 _atom_site_type_symbol
 _atom_site_label
 _atom_site_symmetry_multiplicity
 _atom_site_fract_x
 _atom_site_fract_y
 _atom_site_fract_z
 _atom_site_occupancy
  Li  Li0  1  0.25000100  0.25000100  0.25000100  1
  Mg  Mg1  1  0.00001395  0.00001395  0.00001395  1
  Mg  Mg2  1  0.49998705  0.49998705  0.49998705  1
  Ni  Ni3  1  0.74999900  0.74999900  0.74999900  1
