# generated using pymatgen
data_Mg2Ag
_symmetry_space_group_name_H-M   'P 1'
_cell_length_a   3.23876612
_cell_length_b   5.56558284
_cell_length_c   7.34888434
_cell_angle_alpha   71.87368961
_cell_angle_beta   90.00000000
_cell_angle_gamma   106.91566043
_symmetry_Int_Tables_number   1
_chemical_formula_structural   Mg2Ag
_chemical_formula_sum   'Mg4 Ag2'
_cell_volume   119.84887609
_cell_formula_units_Z   2
loop_
 _symmetry_equiv_pos_site_id
 _symmetry_equiv_pos_as_xyz
  1  'x, y, z'
loop_
 _atom_site_type_symbol
 _atom_site_label
 _atom_site_symmetry_multiplicity
 _atom_site_fract_x
 _atom_site_fract_y
 _atom_site_fract_z
 _atom_site_occupancy
  Mg  Mg0  1  0.33717453  0.67434805  0.31638427  1
  Mg  Mg1  1  0.05171447  0.10342795  0.40583673  1
  Mg  Mg2  1  0.35838772  0.71677544  0.75411463  1
  Mg  Mg3  1  0.03050228  0.06100356  0.96810637  1
  Ag  Ag4  1  0.72131153  0.44262407  0.08058562  1
  Ag  Ag5  1  0.66757547  0.33515393  0.64163638  1
