# generated using pymatgen
data_PaFe3
_symmetry_space_group_name_H-M   'P 1'
_cell_length_a   5.41143976
_cell_length_b   5.35844916
_cell_length_c   4.70101564
_cell_angle_alpha   90.03434228
_cell_angle_beta   89.96445590
_cell_angle_gamma   120.49128873
_symmetry_Int_Tables_number   1
_chemical_formula_structural   PaFe3
_chemical_formula_sum   'Pa2 Fe6'
_cell_volume   117.46346512
_cell_formula_units_Z   2
loop_
 _symmetry_equiv_pos_site_id
 _symmetry_equiv_pos_as_xyz
  1  'x, y, z'
loop_
 _atom_site_type_symbol
 _atom_site_label
 _atom_site_symmetry_multiplicity
 _atom_site_fract_x
 _atom_site_fract_y
 _atom_site_fract_z
 _atom_site_occupancy
  Pa  Pa0  1  0.66727991  0.33431369  0.24991215  1
  Pa  Pa1  1  0.33359367  0.66738012  0.75001078  1
  Fe  Fe2  1  0.84360539  0.15528055  0.75011401  1
  Fe  Fe3  1  0.31133607  0.15504882  0.74999101  1
  Fe  Fe4  1  0.84478402  0.68957103  0.74995173  1
  Fe  Fe5  1  0.15645785  0.84431851  0.24991692  1
  Fe  Fe6  1  0.68842925  0.84480034  0.25000526  1
  Fe  Fe7  1  0.15451484  0.30928294  0.25009415  1
