# generated using pymatgen
data_La2CoSi3
_symmetry_space_group_name_H-M   'P 1'
_cell_length_a   4.07049590
_cell_length_b   4.07032107
_cell_length_c   8.76395811
_cell_angle_alpha   90.00000000
_cell_angle_beta   90.00000000
_cell_angle_gamma   59.98767338
_symmetry_Int_Tables_number   1
_chemical_formula_structural   La2CoSi3
_chemical_formula_sum   'La2 Co1 Si3'
_cell_volume   125.73406499
_cell_formula_units_Z   1
loop_
 _symmetry_equiv_pos_site_id
 _symmetry_equiv_pos_as_xyz
  1  'x, y, z'
loop_
 _atom_site_type_symbol
 _atom_site_label
 _atom_site_symmetry_multiplicity
 _atom_site_fract_x
 _atom_site_fract_y
 _atom_site_fract_z
 _atom_site_occupancy
  La  La0  1  0.99998440  0.00002106  0.00650081  1
  La  La1  1  0.99998440  0.00002106  0.49349919  1
  Co  Co2  1  0.66658781  0.66662383  0.25000000  1
  Si  Si3  1  0.66662624  0.66666152  0.75000000  1
  Si  Si4  1  0.33329794  0.33333276  0.25000000  1
  Si  Si5  1  0.33331922  0.33333976  0.75000000  1
