# generated using pymatgen
data_MgAu2
_symmetry_space_group_name_H-M   'P 1'
_cell_length_a   3.47038352
_cell_length_b   7.19522078
_cell_length_c   4.52252490
_cell_angle_alpha   90.00000000
_cell_angle_beta   90.00000000
_cell_angle_gamma   76.04504417
_symmetry_Int_Tables_number   1
_chemical_formula_structural   MgAu2
_chemical_formula_sum   'Mg2 Au4'
_cell_volume   109.59523374
_cell_formula_units_Z   2
loop_
 _symmetry_equiv_pos_site_id
 _symmetry_equiv_pos_as_xyz
  1  'x, y, z'
loop_
 _atom_site_type_symbol
 _atom_site_label
 _atom_site_symmetry_multiplicity
 _atom_site_fract_x
 _atom_site_fract_y
 _atom_site_fract_z
 _atom_site_occupancy
  Mg  Mg0  1  0.32176614  0.35646872  -0.00000000  1
  Mg  Mg1  1  0.12268086  0.75464128  0.50000200  1
  Au  Au2  1  0.98834291  0.02331219  0.00000000  1
  Au  Au3  1  0.65852169  0.68295461  0.00000000  1
  Au  Au4  1  0.45610209  0.08779881  0.50000200  1
  Au  Au5  1  0.78592131  0.42815539  0.50000200  1
