# generated using pymatgen
data_SnPbS3
_symmetry_space_group_name_H-M   'P 1'
_cell_length_a   3.85485042
_cell_length_b   9.06626021
_cell_length_c   14.43281501
_cell_angle_alpha   90.00000000
_cell_angle_beta   90.00000000
_cell_angle_gamma   90.00000000
_symmetry_Int_Tables_number   1
_chemical_formula_structural   SnPbS3
_chemical_formula_sum   'Sn4 Pb4 S12'
_cell_volume   504.41356280
_cell_formula_units_Z   4
loop_
 _symmetry_equiv_pos_site_id
 _symmetry_equiv_pos_as_xyz
  1  'x, y, z'
loop_
 _atom_site_type_symbol
 _atom_site_label
 _atom_site_symmetry_multiplicity
 _atom_site_fract_x
 _atom_site_fract_y
 _atom_site_fract_z
 _atom_site_occupancy
  Sn  Sn0  1  0.75000000  0.33625247  0.55106102  1
  Sn  Sn1  1  0.75000000  0.83625247  0.94893898  1
  Sn  Sn2  1  0.25000000  0.66374753  0.44893898  1
  Sn  Sn3  1  0.25000000  0.16374753  0.05106102  1
  Pb  Pb4  1  0.25000000  0.01092418  0.66884269  1
  Pb  Pb5  1  0.25000000  0.51092418  0.83115731  1
  Pb  Pb6  1  0.75000000  0.98907582  0.33115731  1
  Pb  Pb7  1  0.75000000  0.48907582  0.16884269  1
  S  S8  1  0.25000000  0.51831200  0.60342387  1
  S  S9  1  0.25000000  0.01831200  0.89657613  1
  S  S10  1  0.75000000  0.48168800  0.39657613  1
  S  S11  1  0.75000000  0.98168800  0.10342387  1
  S  S12  1  0.25000000  0.16478853  0.49481556  1
  S  S13  1  0.25000000  0.66478853  0.00518444  1
  S  S14  1  0.75000000  0.83521147  0.50518444  1
  S  S15  1  0.75000000  0.33521147  0.99481556  1
  S  S16  1  0.75000000  0.22046478  0.70966630  1
  S  S17  1  0.75000000  0.72046478  0.79033370  1
  S  S18  1  0.25000000  0.77953522  0.29033370  1
  S  S19  1  0.25000000  0.27953522  0.20966630  1
