# generated using pymatgen
data_Dy2Co7
_symmetry_space_group_name_H-M   'P 1'
_cell_length_a   4.94785441
_cell_length_b   4.94785441
_cell_length_c   12.39730726
_cell_angle_alpha   78.48914312
_cell_angle_beta   78.48914312
_cell_angle_gamma   59.99999775
_symmetry_Int_Tables_number   1
_chemical_formula_structural   Dy2Co7
_chemical_formula_sum   'Dy4 Co14'
_cell_volume   255.76722703
_cell_formula_units_Z   2
loop_
 _symmetry_equiv_pos_site_id
 _symmetry_equiv_pos_as_xyz
  1  'x, y, z'
loop_
 _atom_site_type_symbol
 _atom_site_label
 _atom_site_symmetry_multiplicity
 _atom_site_fract_x
 _atom_site_fract_y
 _atom_site_fract_z
 _atom_site_occupancy
  Dy  Dy0  1  0.05178379  0.05178379  0.84464863  1
  Dy  Dy1  1  0.94821621  0.94821621  0.15535137  1
  Dy  Dy2  1  0.14846115  0.14846115  0.55461655  1
  Dy  Dy3  1  0.85153885  0.85153885  0.44538345  1
  Co  Co4  1  0.50000000  0.50000000  0.50000000  1
  Co  Co5  1  0.27868059  0.27868059  0.16395822  1
  Co  Co6  1  0.72131941  0.72131941  0.83604178  1
  Co  Co7  1  0.38841031  0.38841031  0.83476906  1
  Co  Co8  1  0.61158969  0.61158969  0.16523094  1
  Co  Co9  1  0.50000000  0.50000000  -0.00000000  1
  Co  Co10  1  0.50000000  0.00000000  -0.00000000  1
  Co  Co11  1  0.00000000  0.50000000  -0.00000000  1
  Co  Co12  1  0.10885913  0.60903340  0.67307408  1
  Co  Co13  1  0.60903340  0.60903340  0.67307408  1
  Co  Co14  1  0.60903340  0.10885913  0.67307408  1
  Co  Co15  1  0.89114087  0.39096660  0.32692592  1
  Co  Co16  1  0.39096660  0.39096660  0.32692592  1
  Co  Co17  1  0.39096660  0.89114087  0.32692592  1
