# generated using pymatgen
data_Y2ZnGa
_symmetry_space_group_name_H-M   'P 1'
_cell_length_a   5.05520646
_cell_length_b   5.05518915
_cell_length_c   5.05520280
_cell_angle_alpha   60.00023270
_cell_angle_beta   59.99992481
_cell_angle_gamma   59.99987599
_symmetry_Int_Tables_number   1
_chemical_formula_structural   Y2ZnGa
_chemical_formula_sum   'Y2 Zn1 Ga1'
_cell_volume   91.34820162
_cell_formula_units_Z   1
loop_
 _symmetry_equiv_pos_site_id
 _symmetry_equiv_pos_as_xyz
  1  'x, y, z'
loop_
 _atom_site_type_symbol
 _atom_site_label
 _atom_site_symmetry_multiplicity
 _atom_site_fract_x
 _atom_site_fract_y
 _atom_site_fract_z
 _atom_site_occupancy
  Y  Y0  1  0.99999974  0.99999887  0.00000002  1
  Y  Y1  1  0.49999984  0.49999861  0.49999909  1
  Zn  Zn2  1  0.75000044  0.75000166  0.75000076  1
  Ga  Ga3  1  0.24999897  0.24999987  0.24999914  1
