# generated using pymatgen
data_KLuTa2O7
_symmetry_space_group_name_H-M   'P 1'
_cell_length_a   7.50806481
_cell_length_b   7.36939902
_cell_length_c   7.48734941
_cell_angle_alpha   90.00000000
_cell_angle_beta   60.09122795
_cell_angle_gamma   119.39091098
_symmetry_Int_Tables_number   1
_chemical_formula_structural   KLuTa2O7
_chemical_formula_sum   'K2 Lu2 Ta4 O14'
_cell_volume   296.00392316
_cell_formula_units_Z   2
loop_
 _symmetry_equiv_pos_site_id
 _symmetry_equiv_pos_as_xyz
  1  'x, y, z'
loop_
 _atom_site_type_symbol
 _atom_site_label
 _atom_site_symmetry_multiplicity
 _atom_site_fract_x
 _atom_site_fract_y
 _atom_site_fract_z
 _atom_site_occupancy
  K  K0  1  0.50000000  0.50000000  0.00000000  1
  K  K1  1  0.50000000  0.00000000  0.00000000  1
  Lu  Lu2  1  -0.00000000  0.00000000  0.50000000  1
  Lu  Lu3  1  0.00000000  0.00000000  0.00000000  1
  Ta  Ta4  1  0.50000000  0.00000000  0.50000000  1
  Ta  Ta5  1  0.50000000  0.50000000  0.50000000  1
  Ta  Ta6  1  0.00000000  0.50000000  0.00000000  1
  Ta  Ta7  1  -0.00000000  0.50000000  0.50000000  1
  O  O8  1  0.16778077  0.08389039  0.16610961  1
  O  O9  1  0.83221923  0.91610961  0.83389039  1
  O  O10  1  0.63154328  0.81577164  0.43422836  1
  O  O11  1  0.88304056  0.44152028  0.80847972  1
  O  O12  1  0.24169005  0.81961723  0.81552384  1
  O  O13  1  0.24169005  0.42207282  0.44278612  1
  O  O14  1  0.24169005  0.42207282  0.81552384  1
  O  O15  1  0.24169005  0.81961723  0.44278612  1
  O  O16  1  0.36845672  0.18422836  0.56577164  1
  O  O17  1  0.11695944  0.55847972  0.19152028  1
  O  O18  1  0.75830995  0.18038277  0.18447616  1
  O  O19  1  0.75830995  0.57792718  0.55721388  1
  O  O20  1  0.75830995  0.57792718  0.18447616  1
  O  O21  1  0.75830995  0.18038277  0.55721388  1
