# generated using pymatgen
data_Ba2YGaTe5
_symmetry_space_group_name_H-M   'P 1'
_cell_length_a   4.52207875
_cell_length_b   10.47052959
_cell_length_c   14.35105136
_cell_angle_alpha   90.00000000
_cell_angle_beta   90.00000000
_cell_angle_gamma   102.47086974
_symmetry_Int_Tables_number   1
_chemical_formula_structural   Ba2YGaTe5
_chemical_formula_sum   'Ba4 Y2 Ga2 Te10'
_cell_volume   663.46939405
_cell_formula_units_Z   2
loop_
 _symmetry_equiv_pos_site_id
 _symmetry_equiv_pos_as_xyz
  1  'x, y, z'
loop_
 _atom_site_type_symbol
 _atom_site_label
 _atom_site_symmetry_multiplicity
 _atom_site_fract_x
 _atom_site_fract_y
 _atom_site_fract_z
 _atom_site_occupancy
  Ba  Ba0  1  0.12746887  0.25493774  0.17907167  1
  Ba  Ba1  1  0.87253113  0.74506226  0.67907167  1
  Ba  Ba2  1  0.12097818  0.24195635  0.81749187  1
  Ba  Ba3  1  0.87902182  0.75804365  0.31749187  1
  Y  Y4  1  0.20512734  0.41025467  0.47939425  1
  Y  Y5  1  0.79487266  0.58974533  0.97939425  1
  Ga  Ga6  1  0.44094170  0.88188339  0.07580885  1
  Ga  Ga7  1  0.55905830  0.11811661  0.57580885  1
  Te  Te8  1  0.35212146  0.70424291  0.49689958  1
  Te  Te9  1  0.64787854  0.29575709  0.99689958  1
  Te  Te10  1  0.29594954  0.59189907  0.83523731  1
  Te  Te11  1  0.70405046  0.40810093  0.33523731  1
  Te  Te12  1  0.31322994  0.62645989  0.13274494  1
  Te  Te13  1  0.68677006  0.37354011  0.63274494  1
  Te  Te14  1  0.50168508  0.00337017  0.23611924  1
  Te  Te15  1  0.49831492  0.99662983  0.73611924  1
  Te  Te16  1  0.04551243  0.09102487  0.46765228  1
  Te  Te17  1  0.95448757  0.90897513  0.96765228  1
