# generated using pymatgen
data_Gd3FeO6
_symmetry_space_group_name_H-M   'P 1'
_cell_length_a   5.55282222
_cell_length_b   7.26457653
_cell_length_c   7.26457653
_cell_angle_alpha   102.93356089
_cell_angle_beta   90.00000000
_cell_angle_gamma   90.00000000
_symmetry_Int_Tables_number   1
_chemical_formula_structural   Gd3FeO6
_chemical_formula_sum   'Gd6 Fe2 O12'
_cell_volume   285.61056338
_cell_formula_units_Z   2
loop_
 _symmetry_equiv_pos_site_id
 _symmetry_equiv_pos_as_xyz
  1  'x, y, z'
loop_
 _atom_site_type_symbol
 _atom_site_label
 _atom_site_symmetry_multiplicity
 _atom_site_fract_x
 _atom_site_fract_y
 _atom_site_fract_z
 _atom_site_occupancy
  Gd  Gd0  1  0.45868842  0.20065158  0.41209594  1
  Gd  Gd1  1  0.45868842  0.58790406  0.79934842  1
  Gd  Gd2  1  0.95868842  0.79934842  0.58790406  1
  Gd  Gd3  1  0.95868842  0.41209594  0.20065158  1
  Gd  Gd4  1  0.50262379  0.10262078  0.89737922  1
  Gd  Gd5  1  0.00262379  0.89737922  0.10262078  1
  Fe  Fe6  1  0.92834841  0.30751077  0.69248923  1
  Fe  Fe7  1  0.42834841  0.69248923  0.30751077  1
  O  O8  1  0.22936802  0.85473304  0.82502561  1
  O  O9  1  0.22936802  0.17497439  0.14526696  1
  O  O10  1  0.72936802  0.14526696  0.17497439  1
  O  O11  1  0.72936802  0.82502561  0.85473304  1
  O  O12  1  0.24984031  0.92051446  0.39377384  1
  O  O13  1  0.24984031  0.60622616  0.07948554  1
  O  O14  1  0.74984031  0.07948554  0.60622616  1
  O  O15  1  0.74984031  0.39377384  0.92051446  1
  O  O16  1  0.28124146  0.53988239  0.46011761  1
  O  O17  1  0.78124146  0.46011761  0.53988239  1
  O  O18  1  0.26804285  0.28466632  0.71533368  1
  O  O19  1  0.76804285  0.71533368  0.28466632  1
