# generated using pymatgen
data_Dy2Ge5Ir3
_symmetry_space_group_name_H-M   'P 1'
_cell_length_a   6.03222594
_cell_length_b   8.39524833
_cell_length_c   8.39524833
_cell_angle_alpha   75.48888044
_cell_angle_beta   68.94497927
_cell_angle_gamma   68.94497927
_symmetry_Int_Tables_number   1
_chemical_formula_structural   Dy2Ge5Ir3
_chemical_formula_sum   'Dy4 Ge10 Ir6'
_cell_volume   366.65698044
_cell_formula_units_Z   2
loop_
 _symmetry_equiv_pos_site_id
 _symmetry_equiv_pos_as_xyz
  1  'x, y, z'
loop_
 _atom_site_type_symbol
 _atom_site_label
 _atom_site_symmetry_multiplicity
 _atom_site_fract_x
 _atom_site_fract_y
 _atom_site_fract_z
 _atom_site_occupancy
  Dy  Dy0  1  0.36554742  0.40801633  0.86088884  1
  Dy  Dy1  1  0.63445258  0.59198367  0.13911116  1
  Dy  Dy2  1  0.86554742  0.86088884  0.40801633  1
  Dy  Dy3  1  0.13445258  0.13911116  0.59198367  1
  Ge  Ge4  1  0.25000000  0.50000000  0.50000000  1
  Ge  Ge5  1  0.75000000  0.50000000  0.50000000  1
  Ge  Ge6  1  0.02651676  0.22348324  0.22348324  1
  Ge  Ge7  1  0.47348324  0.77651676  0.77651676  1
  Ge  Ge8  1  0.97348324  0.77651676  0.77651676  1
  Ge  Ge9  1  0.52651676  0.22348324  0.22348324  1
  Ge  Ge10  1  0.09816972  0.73969391  0.06396664  1
  Ge  Ge11  1  0.90183028  0.26030609  0.93603336  1
  Ge  Ge12  1  0.59816972  0.06396664  0.73969391  1
  Ge  Ge13  1  0.40183028  0.93603336  0.26030609  1
  Ir  Ir14  1  0.25000000  -0.00000000  0.00000000  1
  Ir  Ir15  1  0.75000000  -0.00000000  0.00000000  1
  Ir  Ir16  1  0.14206526  0.46901030  0.24685919  1
  Ir  Ir17  1  0.85793474  0.53098970  0.75314081  1
  Ir  Ir18  1  0.64206526  0.24685919  0.46901030  1
  Ir  Ir19  1  0.35793474  0.75314081  0.53098970  1
