# generated using pymatgen
data_ScFe2
_symmetry_space_group_name_H-M   'P 1'
_cell_length_a   4.92980629
_cell_length_b   4.92980629
_cell_length_c   16.08904923
_cell_angle_alpha   90.00000000
_cell_angle_beta   90.00000000
_cell_angle_gamma   119.97734828
_symmetry_Int_Tables_number   1
_chemical_formula_structural   ScFe2
_chemical_formula_sum   'Sc8 Fe16'
_cell_volume   338.70359392
_cell_formula_units_Z   8
loop_
 _symmetry_equiv_pos_site_id
 _symmetry_equiv_pos_as_xyz
  1  'x, y, z'
loop_
 _atom_site_type_symbol
 _atom_site_label
 _atom_site_symmetry_multiplicity
 _atom_site_fract_x
 _atom_site_fract_y
 _atom_site_fract_z
 _atom_site_occupancy
  Sc  Sc0  1  0.99997883  0.00002117  0.59386939  1
  Sc  Sc1  1  0.00002117  0.99997883  0.40613061  1
  Sc  Sc2  1  0.00002117  0.99997883  0.09386939  1
  Sc  Sc3  1  0.99997883  0.00002117  0.90613061  1
  Sc  Sc4  1  0.66667486  0.33332514  0.34386019  1
  Sc  Sc5  1  0.33332514  0.66667486  0.65613981  1
  Sc  Sc6  1  0.33332514  0.66667486  0.84386019  1
  Sc  Sc7  1  0.66667486  0.33332514  0.15613981  1
  Fe  Fe8  1  0.66669541  0.33330459  0.62443629  1
  Fe  Fe9  1  0.33330459  0.66669541  0.37556371  1
  Fe  Fe10  1  0.33330459  0.66669541  0.12443629  1
  Fe  Fe11  1  0.66669541  0.33330459  0.87556371  1
  Fe  Fe12  1  0.50000000  0.00000000  0.50000000  1
  Fe  Fe13  1  0.50000000  0.50000000  0.50000000  1
  Fe  Fe14  1  0.00000000  0.50000000  0.50000000  1
  Fe  Fe15  1  0.50000000  0.00000000  -0.00000000  1
  Fe  Fe16  1  0.50000000  0.50000000  -0.00000000  1
  Fe  Fe17  1  0.00000000  0.50000000  -0.00000000  1
  Fe  Fe18  1  0.83427400  0.66856399  0.75000000  1
  Fe  Fe19  1  0.83428676  0.16571324  0.75000000  1
  Fe  Fe20  1  0.33143601  0.16572600  0.75000000  1
  Fe  Fe21  1  0.16572600  0.33143601  0.25000000  1
  Fe  Fe22  1  0.16571324  0.83428676  0.25000000  1
  Fe  Fe23  1  0.66856399  0.83427400  0.25000000  1
