# generated using pymatgen
data_DyGePd
_symmetry_space_group_name_H-M   'P 1'
_cell_length_a   4.41435594
_cell_length_b   7.63203510
_cell_length_c   11.39799471
_cell_angle_alpha   109.56021325
_cell_angle_beta   101.16564970
_cell_angle_gamma   90.00000000
_symmetry_Int_Tables_number   1
_chemical_formula_structural   DyGePd
_chemical_formula_sum   'Dy6 Ge6 Pd6'
_cell_volume   354.12030045
_cell_formula_units_Z   6
loop_
 _symmetry_equiv_pos_site_id
 _symmetry_equiv_pos_as_xyz
  1  'x, y, z'
loop_
 _atom_site_type_symbol
 _atom_site_label
 _atom_site_symmetry_multiplicity
 _atom_site_fract_x
 _atom_site_fract_y
 _atom_site_fract_z
 _atom_site_occupancy
  Dy  Dy0  1  -0.00000000  0.53536129  1.00000000  1
  Dy  Dy1  1  0.66638348  0.20135040  0.33276696  1
  Dy  Dy2  1  0.33361652  0.86858344  0.66723304  1
  Dy  Dy3  1  0.50000000  0.95188805  0.00000000  1
  Dy  Dy4  1  0.83266719  0.29100820  0.66533437  1
  Dy  Dy5  1  0.16733281  0.62567382  0.33466563  1
  Ge  Ge6  1  0.93516665  0.08996491  0.87033330  1
  Ge  Ge7  1  0.06483335  0.21963162  0.12966670  1
  Ge  Ge8  1  0.76477126  0.60250724  0.52954252  1
  Ge  Ge9  1  0.23522874  0.07296472  0.47045748  1
  Ge  Ge10  1  0.59381418  0.74955633  0.18762836  1
  Ge  Ge11  1  0.40618582  0.56192797  0.81237164  1
  Pd  Pd12  1  0.89585897  0.72309308  0.79171794  1
  Pd  Pd13  1  0.10414103  0.93137514  0.20828206  1
  Pd  Pd14  1  0.73328196  0.89982401  0.46656393  1
  Pd  Pd15  1  0.26671804  0.43326008  0.53343607  1
  Pd  Pd16  1  0.57221521  0.39548007  0.14443043  1
  Pd  Pd17  1  0.42778479  0.25104964  0.85556957  1
