# generated using pymatgen
data_TiNi
_symmetry_space_group_name_H-M   'P 1'
_cell_length_a   5.39045894
_cell_length_b   7.24928694
_cell_length_c   7.25518687
_cell_angle_alpha   120.00306011
_cell_angle_beta   89.84183119
_cell_angle_gamma   90.04025436
_symmetry_Int_Tables_number   1
_chemical_formula_structural   TiNi
_chemical_formula_sum   'Ti9 Ni9'
_cell_volume   245.51898888
_cell_formula_units_Z   9
loop_
 _symmetry_equiv_pos_site_id
 _symmetry_equiv_pos_as_xyz
  1  'x, y, z'
loop_
 _atom_site_type_symbol
 _atom_site_label
 _atom_site_symmetry_multiplicity
 _atom_site_fract_x
 _atom_site_fract_y
 _atom_site_fract_z
 _atom_site_occupancy
  Ti  Ti0  1  0.02625864  -0.00003214  0.99925321  1
  Ti  Ti1  1  0.93118977  0.66678040  0.33296835  1
  Ti  Ti2  1  0.03265013  0.33274308  0.66584738  1
  Ti  Ti3  1  0.63975568  0.34524607  0.01408440  1
  Ti  Ti4  1  0.63898628  0.98744790  0.33478368  1
  Ti  Ti5  1  0.63705146  0.66816237  0.65399057  1
  Ti  Ti6  1  0.33925671  0.66489670  0.99200509  1
  Ti  Ti7  1  0.33953339  0.00758160  0.67265945  1
  Ti  Ti8  1  0.33969354  0.32720949  0.33490884  1
  Ni  Ni9  1  0.56213114  0.99960370  0.00208491  1
  Ni  Ni10  1  0.38577703  0.66627908  0.33216980  1
  Ni  Ni11  1  0.57318979  0.33523073  0.66913831  1
  Ni  Ni12  1  0.11855603  0.35411718  0.02262777  1
  Ni  Ni13  1  0.11884074  0.97593740  0.32806619  1
  Ni  Ni14  1  0.11675122  0.66890566  0.64543744  1
  Ni  Ni15  1  0.84588123  0.66582819  0.97268751  1
  Ni  Ni16  1  0.84564494  0.02721004  0.69330726  1
  Ni  Ni17  1  0.84585226  0.30685256  0.33397983  1
