# generated using pymatgen
data_Y5Ni2Bi
_symmetry_space_group_name_H-M   'P 1'
_cell_length_a   7.71345439
_cell_length_b   7.71345439
_cell_length_c   8.73795883
_cell_angle_alpha   116.19171881
_cell_angle_beta   116.19171881
_cell_angle_gamma   90.00000000
_symmetry_Int_Tables_number   1
_chemical_formula_structural   Y5Ni2Bi
_chemical_formula_sum   'Y10 Ni4 Bi2'
_cell_volume   406.16818022
_cell_formula_units_Z   2
loop_
 _symmetry_equiv_pos_site_id
 _symmetry_equiv_pos_as_xyz
  1  'x, y, z'
loop_
 _atom_site_type_symbol
 _atom_site_label
 _atom_site_symmetry_multiplicity
 _atom_site_fract_x
 _atom_site_fract_y
 _atom_site_fract_z
 _atom_site_occupancy
  Y  Y0  1  0.50000000  0.50000000  -0.00000000  1
  Y  Y1  1  -0.00000000  -0.00000000  -0.00000000  1
  Y  Y2  1  0.98124046  0.79118554  0.27242600  1
  Y  Y3  1  0.29118554  0.48124046  0.27242600  1
  Y  Y4  1  0.79118554  0.29118554  0.27242600  1
  Y  Y5  1  0.48124046  0.98124046  0.27242600  1
  Y  Y6  1  0.01875954  0.20881446  0.72757400  1
  Y  Y7  1  0.70881446  0.51875954  0.72757400  1
  Y  Y8  1  0.20881446  0.70881446  0.72757400  1
  Y  Y9  1  0.51875954  0.01875954  0.72757400  1
  Ni  Ni10  1  0.63194226  0.86805774  -0.00000000  1
  Ni  Ni11  1  0.36805774  0.13194226  -0.00000000  1
  Ni  Ni12  1  0.86805774  0.36805774  1.00000000  1
  Ni  Ni13  1  0.13194226  0.63194226  0.00000000  1
  Bi  Bi14  1  0.75000000  0.75000000  0.50000000  1
  Bi  Bi15  1  0.25000000  0.25000000  0.50000000  1
