# generated using pymatgen
data_TmCuS2
_symmetry_space_group_name_H-M   'P 1'
_cell_length_a   3.96565619
_cell_length_b   6.26095456
_cell_length_c   13.31219504
_cell_angle_alpha   90.00000000
_cell_angle_beta   90.00000000
_cell_angle_gamma   90.00000000
_symmetry_Int_Tables_number   1
_chemical_formula_structural   TmCuS2
_chemical_formula_sum   'Tm4 Cu4 S8'
_cell_volume   330.52573777
_cell_formula_units_Z   4
loop_
 _symmetry_equiv_pos_site_id
 _symmetry_equiv_pos_as_xyz
  1  'x, y, z'
loop_
 _atom_site_type_symbol
 _atom_site_label
 _atom_site_symmetry_multiplicity
 _atom_site_fract_x
 _atom_site_fract_y
 _atom_site_fract_z
 _atom_site_occupancy
  Tm  Tm0  1  0.28249124  0.75301195  0.63393106  1
  Tm  Tm1  1  0.78249124  0.74698805  0.36606894  1
  Tm  Tm2  1  0.71750876  0.25301195  0.86606894  1
  Tm  Tm3  1  0.21750876  0.24698805  0.13393106  1
  Cu  Cu4  1  0.70505849  0.34924471  0.55588194  1
  Cu  Cu5  1  0.20505849  0.15075529  0.44411806  1
  Cu  Cu6  1  0.29494151  0.84924471  0.94411806  1
  Cu  Cu7  1  0.79494151  0.65075529  0.05588194  1
  S  S8  1  0.77860873  0.51683874  0.70679579  1
  S  S9  1  0.27860873  0.98316126  0.29320421  1
  S  S10  1  0.22139127  0.01683874  0.79320421  1
  S  S11  1  0.72139127  0.48316126  0.20679579  1
  S  S12  1  0.77926056  0.98635104  0.53957910  1
  S  S13  1  0.27926056  0.51364896  0.46042090  1
  S  S14  1  0.22073944  0.48635104  0.96042090  1
  S  S15  1  0.72073944  0.01364896  0.03957910  1
