# generated using pymatgen
data_Sm3Co11B4
_symmetry_space_group_name_H-M   'P 1'
_cell_length_a   5.05356893
_cell_length_b   5.05919662
_cell_length_c   9.69150517
_cell_angle_alpha   89.99980345
_cell_angle_beta   90.00039354
_cell_angle_gamma   119.96320841
_symmetry_Int_Tables_number   1
_chemical_formula_structural   Sm3Co11B4
_chemical_formula_sum   'Sm3 Co11 B4'
_cell_volume   214.66562511
_cell_formula_units_Z   1
loop_
 _symmetry_equiv_pos_site_id
 _symmetry_equiv_pos_as_xyz
  1  'x, y, z'
loop_
 _atom_site_type_symbol
 _atom_site_label
 _atom_site_symmetry_multiplicity
 _atom_site_fract_x
 _atom_site_fract_y
 _atom_site_fract_z
 _atom_site_occupancy
  Sm  Sm0  1  0.99997397  0.00000000  0.99982568  1
  Sm  Sm1  1  0.99999491  0.00000000  0.34045481  1
  Sm  Sm2  1  0.00000703  0.00000000  0.65973225  1
  Co  Co3  1  0.33300829  0.66607546  -0.00002540  1
  Co  Co4  1  0.66693283  0.33392454  -0.00002540  1
  Co  Co5  1  0.50000140  -0.00000000  0.50007865  1
  Co  Co6  1  0.50000052  0.50000156  0.50007509  1
  Co  Co7  1  0.99999896  0.49999844  0.50007509  1
  Co  Co8  1  0.49999623  0.00000000  0.20258751  1
  Co  Co9  1  0.49999259  0.50000471  0.20274798  1
  Co  Co10  1  0.99998788  0.49999529  0.20274798  1
  Co  Co11  1  0.50000234  0.00000000  0.79724473  1
  Co  Co12  1  0.50000628  0.49999691  0.79713885  1
  Co  Co13  1  0.00000937  0.50000309  0.79713885  1
  B  B14  1  0.33328087  0.66659055  0.34980457  1
  B  B15  1  0.66669032  0.33340945  0.34980457  1
  B  B16  1  0.66669014  0.33336410  0.65029710  1
  B  B17  1  0.33332604  0.66663590  0.65029710  1
