# generated using pymatgen
data_Ce6Mg23As
_symmetry_space_group_name_H-M   'P 1'
_cell_length_a   10.26236088
_cell_length_b   10.26236088
_cell_length_c   10.26236088
_cell_angle_alpha   60.00000000
_cell_angle_beta   60.00000000
_cell_angle_gamma   60.00000000
_symmetry_Int_Tables_number   1
_chemical_formula_structural   Ce6Mg23As
_chemical_formula_sum   'Ce6 Mg23 As1'
_cell_volume   764.23487172
_cell_formula_units_Z   1
loop_
 _symmetry_equiv_pos_site_id
 _symmetry_equiv_pos_as_xyz
  1  'x, y, z'
loop_
 _atom_site_type_symbol
 _atom_site_label
 _atom_site_symmetry_multiplicity
 _atom_site_fract_x
 _atom_site_fract_y
 _atom_site_fract_z
 _atom_site_occupancy
  Ce  Ce0  1  0.79492660  0.20507340  0.20507340  1
  Ce  Ce1  1  0.79492660  0.20507340  0.79492660  1
  Ce  Ce2  1  0.79492660  0.79492660  0.20507340  1
  Ce  Ce3  1  0.20507340  0.79492660  0.79492660  1
  Ce  Ce4  1  0.20507340  0.79492660  0.20507340  1
  Ce  Ce5  1  0.20507340  0.20507340  0.79492660  1
  Mg  Mg6  1  0.48223461  0.17258846  0.17258846  1
  Mg  Mg7  1  0.17258846  0.48223461  0.17258846  1
  Mg  Mg8  1  0.17258846  0.17258846  0.48223461  1
  Mg  Mg9  1  0.17258846  0.17258846  0.17258846  1
  Mg  Mg10  1  0.51776539  0.82741154  0.82741154  1
  Mg  Mg11  1  0.82741154  0.51776539  0.82741154  1
  Mg  Mg12  1  0.82741154  0.82741154  0.51776539  1
  Mg  Mg13  1  0.82741154  0.82741154  0.82741154  1
  Mg  Mg14  1  0.85909032  0.38030323  0.38030323  1
  Mg  Mg15  1  0.38030323  0.85909032  0.38030323  1
  Mg  Mg16  1  0.38030323  0.38030323  0.85909032  1
  Mg  Mg17  1  0.38030323  0.38030323  0.38030323  1
  Mg  Mg18  1  0.14090968  0.61969677  0.61969677  1
  Mg  Mg19  1  0.61969677  0.14090968  0.61969677  1
  Mg  Mg20  1  0.61969677  0.61969677  0.14090968  1
  Mg  Mg21  1  0.61969677  0.61969677  0.61969677  1
  Mg  Mg22  1  0.50000000  0.00000000  -0.00000000  1
  Mg  Mg23  1  0.50000000  0.00000000  0.50000000  1
  Mg  Mg24  1  0.50000000  0.50000000  -0.00000000  1
  Mg  Mg25  1  -0.00000000  0.50000000  0.50000000  1
  Mg  Mg26  1  0.00000000  0.50000000  -0.00000000  1
  Mg  Mg27  1  0.00000000  0.00000000  0.50000000  1
  Mg  Mg28  1  0.50000000  0.50000000  0.50000000  1
  As  As29  1  -0.00000000  0.00000000  -0.00000000  1
