# generated using pymatgen
data_S2NO9
_symmetry_space_group_name_H-M   'P 1'
_cell_length_a   6.03601959
_cell_length_b   8.15069163
_cell_length_c   8.69854377
_cell_angle_alpha   80.36316311
_cell_angle_beta   72.02640532
_cell_angle_gamma   80.42530389
_symmetry_Int_Tables_number   1
_chemical_formula_structural   S2NO9
_chemical_formula_sum   'S4 N2 O18'
_cell_volume   398.30808987
_cell_formula_units_Z   2
loop_
 _symmetry_equiv_pos_site_id
 _symmetry_equiv_pos_as_xyz
  1  'x, y, z'
loop_
 _atom_site_type_symbol
 _atom_site_label
 _atom_site_symmetry_multiplicity
 _atom_site_fract_x
 _atom_site_fract_y
 _atom_site_fract_z
 _atom_site_occupancy
  S  S0  1  0.24271504  0.85328337  0.81451280  1
  S  S1  1  0.75728496  0.14671663  0.18548720  1
  S  S2  1  0.66239131  0.71593644  0.57437489  1
  S  S3  1  0.33760869  0.28406356  0.42562511  1
  N  N4  1  0.56224336  0.27049248  0.81199387  1
  N  N5  1  0.43775664  0.72950752  0.18800613  1
  O  O6  1  0.24442137  0.70305510  0.93220105  1
  O  O7  1  0.75557863  0.29694490  0.06779895  1
  O  O8  1  0.70045008  0.58003858  0.69903850  1
  O  O9  1  0.29954992  0.41996142  0.30096150  1
  O  O10  1  0.67811211  0.66191154  0.41926434  1
  O  O11  1  0.32188789  0.33808846  0.58073566  1
  O  O12  1  0.37356894  0.97803018  0.83701083  1
  O  O13  1  0.62643106  0.02196982  0.16298917  1
  O  O14  1  0.01457318  0.91804164  0.79328842  1
  O  O15  1  0.98542682  0.08195836  0.20671158  1
  O  O16  1  0.38250181  0.79219042  0.63181631  1
  O  O17  1  0.61749819  0.20780958  0.36818369  1
  O  O18  1  0.80037102  0.85290020  0.55504452  1
  O  O19  1  0.19962898  0.14709980  0.44495548  1
  O  O20  1  0.39027303  0.32569334  0.89608003  1
  O  O21  1  0.60972697  0.67430666  0.10391997  1
  O  O22  1  0.73478629  0.21244622  0.73127680  1
  O  O23  1  0.26521371  0.78755378  0.26872320  1
