# generated using pymatgen
data_KBaSbSe3
_symmetry_space_group_name_H-M   'P 1'
_cell_length_a   9.38979988
_cell_length_b   9.57064641
_cell_length_c   9.57976423
_cell_angle_alpha   108.27447182
_cell_angle_beta   90.00000000
_cell_angle_gamma   90.00000000
_symmetry_Int_Tables_number   1
_chemical_formula_structural   KBaSbSe3
_chemical_formula_sum   'K4 Ba4 Sb4 Se12'
_cell_volume   817.48022695
_cell_formula_units_Z   4
loop_
 _symmetry_equiv_pos_site_id
 _symmetry_equiv_pos_as_xyz
  1  'x, y, z'
loop_
 _atom_site_type_symbol
 _atom_site_label
 _atom_site_symmetry_multiplicity
 _atom_site_fract_x
 _atom_site_fract_y
 _atom_site_fract_z
 _atom_site_occupancy
  K  K0  1  0.58936963  0.58535025  0.20986293  1
  K  K1  1  0.08936963  0.41464975  0.29013707  1
  K  K2  1  0.41063037  0.41464975  0.79013707  1
  K  K3  1  0.91063037  0.58535025  0.70986293  1
  Ba  Ba4  1  0.21329580  0.91705793  0.46352657  1
  Ba  Ba5  1  0.71329580  0.08294207  0.03647343  1
  Ba  Ba6  1  0.78670420  0.08294207  0.53647343  1
  Ba  Ba7  1  0.28670420  0.91705793  0.96352657  1
  Sb  Sb8  1  0.95154643  0.75222476  0.12636903  1
  Sb  Sb9  1  0.45154643  0.24777524  0.37363097  1
  Sb  Sb10  1  0.04845357  0.24777524  0.87363097  1
  Sb  Sb11  1  0.54845357  0.75222476  0.62636903  1
  Se  Se12  1  0.70486621  0.35975226  0.40851786  1
  Se  Se13  1  0.20486621  0.64024774  0.09148214  1
  Se  Se14  1  0.29513379  0.64024774  0.59148214  1
  Se  Se15  1  0.79513379  0.35975226  0.90851786  1
  Se  Se16  1  0.51636686  0.96406111  0.27717269  1
  Se  Se17  1  0.01636686  0.03593889  0.22282731  1
  Se  Se18  1  0.48363314  0.03593889  0.72282731  1
  Se  Se19  1  0.98363314  0.96406111  0.77717269  1
  Se  Se20  1  0.89617194  0.72948146  0.38278561  1
  Se  Se21  1  0.39617194  0.27051854  0.11721439  1
  Se  Se22  1  0.10382806  0.27051854  0.61721439  1
  Se  Se23  1  0.60382806  0.72948146  0.88278561  1
