# generated using pymatgen
data_SrCu2Se2(ClO3)2
_symmetry_space_group_name_H-M   'P 1'
_cell_length_a   7.25836086
_cell_length_b   7.31543753
_cell_length_c   8.17318296
_cell_angle_alpha   90.00000000
_cell_angle_beta   96.05193235
_cell_angle_gamma   90.00000000
_symmetry_Int_Tables_number   1
_chemical_formula_structural   SrCu2Se2(ClO3)2
_chemical_formula_sum   'Sr2 Cu4 Se4 Cl4 O12'
_cell_volume   431.56168293
_cell_formula_units_Z   2
loop_
 _symmetry_equiv_pos_site_id
 _symmetry_equiv_pos_as_xyz
  1  'x, y, z'
loop_
 _atom_site_type_symbol
 _atom_site_label
 _atom_site_symmetry_multiplicity
 _atom_site_fract_x
 _atom_site_fract_y
 _atom_site_fract_z
 _atom_site_occupancy
  Sr  Sr0  1  0.62598331  0.97101860  0.06978847  1
  Sr  Sr1  1  0.37401669  0.47101860  0.93021153  1
  Cu  Cu2  1  0.13601215  0.96673724  0.90258973  1
  Cu  Cu3  1  0.86398785  0.46673724  0.09741027  1
  Cu  Cu4  1  0.80269031  0.98570854  0.58967685  1
  Cu  Cu5  1  0.19730969  0.48570854  0.41032315  1
  Se  Se6  1  0.62877428  0.32042594  0.38328810  1
  Se  Se7  1  0.37122572  0.82042594  0.61671190  1
  Se  Se8  1  0.85340066  0.61431857  0.78537546  1
  Se  Se9  1  0.14659934  0.11431857  0.21462454  1
  Cl  Cl10  1  0.62415092  0.22147430  0.78505694  1
  Cl  Cl11  1  0.37584908  0.72147430  0.21494306  1
  Cl  Cl12  1  0.94541446  0.68434886  0.37391620  1
  Cl  Cl13  1  0.05458554  0.18434886  0.62608380  1
  O  O14  1  0.93666714  0.83967904  0.76812803  1
  O  O15  1  0.06333286  0.33967904  0.23187197  1
  O  O16  1  0.64328861  0.34963189  0.17061544  1
  O  O17  1  0.35671139  0.84963189  0.82938456  1
  O  O18  1  0.70709791  0.63525557  0.94636425  1
  O  O19  1  0.29290209  0.13525557  0.05363575  1
  O  O20  1  0.39304735  0.29755155  0.38509871  1
  O  O21  1  0.60695265  0.79755155  0.61490129  1
  O  O22  1  0.68854391  0.08893680  0.38377410  1
  O  O23  1  0.31145609  0.58893680  0.61622590  1
  O  O24  1  0.96878003  0.03141309  0.07355096  1
  O  O25  1  0.03121997  0.53141309  0.92644904  1
