# generated using pymatgen
data_Eu(YSe2)2
_symmetry_space_group_name_H-M   'P 1'
_cell_length_a   4.13104509
_cell_length_b   12.56682807
_cell_length_c   14.94832428
_cell_angle_alpha   90.00000000
_cell_angle_beta   90.00000000
_cell_angle_gamma   90.00000000
_symmetry_Int_Tables_number   1
_chemical_formula_structural   Eu(YSe2)2
_chemical_formula_sum   'Eu4 Y8 Se16'
_cell_volume   776.02930071
_cell_formula_units_Z   4
loop_
 _symmetry_equiv_pos_site_id
 _symmetry_equiv_pos_as_xyz
  1  'x, y, z'
loop_
 _atom_site_type_symbol
 _atom_site_label
 _atom_site_symmetry_multiplicity
 _atom_site_fract_x
 _atom_site_fract_y
 _atom_site_fract_z
 _atom_site_occupancy
  Eu  Eu0  1  0.75000000  0.74219409  0.16347582  1
  Eu  Eu1  1  0.75000000  0.24219409  0.33652418  1
  Eu  Eu2  1  0.25000000  0.25780591  0.83652418  1
  Eu  Eu3  1  0.25000000  0.75780591  0.66347582  1
  Y  Y4  1  0.75000000  0.06641119  0.11050335  1
  Y  Y5  1  0.75000000  0.56641119  0.38949665  1
  Y  Y6  1  0.25000000  0.93358881  0.88949665  1
  Y  Y7  1  0.25000000  0.43358881  0.61050335  1
  Y  Y8  1  0.75000000  0.08114783  0.59854504  1
  Y  Y9  1  0.75000000  0.58114783  0.90145496  1
  Y  Y10  1  0.25000000  0.91885217  0.40145496  1
  Y  Y11  1  0.25000000  0.41885217  0.09854504  1
  Se  Se12  1  0.75000000  0.29184895  0.67796760  1
  Se  Se13  1  0.75000000  0.79184895  0.82203240  1
  Se  Se14  1  0.25000000  0.70815105  0.32203240  1
  Se  Se15  1  0.25000000  0.20815105  0.17796760  1
  Se  Se16  1  0.75000000  0.36684285  0.96993907  1
  Se  Se17  1  0.75000000  0.86684285  0.53006093  1
  Se  Se18  1  0.25000000  0.63315715  0.03006093  1
  Se  Se19  1  0.25000000  0.13315715  0.46993907  1
  Se  Se20  1  0.75000000  0.47639933  0.21591031  1
  Se  Se21  1  0.75000000  0.97639933  0.28408969  1
  Se  Se22  1  0.25000000  0.52360067  0.78408969  1
  Se  Se23  1  0.25000000  0.02360067  0.71591031  1
  Se  Se24  1  0.75000000  0.09014674  0.92054566  1
  Se  Se25  1  0.75000000  0.59014674  0.57945434  1
  Se  Se26  1  0.25000000  0.90985326  0.07945434  1
  Se  Se27  1  0.25000000  0.40985326  0.42054566  1
