# generated using pymatgen
data_HfMn
_symmetry_space_group_name_H-M   'P 1'
_cell_length_a   8.22188072
_cell_length_b   8.22188072
_cell_length_c   8.22188072
_cell_angle_alpha   60.00000000
_cell_angle_beta   60.00000000
_cell_angle_gamma   60.00000000
_symmetry_Int_Tables_number   1
_chemical_formula_structural   HfMn
_chemical_formula_sum   'Hf12 Mn12'
_cell_volume   393.00539989
_cell_formula_units_Z   12
loop_
 _symmetry_equiv_pos_site_id
 _symmetry_equiv_pos_as_xyz
  1  'x, y, z'
loop_
 _atom_site_type_symbol
 _atom_site_label
 _atom_site_symmetry_multiplicity
 _atom_site_fract_x
 _atom_site_fract_y
 _atom_site_fract_z
 _atom_site_occupancy
  Hf  Hf0  1  0.42725615  0.82274385  0.82274385  1
  Hf  Hf1  1  0.82274385  0.42725615  0.42725615  1
  Hf  Hf2  1  0.82274385  0.42725615  0.82274385  1
  Hf  Hf3  1  0.42725615  0.82274385  0.42725615  1
  Hf  Hf4  1  0.82274385  0.82274385  0.42725615  1
  Hf  Hf5  1  0.42725615  0.42725615  0.82274385  1
  Hf  Hf6  1  0.57274385  0.17725615  0.17725615  1
  Hf  Hf7  1  0.17725615  0.57274385  0.57274385  1
  Hf  Hf8  1  0.17725615  0.57274385  0.17725615  1
  Hf  Hf9  1  0.57274385  0.17725615  0.57274385  1
  Hf  Hf10  1  0.17725615  0.17725615  0.57274385  1
  Hf  Hf11  1  0.57274385  0.57274385  0.17725615  1
  Mn  Mn12  1  -0.00000000  0.00000000  0.50000000  1
  Mn  Mn13  1  -0.00000000  0.50000000  0.00000000  1
  Mn  Mn14  1  0.50000000  0.00000000  0.00000000  1
  Mn  Mn15  1  -0.00000000  0.00000000  0.00000000  1
  Mn  Mn16  1  0.20221232  0.20221232  0.89336304  1
  Mn  Mn17  1  0.20221232  0.89336304  0.20221232  1
  Mn  Mn18  1  0.89336304  0.20221232  0.20221232  1
  Mn  Mn19  1  0.20221232  0.20221232  0.20221232  1
  Mn  Mn20  1  0.79778768  0.79778768  0.10663696  1
  Mn  Mn21  1  0.79778768  0.10663696  0.79778768  1
  Mn  Mn22  1  0.10663696  0.79778768  0.79778768  1
  Mn  Mn23  1  0.79778768  0.79778768  0.79778768  1
