# generated using pymatgen
data_Na5Eu4Si4O16F
_symmetry_space_group_name_H-M   'P 1'
_cell_length_a   5.53278861
_cell_length_b   8.88265501
_cell_length_c   8.88265501
_cell_angle_alpha   84.43393184
_cell_angle_beta   71.85410122
_cell_angle_gamma   71.85410122
_symmetry_Int_Tables_number   1
_chemical_formula_structural   Na5Eu4Si4O16F
_chemical_formula_sum   'Na5 Eu4 Si4 O16 F1'
_cell_volume   394.20356761
_cell_formula_units_Z   1
loop_
 _symmetry_equiv_pos_site_id
 _symmetry_equiv_pos_as_xyz
  1  'x, y, z'
loop_
 _atom_site_type_symbol
 _atom_site_label
 _atom_site_symmetry_multiplicity
 _atom_site_fract_x
 _atom_site_fract_y
 _atom_site_fract_z
 _atom_site_occupancy
  Na  Na0  1  0.90189143  0.48377023  0.69556113  1
  Na  Na1  1  0.08122279  0.51622977  0.30443887  1
  Na  Na2  1  0.61433834  0.30443887  0.48377023  1
  Na  Na3  1  0.40254744  0.69556113  0.51622977  1
  Na  Na4  1  0.50000000  0.00000000  0.00000000  1
  Eu  Eu5  1  0.86394694  0.93279200  0.29678812  1
  Eu  Eu6  1  0.09352707  0.06720800  0.70321188  1
  Eu  Eu7  1  0.20326106  0.70321188  0.93279200  1
  Eu  Eu8  1  0.83926493  0.29678812  0.06720800  1
  Si  Si9  1  0.75849271  0.85492511  0.64853784  1
  Si  Si10  1  0.26195567  0.14507489  0.35146216  1
  Si  Si11  1  0.38658217  0.35146216  0.85492511  1
  Si  Si12  1  0.59296945  0.64853784  0.14507489  1
  O  O13  1  0.87108516  0.72076894  0.50833857  1
  O  O14  1  0.10019267  0.27923106  0.49166143  1
  O  O15  1  0.40814589  0.49166143  0.72076894  1
  O  O16  1  0.62057627  0.50833857  0.27923106  1
  O  O17  1  0.45990557  0.85840598  0.76164875  1
  O  O18  1  0.07996030  0.14159402  0.23835125  1
  O  O19  1  0.68168845  0.23835125  0.85840598  1
  O  O20  1  0.77844568  0.76164875  0.14159402  1
  O  O21  1  0.96220860  0.82685904  0.75654050  1
  O  O22  1  0.54560814  0.17314096  0.24345950  1
  O  O23  1  0.21093236  0.24345950  0.82685904  1
  O  O24  1  0.28125090  0.75654050  0.17314096  1
  O  O25  1  0.76022125  0.02950500  0.56414825  1
  O  O26  1  0.35387450  0.97049500  0.43585175  1
  O  O27  1  0.21027375  0.43585175  0.02950500  1
  O  O28  1  0.67563050  0.56414825  0.97049500  1
  F  F29  1  0.00000000  0.00000000  0.00000000  1
