# generated using pymatgen
data_Tm2Co7B3
_symmetry_space_group_name_H-M   'P 1'
_cell_length_a   4.99614752
_cell_length_b   4.99613171
_cell_length_c   12.83764666
_cell_angle_alpha   89.99992949
_cell_angle_beta   90.00014116
_cell_angle_gamma   120.00010730
_symmetry_Int_Tables_number   1
_chemical_formula_structural   Tm2Co7B3
_chemical_formula_sum   'Tm4 Co14 B6'
_cell_volume   277.51388161
_cell_formula_units_Z   2
loop_
 _symmetry_equiv_pos_site_id
 _symmetry_equiv_pos_as_xyz
  1  'x, y, z'
loop_
 _atom_site_type_symbol
 _atom_site_label
 _atom_site_symmetry_multiplicity
 _atom_site_fract_x
 _atom_site_fract_y
 _atom_site_fract_z
 _atom_site_occupancy
  Tm  Tm0  1  0.99997672  1.00000000  -0.00006597  1
  Tm  Tm1  1  0.99999518  -0.00000000  0.49987284  1
  Tm  Tm2  1  0.99998997  0.00000000  0.26080785  1
  Tm  Tm3  1  0.00000459  0.00000000  0.73946857  1
  Co  Co4  1  0.33340418  0.66684982  -0.00012275  1
  Co  Co5  1  0.66655436  0.33315018  -0.00012275  1
  Co  Co6  1  0.49998876  0.00000000  0.15407717  1
  Co  Co7  1  0.49998766  0.50000147  0.15413642  1
  Co  Co8  1  0.99998619  0.49999853  0.15413642  1
  Co  Co9  1  0.50000293  -0.00000000  0.84576286  1
  Co  Co10  1  0.50000362  0.50000019  0.84579903  1
  Co  Co11  1  0.00000344  0.49999981  0.84579903  1
  Co  Co12  1  0.49998498  0.00000000  0.38466606  1
  Co  Co13  1  0.49998863  0.49999832  0.38461054  1
  Co  Co14  1  0.99999030  0.50000168  0.38461054  1
  Co  Co15  1  0.49999611  0.00000000  0.61539904  1
  Co  Co16  1  0.49999863  0.49999815  0.61540482  1
  Co  Co17  1  0.00000048  0.50000185  0.61540482  1
  B  B18  1  0.33334451  0.66671106  0.49989538  1
  B  B19  1  0.66663344  0.33328894  0.49989538  1
  B  B20  1  0.33332878  0.66669001  0.26803745  1
  B  B21  1  0.66663877  0.33330999  0.26803745  1
  B  B22  1  0.66665202  0.33330629  0.73224490  1
  B  B23  1  0.33334573  0.66669371  0.73224490  1
