# generated using pymatgen
data_InNi4
_symmetry_space_group_name_H-M   'P 1'
_cell_length_a   2.98150886
_cell_length_b   2.98150886
_cell_length_c   7.41081955
_cell_angle_alpha   78.39188620
_cell_angle_beta   78.39188620
_cell_angle_gamma   89.98363583
_symmetry_Int_Tables_number   1
_chemical_formula_structural   InNi4
_chemical_formula_sum   'In1 Ni4'
_cell_volume   63.15492959
_cell_formula_units_Z   1
loop_
 _symmetry_equiv_pos_site_id
 _symmetry_equiv_pos_as_xyz
  1  'x, y, z'
loop_
 _atom_site_type_symbol
 _atom_site_label
 _atom_site_symmetry_multiplicity
 _atom_site_fract_x
 _atom_site_fract_y
 _atom_site_fract_z
 _atom_site_occupancy
  In  In0  1  0.00000000  -0.00000000  0.00000000  1
  Ni  Ni1  1  0.38325667  0.38325667  0.23348666  1
  Ni  Ni2  1  0.79275546  0.79275546  0.41448908  1
  Ni  Ni3  1  0.20724454  0.20724454  0.58551092  1
  Ni  Ni4  1  0.61674333  0.61674333  0.76651334  1
