# generated using pymatgen
data_Er2ZnS4
_symmetry_space_group_name_H-M   'P 1'
_cell_length_a   6.31042637
_cell_length_b   7.85433283
_cell_length_c   13.44695035
_cell_angle_alpha   90.00000000
_cell_angle_beta   90.00000000
_cell_angle_gamma   90.00000000
_symmetry_Int_Tables_number   1
_chemical_formula_structural   Er2ZnS4
_chemical_formula_sum   'Er8 Zn4 S16'
_cell_volume   666.48718874
_cell_formula_units_Z   4
loop_
 _symmetry_equiv_pos_site_id
 _symmetry_equiv_pos_as_xyz
  1  'x, y, z'
loop_
 _atom_site_type_symbol
 _atom_site_label
 _atom_site_symmetry_multiplicity
 _atom_site_fract_x
 _atom_site_fract_y
 _atom_site_fract_z
 _atom_site_occupancy
  Er  Er0  1  0.00464607  0.75000000  0.26695059  1
  Er  Er1  1  0.49535393  0.75000000  0.76695059  1
  Er  Er2  1  0.99535393  0.25000000  0.73304941  1
  Er  Er3  1  0.50464607  0.25000000  0.23304941  1
  Er  Er4  1  0.50000000  -0.00000000  0.50000000  1
  Er  Er5  1  -0.00000000  0.50000000  0.00000000  1
  Er  Er6  1  0.50000000  0.50000000  0.50000000  1
  Er  Er7  1  -0.00000000  -0.00000000  0.00000000  1
  Zn  Zn8  1  0.58525519  0.75000000  0.09163271  1
  Zn  Zn9  1  0.91474481  0.75000000  0.59163271  1
  Zn  Zn10  1  0.41474481  0.25000000  0.90836729  1
  Zn  Zn11  1  0.08525519  0.25000000  0.40836729  1
  S  S12  1  0.22098920  0.75000000  0.09109723  1
  S  S13  1  0.27901080  0.75000000  0.59109723  1
  S  S14  1  0.77901080  0.25000000  0.90890277  1
  S  S15  1  0.72098920  0.25000000  0.40890277  1
  S  S16  1  0.74510196  0.75000000  0.92981326  1
  S  S17  1  0.75489804  0.75000000  0.42981326  1
  S  S18  1  0.25489804  0.25000000  0.07018674  1
  S  S19  1  0.24510196  0.25000000  0.57018674  1
  S  S20  1  0.75545568  0.98606554  0.16838516  1
  S  S21  1  0.74454432  0.51393446  0.66838516  1
  S  S22  1  0.24454432  0.48606554  0.83161484  1
  S  S23  1  0.25545568  0.01393446  0.33161484  1
  S  S24  1  0.24454432  0.01393446  0.83161484  1
  S  S25  1  0.25545568  0.48606554  0.33161484  1
  S  S26  1  0.75545568  0.51393446  0.16838516  1
  S  S27  1  0.74454432  0.98606554  0.66838516  1
