# generated using pymatgen
data_Ce3AlVS7
_symmetry_space_group_name_H-M   'P 1'
_cell_length_a   5.99872353
_cell_length_b   10.03581575
_cell_length_c   10.00305221
_cell_angle_alpha   119.91319724
_cell_angle_beta   90.00000000
_cell_angle_gamma   90.00000000
_symmetry_Int_Tables_number   1
_chemical_formula_structural   Ce3AlVS7
_chemical_formula_sum   'Ce6 Al2 V2 S14'
_cell_volume   521.98004281
_cell_formula_units_Z   2
loop_
 _symmetry_equiv_pos_site_id
 _symmetry_equiv_pos_as_xyz
  1  'x, y, z'
loop_
 _atom_site_type_symbol
 _atom_site_label
 _atom_site_symmetry_multiplicity
 _atom_site_fract_x
 _atom_site_fract_y
 _atom_site_fract_z
 _atom_site_occupancy
  Ce  Ce0  1  0.26298232  0.23250825  0.37394290  1
  Ce  Ce1  1  0.26124000  0.62599962  0.85809889  1
  Ce  Ce2  1  0.26039722  0.14013193  0.76677819  1
  Ce  Ce3  1  0.76298232  0.76749175  0.62605710  1
  Ce  Ce4  1  0.76124000  0.37400038  0.14190111  1
  Ce  Ce5  1  0.76039722  0.85986807  0.23322181  1
  Al  Al6  1  0.83886213  0.33393670  0.66701362  1
  Al  Al7  1  0.33886213  0.66606330  0.33298638  1
  V  V8  1  0.46018515  0.99975735  0.99971521  1
  V  V9  1  0.96018515  0.00024265  0.00028479  1
  S  S10  1  0.70760912  0.13946362  0.22667461  1
  S  S11  1  0.70890958  0.77455424  0.91383942  1
  S  S12  1  0.70933818  0.08676296  0.85962072  1
  S  S13  1  0.20760912  0.86053638  0.77332539  1
  S  S14  1  0.20890958  0.22544576  0.08616058  1
  S  S15  1  0.20933818  0.91323704  0.14037928  1
  S  S16  1  0.98475980  0.09768418  0.51687170  1
  S  S17  1  0.98467918  0.48120945  0.57809101  1
  S  S18  1  0.98693503  0.41919810  0.90228072  1
  S  S19  1  0.48475980  0.90231582  0.48312830  1
  S  S20  1  0.48467918  0.51879055  0.42190899  1
  S  S21  1  0.48693503  0.58080190  0.09771928  1
  S  S22  1  0.47010229  0.33315353  0.66786091  1
  S  S23  1  0.97010229  0.66684647  0.33213909  1
