# generated using pymatgen
data_Cr2Cu5(P2O9)2
_symmetry_space_group_name_H-M   'P 1'
_cell_length_a   6.45600939
_cell_length_b   7.37540222
_cell_length_c   8.38479006
_cell_angle_alpha   109.95137639
_cell_angle_beta   90.00000000
_cell_angle_gamma   115.95541935
_symmetry_Int_Tables_number   1
_chemical_formula_structural   Cr2Cu5(P2O9)2
_chemical_formula_sum   'Cr2 Cu5 P4 O18'
_cell_volume   332.12261598
_cell_formula_units_Z   1
loop_
 _symmetry_equiv_pos_site_id
 _symmetry_equiv_pos_as_xyz
  1  'x, y, z'
loop_
 _atom_site_type_symbol
 _atom_site_label
 _atom_site_symmetry_multiplicity
 _atom_site_fract_x
 _atom_site_fract_y
 _atom_site_fract_z
 _atom_site_occupancy
  Cr  Cr0  1  0.39057102  0.78114203  0.02949474  1
  Cr  Cr1  1  0.60942898  0.21885797  0.97050526  1
  Cu  Cu2  1  0.11978341  0.75230323  0.73088465  1
  Cu  Cu3  1  0.63251982  0.75230323  0.73088465  1
  Cu  Cu4  1  0.88021659  0.24769677  0.26911535  1
  Cu  Cu5  1  0.36748018  0.24769677  0.26911535  1
  Cu  Cu6  1  -0.00000000  0.00000000  0.50000000  1
  P  P7  1  0.34153547  0.68307095  0.40519446  1
  P  P8  1  0.65846453  0.31692905  0.59480554  1
  P  P9  1  0.12601481  0.25202961  0.91029710  1
  P  P10  1  0.87398519  0.74797039  0.08970290  1
  O  O11  1  0.02435923  0.04871846  0.73904844  1
  O  O12  1  0.97564077  0.95128154  0.26095156  1
  O  O13  1  0.23049505  0.46099009  0.87423197  1
  O  O14  1  0.76950495  0.53900991  0.12576803  1
  O  O15  1  0.18356633  0.77181877  0.50867087  1
  O  O16  1  0.58825244  0.77181877  0.50867087  1
  O  O17  1  0.81643367  0.22818123  0.49132913  1
  O  O18  1  0.41174756  0.22818123  0.49132913  1
  O  O19  1  0.07607845  0.76771346  0.98175182  1
  O  O20  1  0.69163500  0.76771346  0.98175182  1
  O  O21  1  0.92392155  0.23228654  0.01824818  1
  O  O22  1  0.30836500  0.23228654  0.01824818  1
  O  O23  1  0.36494573  0.72989146  0.24256667  1
  O  O24  1  0.63505427  0.27010854  0.75743333  1
  O  O25  1  0.78638366  0.57276731  0.64016070  1
  O  O26  1  0.21361634  0.42723269  0.35983930  1
  O  O27  1  0.44294827  0.88589654  0.83501216  1
  O  O28  1  0.55705173  0.11410346  0.16498784  1
