# generated using pymatgen
data_CsPSe6
_symmetry_space_group_name_H-M   'P 1'
_cell_length_a   12.79459952
_cell_length_b   12.79459952
_cell_length_c   13.10258037
_cell_angle_alpha   90.00000000
_cell_angle_beta   90.00000000
_cell_angle_gamma   90.00000000
_symmetry_Int_Tables_number   1
_chemical_formula_structural   CsPSe6
_chemical_formula_sum   'Cs8 P8 Se48'
_cell_volume   2144.91568825
_cell_formula_units_Z   8
loop_
 _symmetry_equiv_pos_site_id
 _symmetry_equiv_pos_as_xyz
  1  'x, y, z'
loop_
 _atom_site_type_symbol
 _atom_site_label
 _atom_site_symmetry_multiplicity
 _atom_site_fract_x
 _atom_site_fract_y
 _atom_site_fract_z
 _atom_site_occupancy
  Cs  Cs0  1  -0.00000000  -0.00000000  0.50000000  1
  Cs  Cs1  1  0.50000000  0.50000000  0.00000000  1
  Cs  Cs2  1  -0.00000000  -0.00000000  0.00000000  1
  Cs  Cs3  1  0.50000000  0.50000000  0.50000000  1
  Cs  Cs4  1  0.50000000  -0.00000000  0.21260152  1
  Cs  Cs5  1  -0.00000000  0.50000000  0.28739848  1
  Cs  Cs6  1  -0.00000000  0.50000000  0.78739848  1
  Cs  Cs7  1  0.50000000  -0.00000000  0.71260152  1
  P  P8  1  0.75884094  0.73218914  0.08744795  1
  P  P9  1  0.25884094  0.76781086  0.41255205  1
  P  P10  1  0.24115906  0.26781086  0.08744795  1
  P  P11  1  0.74115906  0.23218914  0.41255205  1
  P  P12  1  0.73218914  0.24115906  0.91255205  1
  P  P13  1  0.76781086  0.74115906  0.58744795  1
  P  P14  1  0.26781086  0.75884094  0.91255205  1
  P  P15  1  0.23218914  0.25884094  0.58744795  1
  Se  Se16  1  0.80004736  0.87918777  0.18213689  1
  Se  Se17  1  0.30004736  0.62081223  0.31786311  1
  Se  Se18  1  0.19995264  0.12081223  0.18213689  1
  Se  Se19  1  0.69995264  0.37918777  0.31786311  1
  Se  Se20  1  0.87918777  0.19995264  0.81786311  1
  Se  Se21  1  0.62081223  0.69995264  0.68213689  1
  Se  Se22  1  0.12081223  0.80004736  0.81786311  1
  Se  Se23  1  0.37918777  0.30004736  0.68213689  1
  Se  Se24  1  0.91943877  0.80321111  0.29890058  1
  Se  Se25  1  0.41943877  0.69678889  0.20109942  1
  Se  Se26  1  0.08056123  0.19678889  0.29890058  1
  Se  Se27  1  0.58056123  0.30321111  0.20109942  1
  Se  Se28  1  0.80321111  0.08056123  0.70109942  1
  Se  Se29  1  0.69678889  0.58056123  0.79890058  1
  Se  Se30  1  0.19678889  0.91943877  0.70109942  1
  Se  Se31  1  0.30321111  0.41943877  0.79890058  1
  Se  Se32  1  0.57720197  0.71435156  0.30106905  1
  Se  Se33  1  0.07720197  0.78564844  0.19893095  1
  Se  Se34  1  0.42279803  0.28564844  0.30106905  1
  Se  Se35  1  0.92279803  0.21435156  0.19893095  1
  Se  Se36  1  0.71435156  0.42279803  0.69893095  1
  Se  Se37  1  0.78564844  0.92279803  0.80106905  1
  Se  Se38  1  0.28564844  0.57720197  0.69893095  1
  Se  Se39  1  0.21435156  0.07720197  0.80106905  1
  Se  Se40  1  0.70234907  0.61314590  0.20818519  1
  Se  Se41  1  0.20234907  0.88685410  0.29181481  1
  Se  Se42  1  0.29765093  0.38685410  0.20818519  1
  Se  Se43  1  0.79765093  0.11314590  0.29181481  1
  Se  Se44  1  0.61314590  0.29765093  0.79181481  1
  Se  Se45  1  0.88685410  0.79765093  0.70818519  1
  Se  Se46  1  0.38685410  0.70234907  0.79181481  1
  Se  Se47  1  0.11314590  0.20234907  0.70818519  1
  Se  Se48  1  0.63086703  0.78750314  0.99504576  1
  Se  Se49  1  0.13086703  0.71249686  0.50495424  1
  Se  Se50  1  0.36913297  0.21249686  0.99504576  1
  Se  Se51  1  0.86913297  0.28750314  0.50495424  1
  Se  Se52  1  0.78750314  0.36913297  0.00495424  1
  Se  Se53  1  0.71249686  0.86913297  0.49504576  1
  Se  Se54  1  0.21249686  0.63086703  0.00495424  1
  Se  Se55  1  0.28750314  0.13086703  0.49504576  1
  Se  Se56  1  0.90067983  0.66168602  0.03026110  1
  Se  Se57  1  0.40067983  0.83831398  0.46973890  1
  Se  Se58  1  0.09932017  0.33831398  0.03026110  1
  Se  Se59  1  0.59932017  0.16168602  0.46973890  1
  Se  Se60  1  0.66168602  0.09932017  0.96973890  1
  Se  Se61  1  0.83831398  0.59932017  0.53026110  1
  Se  Se62  1  0.33831398  0.90067983  0.96973890  1
  Se  Se63  1  0.16168602  0.40067983  0.53026110  1
