# generated using pymatgen
data_Ho3Mn3Ga2Ge
_symmetry_space_group_name_H-M   'P 1'
_cell_length_a   4.12314938
_cell_length_b   6.98235891
_cell_length_c   6.98266770
_cell_angle_alpha   120.00190265
_cell_angle_beta   90.00000000
_cell_angle_gamma   90.00000000
_symmetry_Int_Tables_number   1
_chemical_formula_structural   Ho3Mn3Ga2Ge
_chemical_formula_sum   'Ho3 Mn3 Ga2 Ge1'
_cell_volume   174.09043800
_cell_formula_units_Z   1
loop_
 _symmetry_equiv_pos_site_id
 _symmetry_equiv_pos_as_xyz
  1  'x, y, z'
loop_
 _atom_site_type_symbol
 _atom_site_label
 _atom_site_symmetry_multiplicity
 _atom_site_fract_x
 _atom_site_fract_y
 _atom_site_fract_z
 _atom_site_occupancy
  Ho  Ho0  1  0.50000000  0.57817444  0.99845359  1
  Ho  Ho1  1  0.50000000  0.42025038  0.42194826  1
  Ho  Ho2  1  0.50000000  0.00159846  0.57980349  1
  Mn  Mn3  1  -0.00000000  0.22858619  0.99630839  1
  Mn  Mn4  1  -0.00000000  0.76760813  0.77148815  1
  Mn  Mn5  1  0.00000000  0.00369194  0.23214139  1
  Ga  Ga6  1  0.00000000  0.66671364  0.33340639  1
  Ga  Ga7  1  0.50000000  0.99987397  0.99979302  1
  Ge  Ge8  1  -0.00000000  0.33340286  0.66665732  1
