# generated using pymatgen
data_MoH8(NO2)2
_symmetry_space_group_name_H-M   'P 1'
_cell_length_a   6.78393834
_cell_length_b   7.17555856
_cell_length_c   7.86313595
_cell_angle_alpha   114.57511444
_cell_angle_beta   90.00000000
_cell_angle_gamma   118.21045294
_symmetry_Int_Tables_number   1
_chemical_formula_structural   MoH8(NO2)2
_chemical_formula_sum   'Mo2 H16 N4 O8'
_cell_volume   297.37318573
_cell_formula_units_Z   2
loop_
 _symmetry_equiv_pos_site_id
 _symmetry_equiv_pos_as_xyz
  1  'x, y, z'
loop_
 _atom_site_type_symbol
 _atom_site_label
 _atom_site_symmetry_multiplicity
 _atom_site_fract_x
 _atom_site_fract_y
 _atom_site_fract_z
 _atom_site_occupancy
  Mo  Mo0  1  0.17339491  0.34678982  0.72519957  1
  Mo  Mo1  1  0.82660509  0.65321018  0.27480043  1
  H  H2  1  0.08156343  0.16312685  0.24474304  1
  H  H3  1  0.91843657  0.83687315  0.75525696  1
  H  H4  1  0.09221544  0.42880119  0.30711488  1
  H  H5  1  0.33658575  0.42880119  0.30711488  1
  H  H6  1  0.90778456  0.57119881  0.69288512  1
  H  H7  1  0.66341425  0.57119881  0.69288512  1
  H  H8  1  0.13984449  0.27968898  0.09093637  1
  H  H9  1  0.86015551  0.72031102  0.90906363  1
  H  H10  1  0.35098855  0.94887178  0.64839021  1
  H  H11  1  0.59788323  0.94887178  0.64839021  1
  H  H12  1  0.64901145  0.05112822  0.35160979  1
  H  H13  1  0.40211677  0.05112822  0.35160979  1
  H  H14  1  0.57316824  0.14633648  0.85692179  1
  H  H15  1  0.42683176  0.85366352  0.14307821  1
  H  H16  1  0.42665194  0.85330389  0.78762100  1
  H  H17  1  0.57334806  0.14669611  0.21237900  1
  N  N18  1  0.16197091  0.32394182  0.23821088  1
  N  N19  1  0.83802909  0.67605818  0.76178912  1
  N  N20  1  0.48863485  0.97726970  0.73407363  1
  N  N21  1  0.51136515  0.02273030  0.26592637  1
  O  O22  1  0.33089909  0.66179818  0.89753234  1
  O  O23  1  0.66910091  0.33820182  0.10246766  1
  O  O24  1  0.92672646  0.28845642  0.57953916  1
  O  O25  1  0.36172996  0.28845642  0.57953916  1
  O  O26  1  0.07327354  0.71154358  0.42046084  1
  O  O27  1  0.63827004  0.71154358  0.42046084  1
  O  O28  1  0.08341323  0.16682647  0.84706764  1
  O  O29  1  0.91658677  0.83317353  0.15293236  1
