# generated using pymatgen
data_CaCO3
_symmetry_space_group_name_H-M   'P 1'
_cell_length_a   7.23779694
_cell_length_b   7.23779694
_cell_length_c   9.53978829
_cell_angle_alpha   89.64550062
_cell_angle_beta   113.04807294
_cell_angle_gamma   119.48090532
_symmetry_Int_Tables_number   1
_chemical_formula_structural   CaCO3
_chemical_formula_sum   'Ca6 C6 O18'
_cell_volume   389.31523184
_cell_formula_units_Z   6
loop_
 _symmetry_equiv_pos_site_id
 _symmetry_equiv_pos_as_xyz
  1  'x, y, z'
loop_
 _atom_site_type_symbol
 _atom_site_label
 _atom_site_symmetry_multiplicity
 _atom_site_fract_x
 _atom_site_fract_y
 _atom_site_fract_z
 _atom_site_occupancy
  Ca  Ca0  1  0.50000000  0.50000000  0.50000000  1
  Ca  Ca1  1  0.50000000  -0.00000000  0.00000000  1
  Ca  Ca2  1  0.19978055  0.35031114  0.00092995  1
  Ca  Ca3  1  0.84938119  0.19885060  0.49907005  1
  Ca  Ca4  1  0.80021945  0.64968886  0.99907005  1
  Ca  Ca5  1  0.15061881  0.80114940  0.50092995  1
  C  C6  1  0.97091657  0.58203926  0.76509950  1
  C  C7  1  0.31693976  0.20581707  0.73490050  1
  C  C8  1  0.02908343  0.41796074  0.23490050  1
  C  C9  1  0.68306024  0.79418293  0.26509950  1
  C  C10  1  0.69970139  0.94970139  0.75000000  1
  C  C11  1  0.30029861  0.05029861  0.25000000  1
  O  O12  1  0.98180036  0.54255658  0.63733528  1
  O  O13  1  0.40522131  0.34446508  0.86266472  1
  O  O14  1  0.01819964  0.45744342  0.36266472  1
  O  O15  1  0.59477869  0.65553492  0.13733528  1
  O  O16  1  0.14470995  0.63595565  0.90269361  1
  O  O17  1  0.23326203  0.24201634  0.59730639  1
  O  O18  1  0.85529005  0.36404435  0.09730639  1
  O  O19  1  0.76673797  0.75798366  0.40269361  1
  O  O20  1  0.70104913  0.90771727  0.88327635  1
  O  O21  1  0.52444093  0.81777279  0.61672365  1
  O  O22  1  0.29895087  0.09228273  0.11672365  1
  O  O23  1  0.47555907  0.18222721  0.38327635  1
  O  O24  1  0.78023554  0.56736385  0.75530422  1
  O  O25  1  0.31205963  0.02493132  0.74469578  1
  O  O26  1  0.21976446  0.43263615  0.24469578  1
  O  O27  1  0.68794037  0.97506868  0.25530422  1
  O  O28  1  0.87734341  0.12734341  0.75000000  1
  O  O29  1  0.12265659  0.87265659  0.25000000  1
