# generated using pymatgen
data_K7(FeTe2)4
_symmetry_space_group_name_H-M   'P 1'
_cell_length_a   8.69776606
_cell_length_b   12.23307809
_cell_length_c   12.23307809
_cell_angle_alpha   90.00000000
_cell_angle_beta   90.00000000
_cell_angle_gamma   90.00000000
_symmetry_Int_Tables_number   1
_chemical_formula_structural   K7(FeTe2)4
_chemical_formula_sum   'K14 Fe8 Te16'
_cell_volume   1301.60503104
_cell_formula_units_Z   2
loop_
 _symmetry_equiv_pos_site_id
 _symmetry_equiv_pos_as_xyz
  1  'x, y, z'
loop_
 _atom_site_type_symbol
 _atom_site_label
 _atom_site_symmetry_multiplicity
 _atom_site_fract_x
 _atom_site_fract_y
 _atom_site_fract_z
 _atom_site_occupancy
  K  K0  1  0.25000000  0.75000000  0.25000000  1
  K  K1  1  0.75000000  0.25000000  0.75000000  1
  K  K2  1  0.20816435  0.75000000  0.75000000  1
  K  K3  1  0.70816435  0.75000000  0.75000000  1
  K  K4  1  0.79183565  0.25000000  0.25000000  1
  K  K5  1  0.29183565  0.25000000  0.25000000  1
  K  K6  1  0.25000000  0.99175351  0.00824649  1
  K  K7  1  0.25000000  0.50824649  0.00824649  1
  K  K8  1  0.25000000  0.99175351  0.49175351  1
  K  K9  1  0.25000000  0.50824649  0.49175351  1
  K  K10  1  0.75000000  0.00824649  0.99175351  1
  K  K11  1  0.75000000  0.49175351  0.99175351  1
  K  K12  1  0.75000000  0.00824649  0.50824649  1
  K  K13  1  0.75000000  0.49175351  0.50824649  1
  Fe  Fe14  1  0.14396884  0.14521963  0.75000000  1
  Fe  Fe15  1  0.14396884  0.35478037  0.75000000  1
  Fe  Fe16  1  0.64396884  0.75000000  0.14521963  1
  Fe  Fe17  1  0.64396884  0.75000000  0.35478037  1
  Fe  Fe18  1  0.85603116  0.85478037  0.25000000  1
  Fe  Fe19  1  0.85603116  0.64521963  0.25000000  1
  Fe  Fe20  1  0.35603116  0.25000000  0.85478037  1
  Fe  Fe21  1  0.35603116  0.25000000  0.64521963  1
  Te  Te22  1  0.42476668  0.06875174  0.75000000  1
  Te  Te23  1  0.42476668  0.43124826  0.75000000  1
  Te  Te24  1  0.92476668  0.75000000  0.06875174  1
  Te  Te25  1  0.92476668  0.75000000  0.43124826  1
  Te  Te26  1  0.57523332  0.93124826  0.25000000  1
  Te  Te27  1  0.57523332  0.56875174  0.25000000  1
  Te  Te28  1  0.07523332  0.25000000  0.93124826  1
  Te  Te29  1  0.07523332  0.25000000  0.56875174  1
  Te  Te30  1  0.96378518  0.52291289  0.75000000  1
  Te  Te31  1  0.96378518  0.97708711  0.75000000  1
  Te  Te32  1  0.46378518  0.75000000  0.52291289  1
  Te  Te33  1  0.46378518  0.75000000  0.97708711  1
  Te  Te34  1  0.03621482  0.47708711  0.25000000  1
  Te  Te35  1  0.03621482  0.02291289  0.25000000  1
  Te  Te36  1  0.53621482  0.25000000  0.47708711  1
  Te  Te37  1  0.53621482  0.25000000  0.02291289  1
