# generated using pymatgen
data_Fe2B7
_symmetry_space_group_name_H-M   'P 1'
_cell_length_a   2.89358082
_cell_length_b   10.64288314
_cell_length_c   16.91374003
_cell_angle_alpha   90.00000000
_cell_angle_beta   90.00000000
_cell_angle_gamma   90.00000000
_symmetry_Int_Tables_number   1
_chemical_formula_structural   Fe2B7
_chemical_formula_sum   'Fe16 B56'
_cell_volume   520.87625719
_cell_formula_units_Z   8
loop_
 _symmetry_equiv_pos_site_id
 _symmetry_equiv_pos_as_xyz
  1  'x, y, z'
loop_
 _atom_site_type_symbol
 _atom_site_label
 _atom_site_symmetry_multiplicity
 _atom_site_fract_x
 _atom_site_fract_y
 _atom_site_fract_z
 _atom_site_occupancy
  Fe  Fe0  1  0.50000000  0.96784888  0.27863718  1
  Fe  Fe1  1  0.50000000  0.03215112  0.72136282  1
  Fe  Fe2  1  0.50000000  0.53215112  0.77863718  1
  Fe  Fe3  1  0.50000000  0.46784888  0.22136282  1
  Fe  Fe4  1  0.00000000  0.67990264  0.37880011  1
  Fe  Fe5  1  0.00000000  0.32009736  0.62119989  1
  Fe  Fe6  1  0.00000000  0.82009736  0.87880011  1
  Fe  Fe7  1  0.00000000  0.17990264  0.12119989  1
  Fe  Fe8  1  0.50000000  0.60736232  0.03336760  1
  Fe  Fe9  1  0.50000000  0.39263768  0.96663240  1
  Fe  Fe10  1  0.50000000  0.89263768  0.53336760  1
  Fe  Fe11  1  0.50000000  0.10736232  0.46663240  1
  Fe  Fe12  1  -0.00000000  0.76510789  0.11394970  1
  Fe  Fe13  1  -0.00000000  0.23489211  0.88605030  1
  Fe  Fe14  1  0.00000000  0.73489211  0.61394970  1
  Fe  Fe15  1  -0.00000000  0.26510789  0.38605030  1
  B  B16  1  0.00000000  0.55186965  0.13184779  1
  B  B17  1  0.00000000  0.44813035  0.86815221  1
  B  B18  1  -0.00000000  0.94813035  0.63184779  1
  B  B19  1  -0.00000000  0.05186965  0.36815221  1
  B  B20  1  0.00000000  0.96114224  0.45243051  1
  B  B21  1  -0.00000000  0.03885776  0.54756949  1
  B  B22  1  -0.00000000  0.53885776  0.95243051  1
  B  B23  1  -0.00000000  0.46114224  0.04756949  1
  B  B24  1  0.00000000  0.89160936  0.19722861  1
  B  B25  1  0.00000000  0.10839064  0.80277139  1
  B  B26  1  -0.00000000  0.60839064  0.69722861  1
  B  B27  1  -0.00000000  0.39160936  0.30277139  1
  B  B28  1  -0.00000000  0.87560477  0.35934422  1
  B  B29  1  0.00000000  0.12439523  0.64065578  1
  B  B30  1  -0.00000000  0.62439523  0.85934422  1
  B  B31  1  0.00000000  0.37560477  0.14065578  1
  B  B32  1  0.50000000  0.90194356  0.05516346  1
  B  B33  1  0.50000000  0.09805644  0.94483654  1
  B  B34  1  0.50000000  0.59805644  0.55516346  1
  B  B35  1  0.50000000  0.40194356  0.44483654  1
  B  B36  1  0.00000000  0.54458464  0.29931121  1
  B  B37  1  -0.00000000  0.45541536  0.70068879  1
  B  B38  1  -0.00000000  0.95541536  0.79931121  1
  B  B39  1  0.00000000  0.04458464  0.20068879  1
  B  B40  1  0.50000000  0.78718968  0.21020803  1
  B  B41  1  0.50000000  0.21281032  0.78979197  1
  B  B42  1  0.50000000  0.71281032  0.71020803  1
  B  B43  1  0.50000000  0.28718968  0.28979197  1
  B  B44  1  0.00000000  0.80528667  0.46638042  1
  B  B45  1  -0.00000000  0.19471333  0.53361958  1
  B  B46  1  -0.00000000  0.69471333  0.96638042  1
  B  B47  1  -0.00000000  0.30528667  0.03361958  1
  B  B48  1  -0.00000000  0.97571021  0.10077519  1
  B  B49  1  0.00000000  0.02428979  0.89922481  1
  B  B50  1  -0.00000000  0.52428979  0.60077519  1
  B  B51  1  -0.00000000  0.47571021  0.39922481  1
  B  B52  1  0.50000000  0.55864811  0.44606637  1
  B  B53  1  0.50000000  0.44135189  0.55393363  1
  B  B54  1  0.50000000  0.94135189  0.94606637  1
  B  B55  1  0.50000000  0.05864811  0.05393363  1
  B  B56  1  0.50000000  0.71250218  0.48102616  1
  B  B57  1  0.50000000  0.28749782  0.51897384  1
  B  B58  1  0.50000000  0.78749782  0.98102616  1
  B  B59  1  0.50000000  0.21250218  0.01897384  1
  B  B60  1  0.50000000  0.63792742  0.16047624  1
  B  B61  1  0.50000000  0.36207258  0.83952376  1
  B  B62  1  0.50000000  0.86207258  0.66047624  1
  B  B63  1  0.50000000  0.13792742  0.33952376  1
  B  B64  1  0.50000000  0.64398707  0.28053397  1
  B  B65  1  0.50000000  0.35601293  0.71946603  1
  B  B66  1  0.50000000  0.85601293  0.78053397  1
  B  B67  1  0.50000000  0.14398707  0.21946603  1
  B  B68  1  0.50000000  0.79182512  0.32040447  1
  B  B69  1  0.50000000  0.20817488  0.67959553  1
  B  B70  1  0.50000000  0.70817488  0.82040447  1
  B  B71  1  0.50000000  0.29182512  0.17959553  1
