# generated using pymatgen
data_AlV(TeO4)2
_symmetry_space_group_name_H-M   'P 1'
_cell_length_a   4.91911901
_cell_length_b   8.10484335
_cell_length_c   16.58760419
_cell_angle_alpha   94.12637353
_cell_angle_beta   90.00000000
_cell_angle_gamma   90.00000000
_symmetry_Int_Tables_number   1
_chemical_formula_structural   AlV(TeO4)2
_chemical_formula_sum   'Al4 V4 Te8 O32'
_cell_volume   659.61172147
_cell_formula_units_Z   4
loop_
 _symmetry_equiv_pos_site_id
 _symmetry_equiv_pos_as_xyz
  1  'x, y, z'
loop_
 _atom_site_type_symbol
 _atom_site_label
 _atom_site_symmetry_multiplicity
 _atom_site_fract_x
 _atom_site_fract_y
 _atom_site_fract_z
 _atom_site_occupancy
  Al  Al0  1  0.74688256  0.66597645  0.67494804  1
  Al  Al1  1  0.75311744  0.16597645  0.17494804  1
  Al  Al2  1  0.25311744  0.33402355  0.32505196  1
  Al  Al3  1  0.24688256  0.83402355  0.82505196  1
  V  V4  1  0.22512505  0.84138341  0.57244193  1
  V  V5  1  0.27487495  0.34138341  0.07244193  1
  V  V6  1  0.77487495  0.15861659  0.42755807  1
  V  V7  1  0.72512505  0.65861659  0.92755807  1
  Te  Te8  1  0.26864000  0.45487928  0.77741984  1
  Te  Te9  1  0.23136000  0.95487928  0.27741984  1
  Te  Te10  1  0.73136000  0.54512072  0.22258016  1
  Te  Te11  1  0.76864000  0.04512072  0.72258016  1
  Te  Te12  1  0.16048472  0.36477403  0.57003860  1
  Te  Te13  1  0.33951528  0.86477403  0.07003860  1
  Te  Te14  1  0.83951528  0.63522597  0.42996140  1
  Te  Te15  1  0.66048472  0.13522597  0.92996140  1
  O  O16  1  0.57781561  0.48696967  0.71348932  1
  O  O17  1  0.92218439  0.98696967  0.21348932  1
  O  O18  1  0.42218439  0.51303033  0.28651068  1
  O  O19  1  0.07781561  0.01303033  0.78651068  1
  O  O20  1  0.91724400  0.54683869  0.58143342  1
  O  O21  1  0.58275600  0.04683869  0.08143342  1
  O  O22  1  0.08275600  0.45316131  0.41856658  1
  O  O23  1  0.41724400  0.95316131  0.91856658  1
  O  O24  1  0.93066515  0.85533005  0.63927451  1
  O  O25  1  0.56933485  0.35533005  0.13927451  1
  O  O26  1  0.06933485  0.14466995  0.36072549  1
  O  O27  1  0.43066515  0.64466995  0.86072549  1
  O  O28  1  0.56943537  0.84739302  0.74967728  1
  O  O29  1  0.93056463  0.34739302  0.24967728  1
  O  O30  1  0.43056463  0.15260698  0.25032272  1
  O  O31  1  0.06943537  0.65260698  0.75032272  1
  O  O32  1  0.45506161  0.69631034  0.60013891  1
  O  O33  1  0.04493839  0.19631034  0.10013891  1
  O  O34  1  0.54493839  0.30368966  0.39986109  1
  O  O35  1  0.95506161  0.80368966  0.89986109  1
  O  O36  1  0.11081574  0.30876782  0.68007077  1
  O  O37  1  0.38918426  0.80876782  0.18007077  1
  O  O38  1  0.88918426  0.69123218  0.31992923  1
  O  O39  1  0.61081574  0.19123218  0.81992923  1
  O  O40  1  0.88888484  0.20418068  0.53276900  1
  O  O41  1  0.61111516  0.70418068  0.03276900  1
  O  O42  1  0.11111516  0.79581932  0.46723100  1
  O  O43  1  0.38888484  0.29581932  0.96723100  1
  O  O44  1  0.37107928  0.02448283  0.58093467  1
  O  O45  1  0.12892072  0.52448283  0.08093467  1
  O  O46  1  0.62892072  0.97551717  0.41906533  1
  O  O47  1  0.87107928  0.47551717  0.91906533  1
