# generated using pymatgen
data_Rb3(SO4)2
_symmetry_space_group_name_H-M   'P 1'
_cell_length_a   6.00993580
_cell_length_b   8.27626593
_cell_length_c   10.24521687
_cell_angle_alpha   101.75553812
_cell_angle_beta   90.00000000
_cell_angle_gamma   111.28963164
_symmetry_Int_Tables_number   1
_chemical_formula_structural   Rb3(SO4)2
_chemical_formula_sum   'Rb6 S4 O16'
_cell_volume   463.32906274
_cell_formula_units_Z   2
loop_
 _symmetry_equiv_pos_site_id
 _symmetry_equiv_pos_as_xyz
  1  'x, y, z'
loop_
 _atom_site_type_symbol
 _atom_site_label
 _atom_site_symmetry_multiplicity
 _atom_site_fract_x
 _atom_site_fract_y
 _atom_site_fract_z
 _atom_site_occupancy
  Rb  Rb0  1  0.24629849  1.00000000  0.75000000  1
  Rb  Rb1  1  0.75370151  0.00000000  0.25000000  1
  Rb  Rb2  1  0.53797041  0.62133247  0.84888052  1
  Rb  Rb3  1  0.91663794  0.37866753  0.65111948  1
  Rb  Rb4  1  0.46202959  0.37866753  0.15111948  1
  Rb  Rb5  1  0.08336206  0.62133247  0.34888052  1
  S  S6  1  0.10206121  0.77237065  0.03518136  1
  S  S7  1  0.32969056  0.22762935  0.46481864  1
  S  S8  1  0.89793879  0.22762935  0.96481864  1
  S  S9  1  0.67030944  0.77237065  0.53518136  1
  O  O10  1  0.87303175  0.69482279  0.09545146  1
  O  O11  1  0.17820896  0.30517721  0.40454854  1
  O  O12  1  0.12696825  0.30517721  0.90454854  1
  O  O13  1  0.82179104  0.69482279  0.59545146  1
  O  O14  1  0.17443646  0.97202161  0.05916094  1
  O  O15  1  0.20241484  0.02797839  0.44083906  1
  O  O16  1  0.82556354  0.02797839  0.94083906  1
  O  O17  1  0.79758516  0.97202161  0.55916094  1
  O  O18  1  0.07813790  0.69628312  0.88943575  1
  O  O19  1  0.38185477  0.30371688  0.61056425  1
  O  O20  1  0.92186210  0.30371688  0.11056425  1
  O  O21  1  0.61814523  0.69628312  0.38943575  1
  O  O22  1  0.30316140  0.74656182  0.10353032  1
  O  O23  1  0.55659959  0.25343818  0.39646968  1
  O  O24  1  0.69683860  0.25343818  0.89646968  1
  O  O25  1  0.44340041  0.74656182  0.60353032  1
