# generated using pymatgen
data_BaU(PS4)2
_symmetry_space_group_name_H-M   'P 1'
_cell_length_a   9.78097932
_cell_length_b   11.48008129
_cell_length_c   11.48008129
_cell_angle_alpha   90.00000000
_cell_angle_beta   90.00000000
_cell_angle_gamma   90.00000000
_symmetry_Int_Tables_number   1
_chemical_formula_structural   BaU(PS4)2
_chemical_formula_sum   'Ba4 U4 P8 S32'
_cell_volume   1289.05743244
_cell_formula_units_Z   4
loop_
 _symmetry_equiv_pos_site_id
 _symmetry_equiv_pos_as_xyz
  1  'x, y, z'
loop_
 _atom_site_type_symbol
 _atom_site_label
 _atom_site_symmetry_multiplicity
 _atom_site_fract_x
 _atom_site_fract_y
 _atom_site_fract_z
 _atom_site_occupancy
  Ba  Ba0  1  0.75000000  -0.00000000  0.50000000  1
  Ba  Ba1  1  0.25000000  0.50000000  0.00000000  1
  Ba  Ba2  1  0.75000000  0.50000000  0.00000000  1
  Ba  Ba3  1  0.25000000  -0.00000000  0.50000000  1
  U  U4  1  0.75000000  0.50000000  0.50000000  1
  U  U5  1  0.25000000  0.50000000  0.50000000  1
  U  U6  1  0.75000000  -0.00000000  0.00000000  1
  U  U7  1  0.25000000  -0.00000000  0.00000000  1
  P  P8  1  0.50000000  0.27024243  0.46330139  1
  P  P9  1  -0.00000000  0.46330139  0.72975757  1
  P  P10  1  0.50000000  0.22975757  0.96330139  1
  P  P11  1  -0.00000000  0.96330139  0.77024243  1
  P  P12  1  0.50000000  0.72975757  0.53669861  1
  P  P13  1  -0.00000000  0.53669861  0.27024243  1
  P  P14  1  0.50000000  0.77024243  0.03669861  1
  P  P15  1  0.00000000  0.03669861  0.22975757  1
  S  S16  1  0.82696675  0.43337066  0.27865395  1
  S  S17  1  0.32696675  0.27865395  0.56662934  1
  S  S18  1  0.82696675  0.06662934  0.77865395  1
  S  S19  1  0.32696675  0.77865395  0.93337066  1
  S  S20  1  0.17303325  0.43337066  0.27865395  1
  S  S21  1  0.67303325  0.27865395  0.56662934  1
  S  S22  1  0.17303325  0.06662934  0.77865395  1
  S  S23  1  0.67303325  0.77865395  0.93337066  1
  S  S24  1  0.17303325  0.56662934  0.72134605  1
  S  S25  1  0.67303325  0.72134605  0.43337066  1
  S  S26  1  0.17303325  0.93337066  0.22134605  1
  S  S27  1  0.67303325  0.22134605  0.06662934  1
  S  S28  1  0.82696675  0.56662934  0.72134605  1
  S  S29  1  0.32696675  0.72134605  0.43337066  1
  S  S30  1  0.82696675  0.93337066  0.22134605  1
  S  S31  1  0.32696675  0.22134605  0.06662934  1
  S  S32  1  0.50000000  0.42464677  0.37001719  1
  S  S33  1  -0.00000000  0.37001719  0.57535323  1
  S  S34  1  0.50000000  0.07535323  0.87001719  1
  S  S35  1  -0.00000000  0.87001719  0.92464677  1
  S  S36  1  0.50000000  0.57535323  0.62998281  1
  S  S37  1  -0.00000000  0.62998281  0.42464677  1
  S  S38  1  0.50000000  0.92464677  0.12998281  1
  S  S39  1  0.00000000  0.12998281  0.07535323  1
  S  S40  1  0.50000000  0.12507429  0.36504256  1
  S  S41  1  0.00000000  0.36504256  0.87492571  1
  S  S42  1  0.50000000  0.37492571  0.86504256  1
  S  S43  1  -0.00000000  0.86504256  0.62507429  1
  S  S44  1  0.50000000  0.87492571  0.63495744  1
  S  S45  1  -0.00000000  0.63495744  0.12507429  1
  S  S46  1  0.50000000  0.62507429  0.13495744  1
  S  S47  1  -0.00000000  0.13495744  0.37492571  1
