# generated using pymatgen
data_Na4AsHO5
_symmetry_space_group_name_H-M   'P 1'
_cell_length_a   7.52767798
_cell_length_b   8.39151840
_cell_length_c   9.11272579
_cell_angle_alpha   90.00000000
_cell_angle_beta   90.00000000
_cell_angle_gamma   90.00000000
_symmetry_Int_Tables_number   1
_chemical_formula_structural   Na4AsHO5
_chemical_formula_sum   'Na16 As4 H4 O20'
_cell_volume   575.63857029
_cell_formula_units_Z   4
loop_
 _symmetry_equiv_pos_site_id
 _symmetry_equiv_pos_as_xyz
  1  'x, y, z'
loop_
 _atom_site_type_symbol
 _atom_site_label
 _atom_site_symmetry_multiplicity
 _atom_site_fract_x
 _atom_site_fract_y
 _atom_site_fract_z
 _atom_site_occupancy
  Na  Na0  1  0.01348477  0.15241768  0.62934173  1
  Na  Na1  1  0.48651523  0.34758232  0.12934173  1
  Na  Na2  1  0.51348477  0.84758232  0.37065827  1
  Na  Na3  1  0.98651523  0.65241768  0.87065827  1
  Na  Na4  1  0.98651523  0.84758232  0.37065827  1
  Na  Na5  1  0.51348477  0.65241768  0.87065827  1
  Na  Na6  1  0.48651523  0.15241768  0.62934173  1
  Na  Na7  1  0.01348477  0.34758232  0.12934173  1
  Na  Na8  1  0.25000000  0.26553845  0.87011025  1
  Na  Na9  1  0.25000000  0.23446155  0.37011025  1
  Na  Na10  1  0.75000000  0.73446155  0.12988975  1
  Na  Na11  1  0.75000000  0.76553845  0.62988975  1
  Na  Na12  1  -0.00000000  0.50000000  0.50000000  1
  Na  Na13  1  0.50000000  -0.00000000  0.00000000  1
  Na  Na14  1  0.50000000  0.50000000  0.50000000  1
  Na  Na15  1  -0.00000000  -0.00000000  0.00000000  1
  As  As16  1  0.25000000  0.84990272  0.63751354  1
  As  As17  1  0.25000000  0.65009728  0.13751354  1
  As  As18  1  0.75000000  0.15009728  0.36248646  1
  As  As19  1  0.75000000  0.34990272  0.86248646  1
  H  H20  1  0.25000000  0.44905718  0.65754189  1
  H  H21  1  0.25000000  0.05094282  0.15754189  1
  H  H22  1  0.75000000  0.55094282  0.34245811  1
  H  H23  1  0.75000000  0.94905718  0.84245811  1
  O  O24  1  0.06236359  0.73263810  0.63047934  1
  O  O25  1  0.43763641  0.76736190  0.13047934  1
  O  O26  1  0.56236359  0.26736190  0.36952066  1
  O  O27  1  0.93763641  0.23263810  0.86952066  1
  O  O28  1  0.93763641  0.26736190  0.36952066  1
  O  O29  1  0.56236359  0.23263810  0.86952066  1
  O  O30  1  0.43763641  0.73263810  0.63047934  1
  O  O31  1  0.06236359  0.76736190  0.13047934  1
  O  O32  1  0.25000000  0.97159038  0.78988729  1
  O  O33  1  0.25000000  0.52840962  0.28988729  1
  O  O34  1  0.75000000  0.02840962  0.21011271  1
  O  O35  1  0.75000000  0.47159038  0.71011271  1
  O  O36  1  0.25000000  0.97227113  0.48293360  1
  O  O37  1  0.25000000  0.52772887  0.98293360  1
  O  O38  1  0.75000000  0.02772887  0.51706640  1
  O  O39  1  0.75000000  0.47227113  0.01706640  1
  O  O40  1  0.25000000  0.34355869  0.61313082  1
  O  O41  1  0.25000000  0.15644131  0.11313082  1
  O  O42  1  0.75000000  0.65644131  0.38686918  1
  O  O43  1  0.75000000  0.84355869  0.88686918  1
