# generated using pymatgen
data_Ce5Si4
_symmetry_space_group_name_H-M   'P 1'
_cell_length_a   7.81761705
_cell_length_b   7.81678399
_cell_length_c   14.62739078
_cell_angle_alpha   90.01876562
_cell_angle_beta   90.00559452
_cell_angle_gamma   90.00817012
_symmetry_Int_Tables_number   1
_chemical_formula_structural   Ce5Si4
_chemical_formula_sum   'Ce20 Si16'
_cell_volume   893.85965966
_cell_formula_units_Z   4
loop_
 _symmetry_equiv_pos_site_id
 _symmetry_equiv_pos_as_xyz
  1  'x, y, z'
loop_
 _atom_site_type_symbol
 _atom_site_label
 _atom_site_symmetry_multiplicity
 _atom_site_fract_x
 _atom_site_fract_y
 _atom_site_fract_z
 _atom_site_occupancy
  Ce  Ce0  1  0.67857727  0.32142384  0.75002191  1
  Ce  Ce1  1  0.32151312  0.67853397  0.25002935  1
  Ce  Ce2  1  0.82132170  0.82134018  0.49993902  1
  Ce  Ce3  1  0.17868348  0.17880153  -0.00000854  1
  Ce  Ce4  1  0.63982325  0.00378325  0.29274189  1
  Ce  Ce5  1  0.36019136  0.99625874  0.79274519  1
  Ce  Ce6  1  0.50368901  0.86020611  0.04271989  1
  Ce  Ce7  1  0.49634074  0.13974149  0.54269121  1
  Ce  Ce8  1  0.99622082  0.36014257  0.20729450  1
  Ce  Ce9  1  0.00369597  0.63980174  0.70725538  1
  Ce  Ce10  1  0.86017377  0.50366560  0.95730248  1
  Ce  Ce11  1  0.13976559  0.49636548  0.45725551  1
  Ce  Ce12  1  0.63279605  0.49594575  0.37473405  1
  Ce  Ce13  1  0.36724951  0.50407491  0.87477261  1
  Ce  Ce14  1  0.99591419  0.86731305  0.12473736  1
  Ce  Ce15  1  0.00403626  0.13261652  0.62469464  1
  Ce  Ce16  1  0.50411582  0.36723146  0.12527183  1
  Ce  Ce17  1  0.49596356  0.63279068  0.62522202  1
  Ce  Ce18  1  0.86730414  0.99592307  0.87527872  1
  Ce  Ce19  1  0.13264809  0.00407133  0.37529016  1
  Si  Si20  1  0.84357750  0.20813780  0.43953978  1
  Si  Si21  1  0.15642036  0.79180515  0.93955681  1
  Si  Si22  1  0.70810546  0.65632941  0.18959497  1
  Si  Si23  1  0.29185921  0.34362859  0.68958463  1
  Si  Si24  1  0.79177797  0.15652570  0.06042725  1
  Si  Si25  1  0.20818783  0.84355916  0.56040208  1
  Si  Si26  1  0.65639495  0.70816396  0.81043611  1
  Si  Si27  1  0.34360127  0.29180265  0.31040513  1
  Si  Si28  1  0.79824236  0.43528361  0.55898148  1
  Si  Si29  1  0.20174727  0.56469079  0.05900043  1
  Si  Si30  1  0.93517510  0.70169169  0.30905502  1
  Si  Si31  1  0.06480145  0.29829349  0.80903886  1
  Si  Si32  1  0.56477554  0.20174179  0.94102306  1
  Si  Si33  1  0.43525970  0.79828124  0.44098482  1
  Si  Si34  1  0.70168633  0.93516977  0.69097483  1
  Si  Si35  1  0.29836401  0.06486394  0.19100555  1
