# generated using pymatgen
data_CsSm(PO3)4
_symmetry_space_group_name_H-M   'P 1'
_cell_length_a   9.08159895
_cell_length_b   10.59097556
_cell_length_c   11.42743142
_cell_angle_alpha   107.04017662
_cell_angle_beta   90.00000000
_cell_angle_gamma   90.00000000
_symmetry_Int_Tables_number   1
_chemical_formula_structural   CsSm(PO3)4
_chemical_formula_sum   'Cs4 Sm4 P16 O48'
_cell_volume   1050.87244008
_cell_formula_units_Z   4
loop_
 _symmetry_equiv_pos_site_id
 _symmetry_equiv_pos_as_xyz
  1  'x, y, z'
loop_
 _atom_site_type_symbol
 _atom_site_label
 _atom_site_symmetry_multiplicity
 _atom_site_fract_x
 _atom_site_fract_y
 _atom_site_fract_z
 _atom_site_occupancy
  Cs  Cs0  1  0.93411497  0.31544711  0.03887384  1
  Cs  Cs1  1  0.56588503  0.81544711  0.53887384  1
  Cs  Cs2  1  0.06588503  0.68455289  0.96112616  1
  Cs  Cs3  1  0.43411497  0.18455289  0.46112616  1
  Sm  Sm4  1  0.22579736  0.50242666  0.31880139  1
  Sm  Sm5  1  0.27420264  0.00242666  0.81880139  1
  Sm  Sm6  1  0.77420264  0.49757334  0.68119861  1
  Sm  Sm7  1  0.72579736  0.99757334  0.18119861  1
  P  P8  1  0.59147185  0.35452304  0.24122967  1
  P  P9  1  0.90852815  0.85452304  0.74122967  1
  P  P10  1  0.40852815  0.64547696  0.75877033  1
  P  P11  1  0.09147185  0.14547696  0.25877033  1
  P  P12  1  0.96969979  0.75250247  0.28695645  1
  P  P13  1  0.53030021  0.25250247  0.78695645  1
  P  P14  1  0.03030021  0.24749753  0.71304355  1
  P  P15  1  0.46969979  0.74749753  0.21304355  1
  P  P16  1  0.82577365  0.53884712  0.36545984  1
  P  P17  1  0.67422635  0.03884712  0.86545984  1
  P  P18  1  0.17422635  0.46115288  0.63454016  1
  P  P19  1  0.32577365  0.96115288  0.13454016  1
  P  P20  1  0.10464529  0.82494288  0.52633745  1
  P  P21  1  0.39535471  0.32494288  0.02633745  1
  P  P22  1  0.89535471  0.17505712  0.47366255  1
  P  P23  1  0.60464529  0.67505712  0.97366255  1
  O  O24  1  0.90225087  0.82904232  0.20947247  1
  O  O25  1  0.59774913  0.32904232  0.70947247  1
  O  O26  1  0.09774913  0.17095768  0.79052753  1
  O  O27  1  0.40225087  0.67095768  0.29052753  1
  O  O28  1  0.70672024  0.47593349  0.25745934  1
  O  O29  1  0.79327976  0.97593349  0.75745934  1
  O  O30  1  0.29327976  0.52406651  0.74254066  1
  O  O31  1  0.20672024  0.02406651  0.24254066  1
  O  O32  1  0.83856508  0.68430327  0.34482064  1
  O  O33  1  0.66143492  0.18430327  0.84482064  1
  O  O34  1  0.16143492  0.31569673  0.65517936  1
  O  O35  1  0.33856508  0.81569673  0.15517936  1
  O  O36  1  0.03848079  0.85948882  0.40740292  1
  O  O37  1  0.46151921  0.35948882  0.90740292  1
  O  O38  1  0.96151921  0.14051118  0.59259708  1
  O  O39  1  0.53848079  0.64051118  0.09259708  1
  O  O40  1  0.54988263  0.33271339  0.09977436  1
  O  O41  1  0.95011737  0.83271339  0.59977436  1
  O  O42  1  0.45011737  0.66728661  0.90022564  1
  O  O43  1  0.04988263  0.16728661  0.40022564  1
  O  O44  1  0.08207654  0.64877214  0.22756262  1
  O  O45  1  0.41792346  0.14877214  0.72756262  1
  O  O46  1  0.91792346  0.35122786  0.77243738  1
  O  O47  1  0.58207654  0.85122786  0.27243738  1
  O  O48  1  0.20835703  0.93100143  0.59642651  1
  O  O49  1  0.29164297  0.43100143  0.09642651  1
  O  O50  1  0.79164297  0.06899857  0.40357349  1
  O  O51  1  0.70835703  0.56899857  0.90357349  1
  O  O52  1  0.46008272  0.40163349  0.32178064  1
  O  O53  1  0.03991728  0.90163349  0.82178064  1
  O  O54  1  0.53991728  0.59836651  0.67821936  1
  O  O55  1  0.96008272  0.09836651  0.17821936  1
  O  O56  1  0.67393846  0.23582374  0.25151556  1
  O  O57  1  0.82606154  0.73582374  0.75151556  1
  O  O58  1  0.32606154  0.76417626  0.74848444  1
  O  O59  1  0.17393846  0.26417626  0.24848444  1
  O  O60  1  0.16105963  0.68597058  0.48555409  1
  O  O61  1  0.33894037  0.18597058  0.98555409  1
  O  O62  1  0.83894037  0.31402942  0.51444591  1
  O  O63  1  0.66105963  0.81402942  0.01444591  1
  O  O64  1  0.75731753  0.55861859  0.48857368  1
  O  O65  1  0.74268247  0.05861859  0.98857368  1
  O  O66  1  0.24268247  0.44138141  0.51142632  1
  O  O67  1  0.25731753  0.94138141  0.01142632  1
  O  O68  1  0.96707294  0.46393385  0.33126381  1
  O  O69  1  0.53292706  0.96393385  0.83126381  1
  O  O70  1  0.03292706  0.53606615  0.66873619  1
  O  O71  1  0.46707294  0.03606615  0.16873619  1
