# generated using pymatgen
data_Hg6S4IBr3
_symmetry_space_group_name_H-M   'P 1'
_cell_length_a   4.74363750
_cell_length_b   12.75180477
_cell_length_c   14.44537551
_cell_angle_alpha   90.00000000
_cell_angle_beta   90.00000000
_cell_angle_gamma   90.00000000
_symmetry_Int_Tables_number   1
_chemical_formula_structural   Hg6S4IBr3
_chemical_formula_sum   'Hg12 S8 I2 Br6'
_cell_volume   873.79988776
_cell_formula_units_Z   2
loop_
 _symmetry_equiv_pos_site_id
 _symmetry_equiv_pos_as_xyz
  1  'x, y, z'
loop_
 _atom_site_type_symbol
 _atom_site_label
 _atom_site_symmetry_multiplicity
 _atom_site_fract_x
 _atom_site_fract_y
 _atom_site_fract_z
 _atom_site_occupancy
  Hg  Hg0  1  0.50065256  0.37224483  0.86702098  1
  Hg  Hg1  1  0.50065256  0.62775517  0.13297902  1
  Hg  Hg2  1  0.49934744  0.87224483  0.63297902  1
  Hg  Hg3  1  0.49934744  0.12775517  0.36702098  1
  Hg  Hg4  1  0.49952091  0.83419274  0.39639160  1
  Hg  Hg5  1  0.49952091  0.16580726  0.60360840  1
  Hg  Hg6  1  0.50047909  0.66580726  0.89639160  1
  Hg  Hg7  1  0.50047909  0.33419274  0.10360840  1
  Hg  Hg8  1  0.99992743  0.47955619  0.30338911  1
  Hg  Hg9  1  0.99992743  0.52044381  0.69661089  1
  Hg  Hg10  1  0.00007257  0.97955619  0.19661089  1
  Hg  Hg11  1  0.00007257  0.02044381  0.80338911  1
  S  S12  1  0.50262229  0.22723858  0.96949286  1
  S  S13  1  0.50262229  0.77276142  0.03050714  1
  S  S14  1  0.49737771  0.72723858  0.53050714  1
  S  S15  1  0.49737771  0.27276142  0.46949286  1
  S  S16  1  0.49983224  0.96689007  0.27085612  1
  S  S17  1  0.49983224  0.03310993  0.72914388  1
  S  S18  1  0.50016776  0.53310993  0.77085612  1
  S  S19  1  0.50016776  0.46689007  0.22914388  1
  I  I20  1  0.99646256  0.50000000  0.50000000  1
  I  I21  1  0.00353744  -0.00000000  -0.00000000  1
  Br  Br22  1  0.00368587  0.50000000  -0.00000000  1
  Br  Br23  1  0.99631413  -0.00000000  0.50000000  1
  Br  Br24  1  0.99987692  0.28299866  0.72894311  1
  Br  Br25  1  0.99987692  0.71700134  0.27105689  1
  Br  Br26  1  0.00012308  0.78299866  0.77105689  1
  Br  Br27  1  0.00012308  0.21700134  0.22894311  1
