# generated using pymatgen
data_AlP2H18(C2Cl)3
_symmetry_space_group_name_H-M   'P 1'
_cell_length_a   10.48316387
_cell_length_b   11.22512108
_cell_length_c   14.33120604
_cell_angle_alpha   90.00000000
_cell_angle_beta   90.00000000
_cell_angle_gamma   90.00000000
_symmetry_Int_Tables_number   1
_chemical_formula_structural   AlP2H18(C2Cl)3
_chemical_formula_sum   'Al4 P8 H72 C24 Cl12'
_cell_volume   1686.42157152
_cell_formula_units_Z   4
loop_
 _symmetry_equiv_pos_site_id
 _symmetry_equiv_pos_as_xyz
  1  'x, y, z'
loop_
 _atom_site_type_symbol
 _atom_site_label
 _atom_site_symmetry_multiplicity
 _atom_site_fract_x
 _atom_site_fract_y
 _atom_site_fract_z
 _atom_site_occupancy
  Al  Al0  1  0.21544002  0.25000000  0.97858902  1
  Al  Al1  1  0.71544002  0.25000000  0.52141098  1
  Al  Al2  1  0.78455998  0.75000000  0.02141098  1
  Al  Al3  1  0.28455998  0.75000000  0.47858902  1
  P  P4  1  0.02191426  0.25000000  0.87228551  1
  P  P5  1  0.52191426  0.25000000  0.62771449  1
  P  P6  1  0.97808574  0.75000000  0.12771449  1
  P  P7  1  0.47808574  0.75000000  0.37228551  1
  P  P8  1  0.40299617  0.25000000  0.09108152  1
  P  P9  1  0.90299617  0.25000000  0.40891848  1
  P  P10  1  0.59700383  0.75000000  0.90891848  1
  P  P11  1  0.09700383  0.75000000  0.59108152  1
  H  H12  1  0.84095045  0.37707583  0.83179546  1
  H  H13  1  0.34095045  0.12292417  0.66820454  1
  H  H14  1  0.15904955  0.87707583  0.16820454  1
  H  H15  1  0.65904955  0.62292417  0.33179546  1
  H  H16  1  0.15904955  0.62292417  0.16820454  1
  H  H17  1  0.65904955  0.87707583  0.33179546  1
  H  H18  1  0.84095045  0.12292417  0.83179546  1
  H  H19  1  0.34095045  0.37707583  0.66820454  1
  H  H20  1  0.87248836  0.37816317  0.95480903  1
  H  H21  1  0.37248836  0.12183683  0.54519097  1
  H  H22  1  0.12751164  0.87816317  0.04519097  1
  H  H23  1  0.62751164  0.62183683  0.45480903  1
  H  H24  1  0.12751164  0.62183683  0.04519097  1
  H  H25  1  0.62751164  0.87816317  0.45480903  1
  H  H26  1  0.87248836  0.12183683  0.95480903  1
  H  H27  1  0.37248836  0.37816317  0.54519097  1
  H  H28  1  0.97132394  0.46108698  0.87774602  1
  H  H29  1  0.47132394  0.03891302  0.62225398  1
  H  H30  1  0.02867606  0.96108698  0.12225398  1
  H  H31  1  0.52867606  0.53891302  0.37774602  1
  H  H32  1  0.02867606  0.53891302  0.12225398  1
  H  H33  1  0.52867606  0.96108698  0.37774602  1
  H  H34  1  0.97132394  0.03891302  0.87774602  1
  H  H35  1  0.47132394  0.46108698  0.62225398  1
  H  H36  1  0.11457382  0.17046546  0.73036536  1
  H  H37  1  0.61457382  0.32953454  0.76963464  1
  H  H38  1  0.88542618  0.67046546  0.26963464  1
  H  H39  1  0.38542618  0.82953454  0.23036536  1
  H  H40  1  0.88542618  0.82953454  0.26963464  1
  H  H41  1  0.38542618  0.67046546  0.23036536  1
  H  H42  1  0.11457382  0.32953454  0.73036536  1
  H  H43  1  0.61457382  0.17046546  0.76963464  1
  H  H44  1  0.97022479  0.25000000  0.70591654  1
  H  H45  1  0.47022479  0.25000000  0.79408346  1
  H  H46  1  0.02977521  0.75000000  0.29408346  1
  H  H47  1  0.52977521  0.75000000  0.20591654  1
  H  H48  1  0.31945315  0.11833757  0.21095930  1
  H  H49  1  0.81945315  0.38166243  0.28904070  1
  H  H50  1  0.68054685  0.61833757  0.78904070  1
  H  H51  1  0.18054685  0.88166243  0.71095930  1
  H  H52  1  0.68054685  0.88166243  0.78904070  1
  H  H53  1  0.18054685  0.61833757  0.71095930  1
  H  H54  1  0.31945315  0.38166243  0.21095930  1
  H  H55  1  0.81945315  0.11833757  0.28904070  1
  H  H56  1  0.41526049  0.03995140  0.12816163  1
  H  H57  1  0.91526049  0.46004860  0.37183837  1
  H  H58  1  0.58473951  0.53995140  0.87183837  1
  H  H59  1  0.08473951  0.96004860  0.62816163  1
  H  H60  1  0.58473951  0.96004860  0.87183837  1
  H  H61  1  0.08473951  0.53995140  0.62816163  1
  H  H62  1  0.41526049  0.46004860  0.12816163  1
  H  H63  1  0.91526049  0.03995140  0.37183837  1
  H  H64  1  0.48993991  0.12735444  0.21703241  1
  H  H65  1  0.98993991  0.37264556  0.28296759  1
  H  H66  1  0.51006009  0.62735444  0.78296759  1
  H  H67  1  0.01006009  0.87264556  0.71703241  1
  H  H68  1  0.51006009  0.87264556  0.78296759  1
  H  H69  1  0.01006009  0.62735444  0.71703241  1
  H  H70  1  0.48993991  0.37264556  0.21703241  1
  H  H71  1  0.98993991  0.12735444  0.28296759  1
  H  H72  1  0.57433289  0.17033096  0.99578498  1
  H  H73  1  0.07433289  0.32966904  0.50421502  1
  H  H74  1  0.42566711  0.67033096  0.00421502  1
  H  H75  1  0.92566711  0.82966904  0.49578498  1
  H  H76  1  0.42566711  0.82966904  0.00421502  1
  H  H77  1  0.92566711  0.67033096  0.49578498  1
  H  H78  1  0.57433289  0.32966904  0.99578498  1
  H  H79  1  0.07433289  0.17033096  0.50421502  1
  H  H80  1  0.63594513  0.25000000  0.09392922  1
  H  H81  1  0.13594513  0.25000000  0.40607078  1
  H  H82  1  0.36405487  0.75000000  0.90607078  1
  H  H83  1  0.86405487  0.75000000  0.59392922  1
  C  C84  1  0.91622395  0.37854224  0.88520564  1
  C  C85  1  0.41622395  0.12145776  0.61479436  1
  C  C86  1  0.08377605  0.87854224  0.11479436  1
  C  C87  1  0.58377605  0.62145776  0.38520564  1
  C  C88  1  0.08377605  0.62145776  0.11479436  1
  C  C89  1  0.58377605  0.87854224  0.38520564  1
  C  C90  1  0.91622395  0.12145776  0.88520564  1
  C  C91  1  0.41622395  0.37854224  0.61479436  1
  C  C92  1  0.05829131  0.25000000  0.74744199  1
  C  C93  1  0.55829131  0.25000000  0.75255801  1
  C  C94  1  0.94170869  0.75000000  0.25255801  1
  C  C95  1  0.44170869  0.75000000  0.24744199  1
  C  C96  1  0.40775962  0.12167430  0.16967968  1
  C  C97  1  0.90775962  0.37832570  0.33032032  1
  C  C98  1  0.59224038  0.62167430  0.83032032  1
  C  C99  1  0.09224038  0.87832570  0.66967968  1
  C  C100  1  0.59224038  0.87832570  0.83032032  1
  C  C101  1  0.09224038  0.62167430  0.66967968  1
  C  C102  1  0.40775962  0.37832570  0.16967968  1
  C  C103  1  0.90775962  0.12167430  0.33032032  1
  C  C104  1  0.56240705  0.25000000  0.03921992  1
  C  C105  1  0.06240705  0.25000000  0.46078008  1
  C  C106  1  0.43759295  0.75000000  0.96078008  1
  C  C107  1  0.93759295  0.75000000  0.53921992  1
  Cl  Cl108  1  0.28122069  0.08179680  0.91590861  1
  Cl  Cl109  1  0.78122069  0.41820320  0.58409139  1
  Cl  Cl110  1  0.71877931  0.58179680  0.08409139  1
  Cl  Cl111  1  0.21877931  0.91820320  0.41590861  1
  Cl  Cl112  1  0.71877931  0.91820320  0.08409139  1
  Cl  Cl113  1  0.21877931  0.58179680  0.41590861  1
  Cl  Cl114  1  0.28122069  0.41820320  0.91590861  1
  Cl  Cl115  1  0.78122069  0.08179680  0.58409139  1
  Cl  Cl116  1  0.08751950  0.25000000  0.10042153  1
  Cl  Cl117  1  0.58751950  0.25000000  0.39957847  1
  Cl  Cl118  1  0.91248050  0.75000000  0.89957847  1
  Cl  Cl119  1  0.41248050  0.75000000  0.60042153  1
