# generated using pymatgen
data_Ho2Fe5Co12
_symmetry_space_group_name_H-M   'P 1'
_cell_length_a   8.11941376
_cell_length_b   8.35151327
_cell_length_c   8.35151327
_cell_angle_alpha   119.96637263
_cell_angle_beta   90.00000000
_cell_angle_gamma   90.00000000
_symmetry_Int_Tables_number   1
_chemical_formula_structural   Ho2Fe5Co12
_chemical_formula_sum   'Ho4 Fe10 Co24'
_cell_volume   490.60584509
_cell_formula_units_Z   2
loop_
 _symmetry_equiv_pos_site_id
 _symmetry_equiv_pos_as_xyz
  1  'x, y, z'
loop_
 _atom_site_type_symbol
 _atom_site_label
 _atom_site_symmetry_multiplicity
 _atom_site_fract_x
 _atom_site_fract_y
 _atom_site_fract_z
 _atom_site_occupancy
  Ho  Ho0  1  0.75000000  0.99998911  0.00001089  1
  Ho  Ho1  1  0.25000000  0.00001089  0.99998911  1
  Ho  Ho2  1  0.25000000  0.66664720  0.33335280  1
  Ho  Ho3  1  0.75000000  0.33335280  0.66664720  1
  Fe  Fe4  1  0.60625818  0.66678134  0.33321866  1
  Fe  Fe5  1  0.39374182  0.33321866  0.66678134  1
  Fe  Fe6  1  0.10625818  0.33321866  0.66678134  1
  Fe  Fe7  1  0.89374182  0.66678134  0.33321866  1
  Fe  Fe8  1  0.50000000  0.50000000  -0.00000000  1
  Fe  Fe9  1  0.50000000  0.50000000  0.50000000  1
  Fe  Fe10  1  0.50000000  -0.00000000  0.50000000  1
  Fe  Fe11  1  0.00000000  0.50000000  -0.00000000  1
  Fe  Fe12  1  0.00000000  0.50000000  0.50000000  1
  Fe  Fe13  1  0.00000000  -0.00000000  0.50000000  1
  Co  Co14  1  0.75000000  0.67328201  0.04576797  1
  Co  Co15  1  0.75000000  0.37249157  0.32667174  1
  Co  Co16  1  0.75000000  0.95424245  0.62748139  1
  Co  Co17  1  0.75000000  0.37251861  0.04575755  1
  Co  Co18  1  0.75000000  0.95423203  0.32671799  1
  Co  Co19  1  0.75000000  0.67332826  0.62750843  1
  Co  Co20  1  0.25000000  0.32671799  0.95423203  1
  Co  Co21  1  0.25000000  0.62750843  0.67332826  1
  Co  Co22  1  0.25000000  0.04575755  0.37251861  1
  Co  Co23  1  0.25000000  0.62748139  0.95424245  1
  Co  Co24  1  0.25000000  0.04576797  0.67328201  1
  Co  Co25  1  0.25000000  0.32667174  0.37249157  1
  Co  Co26  1  0.48245639  0.83605589  0.67208319  1
  Co  Co27  1  0.48260614  0.83615929  0.16384071  1
  Co  Co28  1  0.48245639  0.32791681  0.16394411  1
  Co  Co29  1  0.51754361  0.16394411  0.32791681  1
  Co  Co30  1  0.51739386  0.16384071  0.83615929  1
  Co  Co31  1  0.51754361  0.67208319  0.83605589  1
  Co  Co32  1  0.98245639  0.16394411  0.32791681  1
  Co  Co33  1  0.98260614  0.16384071  0.83615929  1
  Co  Co34  1  0.98245639  0.67208319  0.83605589  1
  Co  Co35  1  0.01754361  0.83605589  0.67208319  1
  Co  Co36  1  0.01739386  0.83615929  0.16384071  1
  Co  Co37  1  0.01754361  0.32791681  0.16394411  1
