# generated using pymatgen
data_Sc11Ge10
_symmetry_space_group_name_H-M   'P 1'
_cell_length_a   10.34490053
_cell_length_b   10.34490053
_cell_length_c   10.61182557
_cell_angle_alpha   119.17135799
_cell_angle_beta   119.17135799
_cell_angle_gamma   90.00000000
_symmetry_Int_Tables_number   1
_chemical_formula_structural   Sc11Ge10
_chemical_formula_sum   'Sc22 Ge20'
_cell_volume   822.72566262
_cell_formula_units_Z   2
loop_
 _symmetry_equiv_pos_site_id
 _symmetry_equiv_pos_as_xyz
  1  'x, y, z'
loop_
 _atom_site_type_symbol
 _atom_site_label
 _atom_site_symmetry_multiplicity
 _atom_site_fract_x
 _atom_site_fract_y
 _atom_site_fract_z
 _atom_site_occupancy
  Sc  Sc0  1  0.93740866  0.18934958  0.37869915  1
  Sc  Sc1  1  0.44129049  0.18934958  0.37869915  1
  Sc  Sc2  1  0.18934958  0.44129049  0.37869915  1
  Sc  Sc3  1  0.18934958  0.93740866  0.37869915  1
  Sc  Sc4  1  0.06259134  0.81065042  0.62130085  1
  Sc  Sc5  1  0.55870951  0.81065042  0.62130085  1
  Sc  Sc6  1  0.81065042  0.55870951  0.62130085  1
  Sc  Sc7  1  0.81065042  0.06259134  0.62130085  1
  Sc  Sc8  1  0.82352090  0.17647910  -0.00000000  1
  Sc  Sc9  1  0.17647910  0.82352090  -0.00000000  1
  Sc  Sc10  1  0.17647910  0.17647910  -0.00000000  1
  Sc  Sc11  1  0.82352090  0.82352090  -0.00000000  1
  Sc  Sc12  1  0.33807221  0.33807221  0.67614442  1
  Sc  Sc13  1  0.66192779  0.66192779  0.32385558  1
  Sc  Sc14  1  0.07036295  0.39749439  0.79498879  1
  Sc  Sc15  1  0.72462584  0.39749439  0.79498879  1
  Sc  Sc16  1  0.39749439  0.72462584  0.79498879  1
  Sc  Sc17  1  0.39749439  0.07036295  0.79498879  1
  Sc  Sc18  1  0.92963705  0.60250561  0.20501121  1
  Sc  Sc19  1  0.27537416  0.60250561  0.20501121  1
  Sc  Sc20  1  0.60250561  0.27537416  0.20501121  1
  Sc  Sc21  1  0.60250561  0.92963705  0.20501121  1
  Ge  Ge22  1  0.00000000  0.35877518  -0.00000000  1
  Ge  Ge23  1  0.00000000  0.64122482  -0.00000000  1
  Ge  Ge24  1  0.35877518  -0.00000000  -0.00000000  1
  Ge  Ge25  1  0.64122482  -0.00000000  -0.00000000  1
  Ge  Ge26  1  0.11279154  0.11279154  0.22558308  1
  Ge  Ge27  1  0.88720846  0.88720846  0.77441692  1
  Ge  Ge28  1  0.62553282  0.37446718  -0.00000000  1
  Ge  Ge29  1  0.37446718  0.62553282  -0.00000000  1
  Ge  Ge30  1  0.37446718  0.37446718  -0.00000000  1
  Ge  Ge31  1  0.62553282  0.62553282  -0.00000000  1
  Ge  Ge32  1  0.75000000  0.25000000  0.50000000  1
  Ge  Ge33  1  0.25000000  0.75000000  0.50000000  1
  Ge  Ge34  1  0.11426815  0.52961971  0.64388786  1
  Ge  Ge35  1  0.52961971  0.11426815  0.64388786  1
  Ge  Ge36  1  0.52961971  0.52961971  0.64388786  1
  Ge  Ge37  1  0.11426815  0.11426815  0.64388786  1
  Ge  Ge38  1  0.88573185  0.47038029  0.35611214  1
  Ge  Ge39  1  0.47038029  0.88573185  0.35611214  1
  Ge  Ge40  1  0.47038029  0.47038029  0.35611214  1
  Ge  Ge41  1  0.88573185  0.88573185  0.35611214  1
