# generated using pymatgen
data_NaHo(PO3)4
_symmetry_space_group_name_H-M   'P 1'
_cell_length_a   7.24071970
_cell_length_b   9.79891316
_cell_length_c   13.16185249
_cell_angle_alpha   90.00000000
_cell_angle_beta   90.00000000
_cell_angle_gamma   89.80269837
_symmetry_Int_Tables_number   1
_chemical_formula_structural   NaHo(PO3)4
_chemical_formula_sum   'Na4 Ho4 P16 O48'
_cell_volume   933.84347562
_cell_formula_units_Z   4
loop_
 _symmetry_equiv_pos_site_id
 _symmetry_equiv_pos_as_xyz
  1  'x, y, z'
loop_
 _atom_site_type_symbol
 _atom_site_label
 _atom_site_symmetry_multiplicity
 _atom_site_fract_x
 _atom_site_fract_y
 _atom_site_fract_z
 _atom_site_occupancy
  Na  Na0  1  0.00042089  0.56305987  0.22237517  1
  Na  Na1  1  0.50042089  0.06305987  0.27762483  1
  Na  Na2  1  0.99957911  0.43694013  0.77762483  1
  Na  Na3  1  0.49957911  0.93694013  0.72237517  1
  Ho  Ho4  1  0.48731936  0.47704433  0.21944442  1
  Ho  Ho5  1  0.98731936  0.97704433  0.28055558  1
  Ho  Ho6  1  0.51268064  0.52295567  0.78055558  1
  Ho  Ho7  1  0.01268064  0.02295567  0.71944442  1
  P  P8  1  0.85221475  0.30244519  0.37159133  1
  P  P9  1  0.35221475  0.80244519  0.12840867  1
  P  P10  1  0.14778525  0.69755481  0.62840867  1
  P  P11  1  0.64778525  0.19755481  0.87159133  1
  P  P12  1  0.24920559  0.24474051  0.39736199  1
  P  P13  1  0.74920559  0.74474051  0.10263801  1
  P  P14  1  0.75079441  0.75525949  0.60263801  1
  P  P15  1  0.25079441  0.25525949  0.89736199  1
  P  P16  1  0.37464264  0.23716006  0.61539161  1
  P  P17  1  0.87464264  0.73716006  0.88460839  1
  P  P18  1  0.62535736  0.76283994  0.38460839  1
  P  P19  1  0.12535736  0.26283994  0.11539161  1
  P  P20  1  0.76748171  0.29861471  0.59189748  1
  P  P21  1  0.26748171  0.79861471  0.90810252  1
  P  P22  1  0.23251829  0.70138529  0.40810252  1
  P  P23  1  0.73251829  0.20138529  0.09189748  1
  O  O24  1  0.20549104  0.39669013  0.14850895  1
  O  O25  1  0.70549104  0.89669013  0.35149105  1
  O  O26  1  0.79450896  0.60330987  0.85149105  1
  O  O27  1  0.29450896  0.10330987  0.64850895  1
  O  O28  1  0.71069205  0.59424125  0.11065395  1
  O  O29  1  0.21069205  0.09424125  0.38934605  1
  O  O30  1  0.28930795  0.40575875  0.88934605  1
  O  O31  1  0.78930795  0.90575875  0.61065395  1
  O  O32  1  0.77570592  0.39373944  0.28989957  1
  O  O33  1  0.27570592  0.89373944  0.21010043  1
  O  O34  1  0.22429408  0.60626056  0.71010043  1
  O  O35  1  0.72429408  0.10626056  0.78989957  1
  O  O36  1  0.82478808  0.15120696  0.36580747  1
  O  O37  1  0.32478808  0.65120696  0.13419253  1
  O  O38  1  0.17521192  0.84879304  0.63419253  1
  O  O39  1  0.67521192  0.34879304  0.86580747  1
  O  O40  1  0.78276373  0.36277001  0.47895098  1
  O  O41  1  0.28276373  0.86277001  0.02104902  1
  O  O42  1  0.21723627  0.63722999  0.52104902  1
  O  O43  1  0.71723627  0.13722999  0.97895098  1
  O  O44  1  0.06994703  0.33639801  0.37441166  1
  O  O45  1  0.56994703  0.83639801  0.12558834  1
  O  O46  1  0.93005297  0.66360199  0.62558834  1
  O  O47  1  0.43005297  0.16360199  0.87441166  1
  O  O48  1  0.40548783  0.29941518  0.33323187  1
  O  O49  1  0.90548783  0.79941518  0.16676813  1
  O  O50  1  0.59451217  0.70058482  0.66676813  1
  O  O51  1  0.09451217  0.20058482  0.83323187  1
  O  O52  1  0.28259276  0.29137493  0.51278029  1
  O  O53  1  0.78259276  0.79137493  0.98721971  1
  O  O54  1  0.71740724  0.70862507  0.48721971  1
  O  O55  1  0.21740724  0.20862507  0.01278029  1
  O  O56  1  0.58426294  0.20580367  0.58104215  1
  O  O57  1  0.08426294  0.70580367  0.91895785  1
  O  O58  1  0.41573706  0.79419633  0.41895785  1
  O  O59  1  0.91573706  0.29419633  0.08104215  1
  O  O60  1  0.36902252  0.35398120  0.68857815  1
  O  O61  1  0.86902252  0.85398120  0.81142185  1
  O  O62  1  0.63097748  0.64601880  0.31142185  1
  O  O63  1  0.13097748  0.14601880  0.18857815  1
  O  O64  1  0.92685168  0.20407822  0.61295110  1
  O  O65  1  0.42685168  0.70407822  0.88704890  1
  O  O66  1  0.07314832  0.79592178  0.38704890  1
  O  O67  1  0.57314832  0.29592178  0.11295110  1
  O  O68  1  0.73681792  0.41669013  0.66264294  1
  O  O69  1  0.23681792  0.91669013  0.83735706  1
  O  O70  1  0.26318208  0.58330987  0.33735706  1
  O  O71  1  0.76318208  0.08330987  0.16264294  1
