# generated using pymatgen
data_AlH2Pb3OF9
_symmetry_space_group_name_H-M   'P 1'
_cell_length_a   5.72727737
_cell_length_b   5.95258925
_cell_length_c   12.91554053
_cell_angle_alpha   98.75986751
_cell_angle_beta   94.05448196
_cell_angle_gamma   90.33955737
_symmetry_Int_Tables_number   1
_chemical_formula_structural   AlH2Pb3OF9
_chemical_formula_sum   'Al2 H4 Pb6 O2 F18'
_cell_volume   434.03071508
_cell_formula_units_Z   2
loop_
 _symmetry_equiv_pos_site_id
 _symmetry_equiv_pos_as_xyz
  1  'x, y, z'
loop_
 _atom_site_type_symbol
 _atom_site_label
 _atom_site_symmetry_multiplicity
 _atom_site_fract_x
 _atom_site_fract_y
 _atom_site_fract_z
 _atom_site_occupancy
  Al  Al0  1  0.20565385  0.38249281  0.69096521  1
  Al  Al1  1  0.79434615  0.61750719  0.30903479  1
  H  H2  1  0.40495647  0.65690918  0.43783788  1
  H  H3  1  0.59504353  0.34309082  0.56216212  1
  H  H4  1  0.17600519  0.74293927  0.49179648  1
  H  H5  1  0.82399481  0.25706073  0.50820352  1
  Pb  Pb6  1  0.69294930  0.88421321  0.63719069  1
  Pb  Pb7  1  0.30705070  0.11578679  0.36280931  1
  Pb  Pb8  1  0.23484424  0.95065557  0.88459613  1
  Pb  Pb9  1  0.76515576  0.04934443  0.11540387  1
  Pb  Pb10  1  0.72356355  0.49464823  0.88104741  1
  Pb  Pb11  1  0.27643645  0.50535177  0.11895259  1
  O  O12  1  0.34155716  0.78244042  0.48695216  1
  O  O13  1  0.65844284  0.21755958  0.51304784  1
  F  F14  1  0.95219138  0.22740586  0.72779914  1
  F  F15  1  0.04780862  0.77259414  0.27220086  1
  F  F16  1  0.26911542  0.49474874  0.83362670  1
  F  F17  1  0.73088458  0.50525126  0.16637330  1
  F  F18  1  0.14643319  0.27706357  0.55293915  1
  F  F19  1  0.85356681  0.72293643  0.44706085  1
  F  F20  1  0.48209664  0.52054882  0.66655378  1
  F  F21  1  0.51790336  0.47945118  0.33344622  1
  F  F22  1  0.38335511  0.13224836  0.71556646  1
  F  F23  1  0.61664489  0.86775164  0.28443354  1
  F  F24  1  0.03958170  0.63899727  0.68410748  1
  F  F25  1  0.96041830  0.36100273  0.31589252  1
  F  F26  1  0.50106506  0.76000977  0.00808571  1
  F  F27  1  0.49893494  0.23999023  0.99191429  1
  F  F28  1  0.99732135  0.75484341  0.00396529  1
  F  F29  1  0.00267865  0.24515659  0.99603471  1
  F  F30  1  0.70153489  0.86544307  0.82778507  1
  F  F31  1  0.29846511  0.13455693  0.17221493  1
