# generated using pymatgen
data_Ti11Ni9Pt4
_symmetry_space_group_name_H-M   'P 1'
_cell_length_a   7.49783636
_cell_length_b   7.52064887
_cell_length_c   14.25879974
_cell_angle_alpha   84.86180640
_cell_angle_beta   79.64995889
_cell_angle_gamma   60.10029072
_symmetry_Int_Tables_number   1
_chemical_formula_structural   Ti11Ni9Pt4
_chemical_formula_sum   'Ti22 Ni18 Pt8'
_cell_volume   685.67471591
_cell_formula_units_Z   2
loop_
 _symmetry_equiv_pos_site_id
 _symmetry_equiv_pos_as_xyz
  1  'x, y, z'
loop_
 _atom_site_type_symbol
 _atom_site_label
 _atom_site_symmetry_multiplicity
 _atom_site_fract_x
 _atom_site_fract_y
 _atom_site_fract_z
 _atom_site_occupancy
  Ti  Ti0  1  0.00000000  0.50000000  0.50000000  1
  Ti  Ti1  1  0.50000000  0.50000000  0.00000000  1
  Ti  Ti2  1  0.75069832  0.49860335  0.25000000  1
  Ti  Ti3  1  0.24930168  0.50139665  0.75000000  1
  Ti  Ti4  1  0.41446319  0.17107362  0.25000000  1
  Ti  Ti5  1  0.58553681  0.82892638  0.75000000  1
  Ti  Ti6  1  0.16588532  0.16086518  0.00028933  1
  Ti  Ti7  1  0.67324951  0.16086518  0.49971067  1
  Ti  Ti8  1  0.83411468  0.83913482  0.99971067  1
  Ti  Ti9  1  0.32675049  0.83913482  0.50028933  1
  Ti  Ti10  1  0.37896260  0.83782810  0.14965544  1
  Ti  Ti11  1  0.78320929  0.83782810  0.35034456  1
  Ti  Ti12  1  0.62103740  0.16217190  0.85034456  1
  Ti  Ti13  1  0.21679071  0.16217190  0.64965544  1
  Ti  Ti14  1  0.11604484  0.55022342  0.13772052  1
  Ti  Ti15  1  0.33373174  0.55022342  0.36227948  1
  Ti  Ti16  1  0.88395516  0.44977658  0.86227948  1
  Ti  Ti17  1  0.66626826  0.44977658  0.63772052  1
  Ti  Ti18  1  0.86400791  0.08451514  0.15875820  1
  Ti  Ti19  1  0.05147695  0.08451514  0.34124180  1
  Ti  Ti20  1  0.13599209  0.91548486  0.84124180  1
  Ti  Ti21  1  0.94852305  0.91548486  0.65875820  1
  Ni  Ni22  1  0.11916001  0.76167998  0.25000000  1
  Ni  Ni23  1  0.88083999  0.23832002  0.75000000  1
  Ni  Ni24  1  0.50218686  0.43843745  0.17682821  1
  Ni  Ni25  1  0.05937569  0.43843745  0.32317179  1
  Ni  Ni26  1  0.49781314  0.56156255  0.82317179  1
  Ni  Ni27  1  0.94062431  0.56156255  0.67682821  1
  Ni  Ni28  1  0.10979853  0.22783805  0.17502065  1
  Ni  Ni29  1  0.66236342  0.22783805  0.32497935  1
  Ni  Ni30  1  0.89020147  0.77216195  0.82497935  1
  Ni  Ni31  1  0.33763658  0.77216195  0.67502065  1
  Ni  Ni32  1  0.71228428  0.83042043  0.17618172  1
  Ni  Ni33  1  0.45729529  0.83042043  0.32381828  1
  Ni  Ni34  1  0.28771572  0.16957957  0.82381828  1
  Ni  Ni35  1  0.54270471  0.16957957  0.67618172  1
  Ni  Ni36  1  0.98941301  0.16934391  0.52213229  1
  Ni  Ni37  1  0.84124308  0.16934391  0.97786771  1
  Ni  Ni38  1  0.01058699  0.83065609  0.47786771  1
  Ni  Ni39  1  0.15875692  0.83065609  0.02213229  1
  Pt  Pt40  1  0.31581690  0.49688986  0.56246603  1
  Pt  Pt41  1  0.18729323  0.49688986  0.93753397  1
  Pt  Pt42  1  0.68418310  0.50311014  0.43753397  1
  Pt  Pt43  1  0.81270677  0.50311014  0.06246603  1
  Pt  Pt44  1  0.35439524  0.16861640  0.43824429  1
  Pt  Pt45  1  0.47698836  0.16861640  0.06175571  1
  Pt  Pt46  1  0.64560476  0.83138360  0.56175571  1
  Pt  Pt47  1  0.52301164  0.83138360  0.93824429  1
