# generated using pymatgen
data_B5H7S
_symmetry_space_group_name_H-M   'P 1'
_cell_length_a   7.79603623
_cell_length_b   12.68428509
_cell_length_c   12.73111508
_cell_angle_alpha   90.00000000
_cell_angle_beta   91.01987899
_cell_angle_gamma   90.00000000
_symmetry_Int_Tables_number   1
_chemical_formula_structural   B5H7S
_chemical_formula_sum   'B40 H56 S8'
_cell_volume   1258.74419520
_cell_formula_units_Z   8
loop_
 _symmetry_equiv_pos_site_id
 _symmetry_equiv_pos_as_xyz
  1  'x, y, z'
loop_
 _atom_site_type_symbol
 _atom_site_label
 _atom_site_symmetry_multiplicity
 _atom_site_fract_x
 _atom_site_fract_y
 _atom_site_fract_z
 _atom_site_occupancy
  B  B0  1  0.24916666  0.13911536  0.77273261  1
  B  B1  1  0.74916666  0.36088464  0.27273261  1
  B  B2  1  0.75083334  0.86088464  0.22726739  1
  B  B3  1  0.25083334  0.63911536  0.72726739  1
  B  B4  1  0.02457200  0.15196348  0.74707100  1
  B  B5  1  0.52457200  0.34803652  0.24707100  1
  B  B6  1  0.97542800  0.84803652  0.25292900  1
  B  B7  1  0.47542800  0.65196348  0.75292900  1
  B  B8  1  0.16072596  0.09107014  0.65180371  1
  B  B9  1  0.66072596  0.40892986  0.15180371  1
  B  B10  1  0.83927404  0.90892986  0.34819629  1
  B  B11  1  0.33927404  0.59107014  0.84819629  1
  B  B12  1  0.37684154  0.13485384  0.65862708  1
  B  B13  1  0.87684154  0.36514616  0.15862708  1
  B  B14  1  0.62315846  0.86514616  0.34137292  1
  B  B15  1  0.12315846  0.63485384  0.84137292  1
  B  B16  1  0.15025675  0.26212297  0.79776691  1
  B  B17  1  0.65025675  0.23787703  0.29776691  1
  B  B18  1  0.84974325  0.73787703  0.20223309  1
  B  B19  1  0.34974325  0.76212297  0.70223309  1
  B  B20  1  0.97612878  0.27936028  0.70665183  1
  B  B21  1  0.47612878  0.22063972  0.20665183  1
  B  B22  1  0.02387122  0.72063972  0.29334817  1
  B  B23  1  0.52387122  0.77936028  0.79334817  1
  B  B24  1  0.00624208  0.18037646  0.60814699  1
  B  B25  1  0.50624208  0.31962354  0.10814699  1
  B  B26  1  0.99375792  0.81962354  0.39185301  1
  B  B27  1  0.49375792  0.68037646  0.89185301  1
  B  B28  1  0.23995413  0.16916854  0.55076997  1
  B  B29  1  0.73995413  0.33083146  0.05076997  1
  B  B30  1  0.76004587  0.83083146  0.44923003  1
  B  B31  1  0.26004587  0.66916854  0.94923003  1
  B  B32  1  0.39725854  0.25775706  0.60270518  1
  B  B33  1  0.89725854  0.24224294  0.10270518  1
  B  B34  1  0.60274146  0.74224294  0.39729482  1
  B  B35  1  0.10274146  0.75775706  0.89729482  1
  B  B36  1  0.37630232  0.24978641  0.74144367  1
  B  B37  1  0.87630232  0.25021359  0.24144367  1
  B  B38  1  0.62369768  0.75021359  0.25855633  1
  B  B39  1  0.12369768  0.74978641  0.75855633  1
  H  H40  1  0.20296150  0.05273315  0.94481811  1
  H  H41  1  0.70296150  0.44726685  0.44481811  1
  H  H42  1  0.79703850  0.94726685  0.05518189  1
  H  H43  1  0.29703850  0.55273315  0.55518189  1
  H  H44  1  0.72912641  0.10479923  0.79322765  1
  H  H45  1  0.22912641  0.39520077  0.29322765  1
  H  H46  1  0.27087359  0.89520077  0.20677235  1
  H  H47  1  0.77087359  0.60479923  0.70677235  1
  H  H48  1  0.13099172  0.00190274  0.62833387  1
  H  H49  1  0.63099172  0.49809726  0.12833387  1
  H  H50  1  0.86900828  0.99809726  0.37166613  1
  H  H51  1  0.36900828  0.50190274  0.87166613  1
  H  H52  1  0.49069526  0.07228467  0.65448428  1
  H  H53  1  0.99069526  0.42771533  0.15448428  1
  H  H54  1  0.50930474  0.92771533  0.34551572  1
  H  H55  1  0.00930474  0.57228467  0.84551572  1
  H  H56  1  0.14062647  0.29883516  0.88348181  1
  H  H57  1  0.64062647  0.20116484  0.38348181  1
  H  H58  1  0.85937353  0.70116484  0.11651819  1
  H  H59  1  0.35937353  0.79883516  0.61651819  1
  H  H60  1  0.85005574  0.33036800  0.71817170  1
  H  H61  1  0.35005574  0.16963200  0.21817170  1
  H  H62  1  0.14994426  0.66963200  0.28182830  1
  H  H63  1  0.64994426  0.83036800  0.78182830  1
  H  H64  1  0.88988852  0.15733384  0.55088464  1
  H  H65  1  0.38988852  0.34266616  0.05088464  1
  H  H66  1  0.11011148  0.84266616  0.44911536  1
  H  H67  1  0.61011148  0.65733384  0.94911536  1
  H  H68  1  0.25143193  0.13797539  0.46295775  1
  H  H69  1  0.75143193  0.36202461  0.96295775  1
  H  H70  1  0.74856807  0.86202461  0.53704225  1
  H  H71  1  0.24856807  0.63797539  0.03704225  1
  H  H72  1  0.51465233  0.29350589  0.55664960  1
  H  H73  1  0.01465233  0.20649411  0.05664960  1
  H  H74  1  0.48534767  0.70649411  0.44335040  1
  H  H75  1  0.98534767  0.79350589  0.94335040  1
  H  H76  1  0.49124029  0.27822226  0.79727634  1
  H  H77  1  0.99124029  0.22177774  0.29727634  1
  H  H78  1  0.50875971  0.72177774  0.20272366  1
  H  H79  1  0.00875971  0.77822226  0.70272366  1
  H  H80  1  0.11100133  0.34038940  0.73222718  1
  H  H81  1  0.61100133  0.15961060  0.23222718  1
  H  H82  1  0.88899867  0.65961060  0.26777282  1
  H  H83  1  0.38899867  0.84038940  0.76777282  1
  H  H84  1  0.01339342  0.28451112  0.60405694  1
  H  H85  1  0.51339342  0.21548888  0.10405694  1
  H  H86  1  0.98660658  0.71548888  0.39594306  1
  H  H87  1  0.48660658  0.78451112  0.89594306  1
  H  H88  1  0.25493447  0.27313992  0.54375671  1
  H  H89  1  0.75493447  0.22686008  0.04375671  1
  H  H90  1  0.74506553  0.72686008  0.45624329  1
  H  H91  1  0.24506553  0.77313992  0.95624329  1
  H  H92  1  0.34968241  0.32862987  0.67414281  1
  H  H93  1  0.84968241  0.17137013  0.17414281  1
  H  H94  1  0.65031759  0.67137013  0.32585719  1
  H  H95  1  0.15031759  0.82862987  0.82585719  1
  S  S96  1  0.33975924  0.05747385  0.88192913  1
  S  S97  1  0.83975924  0.44252615  0.38192913  1
  S  S98  1  0.66024076  0.94252615  0.11807087  1
  S  S99  1  0.16024076  0.55747385  0.61807087  1
  S  S100  1  0.88111014  0.06636779  0.82701982  1
  S  S101  1  0.38111014  0.43363221  0.32701982  1
  S  S102  1  0.11888986  0.93363221  0.17298018  1
  S  S103  1  0.61888986  0.56636779  0.67298018  1
