# generated using pymatgen
data_KB5H2O9
_symmetry_space_group_name_H-M   'P 1'
_cell_length_a   8.01937642
_cell_length_b   9.13990366
_cell_length_c   10.96499189
_cell_angle_alpha   90.00000000
_cell_angle_beta   99.17023914
_cell_angle_gamma   90.00000000
_symmetry_Int_Tables_number   1
_chemical_formula_structural   KB5H2O9
_chemical_formula_sum   'K4 B20 H8 O36'
_cell_volume   793.42177603
_cell_formula_units_Z   4
loop_
 _symmetry_equiv_pos_site_id
 _symmetry_equiv_pos_as_xyz
  1  'x, y, z'
loop_
 _atom_site_type_symbol
 _atom_site_label
 _atom_site_symmetry_multiplicity
 _atom_site_fract_x
 _atom_site_fract_y
 _atom_site_fract_z
 _atom_site_occupancy
  K  K0  1  0.88219735  0.42572491  0.24040242  1
  K  K1  1  0.61780265  0.92572491  0.25959758  1
  K  K2  1  0.11780265  0.57427509  0.75959758  1
  K  K3  1  0.38219735  0.07427509  0.74040242  1
  B  B4  1  0.38657655  0.15548139  0.42368907  1
  B  B5  1  0.11342345  0.65548139  0.07631093  1
  B  B6  1  0.61342345  0.84451861  0.57631093  1
  B  B7  1  0.88657655  0.34451861  0.92368907  1
  B  B8  1  0.58303262  0.35402659  0.47089175  1
  B  B9  1  0.91696738  0.85402659  0.02910825  1
  B  B10  1  0.41696738  0.64597341  0.52910825  1
  B  B11  1  0.08303262  0.14597341  0.97089175  1
  B  B12  1  0.51136113  0.25874643  0.03428786  1
  B  B13  1  0.98863887  0.75874643  0.46571214  1
  B  B14  1  0.48863887  0.74125357  0.96571214  1
  B  B15  1  0.01136113  0.24125357  0.53428786  1
  B  B16  1  0.47590806  0.29691608  0.25272505  1
  B  B17  1  0.02409194  0.79691608  0.24727495  1
  B  B18  1  0.52409194  0.70308392  0.74727495  1
  B  B19  1  0.97590806  0.20308392  0.75272505  1
  B  B20  1  0.19098765  0.93596460  0.41966772  1
  B  B21  1  0.30901235  0.43596460  0.08033228  1
  B  B22  1  0.80901235  0.06403540  0.58033228  1
  B  B23  1  0.69098765  0.56403540  0.91966772  1
  H  H24  1  0.67582828  0.12309938  0.97050593  1
  H  H25  1  0.82417172  0.62309938  0.52949407  1
  H  H26  1  0.32417172  0.87690062  0.02949407  1
  H  H27  1  0.17582828  0.37690062  0.47050593  1
  H  H28  1  0.66779896  0.43671612  0.64132984  1
  H  H29  1  0.83220104  0.93671612  0.85867016  1
  H  H30  1  0.33220104  0.56328388  0.35867016  1
  H  H31  1  0.16779896  0.06328388  0.14132984  1
  O  O32  1  0.59923942  0.36555646  0.34966073  1
  O  O33  1  0.90076058  0.86555646  0.15033927  1
  O  O34  1  0.40076058  0.63444354  0.65033927  1
  O  O35  1  0.09923942  0.13444354  0.84966073  1
  O  O36  1  0.38679594  0.17273761  0.30145969  1
  O  O37  1  0.11320406  0.67273761  0.19854031  1
  O  O38  1  0.61320406  0.82726239  0.69854031  1
  O  O39  1  0.88679594  0.32726239  0.80145969  1
  O  O40  1  0.47884556  0.24756153  0.51204074  1
  O  O41  1  0.02115444  0.74756153  0.98795926  1
  O  O42  1  0.52115444  0.75243847  0.48795926  1
  O  O43  1  0.97884556  0.25243847  0.01204074  1
  O  O44  1  0.37868465  0.35412031  0.99325208  1
  O  O45  1  0.12131535  0.85412031  0.50674792  1
  O  O46  1  0.62131535  0.64587969  0.00674792  1
  O  O47  1  0.87868465  0.14587969  0.49325208  1
  O  O48  1  0.30315795  0.04237138  0.47295194  1
  O  O49  1  0.19684205  0.54237138  0.02704806  1
  O  O50  1  0.69684205  0.95762862  0.52704806  1
  O  O51  1  0.80315795  0.45762862  0.97295194  1
  O  O52  1  0.56787307  0.23671011  0.15661864  1
  O  O53  1  0.93212693  0.73671011  0.34338136  1
  O  O54  1  0.43212693  0.76328989  0.84338136  1
  O  O55  1  0.06787307  0.26328989  0.65661864  1
  O  O56  1  0.58256192  0.19072236  0.94237902  1
  O  O57  1  0.91743808  0.69072236  0.55762098  1
  O  O58  1  0.41743808  0.80927764  0.05762098  1
  O  O59  1  0.08256192  0.30927764  0.44237902  1
  O  O60  1  0.35000442  0.41086748  0.20277688  1
  O  O61  1  0.14999558  0.91086748  0.29722312  1
  O  O62  1  0.64999558  0.58913252  0.79722312  1
  O  O63  1  0.85000442  0.08913252  0.70277688  1
  O  O64  1  0.67696470  0.44781399  0.55352176  1
  O  O65  1  0.82303530  0.94781399  0.94647824  1
  O  O66  1  0.32303530  0.55218601  0.44647824  1
  O  O67  1  0.17696470  0.05218601  0.05352176  1
