# generated using pymatgen
data_ZnH14SO11
_symmetry_space_group_name_H-M   'P 1'
_cell_length_a   6.82464113
_cell_length_b   11.88454350
_cell_length_c   12.23048463
_cell_angle_alpha   90.00000000
_cell_angle_beta   90.00000000
_cell_angle_gamma   90.00000000
_symmetry_Int_Tables_number   1
_chemical_formula_structural   ZnH14SO11
_chemical_formula_sum   'Zn4 H56 S4 O44'
_cell_volume   991.98702103
_cell_formula_units_Z   4
loop_
 _symmetry_equiv_pos_site_id
 _symmetry_equiv_pos_as_xyz
  1  'x, y, z'
loop_
 _atom_site_type_symbol
 _atom_site_label
 _atom_site_symmetry_multiplicity
 _atom_site_fract_x
 _atom_site_fract_y
 _atom_site_fract_z
 _atom_site_occupancy
  Zn  Zn0  1  0.45967533  0.57756095  0.60653640  1
  Zn  Zn1  1  0.95967533  0.92243905  0.39346360  1
  Zn  Zn2  1  0.54032467  0.07756095  0.89346360  1
  Zn  Zn3  1  0.04032467  0.42243905  0.10653640  1
  H  H4  1  0.40053631  0.76421885  0.72430569  1
  H  H5  1  0.90053631  0.73578115  0.27569431  1
  H  H6  1  0.59946369  0.26421885  0.77569431  1
  H  H7  1  0.09946369  0.23578115  0.22430569  1
  H  H8  1  0.63163790  0.76368275  0.69719356  1
  H  H9  1  0.13163790  0.73631725  0.30280644  1
  H  H10  1  0.36836210  0.26368275  0.80280644  1
  H  H11  1  0.86836210  0.23631725  0.19719356  1
  H  H12  1  0.19093483  0.57841393  0.77055240  1
  H  H13  1  0.69093483  0.92158607  0.22944760  1
  H  H14  1  0.80906517  0.07841393  0.72944760  1
  H  H15  1  0.30906517  0.42158607  0.27055240  1
  H  H16  1  0.24473691  0.45080104  0.75446794  1
  H  H17  1  0.74473691  0.04919896  0.24553206  1
  H  H18  1  0.75526309  0.95080104  0.74553206  1
  H  H19  1  0.25526309  0.54919896  0.25446794  1
  H  H20  1  0.80284529  0.57411551  0.72784350  1
  H  H21  1  0.30284529  0.92588449  0.27215650  1
  H  H22  1  0.19715471  0.07411551  0.77215650  1
  H  H23  1  0.69715471  0.42588449  0.22784350  1
  H  H24  1  0.75324109  0.44812161  0.68763772  1
  H  H25  1  0.25324109  0.05187839  0.31236228  1
  H  H26  1  0.24675891  0.94812161  0.81236228  1
  H  H27  1  0.74675891  0.55187839  0.18763772  1
  H  H28  1  0.29618069  0.37455015  0.55811219  1
  H  H29  1  0.79618069  0.12544985  0.44188781  1
  H  H30  1  0.70381931  0.87455015  0.94188781  1
  H  H31  1  0.20381931  0.62544985  0.05811219  1
  H  H32  1  0.46763151  0.39179345  0.47256422  1
  H  H33  1  0.96763151  0.10820655  0.52743578  1
  H  H34  1  0.53236849  0.89179345  0.02743578  1
  H  H35  1  0.03236849  0.60820655  0.97256422  1
  H  H36  1  0.53574773  0.63404487  0.39645160  1
  H  H37  1  0.03574773  0.86595513  0.60354840  1
  H  H38  1  0.46425227  0.13404487  0.10354840  1
  H  H39  1  0.96425227  0.36595513  0.89645160  1
  H  H40  1  0.73502387  0.58202905  0.44632622  1
  H  H41  1  0.23502387  0.91797095  0.55367378  1
  H  H42  1  0.26497613  0.08202905  0.05367378  1
  H  H43  1  0.76497613  0.41797095  0.94632622  1
  H  H44  1  0.17124763  0.71712085  0.52861820  1
  H  H45  1  0.67124763  0.78287915  0.47138180  1
  H  H46  1  0.82875237  0.21712085  0.97138180  1
  H  H47  1  0.32875237  0.28287915  0.02861820  1
  H  H48  1  0.10055964  0.59022258  0.49996516  1
  H  H49  1  0.60055964  0.90977742  0.50003484  1
  H  H50  1  0.89944036  0.09022258  0.00003484  1
  H  H51  1  0.39944036  0.40977742  -0.00003484  1
  H  H52  1  0.54529985  0.57259858  0.98733930  1
  H  H53  1  0.04529985  0.92740142  0.01266070  1
  H  H54  1  0.45470015  0.07259858  0.51266070  1
  H  H55  1  0.95470015  0.42740142  0.48733930  1
  H  H56  1  0.49601313  0.52154685  0.87103758  1
  H  H57  1  0.99601313  0.97845315  0.12896242  1
  H  H58  1  0.50398687  0.02154685  0.62896242  1
  H  H59  1  0.00398687  0.47845315  0.37103758  1
  S  S60  1  0.00656488  0.27614761  0.68413702  1
  S  S61  1  0.50656488  0.22385239  0.31586298  1
  S  S62  1  0.99343512  0.77614761  0.81586298  1
  S  S63  1  0.49343512  0.72385239  0.18413702  1
  O  O64  1  0.07149831  0.32174826  0.57722749  1
  O  O65  1  0.57149831  0.17825174  0.42277251  1
  O  O66  1  0.92850169  0.82174826  0.92277251  1
  O  O67  1  0.42850169  0.67825174  0.07722749  1
  O  O68  1  0.01666792  0.15003699  0.68247827  1
  O  O69  1  0.51666792  0.34996301  0.31752173  1
  O  O70  1  0.98333208  0.65003699  0.81752173  1
  O  O71  1  0.48333208  0.84996301  0.18247827  1
  O  O72  1  0.80206498  0.31231550  0.70716107  1
  O  O73  1  0.30206498  0.18768450  0.29283893  1
  O  O74  1  0.19793502  0.81231550  0.79283893  1
  O  O75  1  0.69793502  0.68768450  0.20716107  1
  O  O76  1  0.13780499  0.32006799  0.77396890  1
  O  O77  1  0.63780499  0.17993201  0.22603110  1
  O  O78  1  0.86219501  0.82006799  0.72603110  1
  O  O79  1  0.36219501  0.67993201  0.27396890  1
  O  O80  1  0.50087248  0.73986201  0.67075965  1
  O  O81  1  0.00087248  0.76013799  0.32924035  1
  O  O82  1  0.49912752  0.23986201  0.82924035  1
  O  O83  1  0.99912752  0.26013799  0.17075965  1
  O  O84  1  0.30342736  0.52770591  0.75391336  1
  O  O85  1  0.80342736  0.97229409  0.24608664  1
  O  O86  1  0.69657264  0.02770591  0.74608664  1
  O  O87  1  0.19657264  0.47229409  0.25391336  1
  O  O88  1  0.72706898  0.52963875  0.67464797  1
  O  O89  1  0.22706898  0.97036125  0.32535203  1
  O  O90  1  0.27293102  0.02963875  0.82535203  1
  O  O91  1  0.77293102  0.47036125  0.17464797  1
  O  O92  1  0.42524306  0.41245880  0.54662910  1
  O  O93  1  0.92524306  0.08754120  0.45337090  1
  O  O94  1  0.57475694  0.91245880  0.95337090  1
  O  O95  1  0.07475694  0.58754120  0.04662910  1
  O  O96  1  0.61963974  0.63168802  0.46176454  1
  O  O97  1  0.11963974  0.86831198  0.53823546  1
  O  O98  1  0.38036026  0.13168802  0.03823546  1
  O  O99  1  0.88036026  0.36831198  0.96176454  1
  O  O100  1  0.20461917  0.63647921  0.53472786  1
  O  O101  1  0.70461917  0.86352079  0.46527214  1
  O  O102  1  0.79538083  0.13647921  0.96527214  1
  O  O103  1  0.29538083  0.36352079  0.03472786  1
  O  O104  1  0.56269554  0.50513809  0.94090689  1
  O  O105  1  0.06269554  0.99486191  0.05909311  1
  O  O106  1  0.43730446  0.00513809  0.55909311  1
  O  O107  1  0.93730446  0.49486191  0.44090689  1
