# generated using pymatgen
data_BaAl2H10C2O13
_symmetry_space_group_name_H-M   'P 1'
_cell_length_a   5.67883585
_cell_length_b   9.98365217
_cell_length_c   10.69082645
_cell_angle_alpha   115.51754959
_cell_angle_beta   95.62670335
_cell_angle_gamma   92.73435830
_symmetry_Int_Tables_number   1
_chemical_formula_structural   BaAl2H10C2O13
_chemical_formula_sum   'Ba2 Al4 H20 C4 O26'
_cell_volume   541.62459264
_cell_formula_units_Z   2
loop_
 _symmetry_equiv_pos_site_id
 _symmetry_equiv_pos_as_xyz
  1  'x, y, z'
loop_
 _atom_site_type_symbol
 _atom_site_label
 _atom_site_symmetry_multiplicity
 _atom_site_fract_x
 _atom_site_fract_y
 _atom_site_fract_z
 _atom_site_occupancy
  Ba  Ba0  1  0.78920142  0.85568532  0.80825594  1
  Ba  Ba1  1  0.21079858  0.14431468  0.19174406  1
  Al  Al2  1  0.50000000  0.00000000  0.50000000  1
  Al  Al3  1  0.00000000  0.00000000  0.50000000  1
  Al  Al4  1  0.00000000  0.50000000  0.50000000  1
  Al  Al5  1  0.50000000  0.50000000  0.50000000  1
  H  H6  1  0.19540469  0.79497219  0.31244391  1
  H  H7  1  0.80459531  0.20502781  0.68755609  1
  H  H8  1  0.25150534  0.69378728  0.45750832  1
  H  H9  1  0.74849466  0.30621272  0.54249168  1
  H  H10  1  0.70163261  0.79753250  0.33376913  1
  H  H11  1  0.29836739  0.20246750  0.66623087  1
  H  H12  1  0.24066989  0.29255153  0.51181252  1
  H  H13  1  0.75933011  0.70744847  0.48818748  1
  H  H14  1  0.15938967  0.76203192  0.98617879  1
  H  H15  1  0.84061033  0.23796808  0.01382121  1
  H  H16  1  0.94744384  0.79766936  0.08302557  1
  H  H17  1  0.05255616  0.20233064  0.91697443  1
  H  H18  1  0.88580191  0.47658714  0.78777849  1
  H  H19  1  0.11419809  0.52341286  0.21222151  1
  H  H20  1  0.66717015  0.41801736  0.83504724  1
  H  H21  1  0.33282985  0.58198264  0.16495276  1
  H  H22  1  0.56658486  0.67067108  0.04434681  1
  H  H23  1  0.43341514  0.32932892  0.95565319  1
  H  H24  1  0.77665281  0.60271461  0.09879711  1
  H  H25  1  0.22334719  0.39728539  0.90120289  1
  C  C26  1  0.28562668  0.95157052  0.71616467  1
  C  C27  1  0.71437332  0.04842948  0.28383533  1
  C  C28  1  0.31263200  0.60795354  0.77145607  1
  C  C29  1  0.68736800  0.39204646  0.22854393  1
  O  O30  1  0.07527818  0.96399701  0.66165734  1
  O  O31  1  0.92472182  0.03600299  0.33834266  1
  O  O32  1  0.47750246  0.96649487  0.66218062  1
  O  O33  1  0.52249754  0.03350513  0.33781938  1
  O  O34  1  0.30455961  0.92425288  0.82240000  1
  O  O35  1  0.69544039  0.07574712  0.17760000  1
  O  O36  1  0.09448851  0.57932392  0.70678154  1
  O  O37  1  0.90551149  0.42067608  0.29321846  1
  O  O38  1  0.49448379  0.58224010  0.70147312  1
  O  O39  1  0.50551621  0.41775990  0.29852688  1
  O  O40  1  0.35055000  0.66143957  0.90521408  1
  O  O41  1  0.64945000  0.33856043  0.09478592  1
  O  O42  1  0.22242896  0.86713314  0.41123931  1
  O  O43  1  0.77757104  0.13286686  0.58876069  1
  O  O44  1  0.25565982  0.61433332  0.48774783  1
  O  O45  1  0.74434018  0.38566668  0.51225217  1
  O  O46  1  0.72691045  0.85418637  0.43651360  1
  O  O47  1  0.27308955  0.14581363  0.56348640  1
  O  O48  1  0.23257161  0.36132021  0.46687366  1
  O  O49  1  0.76742839  0.63867979  0.53312634  1
  O  O50  1  0.04399937  0.83804462  0.03358319  1
  O  O51  1  0.95600063  0.16195538  0.96641681  1
  O  O52  1  0.83783616  0.41187636  0.83110519  1
  O  O53  1  0.16216384  0.58812364  0.16889481  1
  O  O54  1  0.67165714  0.68261065  0.12944620  1
  O  O55  1  0.32834286  0.31738935  0.87055380  1
