# generated using pymatgen
data_CaCuGe
_symmetry_space_group_name_H-M   'P 1'
_cell_length_a   4.36014126
_cell_length_b   7.50676238
_cell_length_c   21.47119128
_cell_angle_alpha   90.00000000
_cell_angle_beta   90.00000000
_cell_angle_gamma   90.00000000
_symmetry_Int_Tables_number   1
_chemical_formula_structural   CaCuGe
_chemical_formula_sum   'Ca12 Cu12 Ge12'
_cell_volume   702.76377913
_cell_formula_units_Z   12
loop_
 _symmetry_equiv_pos_site_id
 _symmetry_equiv_pos_as_xyz
  1  'x, y, z'
loop_
 _atom_site_type_symbol
 _atom_site_label
 _atom_site_symmetry_multiplicity
 _atom_site_fract_x
 _atom_site_fract_y
 _atom_site_fract_z
 _atom_site_occupancy
  Ca  Ca0  1  0.26425849  0.71546616  0.50147135  1
  Ca  Ca1  1  0.76425849  0.28453384  0.49852865  1
  Ca  Ca2  1  0.76425849  0.21546616  0.99852865  1
  Ca  Ca3  1  0.26425849  0.78453384  0.00147135  1
  Ca  Ca4  1  0.76174078  0.20669523  0.33377242  1
  Ca  Ca5  1  0.26174078  0.79330477  0.66622758  1
  Ca  Ca6  1  0.26174078  0.70669523  0.16622758  1
  Ca  Ca7  1  0.76174078  0.29330477  0.83377242  1
  Ca  Ca8  1  0.25985806  0.79442307  0.33289350  1
  Ca  Ca9  1  0.75985806  0.20557693  0.66710650  1
  Ca  Ca10  1  0.75985806  0.29442307  0.16710650  1
  Ca  Ca11  1  0.25985806  0.70557693  0.83289350  1
  Cu  Cu12  1  0.75050478  0.58405838  0.40305868  1
  Cu  Cu13  1  0.25050478  0.41594162  0.59694132  1
  Cu  Cu14  1  0.25050478  0.08405838  0.09694132  1
  Cu  Cu15  1  0.75050478  0.91594162  0.90305868  1
  Cu  Cu16  1  0.75447580  0.58733923  0.26460304  1
  Cu  Cu17  1  0.25447580  0.41266077  0.73539696  1
  Cu  Cu18  1  0.25447580  0.08733923  0.23539696  1
  Cu  Cu19  1  0.75447580  0.91266077  0.76460304  1
  Cu  Cu20  1  0.25466522  0.07844109  0.43692256  1
  Cu  Cu21  1  0.75466522  0.92155891  0.56307744  1
  Cu  Cu22  1  0.75466522  0.57844109  0.06307744  1
  Cu  Cu23  1  0.25466522  0.42155891  0.93692256  1
  Ge  Ge24  1  0.25419628  0.41970414  0.27037160  1
  Ge  Ge25  1  0.75419628  0.58029586  0.72962840  1
  Ge  Ge26  1  0.75419628  0.91970414  0.22962840  1
  Ge  Ge27  1  0.25419628  0.08029586  0.77037160  1
  Ge  Ge28  1  0.75549719  0.90858464  0.43022010  1
  Ge  Ge29  1  0.25549719  0.09141536  0.56977990  1
  Ge  Ge30  1  0.25549719  0.40858464  0.06977990  1
  Ge  Ge31  1  0.75549719  0.59141536  0.93022010  1
  Ge  Ge32  1  0.25480341  0.41525693  0.39814915  1
  Ge  Ge33  1  0.75480341  0.58474307  0.60185085  1
  Ge  Ge34  1  0.75480341  0.91525693  0.10185085  1
  Ge  Ge35  1  0.25480341  0.08474307  0.89814915  1
