# generated using pymatgen
data_Li(CeGe)4
_symmetry_space_group_name_H-M   'P 1'
_cell_length_a   7.38649518
_cell_length_b   7.99648887
_cell_length_c   15.02967346
_cell_angle_alpha   90.00000000
_cell_angle_beta   90.00000000
_cell_angle_gamma   90.00000000
_symmetry_Int_Tables_number   1
_chemical_formula_structural   Li(CeGe)4
_chemical_formula_sum   'Li4 Ce16 Ge16'
_cell_volume   887.74309080
_cell_formula_units_Z   4
loop_
 _symmetry_equiv_pos_site_id
 _symmetry_equiv_pos_as_xyz
  1  'x, y, z'
loop_
 _atom_site_type_symbol
 _atom_site_label
 _atom_site_symmetry_multiplicity
 _atom_site_fract_x
 _atom_site_fract_y
 _atom_site_fract_z
 _atom_site_occupancy
  Li  Li0  1  0.34238750  0.02945302  0.75000000  1
  Li  Li1  1  0.84238750  0.47054698  0.75000000  1
  Li  Li2  1  0.65761250  0.97054698  0.25000000  1
  Li  Li3  1  0.15761250  0.52945302  0.25000000  1
  Ce  Ce4  1  0.48011925  0.68597923  0.40250236  1
  Ce  Ce5  1  0.98011925  0.81402077  0.09749764  1
  Ce  Ce6  1  0.51988075  0.31402077  0.90250236  1
  Ce  Ce7  1  0.01988075  0.18597923  0.59749764  1
  Ce  Ce8  1  0.51988075  0.31402077  0.59749764  1
  Ce  Ce9  1  0.01988075  0.18597923  0.90250236  1
  Ce  Ce10  1  0.48011925  0.68597923  0.09749764  1
  Ce  Ce11  1  0.98011925  0.81402077  0.40250236  1
  Ce  Ce12  1  0.17512108  0.68026659  0.87189250  1
  Ce  Ce13  1  0.67512108  0.81973341  0.62810750  1
  Ce  Ce14  1  0.82487892  0.31973341  0.37189250  1
  Ce  Ce15  1  0.32487892  0.18026659  0.12810750  1
  Ce  Ce16  1  0.82487892  0.31973341  0.12810750  1
  Ce  Ce17  1  0.32487892  0.18026659  0.37189250  1
  Ce  Ce18  1  0.17512108  0.68026659  0.62810750  1
  Ce  Ce19  1  0.67512108  0.81973341  0.87189250  1
  Ge  Ge20  1  0.33788333  0.96923306  0.96418498  1
  Ge  Ge21  1  0.83788333  0.53076694  0.53581502  1
  Ge  Ge22  1  0.66211667  0.03076694  0.46418498  1
  Ge  Ge23  1  0.16211667  0.46923306  0.03581502  1
  Ge  Ge24  1  0.66211667  0.03076694  0.03581502  1
  Ge  Ge25  1  0.16211667  0.46923306  0.46418498  1
  Ge  Ge26  1  0.33788333  0.96923306  0.53581502  1
  Ge  Ge27  1  0.83788333  0.53076694  0.96418498  1
  Ge  Ge28  1  0.48753630  0.57784414  0.75000000  1
  Ge  Ge29  1  0.98753630  0.92215586  0.75000000  1
  Ge  Ge30  1  0.51246370  0.42215586  0.25000000  1
  Ge  Ge31  1  0.01246370  0.07784414  0.25000000  1
  Ge  Ge32  1  0.22446482  0.36442551  0.75000000  1
  Ge  Ge33  1  0.72446482  0.13557449  0.75000000  1
  Ge  Ge34  1  0.77553518  0.63557449  0.25000000  1
  Ge  Ge35  1  0.27553518  0.86442551  0.25000000  1
