# generated using pymatgen
data_CaCO3
_symmetry_space_group_name_H-M   'P 1'
_cell_length_a   7.26345337
_cell_length_b   7.26754552
_cell_length_c   26.03334922
_cell_angle_alpha   82.08429890
_cell_angle_beta   81.75069353
_cell_angle_gamma   59.65957648
_symmetry_Int_Tables_number   1
_chemical_formula_structural   CaCO3
_chemical_formula_sum   'Ca18 C18 O54'
_cell_volume   1170.31824350
_cell_formula_units_Z   18
loop_
 _symmetry_equiv_pos_site_id
 _symmetry_equiv_pos_as_xyz
  1  'x, y, z'
loop_
 _atom_site_type_symbol
 _atom_site_label
 _atom_site_symmetry_multiplicity
 _atom_site_fract_x
 _atom_site_fract_y
 _atom_site_fract_z
 _atom_site_occupancy
  Ca  Ca0  1  0.79956835  0.35359643  0.49992971  1
  Ca  Ca1  1  0.20043165  0.64640357  0.50007029  1
  Ca  Ca2  1  0.13281451  0.62048806  0.66621225  1
  Ca  Ca3  1  0.86718549  0.37951194  0.33378775  1
  Ca  Ca4  1  0.43032373  0.92378459  0.66714834  1
  Ca  Ca5  1  0.56967627  0.07621541  0.33285166  1
  Ca  Ca6  1  0.39176547  0.88750558  0.83260222  1
  Ca  Ca7  1  0.60823453  0.11249442  0.16739778  1
  Ca  Ca8  1  0.79058782  0.27224922  0.66666929  1
  Ca  Ca9  1  0.20941218  0.72775078  0.33333071  1
  Ca  Ca10  1  0.04724768  0.58168665  0.83373226  1
  Ca  Ca11  1  0.95275232  0.41831335  0.16626774  1
  Ca  Ca12  1  0.74379327  0.19050073  0.83339758  1
  Ca  Ca13  1  0.25620673  0.80949927  0.16660242  1
  Ca  Ca14  1  0.64931408  0.15089915  0.99873055  1
  Ca  Ca15  1  0.35068592  0.84910085  0.00126945  1
  Ca  Ca16  1  0.50000000  -0.00000000  0.50000000  1
  Ca  Ca17  1  -0.00000000  0.50000000  0.00000000  1
  C  C18  1  0.72557958  0.91287205  0.74638379  1
  C  C19  1  0.27442042  0.08712795  0.25361621  1
  C  C20  1  0.45962915  0.54161896  0.75442485  1
  C  C21  1  0.54037085  0.45838104  0.24557515  1
  C  C22  1  0.84509340  0.63667335  0.58455153  1
  C  C23  1  0.15490660  0.36332665  0.41544847  1
  C  C24  1  0.09116176  0.28592845  0.74929926  1
  C  C25  1  0.90883824  0.71407155  0.25070074  1
  C  C26  1  0.10352981  0.01559976  0.57804489  1
  C  C27  1  0.89647019  0.98440024  0.42195511  1
  C  C28  1  0.32607821  0.23112991  0.91091938  1
  C  C29  1  0.67392179  0.76887009  0.08908062  1
  C  C30  1  0.07425156  0.85914022  0.92117799  1
  C  C31  1  0.92574844  0.14085978  0.07882201  1
  C  C32  1  0.47284370  0.26014645  0.58786258  1
  C  C33  1  0.52715630  0.73985355  0.41213742  1
  C  C34  1  0.30502827  0.50759796  0.08377252  1
  C  C35  1  0.69497173  0.49240204  0.91622748  1
  O  O36  1  0.76420355  0.65702392  0.54126046  1
  O  O37  1  0.23579645  0.34297608  0.45873954  1
  O  O38  1  0.99891830  0.87316422  0.87766320  1
  O  O39  1  0.00108170  0.12683578  0.12233680  1
  O  O40  1  0.10328721  0.22020096  0.70407781  1
  O  O41  1  0.89671279  0.77979904  0.29592219  1
  O  O42  1  0.46360526  0.08757741  0.58600194  1
  O  O43  1  0.53639474  0.91242259  0.41399806  1
  O  O44  1  0.36756280  0.60591069  0.80016129  1
  O  O45  1  0.63243720  0.39408931  0.19983871  1
  O  O46  1  0.92858713  0.19866150  0.58061694  1
  O  O47  1  0.07141287  0.80133850  0.41938306  1
  O  O48  1  0.48700998  0.36473435  0.54425631  1
  O  O49  1  0.51299002  0.63526565  0.45574369  1
  O  O50  1  0.17866348  0.90511228  0.62102681  1
  O  O51  1  0.82133652  0.09488772  0.37897319  1
  O  O52  1  0.46742618  0.32269250  0.63266816  1
  O  O53  1  0.53257382  0.67730750  0.36733184  1
  O  O54  1  0.71263078  0.59028129  0.87149553  1
  O  O55  1  0.28736922  0.40971871  0.12850447  1
  O  O56  1  0.19715572  0.94974691  0.53255639  1
  O  O57  1  0.80284428  0.05025309  0.46744361  1
  O  O58  1  0.41292537  0.17670352  0.86417709  1
  O  O59  1  0.58707463  0.82329648  0.13582291  1
  O  O60  1  0.82382389  0.93048020  0.70179622  1
  O  O61  1  0.17617611  0.06951980  0.29820378  1
  O  O62  1  0.07495486  0.18143714  0.79286370  1
  O  O63  1  0.92504514  0.81856286  0.20713630  1
  O  O64  1  0.41502045  0.11803600  0.95221859  1
  O  O65  1  0.58497955  0.88196400  0.04778141  1
  O  O66  1  0.54824976  0.90868501  0.74753870  1
  O  O67  1  0.45175024  0.09131499  0.25246130  1
  O  O68  1  0.75029071  0.62037393  0.63006831  1
  O  O69  1  0.24970929  0.37962607  0.36993169  1
  O  O70  1  0.97993723  0.83843848  0.96617732  1
  O  O71  1  0.02006277  0.16156152  0.03382268  1
  O  O72  1  0.02695710  0.63217337  0.58280565  1
  O  O73  1  0.97304290  0.36782663  0.41719435  1
  O  O74  1  0.69092302  0.31550938  0.91658022  1
  O  O75  1  0.30907698  0.68449062  0.08341978  1
  O  O76  1  0.64003116  0.36407406  0.75134079  1
  O  O77  1  0.35996884  0.63592594  0.24865921  1
  O  O78  1  0.24992413  0.86619272  0.91926364  1
  O  O79  1  0.75007587  0.13380728  0.08073636  1
  O  O80  1  0.37684758  0.64995410  0.71193677  1
  O  O81  1  0.62315242  0.35004590  0.28806323  1
  O  O82  1  0.09570039  0.46146620  0.75043095  1
  O  O83  1  0.90429961  0.53853380  0.24956905  1
  O  O84  1  0.68134795  0.56527439  0.96043343  1
  O  O85  1  0.31865205  0.43472561  0.03956657  1
  O  O86  1  0.79875550  0.89909219  0.79007232  1
  O  O87  1  0.20124450  0.10090781  0.20992768  1
  O  O88  1  0.14330737  0.40616495  0.91587158  1
  O  O89  1  0.85669263  0.59383505  0.08412842  1
