# generated using pymatgen
data_Ho15C19
_symmetry_space_group_name_H-M   'P 1'
_cell_length_a   8.12961350
_cell_length_b   8.12961350
_cell_length_c   15.39385507
_cell_angle_alpha   90.00000000
_cell_angle_beta   90.00000000
_cell_angle_gamma   90.00000000
_symmetry_Int_Tables_number   1
_chemical_formula_structural   Ho15C19
_chemical_formula_sum   'Ho30 C38'
_cell_volume   1017.38935895
_cell_formula_units_Z   2
loop_
 _symmetry_equiv_pos_site_id
 _symmetry_equiv_pos_as_xyz
  1  'x, y, z'
loop_
 _atom_site_type_symbol
 _atom_site_label
 _atom_site_symmetry_multiplicity
 _atom_site_fract_x
 _atom_site_fract_y
 _atom_site_fract_z
 _atom_site_occupancy
  Ho  Ho0  1  0.70248595  0.90698666  0.49927941  1
  Ho  Ho1  1  0.20248595  0.59301334  0.00072059  1
  Ho  Ho2  1  0.29751405  0.09301334  0.49927941  1
  Ho  Ho3  1  0.79751405  0.40698666  0.00072059  1
  Ho  Ho4  1  0.90698666  0.29751405  0.50072059  1
  Ho  Ho5  1  0.59301334  0.79751405  0.99927941  1
  Ho  Ho6  1  0.09301334  0.70248595  0.50072059  1
  Ho  Ho7  1  0.40698666  0.20248595  0.99927941  1
  Ho  Ho8  1  0.78370148  0.59893782  0.65011318  1
  Ho  Ho9  1  0.28370148  0.90106218  0.84988682  1
  Ho  Ho10  1  0.21629852  0.40106218  0.65011318  1
  Ho  Ho11  1  0.71629852  0.09893782  0.84988682  1
  Ho  Ho12  1  0.59893782  0.21629852  0.34988682  1
  Ho  Ho13  1  0.90106218  0.71629852  0.15011318  1
  Ho  Ho14  1  0.40106218  0.78370148  0.34988682  1
  Ho  Ho15  1  0.09893782  0.28370148  0.15011318  1
  Ho  Ho16  1  0.59737915  0.21484426  0.65000819  1
  Ho  Ho17  1  0.09737915  0.28515574  0.84999181  1
  Ho  Ho18  1  0.40262085  0.78515574  0.65000819  1
  Ho  Ho19  1  0.90262085  0.71484426  0.84999181  1
  Ho  Ho20  1  0.21484426  0.40262085  0.34999181  1
  Ho  Ho21  1  0.28515574  0.90262085  0.15000819  1
  Ho  Ho22  1  0.78515574  0.59737915  0.34999181  1
  Ho  Ho23  1  0.71484426  0.09737915  0.15000819  1
  Ho  Ho24  1  0.00000000  -0.00000000  0.33072822  1
  Ho  Ho25  1  0.50000000  0.50000000  0.16927178  1
  Ho  Ho26  1  0.00000000  0.00000000  0.66927178  1
  Ho  Ho27  1  0.50000000  0.50000000  0.83072822  1
  Ho  Ho28  1  0.50000000  0.50000000  0.50000000  1
  Ho  Ho29  1  0.00000000  -0.00000000  -0.00000000  1
  C  C30  1  0.60134163  0.19635505  0.49983212  1
  C  C31  1  0.10134163  0.30364495  0.00016788  1
  C  C32  1  0.39865837  0.80364495  0.49983212  1
  C  C33  1  0.89865837  0.69635505  0.00016788  1
  C  C34  1  0.19635505  0.39865837  0.50016788  1
  C  C35  1  0.30364495  0.89865837  0.99983212  1
  C  C36  1  0.80364495  0.60134163  0.50016788  1
  C  C37  1  0.69635505  0.10134163  0.99983212  1
  C  C38  1  0.69721403  0.90485282  0.66748675  1
  C  C39  1  0.19721403  0.59514718  0.83251325  1
  C  C40  1  0.30278597  0.09514718  0.66748675  1
  C  C41  1  0.80278597  0.40485282  0.83251325  1
  C  C42  1  0.90485282  0.30278597  0.33251325  1
  C  C43  1  0.59514718  0.80278597  0.16748675  1
  C  C44  1  0.09514718  0.69721403  0.33251325  1
  C  C45  1  0.40485282  0.19721403  0.16748675  1
  C  C46  1  0.65355766  0.85143983  0.74698639  1
  C  C47  1  0.15355766  0.64856017  0.75301361  1
  C  C48  1  0.34644234  0.14856017  0.74698639  1
  C  C49  1  0.84644234  0.35143983  0.75301361  1
  C  C50  1  0.85143983  0.34644234  0.25301361  1
  C  C51  1  0.64856017  0.84644234  0.24698639  1
  C  C52  1  0.14856017  0.65355766  0.25301361  1
  C  C53  1  0.35143983  0.15355766  0.24698639  1
  C  C54  1  0.90280328  0.30250876  0.67516839  1
  C  C55  1  0.40280328  0.19749124  0.82483161  1
  C  C56  1  0.09719672  0.69749124  0.67516839  1
  C  C57  1  0.59719672  0.80250876  0.82483161  1
  C  C58  1  0.30250876  0.09719672  0.32483161  1
  C  C59  1  0.19749124  0.59719672  0.17516839  1
  C  C60  1  0.69749124  0.90280328  0.32483161  1
  C  C61  1  0.80250876  0.40280328  0.17516839  1
  C  C62  1  0.50000000  0.50000000  0.66285811  1
  C  C63  1  0.00000000  -0.00000000  0.83714189  1
  C  C64  1  0.50000000  0.50000000  0.33714189  1
  C  C65  1  0.00000000  0.00000000  0.16285811  1
  C  C66  1  0.50000000  0.50000000  -0.00000000  1
  C  C67  1  0.00000000  0.00000000  0.50000000  1
