# generated using pymatgen
data_GaFe4
_symmetry_space_group_name_H-M   'P 1'
_cell_length_a   2.54262089
_cell_length_b   2.54262089
_cell_length_c   10.05669241
_cell_angle_alpha   85.08643359
_cell_angle_beta   85.08643359
_cell_angle_gamma   108.81078346
_symmetry_Int_Tables_number   1
_chemical_formula_structural   GaFe4
_chemical_formula_sum   'Ga1 Fe4'
_cell_volume   60.87311975
_cell_formula_units_Z   1
loop_
 _symmetry_equiv_pos_site_id
 _symmetry_equiv_pos_as_xyz
  1  'x, y, z'
loop_
 _atom_site_type_symbol
 _atom_site_label
 _atom_site_symmetry_multiplicity
 _atom_site_fract_x
 _atom_site_fract_y
 _atom_site_fract_z
 _atom_site_occupancy
  Ga  Ga0  1  -0.00000000  0.00000000  0.00000000  1
  Fe  Fe1  1  0.39837087  0.39837087  0.20325825  1
  Fe  Fe2  1  0.79989463  0.79989463  0.40021074  1
  Fe  Fe3  1  0.20010537  0.20010537  0.59978926  1
  Fe  Fe4  1  0.60162913  0.60162913  0.79674175  1
