# generated using pymatgen
data_Y3Ni19B10
_symmetry_space_group_name_H-M   'P 1'
_cell_length_a   5.77089109
_cell_length_b   7.87827104
_cell_length_c   7.87827104
_cell_angle_alpha   67.04814770
_cell_angle_beta   88.94742548
_cell_angle_gamma   88.94742548
_symmetry_Int_Tables_number   1
_chemical_formula_structural   Y3Ni19B10
_chemical_formula_sum   'Y3 Ni19 B10'
_cell_volume   329.74640309
_cell_formula_units_Z   1
loop_
 _symmetry_equiv_pos_site_id
 _symmetry_equiv_pos_as_xyz
  1  'x, y, z'
loop_
 _atom_site_type_symbol
 _atom_site_label
 _atom_site_symmetry_multiplicity
 _atom_site_fract_x
 _atom_site_fract_y
 _atom_site_fract_z
 _atom_site_occupancy
  Y  Y0  1  -0.00000000  -0.00000000  -0.00000000  1
  Y  Y1  1  0.61601653  0.62520902  0.62520902  1
  Y  Y2  1  0.38398347  0.37479098  0.37479098  1
  Ni  Ni3  1  0.50000000  -0.00000000  -0.00000000  1
  Ni  Ni4  1  0.12767930  0.62211302  0.62211302  1
  Ni  Ni5  1  0.87232070  0.37788698  0.37788698  1
  Ni  Ni6  1  0.29734318  0.16238972  0.16238972  1
  Ni  Ni7  1  0.70265682  0.83761028  0.83761028  1
  Ni  Ni8  1  0.72920132  0.18206405  0.18206405  1
  Ni  Ni9  1  0.27079868  0.81793595  0.81793595  1
  Ni  Ni10  1  0.30224083  0.95529486  0.48282905  1
  Ni  Ni11  1  0.30224083  0.48282905  0.95529486  1
  Ni  Ni12  1  0.69775917  0.04470514  0.51717095  1
  Ni  Ni13  1  0.69775917  0.51717095  0.04470514  1
  Ni  Ni14  1  0.07262671  0.62322083  0.12199303  1
  Ni  Ni15  1  0.07262671  0.12199303  0.62322083  1
  Ni  Ni16  1  0.92737329  0.37677917  0.87800697  1
  Ni  Ni17  1  0.92737329  0.87800697  0.37677917  1
  Ni  Ni18  1  0.30157849  0.28957574  0.77020601  1
  Ni  Ni19  1  0.30157849  0.77020601  0.28957574  1
  Ni  Ni20  1  0.69842151  0.71042426  0.22979399  1
  Ni  Ni21  1  0.69842151  0.22979399  0.71042426  1
  B  B22  1  -0.00000000  0.61535491  0.38464509  1
  B  B23  1  -0.00000000  0.38464509  0.61535491  1
  B  B24  1  0.97568482  0.85827581  0.64982268  1
  B  B25  1  0.97568482  0.64982268  0.85827581  1
  B  B26  1  0.02431518  0.14172419  0.35017732  1
  B  B27  1  0.02431518  0.35017732  0.14172419  1
  B  B28  1  0.56972122  0.30008710  0.93572470  1
  B  B29  1  0.56972122  0.93572470  0.30008710  1
  B  B30  1  0.43027878  0.69991290  0.06427530  1
  B  B31  1  0.43027878  0.06427530  0.69991290  1
