# generated using pymatgen
data_SrH10Pb2Br6O5
_symmetry_space_group_name_H-M   'P 1'
_cell_length_a   9.43756070
_cell_length_b   9.97173490
_cell_length_c   9.97173490
_cell_angle_alpha   77.66357288
_cell_angle_beta   71.05477335
_cell_angle_gamma   71.05477335
_symmetry_Int_Tables_number   1
_chemical_formula_structural   SrH10Pb2Br6O5
_chemical_formula_sum   'Sr2 H20 Pb4 Br12 O10'
_cell_volume   833.34361422
_cell_formula_units_Z   2
loop_
 _symmetry_equiv_pos_site_id
 _symmetry_equiv_pos_as_xyz
  1  'x, y, z'
loop_
 _atom_site_type_symbol
 _atom_site_label
 _atom_site_symmetry_multiplicity
 _atom_site_fract_x
 _atom_site_fract_y
 _atom_site_fract_z
 _atom_site_occupancy
  Sr  Sr0  1  0.25000000  0.02053781  0.97946219  1
  Sr  Sr1  1  0.75000000  0.97946219  0.02053781  1
  H  H2  1  0.40572259  0.90907055  0.66632647  1
  H  H3  1  0.09427741  0.33367353  0.09092945  1
  H  H4  1  0.59427741  0.09092945  0.33367353  1
  H  H5  1  0.90572259  0.66632647  0.90907055  1
  H  H6  1  0.22391684  0.93925647  0.70166121  1
  H  H7  1  0.27608316  0.29833879  0.06074353  1
  H  H8  1  0.77608316  0.06074353  0.29833879  1
  H  H9  1  0.72391684  0.70166121  0.93925647  1
  H  H10  1  0.06661156  0.77403324  0.10425765  1
  H  H11  1  0.43338844  0.89574235  0.22596676  1
  H  H12  1  0.93338844  0.22596676  0.89574235  1
  H  H13  1  0.56661156  0.10425765  0.77403324  1
  H  H14  1  0.11763054  0.77264390  0.94096889  1
  H  H15  1  0.38236946  0.05903111  0.22735610  1
  H  H16  1  0.88236946  0.22735610  0.05903111  1
  H  H17  1  0.61763054  0.94096889  0.77264390  1
  H  H18  1  0.27338556  0.21497344  0.67565728  1
  H  H19  1  0.22661444  0.32434272  0.78502656  1
  H  H20  1  0.72661444  0.78502656  0.32434272  1
  H  H21  1  0.77338556  0.67565728  0.21497344  1
  Pb  Pb22  1  0.53275587  0.54871075  0.73373190  1
  Pb  Pb23  1  0.96724413  0.26626810  0.45128925  1
  Pb  Pb24  1  0.46724413  0.45128925  0.26626810  1
  Pb  Pb25  1  0.03275587  0.73373190  0.54871075  1
  Br  Br26  1  0.18136262  0.56723038  0.81624733  1
  Br  Br27  1  0.31863738  0.18375267  0.43276962  1
  Br  Br28  1  0.81863738  0.43276962  0.18375267  1
  Br  Br29  1  0.68136262  0.81624733  0.56723038  1
  Br  Br30  1  0.61193568  0.30378174  0.56438154  1
  Br  Br31  1  0.88806432  0.43561846  0.69621826  1
  Br  Br32  1  0.38806432  0.69621826  0.43561846  1
  Br  Br33  1  0.11193568  0.56438154  0.30378174  1
  Br  Br34  1  0.53061942  0.31235859  0.98461244  1
  Br  Br35  1  0.96938058  0.01538756  0.68764141  1
  Br  Br36  1  0.46938058  0.68764141  0.01538756  1
  Br  Br37  1  0.03061942  0.98461244  0.31235859  1
  O  O38  1  0.31095527  0.90934240  0.74576163  1
  O  O39  1  0.18904473  0.25423837  0.09065760  1
  O  O40  1  0.68904473  0.09065760  0.25423837  1
  O  O41  1  0.81095527  0.74576163  0.90934240  1
  O  O42  1  0.06730967  0.83929351  0.01430966  1
  O  O43  1  0.43269033  0.98569034  0.16070649  1
  O  O44  1  0.93269033  0.16070649  0.98569034  1
  O  O45  1  0.56730967  0.01430966  0.83929351  1
  O  O46  1  0.25000000  0.22216327  0.77783673  1
  O  O47  1  0.75000000  0.77783673  0.22216327  1
