# generated using pymatgen
data_Na2ZnP4(H4O5)4
_symmetry_space_group_name_H-M   'P 1'
_cell_length_a   7.38112953
_cell_length_b   10.96076330
_cell_length_c   11.25732372
_cell_angle_alpha   90.00000000
_cell_angle_beta   99.39824471
_cell_angle_gamma   90.00000000
_symmetry_Int_Tables_number   1
_chemical_formula_structural   Na2ZnP4(H4O5)4
_chemical_formula_sum   'Na4 Zn2 P8 H32 O40'
_cell_volume   898.52432676
_cell_formula_units_Z   2
loop_
 _symmetry_equiv_pos_site_id
 _symmetry_equiv_pos_as_xyz
  1  'x, y, z'
loop_
 _atom_site_type_symbol
 _atom_site_label
 _atom_site_symmetry_multiplicity
 _atom_site_fract_x
 _atom_site_fract_y
 _atom_site_fract_z
 _atom_site_occupancy
  Na  Na0  1  0.74672607  0.66781077  0.04800189  1
  Na  Na1  1  0.24672607  0.83218923  0.54800189  1
  Na  Na2  1  0.25327393  0.33218923  0.95199811  1
  Na  Na3  1  0.75327393  0.16781077  0.45199811  1
  Zn  Zn4  1  0.00000000  0.00000000  0.00000000  1
  Zn  Zn5  1  0.50000000  0.50000000  0.50000000  1
  P  P6  1  0.25994655  0.74447882  0.08186656  1
  P  P7  1  0.75994655  0.75552118  0.58186656  1
  P  P8  1  0.74005345  0.25552118  0.91813344  1
  P  P9  1  0.24005345  0.24447882  0.41813344  1
  P  P10  1  0.76222752  0.95558764  0.21775635  1
  P  P11  1  0.26222752  0.54441236  0.71775635  1
  P  P12  1  0.23777248  0.04441236  0.78224365  1
  P  P13  1  0.73777248  0.45558764  0.28224365  1
  H  H14  1  0.12328413  0.57305677  0.10147503  1
  H  H15  1  0.62328413  0.92694323  0.60147503  1
  H  H16  1  0.87671587  0.42694323  0.89852497  1
  H  H17  1  0.37671587  0.07305677  0.39852497  1
  H  H18  1  0.33993564  0.61617280  0.94332948  1
  H  H19  1  0.83993564  0.88382720  0.44332948  1
  H  H20  1  0.66006436  0.38382720  0.05667052  1
  H  H21  1  0.16006436  0.11617280  0.55667052  1
  H  H22  1  0.67008766  0.08733477  0.07764272  1
  H  H23  1  0.17008766  0.41266523  0.57764272  1
  H  H24  1  0.32991234  0.91266523  0.92235728  1
  H  H25  1  0.82991234  0.58733477  0.42235728  1
  H  H26  1  0.56410251  0.80162277  0.20648464  1
  H  H27  1  0.06410251  0.69837723  0.70648464  1
  H  H28  1  0.43589749  0.19837723  0.79351536  1
  H  H29  1  0.93589749  0.30162277  0.29351536  1
  H  H30  1  0.81813879  0.83888684  0.84384913  1
  H  H31  1  0.31813879  0.66111316  0.34384913  1
  H  H32  1  0.18186121  0.16111316  0.15615087  1
  H  H33  1  0.68186121  0.33888684  0.65615087  1
  H  H34  1  0.66849850  0.91225908  0.89955856  1
  H  H35  1  0.16849850  0.58774092  0.39955856  1
  H  H36  1  0.33150150  0.08774092  0.10044144  1
  H  H37  1  0.83150150  0.41225908  0.60044144  1
  H  H38  1  0.80447566  0.61822327  0.80637099  1
  H  H39  1  0.30447566  0.88177673  0.30637099  1
  H  H40  1  0.19552434  0.38177673  0.19362901  1
  H  H41  1  0.69552434  0.11822327  0.69362901  1
  H  H42  1  0.63906413  0.53456521  0.81471747  1
  H  H43  1  0.13906413  0.96543479  0.31471747  1
  H  H44  1  0.36093587  0.46543479  0.18528253  1
  H  H45  1  0.86093587  0.03456521  0.68528253  1
  O  O46  1  0.08309837  0.65931282  0.07704607  1
  O  O47  1  0.58309837  0.84068718  0.57704607  1
  O  O48  1  0.91690163  0.34068718  0.92295393  1
  O  O49  1  0.41690163  0.15931282  0.42295393  1
  O  O50  1  0.35574256  0.76242232  0.21220967  1
  O  O51  1  0.85574256  0.73757768  0.71220967  1
  O  O52  1  0.64425744  0.23757768  0.78779033  1
  O  O53  1  0.14425744  0.26242232  0.28779033  1
  O  O54  1  0.39889413  0.67232864  0.01407697  1
  O  O55  1  0.89889413  0.82767136  0.51407697  1
  O  O56  1  0.60110587  0.32767136  0.98592303  1
  O  O57  1  0.10110587  0.17232864  0.48592303  1
  O  O58  1  0.20131351  0.86198282  0.01418637  1
  O  O59  1  0.70131351  0.63801718  0.51418637  1
  O  O60  1  0.79868649  0.13801718  0.98581363  1
  O  O61  1  0.29868649  0.36198282  0.48581363  1
  O  O62  1  0.61210885  0.04294956  0.14121917  1
  O  O63  1  0.11210885  0.45705044  0.64121917  1
  O  O64  1  0.38789115  0.95705044  0.85878083  1
  O  O65  1  0.88789115  0.54294956  0.35878083  1
  O  O66  1  0.76721661  0.98037528  0.35075429  1
  O  O67  1  0.26721661  0.51962472  0.85075429  1
  O  O68  1  0.23278339  0.01962472  0.64924571  1
  O  O69  1  0.73278339  0.48037528  0.14924571  1
  O  O70  1  0.69171434  0.81971880  0.18758119  1
  O  O71  1  0.19171434  0.68028120  0.68758119  1
  O  O72  1  0.30828566  0.18028120  0.81241881  1
  O  O73  1  0.80828566  0.31971880  0.31241881  1
  O  O74  1  0.94590053  0.96838561  0.17356689  1
  O  O75  1  0.44590053  0.53161439  0.67356689  1
  O  O76  1  0.05409947  0.03161439  0.82643311  1
  O  O77  1  0.55409947  0.46838561  0.32643311  1
  O  O78  1  0.78680475  0.86968614  0.92065204  1
  O  O79  1  0.28680475  0.63031386  0.42065204  1
  O  O80  1  0.21319525  0.13031386  0.07934796  1
  O  O81  1  0.71319525  0.36968614  0.57934796  1
  O  O82  1  0.75984191  0.55752635  0.86087513  1
  O  O83  1  0.25984191  0.94247365  0.36087513  1
  O  O84  1  0.24015809  0.44247365  0.13912487  1
  O  O85  1  0.74015809  0.05752635  0.63912487  1
