# generated using pymatgen
data_VZnP2PbO9
_symmetry_space_group_name_H-M   'P 1'
_cell_length_a   8.86881257
_cell_length_b   9.24389519
_cell_length_c   18.27749503
_cell_angle_alpha   90.00000000
_cell_angle_beta   90.00000000
_cell_angle_gamma   90.00000000
_symmetry_Int_Tables_number   1
_chemical_formula_structural   VZnP2PbO9
_chemical_formula_sum   'V8 Zn8 P16 Pb8 O72'
_cell_volume   1498.43243072
_cell_formula_units_Z   8
loop_
 _symmetry_equiv_pos_site_id
 _symmetry_equiv_pos_as_xyz
  1  'x, y, z'
loop_
 _atom_site_type_symbol
 _atom_site_label
 _atom_site_symmetry_multiplicity
 _atom_site_fract_x
 _atom_site_fract_y
 _atom_site_fract_z
 _atom_site_occupancy
  V  V0  1  0.50034812  0.16129216  0.28739051  1
  V  V1  1  0.00034812  0.33870784  0.71260949  1
  V  V2  1  0.49965188  0.66129216  0.21260949  1
  V  V3  1  0.99965188  0.83870784  0.78739051  1
  V  V4  1  0.49965188  0.83870784  0.71260949  1
  V  V5  1  0.99965188  0.66129216  0.28739051  1
  V  V6  1  0.50034812  0.33870784  0.78739051  1
  V  V7  1  0.00034812  0.16129216  0.21260949  1
  Zn  Zn8  1  0.69899294  0.91230080  0.41444744  1
  Zn  Zn9  1  0.19899294  0.58769920  0.58555256  1
  Zn  Zn10  1  0.30100706  0.41230080  0.08555256  1
  Zn  Zn11  1  0.80100706  0.08769920  0.91444744  1
  Zn  Zn12  1  0.30100706  0.08769920  0.58555256  1
  Zn  Zn13  1  0.80100706  0.41230080  0.41444744  1
  Zn  Zn14  1  0.69899294  0.58769920  0.91444744  1
  Zn  Zn15  1  0.19899294  0.91230080  0.08555256  1
  P  P16  1  0.75043677  0.40962795  0.25959240  1
  P  P17  1  0.25043677  0.09037205  0.74040760  1
  P  P18  1  0.24956323  0.90962795  0.24040760  1
  P  P19  1  0.74956323  0.59037205  0.75959240  1
  P  P20  1  0.24956323  0.59037205  0.74040760  1
  P  P21  1  0.74956323  0.90962795  0.25959240  1
  P  P22  1  0.75043677  0.09037205  0.75959240  1
  P  P23  1  0.25043677  0.40962795  0.24040760  1
  P  P24  1  0.95075458  0.79922492  0.97743407  1
  P  P25  1  0.45075458  0.70077508  0.02256593  1
  P  P26  1  0.04924542  0.29922492  0.52256593  1
  P  P27  1  0.54924542  0.20077508  0.47743407  1
  P  P28  1  0.04924542  0.20077508  0.02256593  1
  P  P29  1  0.54924542  0.29922492  0.97743407  1
  P  P30  1  0.95075458  0.70077508  0.47743407  1
  P  P31  1  0.45075458  0.79922492  0.52256593  1
  Pb  Pb32  1  0.68194067  0.00623757  0.08849596  1
  Pb  Pb33  1  0.18194067  0.49376243  0.91150404  1
  Pb  Pb34  1  0.31805933  0.50623757  0.41150404  1
  Pb  Pb35  1  0.81805933  0.99376243  0.58849596  1
  Pb  Pb36  1  0.31805933  0.99376243  0.91150404  1
  Pb  Pb37  1  0.81805933  0.50623757  0.08849596  1
  Pb  Pb38  1  0.68194067  0.49376243  0.58849596  1
  Pb  Pb39  1  0.18194067  0.00623757  0.41150404  1
  O  O40  1  0.56060288  0.66496165  0.08689900  1
  O  O41  1  0.06060288  0.83503835  0.91310100  1
  O  O42  1  0.43939712  0.16496165  0.41310100  1
  O  O43  1  0.93939712  0.33503835  0.58689900  1
  O  O44  1  0.43939712  0.33503835  0.91310100  1
  O  O45  1  0.93939712  0.16496165  0.08689900  1
  O  O46  1  0.56060288  0.83503835  0.58689900  1
  O  O47  1  0.06060288  0.66496165  0.41310100  1
  O  O48  1  0.65080683  0.82133995  0.20679549  1
  O  O49  1  0.15080683  0.67866005  0.79320451  1
  O  O50  1  0.34919317  0.32133995  0.29320451  1
  O  O51  1  0.84919317  0.17866005  0.70679549  1
  O  O52  1  0.34919317  0.17866005  0.79320451  1
  O  O53  1  0.84919317  0.32133995  0.20679549  1
  O  O54  1  0.65080683  0.67866005  0.70679549  1
  O  O55  1  0.15080683  0.82133995  0.29320451  1
  O  O56  1  0.81387172  0.90567371  0.97681283  1
  O  O57  1  0.31387172  0.59432629  0.02318717  1
  O  O58  1  0.18612828  0.40567371  0.52318717  1
  O  O59  1  0.68612828  0.09432629  0.47681283  1
  O  O60  1  0.18612828  0.09432629  0.02318717  1
  O  O61  1  0.68612828  0.40567371  0.97681283  1
  O  O62  1  0.81387172  0.59432629  0.47681283  1
  O  O63  1  0.31387172  0.90567371  0.52318717  1
  O  O64  1  0.53091074  0.14943978  0.19867668  1
  O  O65  1  0.03091074  0.35056022  0.80132332  1
  O  O66  1  0.46908926  0.64943978  0.30132332  1
  O  O67  1  0.96908926  0.85056022  0.69867668  1
  O  O68  1  0.46908926  0.85056022  0.80132332  1
  O  O69  1  0.96908926  0.64943978  0.19867668  1
  O  O70  1  0.53091074  0.35056022  0.69867668  1
  O  O71  1  0.03091074  0.14943978  0.30132332  1
  O  O72  1  0.88846213  0.64019368  0.96776612  1
  O  O73  1  0.38846213  0.85980632  0.03223388  1
  O  O74  1  0.11153787  0.14019368  0.53223388  1
  O  O75  1  0.61153787  0.35980632  0.46776612  1
  O  O76  1  0.11153787  0.35980632  0.03223388  1
  O  O77  1  0.61153787  0.14019368  0.96776612  1
  O  O78  1  0.88846213  0.85980632  0.46776612  1
  O  O79  1  0.38846213  0.64019368  0.53223388  1
  O  O80  1  0.84572869  0.50143579  0.31553690  1
  O  O81  1  0.34572869  0.99856421  0.68446310  1
  O  O82  1  0.15427131  0.00143579  0.18446310  1
  O  O83  1  0.65427131  0.49856421  0.81553690  1
  O  O84  1  0.15427131  0.49856421  0.68446310  1
  O  O85  1  0.65427131  0.00143579  0.31553690  1
  O  O86  1  0.84572869  0.99856421  0.81553690  1
  O  O87  1  0.34572869  0.50143579  0.18446310  1
  O  O88  1  0.02546528  0.80097320  0.05318836  1
  O  O89  1  0.52546528  0.69902680  0.94681164  1
  O  O90  1  0.97453472  0.30097320  0.44681164  1
  O  O91  1  0.47453472  0.19902680  0.55318836  1
  O  O92  1  0.97453472  0.19902680  0.94681164  1
  O  O93  1  0.47453472  0.30097320  0.05318836  1
  O  O94  1  0.02546528  0.69902680  0.55318836  1
  O  O95  1  0.52546528  0.80097320  0.44681164  1
  O  O96  1  0.66175502  0.50877931  0.20679205  1
  O  O97  1  0.16175502  0.99122069  0.79320795  1
  O  O98  1  0.33824498  0.00877931  0.29320795  1
  O  O99  1  0.83824498  0.49122069  0.70679205  1
  O  O100  1  0.33824498  0.49122069  0.79320795  1
  O  O101  1  0.83824498  0.00877931  0.20679205  1
  O  O102  1  0.66175502  0.99122069  0.70679205  1
  O  O103  1  0.16175502  0.50877931  0.29320795  1
  O  O104  1  0.65529765  0.31520276  0.31159135  1
  O  O105  1  0.15529765  0.18479724  0.68840865  1
  O  O106  1  0.34470235  0.81520276  0.18840865  1
  O  O107  1  0.84470235  0.68479724  0.81159135  1
  O  O108  1  0.34470235  0.68479724  0.68840865  1
  O  O109  1  0.84470235  0.81520276  0.31159135  1
  O  O110  1  0.65529765  0.18479724  0.81159135  1
  O  O111  1  0.15529765  0.31520276  0.18840865  1
