# generated using pymatgen
data_Bi(WBr3)3
_symmetry_space_group_name_H-M   'P 1'
_cell_length_a   10.02030426
_cell_length_b   13.02074919
_cell_length_c   13.38601830
_cell_angle_alpha   90.00000000
_cell_angle_beta   90.00000000
_cell_angle_gamma   102.22853528
_symmetry_Int_Tables_number   1
_chemical_formula_structural   Bi(WBr3)3
_chemical_formula_sum   'Bi4 W12 Br36'
_cell_volume   1706.87168089
_cell_formula_units_Z   4
loop_
 _symmetry_equiv_pos_site_id
 _symmetry_equiv_pos_as_xyz
  1  'x, y, z'
loop_
 _atom_site_type_symbol
 _atom_site_label
 _atom_site_symmetry_multiplicity
 _atom_site_fract_x
 _atom_site_fract_y
 _atom_site_fract_z
 _atom_site_occupancy
  Bi  Bi0  1  0.98936933  0.40057259  0.35789929  1
  Bi  Bi1  1  0.01063067  0.09942741  0.85789929  1
  Bi  Bi2  1  0.01063067  0.59942741  0.64210071  1
  Bi  Bi3  1  0.98936933  0.90057259  0.14210071  1
  W  W4  1  0.40638170  0.49551889  0.12207394  1
  W  W5  1  0.59361830  0.00448111  0.62207394  1
  W  W6  1  0.59361830  0.50448111  0.87792606  1
  W  W7  1  0.40638170  0.99551889  0.37792606  1
  W  W8  1  0.64074825  0.45105474  0.06388550  1
  W  W9  1  0.35925175  0.04894526  0.56388550  1
  W  W10  1  0.35925175  0.54894526  0.93611450  1
  W  W11  1  0.64074825  0.95105474  0.43611450  1
  W  W12  1  0.41010953  0.36119595  0.97307761  1
  W  W13  1  0.58989047  0.13880405  0.47307761  1
  W  W14  1  0.58989047  0.63880405  0.02692239  1
  W  W15  1  0.41010953  0.86119595  0.52692239  1
  Br  Br16  1  0.45724267  0.30683633  0.15802042  1
  Br  Br17  1  0.54275733  0.19316367  0.65802042  1
  Br  Br18  1  0.54275733  0.69316367  0.84197958  1
  Br  Br19  1  0.45724267  0.80683633  0.34197958  1
  Br  Br20  1  0.17830785  0.40548328  0.03305193  1
  Br  Br21  1  0.82169215  0.09451672  0.53305193  1
  Br  Br22  1  0.82169215  0.59451672  0.96694807  1
  Br  Br23  1  0.17830785  0.90548328  0.46694807  1
  Br  Br24  1  0.35685999  0.68439519  0.08363278  1
  Br  Br25  1  0.64314001  0.81560481  0.58363278  1
  Br  Br26  1  0.64314001  0.31560481  0.91636722  1
  Br  Br27  1  0.35685999  0.18439519  0.41636722  1
  Br  Br28  1  0.63693604  0.58486882  0.21240738  1
  Br  Br29  1  0.36306396  0.91513118  0.71240738  1
  Br  Br30  1  0.36306396  0.41513118  0.78759262  1
  Br  Br31  1  0.63693604  0.08486882  0.28759262  1
  Br  Br32  1  0.28203617  0.49569917  0.29960778  1
  Br  Br33  1  0.71796383  0.00430083  0.79960778  1
  Br  Br34  1  0.71796383  0.50430083  0.70039222  1
  Br  Br35  1  0.28203617  0.99569917  0.20039222  1
  Br  Br36  1  0.84080730  0.37973342  0.14826669  1
  Br  Br37  1  0.15919270  0.12026658  0.64826669  1
  Br  Br38  1  0.15919270  0.62026658  0.85173331  1
  Br  Br39  1  0.84080730  0.87973342  0.35173331  1
  Br  Br40  1  0.29231398  0.16135510  0.93218917  1
  Br  Br41  1  0.70768602  0.33864490  0.43218917  1
  Br  Br42  1  0.70768602  0.83864490  0.06781083  1
  Br  Br43  1  0.29231398  0.66135510  0.56781083  1
  Br  Br44  1  0.07744951  0.38274789  0.54891816  1
  Br  Br45  1  0.92255049  0.11725211  0.04891816  1
  Br  Br46  1  0.92255049  0.61725211  0.45108184  1
  Br  Br47  1  0.07744951  0.88274789  0.95108184  1
  Br  Br48  1  0.02377187  0.20893375  0.31120298  1
  Br  Br49  1  0.97622813  0.29106625  0.81120298  1
  Br  Br50  1  0.97622813  0.79106625  0.68879702  1
  Br  Br51  1  0.02377187  0.70893375  0.18879702  1
