# generated using pymatgen
data_PrSbMo2O9
_symmetry_space_group_name_H-M   'P 1'
_cell_length_a   9.92219082
_cell_length_b   9.92219082
_cell_length_c   11.08322501
_cell_angle_alpha   111.67991833
_cell_angle_beta   111.67991833
_cell_angle_gamma   95.75724733
_symmetry_Int_Tables_number   1
_chemical_formula_structural   PrSbMo2O9
_chemical_formula_sum   'Pr4 Sb4 Mo8 O36'
_cell_volume   906.11657866
_cell_formula_units_Z   4
loop_
 _symmetry_equiv_pos_site_id
 _symmetry_equiv_pos_as_xyz
  1  'x, y, z'
loop_
 _atom_site_type_symbol
 _atom_site_label
 _atom_site_symmetry_multiplicity
 _atom_site_fract_x
 _atom_site_fract_y
 _atom_site_fract_z
 _atom_site_occupancy
  Pr  Pr0  1  0.67504358  0.32495642  0.25000000  1
  Pr  Pr1  1  0.32495642  0.67504358  0.75000000  1
  Pr  Pr2  1  0.12437426  0.87562574  0.25000000  1
  Pr  Pr3  1  0.87562574  0.12437426  0.75000000  1
  Sb  Sb4  1  0.64708952  0.62032128  0.03732399  1
  Sb  Sb5  1  0.37967872  0.35291048  0.46267601  1
  Sb  Sb6  1  0.35291048  0.37967872  0.96267601  1
  Sb  Sb7  1  0.62032128  0.64708952  0.53732399  1
  Mo  Mo8  1  0.04918660  0.25999816  0.52781282  1
  Mo  Mo9  1  0.74000184  0.95081340  0.97218718  1
  Mo  Mo10  1  0.95081340  0.74000184  0.47218718  1
  Mo  Mo11  1  0.25999816  0.04918660  0.02781282  1
  Mo  Mo12  1  0.06285575  0.43496913  0.19734702  1
  Mo  Mo13  1  0.56503087  0.93714425  0.30265298  1
  Mo  Mo14  1  0.93714425  0.56503087  0.80265298  1
  Mo  Mo15  1  0.43496913  0.06285575  0.69734702  1
  O  O16  1  0.06149435  0.09553558  0.40103688  1
  O  O17  1  0.90446442  0.93850565  0.09896312  1
  O  O18  1  0.93850565  0.90446442  0.59896312  1
  O  O19  1  0.09553558  0.06149435  0.90103688  1
  O  O20  1  0.87564538  0.29788990  0.44124285  1
  O  O21  1  0.70211010  0.12435462  0.05875715  1
  O  O22  1  0.12435462  0.70211010  0.55875715  1
  O  O23  1  0.29788990  0.87564538  0.94124285  1
  O  O24  1  0.05317622  0.22829340  0.67863528  1
  O  O25  1  0.77170660  0.94682378  0.82136472  1
  O  O26  1  0.94682378  0.77170660  0.32136472  1
  O  O27  1  0.22829340  0.05317622  0.17863528  1
  O  O28  1  0.78145443  0.59739465  0.42512219  1
  O  O29  1  0.40260535  0.21854557  0.07487781  1
  O  O30  1  0.21854557  0.40260535  0.57487781  1
  O  O31  1  0.59739465  0.78145443  0.92512219  1
  O  O32  1  0.98600095  0.30586254  0.01163450  1
  O  O33  1  0.69413746  0.01399905  0.48836550  1
  O  O34  1  0.01399905  0.69413746  0.98836550  1
  O  O35  1  0.30586254  0.98600095  0.51163450  1
  O  O36  1  0.14255282  0.61672606  0.22304651  1
  O  O37  1  0.38327394  0.85744718  0.27695349  1
  O  O38  1  0.85744718  0.38327394  0.77695349  1
  O  O39  1  0.61672606  0.14255282  0.72304651  1
  O  O40  1  0.91516663  0.44289768  0.25280469  1
  O  O41  1  0.55710232  0.08483337  0.24719531  1
  O  O42  1  0.08483337  0.55710232  0.74719531  1
  O  O43  1  0.44289768  0.91516663  0.75280469  1
  O  O44  1  0.21445080  0.37292346  0.30284590  1
  O  O45  1  0.62707654  0.78554920  0.19715410  1
  O  O46  1  0.78554920  0.62707654  0.69715410  1
  O  O47  1  0.37292346  0.21445080  0.80284590  1
  O  O48  1  0.57497598  0.45995654  0.09853499  1
  O  O49  1  0.54004346  0.42502402  0.40146501  1
  O  O50  1  0.42502402  0.54004346  0.90146501  1
  O  O51  1  0.45995654  0.57497598  0.59853499  1
