# generated using pymatgen
data_SnH4(Cl2O)2
_symmetry_space_group_name_H-M   'P 1'
_cell_length_a   7.81917318
_cell_length_b   9.71556719
_cell_length_c   11.57052968
_cell_angle_alpha   90.00000000
_cell_angle_beta   90.00000000
_cell_angle_gamma   90.00000000
_symmetry_Int_Tables_number   1
_chemical_formula_structural   SnH4(Cl2O)2
_chemical_formula_sum   'Sn4 H16 Cl16 O8'
_cell_volume   878.98655535
_cell_formula_units_Z   4
loop_
 _symmetry_equiv_pos_site_id
 _symmetry_equiv_pos_as_xyz
  1  'x, y, z'
loop_
 _atom_site_type_symbol
 _atom_site_label
 _atom_site_symmetry_multiplicity
 _atom_site_fract_x
 _atom_site_fract_y
 _atom_site_fract_z
 _atom_site_occupancy
  Sn  Sn0  1  0.57410724  0.50000000  0.75000000  1
  Sn  Sn1  1  0.92589276  -0.00000000  0.25000000  1
  Sn  Sn2  1  0.42589276  0.50000000  0.25000000  1
  Sn  Sn3  1  0.07410724  0.00000000  0.75000000  1
  H  H4  1  0.31704830  0.52102352  0.92843403  1
  H  H5  1  0.18295170  0.97897648  0.42843403  1
  H  H6  1  0.18295170  0.02102352  0.07156597  1
  H  H7  1  0.31704830  0.47897648  0.57156597  1
  H  H8  1  0.68295170  0.47897648  0.07156597  1
  H  H9  1  0.81704830  0.02102352  0.57156597  1
  H  H10  1  0.81704830  0.97897648  0.92843403  1
  H  H11  1  0.68295170  0.52102352  0.42843403  1
  H  H12  1  0.32803685  0.66905144  0.86534331  1
  H  H13  1  0.17196315  0.83094856  0.36534331  1
  H  H14  1  0.17196315  0.16905144  0.13465669  1
  H  H15  1  0.32803685  0.33094856  0.63465669  1
  H  H16  1  0.67196315  0.33094856  0.13465669  1
  H  H17  1  0.82803685  0.16905144  0.63465669  1
  H  H18  1  0.82803685  0.83094856  0.86534331  1
  H  H19  1  0.67196315  0.66905144  0.36534331  1
  Cl  Cl20  1  0.77635947  0.41499230  0.60521600  1
  Cl  Cl21  1  0.72364053  0.08500770  0.10521600  1
  Cl  Cl22  1  0.72364053  0.91499230  0.39478400  1
  Cl  Cl23  1  0.77635947  0.58500770  0.89478400  1
  Cl  Cl24  1  0.22364053  0.58500770  0.39478400  1
  Cl  Cl25  1  0.27635947  0.91499230  0.89478400  1
  Cl  Cl26  1  0.27635947  0.08500770  0.60521600  1
  Cl  Cl27  1  0.22364053  0.41499230  0.10521600  1
  Cl  Cl28  1  0.53279422  0.28520231  0.84241173  1
  Cl  Cl29  1  0.96720578  0.21479769  0.34241173  1
  Cl  Cl30  1  0.96720578  0.78520231  0.15758827  1
  Cl  Cl31  1  0.53279422  0.71479769  0.65758827  1
  Cl  Cl32  1  0.46720578  0.71479769  0.15758827  1
  Cl  Cl33  1  0.03279422  0.78520231  0.65758827  1
  Cl  Cl34  1  0.03279422  0.21479769  0.84241173  1
  Cl  Cl35  1  0.46720578  0.28520231  0.34241173  1
  O  O36  1  0.35076728  0.56971627  0.85761621  1
  O  O37  1  0.14923272  0.93028373  0.35761621  1
  O  O38  1  0.14923272  0.06971627  0.14238379  1
  O  O39  1  0.35076728  0.43028373  0.64238379  1
  O  O40  1  0.64923272  0.43028373  0.14238379  1
  O  O41  1  0.85076728  0.06971627  0.64238379  1
  O  O42  1  0.85076728  0.93028373  0.85761621  1
  O  O43  1  0.64923272  0.56971627  0.35761621  1
