# generated using pymatgen
data_Mn5As4(H11O13)2
_symmetry_space_group_name_H-M   'P 1'
_cell_length_a   6.84516417
_cell_length_b   8.00878821
_cell_length_c   10.95602110
_cell_angle_alpha   81.13383707
_cell_angle_beta   81.57696216
_cell_angle_gamma   84.27788627
_symmetry_Int_Tables_number   1
_chemical_formula_structural   Mn5As4(H11O13)2
_chemical_formula_sum   'Mn5 As4 H22 O26'
_cell_volume   585.21651526
_cell_formula_units_Z   1
loop_
 _symmetry_equiv_pos_site_id
 _symmetry_equiv_pos_as_xyz
  1  'x, y, z'
loop_
 _atom_site_type_symbol
 _atom_site_label
 _atom_site_symmetry_multiplicity
 _atom_site_fract_x
 _atom_site_fract_y
 _atom_site_fract_z
 _atom_site_occupancy
  Mn  Mn0  1  0.00000000  0.00000000  -0.00000000  1
  Mn  Mn1  1  0.39831518  0.91877726  0.40535516  1
  Mn  Mn2  1  0.60168482  0.08122274  0.59464484  1
  Mn  Mn3  1  0.10678189  0.63911359  0.56714796  1
  Mn  Mn4  1  0.89321811  0.36088641  0.43285204  1
  As  As5  1  0.59729659  0.62528021  0.63421095  1
  As  As6  1  0.40270341  0.37471979  0.36578905  1
  As  As7  1  0.08033152  0.03904971  0.66656477  1
  As  As8  1  0.91966848  0.96095029  0.33343523  1
  H  H9  1  0.79773066  0.81126172  0.69950671  1
  H  H10  1  0.20226934  0.18873828  0.30049329  1
  H  H11  1  0.47296390  0.72296199  0.22199098  1
  H  H12  1  0.52703610  0.27703801  0.77800902  1
  H  H13  1  0.63004953  0.86378953  0.19433944  1
  H  H14  1  0.36995047  0.13621047  0.80566056  1
  H  H15  1  0.25817293  0.47873873  0.76926735  1
  H  H16  1  0.74182707  0.52126127  0.23073265  1
  H  H17  1  0.10091522  0.34635523  0.76419958  1
  H  H18  1  0.89908478  0.65364477  0.23580042  1
  H  H19  1  0.63809042  0.98434205  0.90526483  1
  H  H20  1  0.36190958  0.01565795  0.09473517  1
  H  H21  1  0.72553352  0.79272990  0.94290645  1
  H  H22  1  0.27446648  0.20727010  0.05709355  1
  H  H23  1  0.18972970  0.65210526  0.98072025  1
  H  H24  1  0.81027030  0.34789474  0.01927975  1
  H  H25  1  0.13098190  0.76247448  0.85374116  1
  H  H26  1  0.86901810  0.23752552  0.14625884  1
  H  H27  1  0.33935925  0.46823188  0.11917477  1
  H  H28  1  0.66064075  0.53176812  0.88082523  1
  H  H29  1  0.11009866  0.45868986  0.12973532  1
  H  H30  1  0.88990134  0.54131014  0.87026468  1
  O  O31  1  0.64779402  0.81215497  0.69240754  1
  O  O32  1  0.35220598  0.18784503  0.30759246  1
  O  O33  1  0.51197265  0.49160375  0.76374512  1
  O  O34  1  0.48802735  0.50839625  0.23625488  1
  O  O35  1  0.81981111  0.55751383  0.55719936  1
  O  O36  1  0.18018889  0.44248617  0.44280064  1
  O  O37  1  0.41902070  0.68337909  0.53830562  1
  O  O38  1  0.58097930  0.31662091  0.46169438  1
  O  O39  1  0.09896848  0.12079880  0.80091110  1
  O  O40  1  0.90103152  0.87920120  0.19908890  1
  O  O41  1  0.30419296  0.04681249  0.57205450  1
  O  O42  1  0.69580704  0.95318751  0.42794550  1
  O  O43  1  0.02070575  0.82908974  0.70154366  1
  O  O44  1  0.97929425  0.17091026  0.29845634  1
  O  O45  1  0.89604337  0.15434248  0.59034571  1
  O  O46  1  0.10395663  0.84565752  0.40965429  1
  O  O47  1  0.48634247  0.84766803  0.21829493  1
  O  O48  1  0.51365753  0.15233197  0.78170507  1
  O  O49  1  0.11877357  0.47049897  0.75347797  1
  O  O50  1  0.88122643  0.52950103  0.24652203  1
  O  O51  1  0.72396282  0.91060609  0.95959688  1
  O  O52  1  0.27603718  0.08939391  0.04040312  1
  O  O53  1  0.16270881  0.76927687  0.93786486  1
  O  O54  1  0.83729119  0.23072313  0.06213514  1
  O  O55  1  0.23299005  0.44933729  0.07066539  1
  O  O56  1  0.76700995  0.55066271  0.92933461  1
