# generated using pymatgen
data_KAl3Si3(HO6)2
_symmetry_space_group_name_H-M   'P 1'
_cell_length_a   5.23354672
_cell_length_b   9.08652794
_cell_length_c   20.44006722
_cell_angle_alpha   89.99984303
_cell_angle_beta   95.64150280
_cell_angle_gamma   90.00022336
_symmetry_Int_Tables_number   1
_chemical_formula_structural   KAl3Si3(HO6)2
_chemical_formula_sum   'K4 Al12 Si12 H8 O48'
_cell_volume   967.31462824
_cell_formula_units_Z   4
loop_
 _symmetry_equiv_pos_site_id
 _symmetry_equiv_pos_as_xyz
  1  'x, y, z'
loop_
 _atom_site_type_symbol
 _atom_site_label
 _atom_site_symmetry_multiplicity
 _atom_site_fract_x
 _atom_site_fract_y
 _atom_site_fract_z
 _atom_site_occupancy
  K  K0  1  0.49997887  0.40215951  0.74999920  1
  K  K1  1  0.50000803  0.59782879  0.25000081  1
  K  K2  1  0.99997020  0.89703013  0.74999666  1
  K  K3  1  0.00001391  0.10297811  0.24999513  1
  Al  Al4  1  0.24849500  0.91391693  0.50127797  1
  Al  Al5  1  0.46281874  0.73967195  0.63501365  1
  Al  Al6  1  0.75150110  0.91392447  0.99871891  1
  Al  Al7  1  0.53716356  0.73968209  0.86498135  1
  Al  Al8  1  0.75150366  0.08608922  0.49872285  1
  Al  Al9  1  0.53718370  0.26032923  0.36498645  1
  Al  Al10  1  0.24849856  0.08609993  0.00127364  1
  Al  Al11  1  0.46281622  0.26033318  0.13501087  1
  Al  Al12  1  0.74739195  0.41559033  0.49901977  1
  Al  Al13  1  0.25259351  0.41560039  0.00097692  1
  Al  Al14  1  0.25260327  0.58441165  0.50098019  1
  Al  Al15  1  0.74737720  0.58442293  0.99901620  1
  Si  Si16  1  0.46048181  0.06963712  0.63433627  1
  Si  Si17  1  0.53951198  0.06964766  0.86565860  1
  Si  Si18  1  0.53951649  0.93036746  0.36566354  1
  Si  Si19  1  0.46047836  0.93037178  0.13433350  1
  Si  Si20  1  0.98174201  0.56899423  0.63510323  1
  Si  Si21  1  0.94857739  0.24321220  0.63340529  1
  Si  Si22  1  0.01824188  0.56900303  0.86489499  1
  Si  Si23  1  0.05141678  0.24321999  0.86659093  1
  Si  Si24  1  0.01825822  0.43100798  0.36489683  1
  Si  Si25  1  0.05142000  0.75679239  0.36659421  1
  Si  Si26  1  0.98173950  0.43101312  0.13510006  1
  Si  Si27  1  0.94857782  0.75679460  0.13340280  1
  H  H28  1  0.36320663  0.34281140  0.55365094  1
  H  H29  1  0.63677828  0.34282235  0.94634627  1
  H  H30  1  0.63678955  0.65719294  0.44634908  1
  H  H31  1  0.36319531  0.65720197  0.05365080  1
  H  H32  1  0.87632073  0.85585335  0.56718852  1
  H  H33  1  0.12368154  0.85585986  0.93281068  1
  H  H34  1  0.12367918  0.14415176  0.43281085  1
  H  H35  1  0.87631913  0.14415520  0.06718608  1
  O  O36  1  0.46329637  0.05596774  0.55420452  1
  O  O37  1  0.37509722  0.74971368  0.54992757  1
  O  O38  1  0.45496545  0.43415207  0.54803466  1
  O  O39  1  0.41603681  0.91472654  0.66947640  1
  O  O40  1  0.24325295  0.18817033  0.65623202  1
  O  O41  1  0.74154822  0.13634031  0.66618570  1
  O  O42  1  0.53670111  0.05597956  0.94579043  1
  O  O43  1  0.62489173  0.74972512  0.95006779  1
  O  O44  1  0.54501502  0.43416355  0.95195947  1
  O  O45  1  0.58395122  0.91473756  0.83051898  1
  O  O46  1  0.75674092  0.18817960  0.84376041  1
  O  O47  1  0.25844560  0.13635191  0.83380858  1
  O  O48  1  0.53670229  0.94403462  0.44579658  1
  O  O49  1  0.62489897  0.25028921  0.45007308  1
  O  O50  1  0.54503054  0.56585004  0.45196559  1
  O  O51  1  0.58395823  0.08527353  0.33052360  1
  O  O52  1  0.75674480  0.81183146  0.34376838  1
  O  O53  1  0.25844810  0.86366306  0.33381465  1
  O  O54  1  0.46329158  0.94404183  0.05420042  1
  O  O55  1  0.37510060  0.25029887  0.04992369  1
  O  O56  1  0.45495428  0.56586126  0.04803048  1
  O  O57  1  0.41603319  0.08527613  0.16947421  1
  O  O58  1  0.24325840  0.81182923  0.15622969  1
  O  O59  1  0.74155254  0.86367082  0.16618012  1
  O  O60  1  0.96748675  0.54951095  0.55430880  1
  O  O61  1  0.89117992  0.24824022  0.55401723  1
  O  O62  1  0.95436318  0.94175098  0.54883030  1
  O  O63  1  0.91384760  0.40558576  0.66621704  1
  O  O64  1  0.78362012  0.69282671  0.65614028  1
  O  O65  1  0.26535324  0.61113575  0.66891659  1
  O  O66  1  0.03249691  0.54952056  0.94568934  1
  O  O67  1  0.10881204  0.24824692  0.94597808  1
  O  O68  1  0.04563399  0.94176180  0.95116515  1
  O  O69  1  0.08613503  0.40559608  0.83377990  1
  O  O70  1  0.21636303  0.69283273  0.84385569  1
  O  O71  1  0.73463054  0.61114235  0.83108221  1
  O  O72  1  0.03251210  0.45048998  0.44569242  1
  O  O73  1  0.10882172  0.75176245  0.44598366  1
  O  O74  1  0.04563516  0.05825429  0.45117033  1
  O  O75  1  0.08614996  0.59441915  0.33378351  1
  O  O76  1  0.21638111  0.30717729  0.34386197  1
  O  O77  1  0.73464985  0.38886751  0.33108423  1
  O  O78  1  0.96747425  0.45049779  0.05430481  1
  O  O79  1  0.89117581  0.75176907  0.05401364  1
  O  O80  1  0.95436633  0.05825788  0.04882879  1
  O  O81  1  0.91384918  0.59442241  0.16621555  1
  O  O82  1  0.78361662  0.30718285  0.15613765  1
  O  O83  1  0.26534932  0.38887127  0.16891174  1
