# generated using pymatgen
data_Pr4In8Ni7
_symmetry_space_group_name_H-M   'P 1'
_cell_length_a   4.35683054
_cell_length_b   14.11377321
_cell_length_c   14.11377321
_cell_angle_alpha   117.15619838
_cell_angle_beta   90.00000000
_cell_angle_gamma   90.00000000
_symmetry_Int_Tables_number   1
_chemical_formula_structural   Pr4In8Ni7
_chemical_formula_sum   'Pr8 In16 Ni14'
_cell_volume   772.20485459
_cell_formula_units_Z   2
loop_
 _symmetry_equiv_pos_site_id
 _symmetry_equiv_pos_as_xyz
  1  'x, y, z'
loop_
 _atom_site_type_symbol
 _atom_site_label
 _atom_site_symmetry_multiplicity
 _atom_site_fract_x
 _atom_site_fract_y
 _atom_site_fract_z
 _atom_site_occupancy
  Pr  Pr0  1  -0.00000000  0.81589580  0.81589580  1
  Pr  Pr1  1  -0.00000000  0.18410420  0.18410420  1
  Pr  Pr2  1  -0.00000000  0.00517483  0.65127949  1
  Pr  Pr3  1  0.00000000  0.99482517  0.34872051  1
  Pr  Pr4  1  -0.00000000  0.65127949  0.00517483  1
  Pr  Pr5  1  0.00000000  0.34872051  0.99482517  1
  Pr  Pr6  1  0.50000000  0.60599778  0.39400222  1
  Pr  Pr7  1  0.50000000  0.39400222  0.60599778  1
  In  In8  1  0.50000000  0.18977476  0.81022524  1
  In  In9  1  0.50000000  0.81022524  0.18977476  1
  In  In10  1  0.00000000  0.08654600  0.91345400  1
  In  In11  1  -0.00000000  0.91345400  0.08654600  1
  In  In12  1  0.50000000  0.55774816  0.12582287  1
  In  In13  1  0.50000000  0.44225184  0.87417713  1
  In  In14  1  0.50000000  0.12582287  0.55774816  1
  In  In15  1  0.50000000  0.87417713  0.44225184  1
  In  In16  1  0.50000000  -0.00000000  -0.00000000  1
  In  In17  1  -0.00000000  0.50000000  0.50000000  1
  In  In18  1  0.50000000  0.18129535  0.36922491  1
  In  In19  1  0.50000000  0.81870465  0.63077509  1
  In  In20  1  0.50000000  0.36922491  0.18129535  1
  In  In21  1  0.50000000  0.63077509  0.81870465  1
  In  In22  1  0.00000000  0.72282555  0.27717445  1
  In  In23  1  0.00000000  0.27717445  0.72282555  1
  Ni  Ni24  1  0.50000000  0.99939912  0.80977661  1
  Ni  Ni25  1  0.50000000  0.00060088  0.19022339  1
  Ni  Ni26  1  0.50000000  0.80977661  0.99939912  1
  Ni  Ni27  1  0.50000000  0.19022339  0.00060088  1
  Ni  Ni28  1  -0.00000000  0.41078023  0.30225323  1
  Ni  Ni29  1  -0.00000000  0.58921977  0.69774677  1
  Ni  Ni30  1  -0.00000000  0.30225323  0.41078023  1
  Ni  Ni31  1  0.00000000  0.69774677  0.58921977  1
  Ni  Ni32  1  0.50000000  0.37785285  0.37785285  1
  Ni  Ni33  1  0.50000000  0.62214715  0.62214715  1
  Ni  Ni34  1  -0.00000000  0.20828886  0.51586814  1
  Ni  Ni35  1  0.00000000  0.79171114  0.48413186  1
  Ni  Ni36  1  -0.00000000  0.51586814  0.20828886  1
  Ni  Ni37  1  0.00000000  0.48413186  0.79171114  1
