# generated using pymatgen
data_CaCuGeH2O5
_symmetry_space_group_name_H-M   'P 1'
_cell_length_a   5.22026490
_cell_length_b   5.57247780
_cell_length_c   16.26641019
_cell_angle_alpha   90.00000000
_cell_angle_beta   90.00000000
_cell_angle_gamma   102.61274976
_symmetry_Int_Tables_number   1
_chemical_formula_structural   CaCuGeH2O5
_chemical_formula_sum   'Ca4 Cu4 Ge4 H8 O20'
_cell_volume   461.76793466
_cell_formula_units_Z   4
loop_
 _symmetry_equiv_pos_site_id
 _symmetry_equiv_pos_as_xyz
  1  'x, y, z'
loop_
 _atom_site_type_symbol
 _atom_site_label
 _atom_site_symmetry_multiplicity
 _atom_site_fract_x
 _atom_site_fract_y
 _atom_site_fract_z
 _atom_site_occupancy
  Ca  Ca0  1  0.15681612  0.33804817  0.82206458  1
  Ca  Ca1  1  0.84318388  0.16195183  0.32206458  1
  Ca  Ca2  1  0.84318388  0.66195183  0.17793542  1
  Ca  Ca3  1  0.15681612  0.83804817  0.67793542  1
  Cu  Cu4  1  0.00000000  0.00000000  0.00000000  1
  Cu  Cu5  1  0.00000000  0.50000000  0.50000000  1
  Cu  Cu6  1  0.50000000  0.50000000  0.00000000  1
  Cu  Cu7  1  0.50000000  0.00000000  0.50000000  1
  Ge  Ge8  1  0.48952957  0.96451628  0.88867013  1
  Ge  Ge9  1  0.51047043  0.53548372  0.38867013  1
  Ge  Ge10  1  0.51047043  0.03548372  0.11132987  1
  Ge  Ge11  1  0.48952957  0.46451628  0.61132987  1
  H  H12  1  0.68783160  0.58422572  0.76321477  1
  H  H13  1  0.31216840  0.91577428  0.26321477  1
  H  H14  1  0.31216840  0.41577428  0.23678523  1
  H  H15  1  0.68783160  0.08422572  0.73678523  1
  H  H16  1  0.86296939  0.74952120  0.83322971  1
  H  H17  1  0.13703061  0.75047880  0.33322971  1
  H  H18  1  0.13703061  0.25047880  0.16677029  1
  H  H19  1  0.86296939  0.24952120  0.66677029  1
  O  O20  1  0.40810054  0.04107331  0.78821941  1
  O  O21  1  0.59189946  0.45892669  0.28821941  1
  O  O22  1  0.59189946  0.95892669  0.21178059  1
  O  O23  1  0.40810054  0.54107331  0.71178059  1
  O  O24  1  0.33968411  0.16987546  0.95132363  1
  O  O25  1  0.66031589  0.33012454  0.45132363  1
  O  O26  1  0.66031589  0.83012454  0.04867637  1
  O  O27  1  0.33968411  0.66987546  0.54867637  1
  O  O28  1  0.83926524  0.03056936  0.89433864  1
  O  O29  1  0.16073476  0.46943064  0.39433864  1
  O  O30  1  0.16073476  0.96943064  0.10566136  1
  O  O31  1  0.83926524  0.53056936  0.60566136  1
  O  O32  1  0.34698215  0.65332622  0.91222830  1
  O  O33  1  0.65301785  0.84667378  0.41222830  1
  O  O34  1  0.65301785  0.34667378  0.08777170  1
  O  O35  1  0.34698215  0.15332622  0.58777170  1
  O  O36  1  0.86714006  0.62025652  0.79162218  1
  O  O37  1  0.13285994  0.87974348  0.29162218  1
  O  O38  1  0.13285994  0.37974348  0.20837782  1
  O  O39  1  0.86714006  0.12025652  0.70837782  1
