# generated using pymatgen
data_Bi2Se5Cl7
_symmetry_space_group_name_H-M   'P 1'
_cell_length_a   12.08292467
_cell_length_b   12.32859016
_cell_length_c   22.58204107
_cell_angle_alpha   90.00000000
_cell_angle_beta   90.00000000
_cell_angle_gamma   90.00000000
_symmetry_Int_Tables_number   1
_chemical_formula_structural   Bi2Se5Cl7
_chemical_formula_sum   'Bi16 Se40 Cl56'
_cell_volume   3363.94337225
_cell_formula_units_Z   8
loop_
 _symmetry_equiv_pos_site_id
 _symmetry_equiv_pos_as_xyz
  1  'x, y, z'
loop_
 _atom_site_type_symbol
 _atom_site_label
 _atom_site_symmetry_multiplicity
 _atom_site_fract_x
 _atom_site_fract_y
 _atom_site_fract_z
 _atom_site_occupancy
  Bi  Bi0  1  0.80761313  0.32556423  0.56979149  1
  Bi  Bi1  1  0.69238687  0.67443577  0.06979149  1
  Bi  Bi2  1  0.30761313  0.17443577  0.43020851  1
  Bi  Bi3  1  0.19238687  0.82556423  0.93020851  1
  Bi  Bi4  1  0.47503404  0.47367991  0.51631711  1
  Bi  Bi5  1  0.02496596  0.52632009  0.01631711  1
  Bi  Bi6  1  0.97503404  0.02632009  0.48368289  1
  Bi  Bi7  1  0.52496596  0.97367991  0.98368289  1
  Bi  Bi8  1  0.10886557  0.53598680  0.48119626  1
  Bi  Bi9  1  0.39113443  0.46401320  0.98119626  1
  Bi  Bi10  1  0.60886557  0.96401320  0.51880374  1
  Bi  Bi11  1  0.89113443  0.03598680  0.01880374  1
  Bi  Bi12  1  0.77023643  0.66252231  0.43148481  1
  Bi  Bi13  1  0.72976357  0.33747769  0.93148481  1
  Bi  Bi14  1  0.27023643  0.83747769  0.56851519  1
  Bi  Bi15  1  0.22976357  0.16252231  0.06851519  1
  Se  Se16  1  0.09505612  0.63493855  0.24104778  1
  Se  Se17  1  0.40494388  0.36506145  0.74104778  1
  Se  Se18  1  0.59505612  0.86506145  0.75895222  1
  Se  Se19  1  0.90494388  0.13493855  0.25895222  1
  Se  Se20  1  0.10816497  0.77866169  0.16415719  1
  Se  Se21  1  0.39183503  0.22133831  0.66415719  1
  Se  Se22  1  0.60816497  0.72133831  0.83584281  1
  Se  Se23  1  0.89183503  0.27866169  0.33584281  1
  Se  Se24  1  0.29329067  0.79529661  0.15674086  1
  Se  Se25  1  0.20670933  0.20470339  0.65674086  1
  Se  Se26  1  0.79329067  0.70470339  0.84325914  1
  Se  Se27  1  0.70670933  0.29529661  0.34325914  1
  Se  Se28  1  0.32773480  0.93538463  0.23573116  1
  Se  Se29  1  0.17226520  0.06461537  0.73573116  1
  Se  Se30  1  0.82773480  0.56461537  0.76426884  1
  Se  Se31  1  0.67226520  0.43538463  0.26426884  1
  Se  Se32  1  0.15555579  0.91710516  0.29023253  1
  Se  Se33  1  0.34444421  0.08289484  0.79023253  1
  Se  Se34  1  0.65555579  0.58289484  0.70976747  1
  Se  Se35  1  0.84444421  0.41710516  0.20976747  1
  Se  Se36  1  0.16461815  0.74253085  0.32494349  1
  Se  Se37  1  0.33538185  0.25746915  0.82494349  1
  Se  Se38  1  0.66461815  0.75746915  0.67505651  1
  Se  Se39  1  0.83538185  0.24253085  0.17505651  1
  Se  Se40  1  0.25629104  0.52057526  0.21746231  1
  Se  Se41  1  0.24370896  0.47942474  0.71746231  1
  Se  Se42  1  0.75629104  0.97942474  0.78253769  1
  Se  Se43  1  0.74370896  0.02057526  0.28253769  1
  Se  Se44  1  0.37702701  0.55834978  0.29335880  1
  Se  Se45  1  0.12297299  0.44165022  0.79335880  1
  Se  Se46  1  0.87702701  0.94165022  0.70664120  1
  Se  Se47  1  0.62297299  0.05834978  0.20664120  1
  Se  Se48  1  0.50000039  0.68834128  0.24932817  1
  Se  Se49  1  0.99999961  0.31165872  0.74932817  1
  Se  Se50  1  0.00000039  0.81165872  0.75067183  1
  Se  Se51  1  0.49999961  0.18834128  0.25067183  1
  Se  Se52  1  0.45787398  0.84157279  0.30249968  1
  Se  Se53  1  0.04212602  0.15842721  0.80249968  1
  Se  Se54  1  0.95787398  0.65842721  0.69750032  1
  Se  Se55  1  0.54212602  0.34157279  0.19750032  1
  Cl  Cl56  1  0.72006083  0.31883728  0.67140143  1
  Cl  Cl57  1  0.77993917  0.68116272  0.17140143  1
  Cl  Cl58  1  0.22006083  0.18116272  0.32859857  1
  Cl  Cl59  1  0.27993917  0.81883728  0.82859857  1
  Cl  Cl60  1  0.96702266  0.44519229  0.60548043  1
  Cl  Cl61  1  0.53297734  0.55480771  0.10548043  1
  Cl  Cl62  1  0.46702266  0.05480771  0.39451957  1
  Cl  Cl63  1  0.03297734  0.94519229  0.89451957  1
  Cl  Cl64  1  0.92574456  0.15653642  0.60295837  1
  Cl  Cl65  1  0.57425544  0.84346358  0.10295837  1
  Cl  Cl66  1  0.42574456  0.34346358  0.39704163  1
  Cl  Cl67  1  0.07425544  0.65653642  0.89704163  1
  Cl  Cl68  1  0.44080909  0.52988255  0.62581585  1
  Cl  Cl69  1  0.05919091  0.47011745  0.12581585  1
  Cl  Cl70  1  0.94080909  0.97011745  0.37418415  1
  Cl  Cl71  1  0.55919091  0.02988255  0.87418415  1
  Cl  Cl72  1  0.55593691  0.28494329  0.53492303  1
  Cl  Cl73  1  0.94406309  0.71505671  0.03492303  1
  Cl  Cl74  1  0.05593691  0.21505671  0.46507697  1
  Cl  Cl75  1  0.44406309  0.78494329  0.96507697  1
  Cl  Cl76  1  0.68702175  0.53788760  0.54867982  1
  Cl  Cl77  1  0.81297825  0.46211240  0.04867982  1
  Cl  Cl78  1  0.18702175  0.96211240  0.45132018  1
  Cl  Cl79  1  0.31297825  0.03788760  0.95132018  1
  Cl  Cl80  1  0.27154041  0.37210061  0.52796641  1
  Cl  Cl81  1  0.22845959  0.62789939  0.02796641  1
  Cl  Cl82  1  0.77154041  0.12789939  0.47203359  1
  Cl  Cl83  1  0.72845959  0.87210061  0.97203359  1
  Cl  Cl84  1  0.13174294  0.48294200  0.37234773  1
  Cl  Cl85  1  0.36825706  0.51705800  0.87234773  1
  Cl  Cl86  1  0.63174294  0.01705800  0.62765227  1
  Cl  Cl87  1  0.86825706  0.98294200  0.12765227  1
  Cl  Cl88  1  0.29695556  0.64077888  0.46423533  1
  Cl  Cl89  1  0.20304444  0.35922112  0.96423533  1
  Cl  Cl90  1  0.79695556  0.85922112  0.53576467  1
  Cl  Cl91  1  0.70304444  0.14077888  0.03576467  1
  Cl  Cl92  1  0.01053143  0.72040671  0.46327747  1
  Cl  Cl93  1  0.48946857  0.27959329  0.96327747  1
  Cl  Cl94  1  0.51053143  0.77959329  0.53672253  1
  Cl  Cl95  1  0.98946857  0.22040671  0.03672253  1
  Cl  Cl96  1  0.88578033  0.45691528  0.45033005  1
  Cl  Cl97  1  0.61421967  0.54308472  0.95033005  1
  Cl  Cl98  1  0.38578033  0.04308472  0.54966995  1
  Cl  Cl99  1  0.11421967  0.95691528  0.04966995  1
  Cl  Cl100  1  0.83970675  0.64781285  0.32664762  1
  Cl  Cl101  1  0.66029325  0.35218715  0.82664762  1
  Cl  Cl102  1  0.33970675  0.85218715  0.67335238  1
  Cl  Cl103  1  0.16029325  0.14781285  0.17335238  1
  Cl  Cl104  1  0.59028241  0.56266057  0.40190354  1
  Cl  Cl105  1  0.90971759  0.43733943  0.90190354  1
  Cl  Cl106  1  0.09028241  0.93733943  0.59809646  1
  Cl  Cl107  1  0.40971759  0.06266057  0.09809646  1
  Cl  Cl108  1  0.66346414  0.84507439  0.39990382  1
  Cl  Cl109  1  0.83653586  0.15492561  0.89990382  1
  Cl  Cl110  1  0.16346414  0.65492561  0.60009618  1
  Cl  Cl111  1  0.33653586  0.34507439  0.10009618  1
