# generated using pymatgen
data_V2H10Se2O13
_symmetry_space_group_name_H-M   'P 1'
_cell_length_a   6.36846406
_cell_length_b   9.93273824
_cell_length_c   10.77872262
_cell_angle_alpha   114.31453936
_cell_angle_beta   90.00000000
_cell_angle_gamma   108.69797282
_symmetry_Int_Tables_number   1
_chemical_formula_structural   V2H10Se2O13
_chemical_formula_sum   'V4 H20 Se4 O26'
_cell_volume   581.62824324
_cell_formula_units_Z   2
loop_
 _symmetry_equiv_pos_site_id
 _symmetry_equiv_pos_as_xyz
  1  'x, y, z'
loop_
 _atom_site_type_symbol
 _atom_site_label
 _atom_site_symmetry_multiplicity
 _atom_site_fract_x
 _atom_site_fract_y
 _atom_site_fract_z
 _atom_site_occupancy
  V  V0  1  0.06709255  0.72722013  0.39356373  1
  V  V1  1  0.33987242  0.27277987  0.10643627  1
  V  V2  1  0.93290745  0.27277987  0.60643627  1
  V  V3  1  0.66012758  0.72722013  0.89356373  1
  H  H4  1  0.31757912  0.96733362  0.62059626  1
  H  H5  1  0.35024551  0.03266638  0.87940374  1
  H  H6  1  0.68242088  0.03266638  0.37940374  1
  H  H7  1  0.64975449  0.96733362  0.12059626  1
  H  H8  1  0.21346614  0.05281942  0.55008059  1
  H  H9  1  0.16064672  0.94718058  0.94991941  1
  H  H10  1  0.78653386  0.94718058  0.44991941  1
  H  H11  1  0.83935328  0.05281942  0.05008059  1
  H  H12  1  0.89839640  0.73446130  0.64483974  1
  H  H13  1  0.16393510  0.26553870  0.85516026  1
  H  H14  1  0.10160360  0.26553870  0.35516026  1
  H  H15  1  0.83606490  0.73446130  0.14483974  1
  H  H16  1  0.04570975  0.62539972  0.61611873  1
  H  H17  1  0.42031003  0.37460028  0.88388127  1
  H  H18  1  0.95429025  0.37460028  0.38388127  1
  H  H19  1  0.57968997  0.62539972  0.11611873  1
  H  H20  1  0.36071360  0.90939057  0.23467425  1
  H  H21  1  0.45132302  0.09060943  0.26532575  1
  H  H22  1  0.63928640  0.09060943  0.76532575  1
  H  H23  1  0.54867698  0.90939057  0.73467425  1
  Se  Se24  1  0.91583965  0.39992304  0.11577897  1
  Se  Se25  1  0.51591661  0.60007696  0.38422103  1
  Se  Se26  1  0.08416035  0.60007696  0.88422103  1
  Se  Se27  1  0.48408339  0.39992304  0.61577897  1
  O  O28  1  0.64083085  0.28533124  0.05069333  1
  O  O29  1  0.35549961  0.71466876  0.44930667  1
  O  O30  1  0.35916915  0.71466876  0.94930667  1
  O  O31  1  0.64450039  0.28533124  0.55069333  1
  O  O32  1  0.91474565  0.48688947  0.29427473  1
  O  O33  1  0.42785619  0.51311053  0.20572527  1
  O  O34  1  0.08525435  0.51311053  0.70572527  1
  O  O35  1  0.57214381  0.48688947  0.79427473  1
  O  O36  1  0.00977809  0.24579484  0.09292630  1
  O  O37  1  0.76398326  0.75420516  0.40707370  1
  O  O38  1  0.99022191  0.75420516  0.90707370  1
  O  O39  1  0.23601674  0.24579484  0.59292630  1
  O  O40  1  0.19145360  0.95065696  0.55326117  1
  O  O41  1  0.24079664  0.04934304  0.94673883  1
  O  O42  1  0.80854640  0.04934304  0.44673883  1
  O  O43  1  0.75920336  0.95065696  0.05326117  1
  O  O44  1  0.11534981  0.76430903  0.25678796  1
  O  O45  1  0.35104078  0.23569097  0.24321204  1
  O  O46  1  0.88465019  0.23569097  0.74321204  1
  O  O47  1  0.64895922  0.76430903  0.75678796  1
  O  O48  1  0.97736761  0.67729838  0.57531356  1
  O  O49  1  0.30006923  0.32270162  0.92468644  1
  O  O50  1  0.02263239  0.32270162  0.42468644  1
  O  O51  1  0.69993077  0.67729838  0.07531356  1
  O  O52  1  0.49938142  0.00000000  0.25000000  1
  O  O53  1  0.50061858  0.00000000  0.75000000  1
