# generated using pymatgen
data_NpPS4
_symmetry_space_group_name_H-M   'P 1'
_cell_length_a   10.97359443
_cell_length_b   10.97359443
_cell_length_c   12.29607892
_cell_angle_alpha   116.50163334
_cell_angle_beta   116.50163334
_cell_angle_gamma   90.00000000
_symmetry_Int_Tables_number   1
_chemical_formula_structural   NpPS4
_chemical_formula_sum   'Np8 P8 S32'
_cell_volume   1148.62835863
_cell_formula_units_Z   8
loop_
 _symmetry_equiv_pos_site_id
 _symmetry_equiv_pos_as_xyz
  1  'x, y, z'
loop_
 _atom_site_type_symbol
 _atom_site_label
 _atom_site_symmetry_multiplicity
 _atom_site_fract_x
 _atom_site_fract_y
 _atom_site_fract_z
 _atom_site_occupancy
  Np  Np0  1  0.87500000  0.12500000  0.75000000  1
  Np  Np1  1  0.37500000  0.62500000  0.75000000  1
  Np  Np2  1  0.12500000  0.87500000  0.25000000  1
  Np  Np3  1  0.62500000  0.37500000  0.25000000  1
  Np  Np4  1  0.12500000  0.37500000  0.25000000  1
  Np  Np5  1  0.62500000  0.87500000  0.25000000  1
  Np  Np6  1  0.37500000  0.12500000  0.75000000  1
  Np  Np7  1  0.87500000  0.62500000  0.75000000  1
  P  P8  1  0.25000000  0.28668973  -0.00000000  1
  P  P9  1  0.25000000  0.78668973  -0.00000000  1
  P  P10  1  0.21331027  0.75000000  0.50000000  1
  P  P11  1  0.78668973  0.25000000  0.50000000  1
  P  P12  1  0.75000000  0.71331027  0.00000000  1
  P  P13  1  0.75000000  0.21331027  0.00000000  1
  P  P14  1  0.71331027  0.75000000  0.50000000  1
  P  P15  1  0.28668973  0.25000000  0.50000000  1
  S  S16  1  0.59434115  0.15709470  0.32086370  1
  S  S17  1  0.22652254  0.65709470  0.32086370  1
  S  S18  1  0.66376900  0.72652254  0.82086370  1
  S  S19  1  0.65709470  0.22652254  0.82086370  1
  S  S20  1  0.40565885  0.84290530  0.67913630  1
  S  S21  1  0.77347746  0.34290530  0.67913630  1
  S  S22  1  0.33623100  0.27347746  0.17913630  1
  S  S23  1  0.34290530  0.77347746  0.17913630  1
  S  S24  1  0.09434115  0.16376900  0.32086370  1
  S  S25  1  0.72652254  0.66376900  0.32086370  1
  S  S26  1  0.16376900  0.09434115  0.82086370  1
  S  S27  1  0.15709470  0.59434115  0.82086370  1
  S  S28  1  0.90565885  0.83623100  0.67913630  1
  S  S29  1  0.27347746  0.33623100  0.67913630  1
  S  S30  1  0.83623100  0.90565885  0.17913630  1
  S  S31  1  0.84290530  0.40565885  0.17913630  1
  S  S32  1  0.88660317  0.09239938  0.50491044  1
  S  S33  1  0.11830727  0.59239938  0.50491044  1
  S  S34  1  0.91251105  0.61830727  0.00491044  1
  S  S35  1  0.59239938  0.11830727  0.00491044  1
  S  S36  1  0.11339683  0.90760062  0.49508956  1
  S  S37  1  0.88169273  0.40760062  0.49508956  1
  S  S38  1  0.08748895  0.38169273  0.99508956  1
  S  S39  1  0.40760062  0.88169273  0.99508956  1
  S  S40  1  0.38660317  0.41251105  0.50491044  1
  S  S41  1  0.61830727  0.91251105  0.50491044  1
  S  S42  1  0.41251105  0.38660317  0.00491044  1
  S  S43  1  0.09239938  0.88660317  0.00491044  1
  S  S44  1  0.61339683  0.58748895  0.49508956  1
  S  S45  1  0.38169273  0.08748895  0.49508956  1
  S  S46  1  0.58748895  0.61339683  0.99508956  1
  S  S47  1  0.90760062  0.11339683  0.99508956  1
