# generated using pymatgen
data_Mo3P2PbO14
_symmetry_space_group_name_H-M   'P 1'
_cell_length_a   6.52770523
_cell_length_b   8.57391636
_cell_length_c   10.84283034
_cell_angle_alpha   112.98154616
_cell_angle_beta   90.00000000
_cell_angle_gamma   90.00000000
_symmetry_Int_Tables_number   1
_chemical_formula_structural   Mo3P2PbO14
_chemical_formula_sum   'Mo6 P4 Pb2 O28'
_cell_volume   558.68610527
_cell_formula_units_Z   2
loop_
 _symmetry_equiv_pos_site_id
 _symmetry_equiv_pos_as_xyz
  1  'x, y, z'
loop_
 _atom_site_type_symbol
 _atom_site_label
 _atom_site_symmetry_multiplicity
 _atom_site_fract_x
 _atom_site_fract_y
 _atom_site_fract_z
 _atom_site_occupancy
  Mo  Mo0  1  0.75000000  0.75599222  0.98917306  1
  Mo  Mo1  1  0.25000000  0.24400778  0.01082694  1
  Mo  Mo2  1  0.75000000  0.74585145  0.66839327  1
  Mo  Mo3  1  0.25000000  0.25414855  0.33160673  1
  Mo  Mo4  1  0.75000000  0.16593562  0.62393358  1
  Mo  Mo5  1  0.25000000  0.83406438  0.37606642  1
  P  P6  1  0.75000000  0.15514363  0.93597106  1
  P  P7  1  0.25000000  0.84485637  0.06402894  1
  P  P8  1  0.25000000  0.87911796  0.69892955  1
  P  P9  1  0.75000000  0.12088204  0.30107045  1
  Pb  Pb10  1  0.25000000  0.50610514  0.73848422  1
  Pb  Pb11  1  0.75000000  0.49389486  0.26151578  1
  O  O12  1  0.75000000  0.60377193  0.05633333  1
  O  O13  1  0.25000000  0.39622807  0.94366667  1
  O  O14  1  0.75000000  0.96582015  0.16927499  1
  O  O15  1  0.25000000  0.03417985  0.83072501  1
  O  O16  1  0.06305186  0.77014317  0.97089248  1
  O  O17  1  0.56305186  0.22985683  0.02910752  1
  O  O18  1  0.93694814  0.22985683  0.02910752  1
  O  O19  1  0.43694814  0.77014317  0.97089248  1
  O  O20  1  0.75000000  0.63134313  0.79624749  1
  O  O21  1  0.25000000  0.36865687  0.20375251  1
  O  O22  1  0.75000000  0.95945850  0.88122544  1
  O  O23  1  0.25000000  0.04054150  0.11877456  1
  O  O24  1  0.75000000  0.57525202  0.51502081  1
  O  O25  1  0.25000000  0.42474798  0.48497919  1
  O  O26  1  0.75000000  0.94246255  0.61202004  1
  O  O27  1  0.25000000  0.05753745  0.38797996  1
  O  O28  1  0.06445458  0.76161257  0.69119250  1
  O  O29  1  0.56445458  0.23838743  0.30880750  1
  O  O30  1  0.93554542  0.23838743  0.30880750  1
  O  O31  1  0.43554542  0.76161257  0.69119250  1
  O  O32  1  0.52548230  0.28501256  0.63771848  1
  O  O33  1  0.02548230  0.71498744  0.36228152  1
  O  O34  1  0.47451770  0.71498744  0.36228152  1
  O  O35  1  0.97451770  0.28501256  0.63771848  1
  O  O36  1  0.75000000  0.22351662  0.82428048  1
  O  O37  1  0.25000000  0.77648338  0.17571952  1
  O  O38  1  0.75000000  0.06316008  0.41946619  1
  O  O39  1  0.25000000  0.93683992  0.58053381  1
