# generated using pymatgen
data_Y11Cd45
_symmetry_space_group_name_H-M   'P 1'
_cell_length_a   15.40422960
_cell_length_b   15.40422960
_cell_length_c   15.40422960
_cell_angle_alpha   60.00000000
_cell_angle_beta   60.00000000
_cell_angle_gamma   60.00000000
_symmetry_Int_Tables_number   1
_chemical_formula_structural   Y11Cd45
_chemical_formula_sum   'Y22 Cd90'
_cell_volume   2584.66910552
_cell_formula_units_Z   2
loop_
 _symmetry_equiv_pos_site_id
 _symmetry_equiv_pos_as_xyz
  1  'x, y, z'
loop_
 _atom_site_type_symbol
 _atom_site_label
 _atom_site_symmetry_multiplicity
 _atom_site_fract_x
 _atom_site_fract_y
 _atom_site_fract_z
 _atom_site_occupancy
  Y  Y0  1  0.00000000  -0.00000000  -0.00000000  1
  Y  Y1  1  0.36033853  0.66683451  0.98641348  1
  Y  Y2  1  0.36033853  0.98641348  0.98641348  1
  Y  Y3  1  0.36033853  0.98641348  0.66683451  1
  Y  Y4  1  0.66683451  0.36033853  0.98641348  1
  Y  Y5  1  0.98641348  0.36033853  0.66683451  1
  Y  Y6  1  0.98641348  0.36033853  0.98641348  1
  Y  Y7  1  0.98641348  0.98641348  0.36033853  1
  Y  Y8  1  0.98641348  0.66683451  0.36033853  1
  Y  Y9  1  0.66683451  0.98641348  0.36033853  1
  Y  Y10  1  0.98641348  0.98641348  0.66683451  1
  Y  Y11  1  0.66683451  0.98641348  0.98641348  1
  Y  Y12  1  0.98641348  0.66683451  0.98641348  1
  Y  Y13  1  0.75000000  0.75000000  0.75000000  1
  Y  Y14  1  0.21996418  0.59334527  0.59334527  1
  Y  Y15  1  0.59334527  0.21996418  0.59334527  1
  Y  Y16  1  0.59334527  0.59334527  0.21996418  1
  Y  Y17  1  0.59334527  0.59334527  0.59334527  1
  Y  Y18  1  0.98601191  0.33799603  0.33799603  1
  Y  Y19  1  0.33799603  0.98601191  0.33799603  1
  Y  Y20  1  0.33799603  0.33799603  0.98601191  1
  Y  Y21  1  0.33799603  0.33799603  0.33799603  1
  Cd  Cd22  1  0.25039782  0.91653406  0.91653406  1
  Cd  Cd23  1  0.91653406  0.25039782  0.91653406  1
  Cd  Cd24  1  0.91653406  0.91653406  0.25039782  1
  Cd  Cd25  1  0.91653406  0.91653406  0.91653406  1
  Cd  Cd26  1  0.74017520  0.08660827  0.08660827  1
  Cd  Cd27  1  0.08660827  0.74017520  0.08660827  1
  Cd  Cd28  1  0.08660827  0.08660827  0.74017520  1
  Cd  Cd29  1  0.08660827  0.08660827  0.08660827  1
  Cd  Cd30  1  0.15626292  0.84373708  0.84373708  1
  Cd  Cd31  1  0.15626292  0.84373708  0.15626292  1
  Cd  Cd32  1  0.15626292  0.15626292  0.84373708  1
  Cd  Cd33  1  0.84373708  0.15626292  0.15626292  1
  Cd  Cd34  1  0.84373708  0.15626292  0.84373708  1
  Cd  Cd35  1  0.84373708  0.84373708  0.15626292  1
  Cd  Cd36  1  0.98215104  0.79969125  0.60907886  1
  Cd  Cd37  1  0.98215104  0.60907886  0.60907886  1
  Cd  Cd38  1  0.98215104  0.60907886  0.79969125  1
  Cd  Cd39  1  0.79969125  0.98215104  0.60907886  1
  Cd  Cd40  1  0.60907886  0.98215104  0.79969125  1
  Cd  Cd41  1  0.60907886  0.98215104  0.60907886  1
  Cd  Cd42  1  0.60907886  0.60907886  0.98215104  1
  Cd  Cd43  1  0.60907886  0.79969125  0.98215104  1
  Cd  Cd44  1  0.79969125  0.60907886  0.98215104  1
  Cd  Cd45  1  0.60907886  0.60907886  0.79969125  1
  Cd  Cd46  1  0.79969125  0.60907886  0.60907886  1
  Cd  Cd47  1  0.60907886  0.79969125  0.60907886  1
  Cd  Cd48  1  0.48961774  0.83679409  0.83679409  1
  Cd  Cd49  1  0.83679409  0.48961774  0.83679409  1
  Cd  Cd50  1  0.83679409  0.83679409  0.48961774  1
  Cd  Cd51  1  0.83679409  0.83679409  0.83679409  1
  Cd  Cd52  1  0.13760193  0.38902419  0.73668694  1
  Cd  Cd53  1  0.13760193  0.73668694  0.73668694  1
  Cd  Cd54  1  0.13760193  0.73668694  0.38902419  1
  Cd  Cd55  1  0.38902419  0.13760193  0.73668694  1
  Cd  Cd56  1  0.73668694  0.13760193  0.38902419  1
  Cd  Cd57  1  0.73668694  0.13760193  0.73668694  1
  Cd  Cd58  1  0.73668694  0.73668694  0.13760193  1
  Cd  Cd59  1  0.73668694  0.38902419  0.13760193  1
  Cd  Cd60  1  0.38902419  0.73668694  0.13760193  1
  Cd  Cd61  1  0.73668694  0.73668694  0.38902419  1
  Cd  Cd62  1  0.38902419  0.73668694  0.73668694  1
  Cd  Cd63  1  0.73668694  0.38902419  0.73668694  1
  Cd  Cd64  1  0.50000000  0.50000000  0.50000000  1
  Cd  Cd65  1  0.73081064  0.55061484  0.35928726  1
  Cd  Cd66  1  0.73081064  0.35928726  0.35928726  1
  Cd  Cd67  1  0.73081064  0.35928726  0.55061484  1
  Cd  Cd68  1  0.55061484  0.73081064  0.35928726  1
  Cd  Cd69  1  0.35928726  0.73081064  0.55061484  1
  Cd  Cd70  1  0.35928726  0.73081064  0.35928726  1
  Cd  Cd71  1  0.35928726  0.35928726  0.73081064  1
  Cd  Cd72  1  0.35928726  0.55061484  0.73081064  1
  Cd  Cd73  1  0.55061484  0.35928726  0.73081064  1
  Cd  Cd74  1  0.35928726  0.35928726  0.55061484  1
  Cd  Cd75  1  0.55061484  0.35928726  0.35928726  1
  Cd  Cd76  1  0.35928726  0.55061484  0.35928726  1
  Cd  Cd77  1  0.85866195  0.16651889  0.48740958  1
  Cd  Cd78  1  0.85866195  0.48740958  0.48740958  1
  Cd  Cd79  1  0.85866195  0.48740958  0.16651889  1
  Cd  Cd80  1  0.16651889  0.85866195  0.48740958  1
  Cd  Cd81  1  0.48740958  0.85866195  0.16651889  1
  Cd  Cd82  1  0.48740958  0.85866195  0.48740958  1
  Cd  Cd83  1  0.48740958  0.48740958  0.85866195  1
  Cd  Cd84  1  0.48740958  0.16651889  0.85866195  1
  Cd  Cd85  1  0.16651889  0.48740958  0.85866195  1
  Cd  Cd86  1  0.48740958  0.48740958  0.16651889  1
  Cd  Cd87  1  0.16651889  0.48740958  0.48740958  1
  Cd  Cd88  1  0.48740958  0.16651889  0.48740958  1
  Cd  Cd89  1  0.25000000  0.25000000  0.25000000  1
  Cd  Cd90  1  0.49063167  0.16978944  0.16978944  1
  Cd  Cd91  1  0.16978944  0.49063167  0.16978944  1
  Cd  Cd92  1  0.16978944  0.16978944  0.49063167  1
  Cd  Cd93  1  0.16978944  0.16978944  0.16978944  1
  Cd  Cd94  1  0.41212387  0.08787613  0.08787613  1
  Cd  Cd95  1  0.41212387  0.08787613  0.41212387  1
  Cd  Cd96  1  0.41212387  0.41212387  0.08787613  1
  Cd  Cd97  1  0.08787613  0.41212387  0.41212387  1
  Cd  Cd98  1  0.08787613  0.41212387  0.08787613  1
  Cd  Cd99  1  0.08787613  0.08787613  0.41212387  1
  Cd  Cd100  1  0.59562616  0.93253733  0.23591826  1
  Cd  Cd101  1  0.59562616  0.23591826  0.23591826  1
  Cd  Cd102  1  0.59562616  0.23591826  0.93253733  1
  Cd  Cd103  1  0.93253733  0.59562616  0.23591826  1
  Cd  Cd104  1  0.23591826  0.59562616  0.93253733  1
  Cd  Cd105  1  0.23591826  0.59562616  0.23591826  1
  Cd  Cd106  1  0.23591826  0.23591826  0.59562616  1
  Cd  Cd107  1  0.23591826  0.93253733  0.59562616  1
  Cd  Cd108  1  0.93253733  0.23591826  0.59562616  1
  Cd  Cd109  1  0.23591826  0.23591826  0.93253733  1
  Cd  Cd110  1  0.93253733  0.23591826  0.23591826  1
  Cd  Cd111  1  0.23591826  0.93253733  0.23591826  1
