# generated using pymatgen
data_MgFe4H42(S3O23)2
_symmetry_space_group_name_H-M   'P 1'
_cell_length_a   7.44992509
_cell_length_b   7.51928285
_cell_length_c   18.66813724
_cell_angle_alpha   98.73771376
_cell_angle_beta   95.44990711
_cell_angle_gamma   102.89691887
_symmetry_Int_Tables_number   1
_chemical_formula_structural   MgFe4H42(S3O23)2
_chemical_formula_sum   'Mg1 Fe4 H42 S6 O46'
_cell_volume   998.48639299
_cell_formula_units_Z   1
loop_
 _symmetry_equiv_pos_site_id
 _symmetry_equiv_pos_as_xyz
  1  'x, y, z'
loop_
 _atom_site_type_symbol
 _atom_site_label
 _atom_site_symmetry_multiplicity
 _atom_site_fract_x
 _atom_site_fract_y
 _atom_site_fract_z
 _atom_site_occupancy
  Mg  Mg0  1  -0.00000000  -0.00000000  -0.00000000  1
  Fe  Fe1  1  0.46140142  0.21566592  0.68506551  1
  Fe  Fe2  1  0.53859858  0.78433408  0.31493449  1
  Fe  Fe3  1  0.18318749  0.39333610  0.33099855  1
  Fe  Fe4  1  0.81681251  0.60666390  0.66900145  1
  H  H5  1  0.53295685  0.50573682  0.37748246  1
  H  H6  1  0.46704315  0.49426318  0.62251754  1
  H  H7  1  0.85117758  0.74204348  0.24909053  1
  H  H8  1  0.14882242  0.25795652  0.75090947  1
  H  H9  1  0.73133350  0.54518471  0.26145141  1
  H  H10  1  0.26866650  0.45481529  0.73854859  1
  H  H11  1  0.84696748  0.89096531  0.41254434  1
  H  H12  1  0.15303252  0.10903469  0.58745566  1
  H  H13  1  0.69085081  0.98613924  0.44550367  1
  H  H14  1  0.30914919  0.01386076  0.55449633  1
  H  H15  1  0.97807113  0.77981037  0.10297159  1
  H  H16  1  0.02192887  0.22018963  0.89702841  1
  H  H17  1  0.92805916  0.64884019  0.02727644  1
  H  H18  1  0.07194084  0.35115981  0.97272356  1
  H  H19  1  0.81259371  0.83619889  0.57428698  1
  H  H20  1  0.18740629  0.16380111  0.42571302  1
  H  H21  1  0.74554478  0.62775053  0.52497991  1
  H  H22  1  0.25445522  0.37224947  0.47502009  1
  H  H23  1  0.68192517  0.11740028  0.01800282  1
  H  H24  1  0.31807483  0.88259972  0.98199718  1
  H  H25  1  0.62866156  0.92966469  0.95797705  1
  H  H26  1  0.37133844  0.07033531  0.04202295  1
  H  H27  1  0.61718138  0.85201311  0.71999055  1
  H  H28  1  0.38281862  0.14798689  0.28000945  1
  H  H29  1  0.82764670  0.95526437  0.74948899  1
  H  H30  1  0.17235330  0.04473563  0.25051101  1
  H  H31  1  0.91056534  0.70334811  0.88964344  1
  H  H32  1  0.08943466  0.29665189  0.11035656  1
  H  H33  1  0.03646141  0.87300888  0.86135541  1
  H  H34  1  0.96353859  0.12699112  0.13864459  1
  H  H35  1  0.55529685  0.37260774  0.07274641  1
  H  H36  1  0.44470315  0.62739226  0.92725359  1
  H  H37  1  0.60603887  0.25149968  0.12951501  1
  H  H38  1  0.39396113  0.74850032  0.87048499  1
  H  H39  1  0.70570410  0.36452599  0.45989863  1
  H  H40  1  0.29429590  0.63547401  0.54010137  1
  H  H41  1  0.83967828  0.50725206  0.42278223  1
  H  H42  1  0.16032172  0.49274794  0.57721777  1
  H  H43  1  0.33516885  0.32127828  0.92655073  1
  H  H44  1  0.66483115  0.67872172  0.07344927  1
  H  H45  1  0.49501843  0.34644774  0.87631733  1
  H  H46  1  0.50498157  0.65355226  0.12368267  1
  S  S47  1  0.76535285  0.16175262  0.25959340  1
  S  S48  1  0.23464715  0.83824738  0.74040660  1
  S  S49  1  0.78946802  0.19404559  0.57968741  1
  S  S50  1  0.21053198  0.80595441  0.42031259  1
  S  S51  1  0.82278627  0.37044968  0.80676305  1
  S  S52  1  0.17721373  0.62955032  0.19323695  1
  O  O53  1  0.91951595  0.24567259  0.32275171  1
  O  O54  1  0.08048405  0.75432741  0.67724829  1
  O  O55  1  0.69262369  0.30903823  0.23174246  1
  O  O56  1  0.30737631  0.69096177  0.76825754  1
  O  O57  1  0.38973078  0.95255489  0.70773031  1
  O  O58  1  0.61026922  0.04744511  0.29226969  1
  O  O59  1  0.16997783  0.95773098  0.79675186  1
  O  O60  1  0.83002217  0.04226902  0.20324814  1
  O  O61  1  0.89725695  0.39297024  0.60507775  1
  O  O62  1  0.10274305  0.60702976  0.39492225  1
  O  O63  1  0.67999107  0.17702676  0.50744109  1
  O  O64  1  0.32000893  0.82297324  0.49255891  1
  O  O65  1  0.66512809  0.13502725  0.63484634  1
  O  O66  1  0.33487191  0.86497275  0.36515366  1
  O  O67  1  0.92042045  0.07256432  0.57594091  1
  O  O68  1  0.07957955  0.92743568  0.42405909  1
  O  O69  1  0.85166270  0.47072408  0.88212401  1
  O  O70  1  0.14833730  0.52927592  0.11787599  1
  O  O71  1  0.11346724  0.49565194  0.24320807  1
  O  O72  1  0.88653276  0.50434806  0.75679193  1
  O  O73  1  0.92576781  0.22270938  0.79882956  1
  O  O74  1  0.07423219  0.77729062  0.20117044  1
  O  O75  1  0.61646019  0.28648103  0.78447691  1
  O  O76  1  0.38353981  0.71351897  0.21552309  1
  O  O77  1  0.44403860  0.53469836  0.34035563  1
  O  O78  1  0.55596140  0.46530164  0.65964437  1
  O  O79  1  0.25000184  0.31754375  0.72544782  1
  O  O80  1  0.74999816  0.68245625  0.27455218  1
  O  O81  1  0.28941714  0.12170761  0.58841147  1
  O  O82  1  0.71058286  0.87829239  0.41158853  1
  O  O83  1  0.90955863  0.76465240  0.05332168  1
  O  O84  1  0.09044137  0.23534760  0.94667832  1
  O  O85  1  0.24390978  0.29643811  0.42483558  1
  O  O86  1  0.75609022  0.70356189  0.57516442  1
  O  O87  1  0.26627712  0.96748038  0.01568631  1
  O  O88  1  0.73372288  0.03251962  0.98431369  1
  O  O89  1  0.25575546  0.16602934  0.27279480  1
  O  O90  1  0.74424454  0.83397066  0.72720520  1
  O  O91  1  0.95630949  0.84011356  0.89898532  1
  O  O92  1  0.04369051  0.15988644  0.10101468  1
  O  O93  1  0.56549154  0.24363250  0.07702499  1
  O  O94  1  0.43450846  0.75636750  0.92297501  1
  O  O95  1  0.72227723  0.48665620  0.44397711  1
  O  O96  1  0.27772277  0.51334380  0.55602289  1
  O  O97  1  0.45247762  0.40426795  0.91986735  1
  O  O98  1  0.54752238  0.59573205  0.08013265  1
