# generated using pymatgen
data_H6C(NO)2
_symmetry_space_group_name_H-M   'P 1'
_cell_length_a   7.66446939
_cell_length_b   7.99236545
_cell_length_c   7.99236545
_cell_angle_alpha   73.73480341
_cell_angle_beta   61.34810466
_cell_angle_gamma   61.34810466
_symmetry_Int_Tables_number   1
_chemical_formula_structural   H6C(NO)2
_chemical_formula_sum   'H24 C4 N8 O8'
_cell_volume   376.22854484
_cell_formula_units_Z   4
loop_
 _symmetry_equiv_pos_site_id
 _symmetry_equiv_pos_as_xyz
  1  'x, y, z'
loop_
 _atom_site_type_symbol
 _atom_site_label
 _atom_site_symmetry_multiplicity
 _atom_site_fract_x
 _atom_site_fract_y
 _atom_site_fract_z
 _atom_site_occupancy
  H  H0  1  0.77975315  0.19023615  0.92106335  1
  H  H1  1  0.89105266  0.80976385  0.07893665  1
  H  H2  1  0.72024685  0.07893665  0.80976385  1
  H  H3  1  0.60894734  0.92106335  0.19023615  1
  H  H4  1  0.22024685  0.80976385  0.07893665  1
  H  H5  1  0.10894734  0.19023615  0.92106335  1
  H  H6  1  0.27975315  0.92106335  0.19023615  1
  H  H7  1  0.39105266  0.07893665  0.80976385  1
  H  H8  1  0.61147329  0.31986691  0.80533156  1
  H  H9  1  0.73667176  0.68013309  0.19466844  1
  H  H10  1  0.88852671  0.19466844  0.68013309  1
  H  H11  1  0.76332824  0.80533156  0.31986691  1
  H  H12  1  0.38852671  0.68013309  0.19466844  1
  H  H13  1  0.26332824  0.31986691  0.80533156  1
  H  H14  1  0.11147329  0.80533156  0.31986691  1
  H  H15  1  0.23667176  0.19466844  0.68013309  1
  H  H16  1  0.56608859  0.36730020  0.50052262  1
  H  H17  1  0.43391141  0.63269980  0.49947738  1
  H  H18  1  0.93391141  0.49947738  0.63269980  1
  H  H19  1  0.06608859  0.50052262  0.36730020  1
  H  H20  1  0.78585100  0.55484367  0.87345432  1
  H  H21  1  0.21414900  0.44515633  0.12654568  1
  H  H22  1  0.71414900  0.12654568  0.44515633  1
  H  H23  1  0.28585100  0.87345432  0.55484367  1
  C  C24  1  0.73160162  0.32528747  0.21150929  1
  C  C25  1  0.26839838  0.67471253  0.78849071  1
  C  C26  1  0.76839838  0.78849071  0.67471253  1
  C  C27  1  0.23160162  0.21150929  0.32528747  1
  N  N28  1  0.75000000  0.19622792  0.80377208  1
  N  N29  1  0.75000000  0.80377208  0.19622792  1
  N  N30  1  0.25000000  0.80377208  0.19622792  1
  N  N31  1  0.25000000  0.19622792  0.80377208  1
  N  N32  1  0.66497161  0.26881599  0.40124079  1
  N  N33  1  0.33502839  0.73118401  0.59875921  1
  N  N34  1  0.83502839  0.59875921  0.73118401  1
  N  N35  1  0.16497161  0.40124079  0.26881599  1
  O  O36  1  0.85704486  0.19360490  0.09230539  1
  O  O37  1  0.14295514  0.80639510  0.90769461  1
  O  O38  1  0.64295514  0.90769461  0.80639510  1
  O  O39  1  0.35704486  0.09230539  0.19360490  1
  O  O40  1  0.66586838  0.50628435  0.16197890  1
  O  O41  1  0.33413162  0.49371565  0.83802110  1
  O  O42  1  0.83413162  0.83802110  0.49371565  1
  O  O43  1  0.16586838  0.16197890  0.50628435  1
