# generated using pymatgen
data_MgB2H13N3
_symmetry_space_group_name_H-M   'P 1'
_cell_length_a   8.09363993
_cell_length_b   8.86531525
_cell_length_c   9.03511730
_cell_angle_alpha   90.00000000
_cell_angle_beta   90.00000000
_cell_angle_gamma   95.40576346
_symmetry_Int_Tables_number   1
_chemical_formula_structural   MgB2H13N3
_chemical_formula_sum   'Mg4 B8 H52 N12'
_cell_volume   645.41049402
_cell_formula_units_Z   4
loop_
 _symmetry_equiv_pos_site_id
 _symmetry_equiv_pos_as_xyz
  1  'x, y, z'
loop_
 _atom_site_type_symbol
 _atom_site_label
 _atom_site_symmetry_multiplicity
 _atom_site_fract_x
 _atom_site_fract_y
 _atom_site_fract_z
 _atom_site_occupancy
  Mg  Mg0  1  0.28204838  0.72818361  0.07570583  1
  Mg  Mg1  1  0.71795162  0.77181639  0.57570583  1
  Mg  Mg2  1  0.71795162  0.27181639  0.92429417  1
  Mg  Mg3  1  0.28204838  0.22818361  0.42429417  1
  B  B4  1  0.19889842  0.03349896  0.22542239  1
  B  B5  1  0.80110158  0.46650104  0.72542239  1
  B  B6  1  0.80110158  0.96650104  0.77457761  1
  B  B7  1  0.19889842  0.53349896  0.27457761  1
  B  B8  1  0.34905573  0.75492781  0.74176800  1
  B  B9  1  0.65094427  0.74507219  0.24176800  1
  B  B10  1  0.65094427  0.24507219  0.25823200  1
  B  B11  1  0.34905573  0.25492781  0.75823200  1
  H  H12  1  0.20823898  0.17539510  0.21867645  1
  H  H13  1  0.79176102  0.32460490  0.71867645  1
  H  H14  1  0.79176102  0.82460490  0.78132355  1
  H  H15  1  0.20823898  0.67539510  0.28132355  1
  H  H16  1  0.05206725  0.99099723  0.20446517  1
  H  H17  1  0.94793275  0.50900277  0.70446517  1
  H  H18  1  0.94793275  0.00900277  0.79553483  1
  H  H19  1  0.05206725  0.49099723  0.29553483  1
  H  H20  1  0.23641364  0.99370067  0.35177272  1
  H  H21  1  0.76358636  0.50629933  0.85177272  1
  H  H22  1  0.76358636  0.00629933  0.64822728  1
  H  H23  1  0.23641364  0.49370067  0.14822728  1
  H  H24  1  0.29402774  0.01431795  0.00711110  1
  H  H25  1  0.70597226  0.48568205  0.50711110  1
  H  H26  1  0.70597226  0.98568205  0.99288890  1
  H  H27  1  0.29402774  0.51431795  0.49288890  1
  H  H28  1  0.43570694  0.00044125  0.13260425  1
  H  H29  1  0.56429306  0.49955875  0.63260425  1
  H  H30  1  0.56429306  0.99955875  0.86739575  1
  H  H31  1  0.43570694  0.50044125  0.36739575  1
  H  H32  1  0.31897845  0.88445877  0.77567548  1
  H  H33  1  0.68102155  0.61554123  0.27567548  1
  H  H34  1  0.68102155  0.11554123  0.22432452  1
  H  H35  1  0.31897845  0.38445877  0.72432452  1
  H  H36  1  0.22565686  0.68974118  0.68210092  1
  H  H37  1  0.77434314  0.81025882  0.18210092  1
  H  H38  1  0.77434314  0.31025882  0.31789908  1
  H  H39  1  0.22565686  0.18974118  0.81789908  1
  H  H40  1  0.46203850  0.76604418  0.64755361  1
  H  H41  1  0.53796150  0.73395582  0.14755361  1
  H  H42  1  0.53796150  0.23395582  0.35244639  1
  H  H43  1  0.46203850  0.26604418  0.85244639  1
  H  H44  1  0.52284441  0.68392043  0.90354973  1
  H  H45  1  0.47715559  0.81607957  0.40354973  1
  H  H46  1  0.47715559  0.31607957  0.09645027  1
  H  H47  1  0.52284441  0.18392043  0.59645027  1
  H  H48  1  0.38156473  0.54962987  0.85846123  1
  H  H49  1  0.61843527  0.95037013  0.35846123  1
  H  H50  1  0.61843527  0.45037013  0.14153877  1
  H  H51  1  0.38156473  0.04962987  0.64153877  1
  H  H52  1  0.93941909  0.70368511  0.06207351  1
  H  H53  1  0.06058091  0.79631489  0.56207351  1
  H  H54  1  0.06058091  0.29631489  0.93792649  1
  H  H55  1  0.93941909  0.20368511  0.43792649  1
  H  H56  1  0.01281153  0.63530990  0.90866880  1
  H  H57  1  0.98718847  0.86469010  0.40866880  1
  H  H58  1  0.98718847  0.36469010  0.09133120  1
  H  H59  1  0.01281153  0.13530990  0.59133120  1
  H  H60  1  0.01725952  0.81659952  0.93256295  1
  H  H61  1  0.98274048  0.68340048  0.43256295  1
  H  H62  1  0.98274048  0.18340048  0.06743705  1
  H  H63  1  0.01725952  0.31659952  0.56743705  1
  N  N64  1  0.31401624  0.96705409  0.10872434  1
  N  N65  1  0.68598376  0.53294591  0.60872434  1
  N  N66  1  0.68598376  0.03294591  0.89127566  1
  N  N67  1  0.31401624  0.46705409  0.39127566  1
  N  N68  1  0.39861420  0.66330083  0.88139252  1
  N  N69  1  0.60138580  0.83669917  0.38139252  1
  N  N70  1  0.60138580  0.33669917  0.11860748  1
  N  N71  1  0.39861420  0.16330083  0.61860748  1
  N  N72  1  0.03523558  0.71833066  0.98733647  1
  N  N73  1  0.96476442  0.78166934  0.48733647  1
  N  N74  1  0.96476442  0.28166934  0.01266353  1
  N  N75  1  0.03523558  0.21833066  0.51266353  1
