# generated using pymatgen
data_NaZn2(BH4)5
_symmetry_space_group_name_H-M   'P 1'
_cell_length_a   9.46401929
_cell_length_b   9.96433504
_cell_length_c   16.65396061
_cell_angle_alpha   90.00000000
_cell_angle_beta   90.00000000
_cell_angle_gamma   116.42850450
_symmetry_Int_Tables_number   1
_chemical_formula_structural   NaZn2(BH4)5
_chemical_formula_sum   'Na4 Zn8 B20 H80'
_cell_volume   1406.37917715
_cell_formula_units_Z   4
loop_
 _symmetry_equiv_pos_site_id
 _symmetry_equiv_pos_as_xyz
  1  'x, y, z'
loop_
 _atom_site_type_symbol
 _atom_site_label
 _atom_site_symmetry_multiplicity
 _atom_site_fract_x
 _atom_site_fract_y
 _atom_site_fract_z
 _atom_site_occupancy
  Na  Na0  1  0.64018671  0.28310934  0.06205436  1
  Na  Na1  1  0.85981329  0.71689066  0.56205436  1
  Na  Na2  1  0.35981329  0.71689066  0.93794564  1
  Na  Na3  1  0.14018671  0.28310934  0.43794564  1
  Zn  Zn4  1  0.14729103  0.29586585  0.73562651  1
  Zn  Zn5  1  0.35270897  0.70413415  0.23562651  1
  Zn  Zn6  1  0.85270897  0.70413415  0.26437349  1
  Zn  Zn7  1  0.64729103  0.29586585  0.76437349  1
  Zn  Zn8  1  0.92696806  0.85912557  0.88052032  1
  Zn  Zn9  1  0.57303194  0.14087443  0.38052032  1
  Zn  Zn10  1  0.07303194  0.14087443  0.11947968  1
  Zn  Zn11  1  0.42696806  0.85912557  0.61947968  1
  B  B12  1  0.76238703  0.52582791  0.17494913  1
  B  B13  1  0.73761297  0.47417209  0.67494913  1
  B  B14  1  0.23761297  0.47417209  0.82505087  1
  B  B15  1  0.26238703  0.52582791  0.32505087  1
  B  B16  1  0.85538688  0.71027026  0.39656133  1
  B  B17  1  0.64461312  0.28972974  0.89656133  1
  B  B18  1  0.14461312  0.28972974  0.60343867  1
  B  B19  1  0.35538688  0.71027026  0.10343867  1
  B  B20  1  0.03261372  0.07231475  0.80514249  1
  B  B21  1  0.46738628  0.92768525  0.30514249  1
  B  B22  1  0.96738628  0.92768525  0.19485751  1
  B  B23  1  0.53261372  0.07231475  0.69485751  1
  B  B24  1  0.10432589  0.78265404  0.90716442  1
  B  B25  1  0.39567411  0.21734596  0.40716442  1
  B  B26  1  0.89567411  0.21734596  0.09283558  1
  B  B27  1  0.60432589  0.78265404  0.59283558  1
  B  B28  1  0.17789815  0.78524946  0.59316301  1
  B  B29  1  0.32210185  0.21475054  0.09316301  1
  B  B30  1  0.82210185  0.21475054  0.40683699  1
  B  B31  1  0.67789815  0.78524946  0.90683699  1
  H  H32  1  0.69479530  0.39183992  0.18742440  1
  H  H33  1  0.80520470  0.60816008  0.68742440  1
  H  H34  1  0.30520470  0.60816008  0.81257560  1
  H  H35  1  0.19479530  0.39183992  0.31257560  1
  H  H36  1  0.78240741  0.57010782  0.10663841  1
  H  H37  1  0.71759259  0.42989218  0.60663841  1
  H  H38  1  0.21759259  0.42989218  0.89336159  1
  H  H39  1  0.28240741  0.57010782  0.39336159  1
  H  H40  1  0.17577960  0.57443883  0.28983598  1
  H  H41  1  0.32422040  0.42556117  0.78983598  1
  H  H42  1  0.82422040  0.42556117  0.71016402  1
  H  H43  1  0.67577960  0.57443883  0.21016402  1
  H  H44  1  0.89516096  0.56668367  0.20819902  1
  H  H45  1  0.60483904  0.43331633  0.70819902  1
  H  H46  1  0.10483904  0.43331633  0.79180098  1
  H  H47  1  0.39516096  0.56668367  0.29180098  1
  H  H48  1  0.79616352  0.58741234  0.36114001  1
  H  H49  1  0.70383648  0.41258766  0.86114001  1
  H  H50  1  0.20383648  0.41258766  0.63885999  1
  H  H51  1  0.29616352  0.58741234  0.13885999  1
  H  H52  1  0.91053371  0.82499947  0.35297115  1
  H  H53  1  0.58946629  0.17500053  0.85297115  1
  H  H54  1  0.08946629  0.17500053  0.64702885  1
  H  H55  1  0.41053371  0.82499947  0.14702885  1
  H  H56  1  0.24972817  0.71917219  0.06656987  1
  H  H57  1  0.25027183  0.28082781  0.56656987  1
  H  H58  1  0.75027183  0.28082781  0.93343013  1
  H  H59  1  0.74972817  0.71917219  0.43343013  1
  H  H60  1  0.96824833  0.71600077  0.43333313  1
  H  H61  1  0.53175167  0.28399923  0.93333313  1
  H  H62  1  0.03175167  0.28399923  0.56666687  1
  H  H63  1  0.46824833  0.71600077  0.06666687  1
  H  H64  1  0.97381850  0.95358717  0.76773998  1
  H  H65  1  0.52618150  0.04641283  0.26773998  1
  H  H66  1  0.02618150  0.04641283  0.23226002  1
  H  H67  1  0.47381850  0.95358717  0.73226002  1
  H  H68  1  0.02703075  0.06760709  0.87953698  1
  H  H69  1  0.47296925  0.93239291  0.37953698  1
  H  H70  1  0.97296925  0.93239291  0.12046302  1
  H  H71  1  0.52703075  0.06760709  0.62046302  1
  H  H72  1  0.17476846  0.13209740  0.78969615  1
  H  H73  1  0.32523154  0.86790260  0.28969615  1
  H  H74  1  0.82523154  0.86790260  0.21030385  1
  H  H75  1  0.67476846  0.13209740  0.71030385  1
  H  H76  1  0.45626754  0.14099637  0.71274617  1
  H  H77  1  0.04373246  0.85900363  0.21274617  1
  H  H78  1  0.54373246  0.85900363  0.28725383  1
  H  H79  1  0.95626754  0.14099637  0.78725383  1
  H  H80  1  0.06048459  0.84728276  0.95941423  1
  H  H81  1  0.43951541  0.15271724  0.45941423  1
  H  H82  1  0.93951541  0.15271724  0.04058577  1
  H  H83  1  0.56048459  0.84728276  0.54058577  1
  H  H84  1  0.23629217  0.86916255  0.88609830  1
  H  H85  1  0.26370783  0.13083745  0.38609830  1
  H  H86  1  0.76370783  0.13083745  0.11390170  1
  H  H87  1  0.73629217  0.86916255  0.61390170  1
  H  H88  1  0.01894275  0.74191308  0.84525420  1
  H  H89  1  0.48105725  0.25808692  0.34525420  1
  H  H90  1  0.98105725  0.25808692  0.15474580  1
  H  H91  1  0.51894275  0.74191308  0.65474580  1
  H  H92  1  0.08522385  0.66618516  0.93844207  1
  H  H93  1  0.41477615  0.33381484  0.43844207  1
  H  H94  1  0.91477615  0.33381484  0.06155793  1
  H  H95  1  0.58522385  0.66618516  0.56155793  1
  H  H96  1  0.28175239  0.85083489  0.54087432  1
  H  H97  1  0.21824761  0.14916511  0.04087432  1
  H  H98  1  0.71824761  0.14916511  0.45912568  1
  H  H99  1  0.78175239  0.85083489  0.95912568  1
  H  H100  1  0.12576181  0.87083342  0.61438241  1
  H  H101  1  0.37423819  0.12916658  0.11438241  1
  H  H102  1  0.87423819  0.12916658  0.38561759  1
  H  H103  1  0.62576181  0.87083342  0.88561759  1
  H  H104  1  0.22673133  0.74697389  0.65555379  1
  H  H105  1  0.27326867  0.25302611  0.15555379  1
  H  H106  1  0.77326867  0.25302611  0.34444621  1
  H  H107  1  0.72673133  0.74697389  0.84444621  1
  H  H108  1  0.08873732  0.66742210  0.56303838  1
  H  H109  1  0.41126268  0.33257790  0.06303838  1
  H  H110  1  0.91126268  0.33257790  0.43696162  1
  H  H111  1  0.58873732  0.66742210  0.93696162  1
