# generated using pymatgen
data_KSmH2S2O9
_symmetry_space_group_name_H-M   'P 1'
_cell_length_a   8.67911622
_cell_length_b   10.17709057
_cell_length_c   10.50302290
_cell_angle_alpha   119.07258206
_cell_angle_beta   90.00000000
_cell_angle_gamma   90.00000000
_symmetry_Int_Tables_number   1
_chemical_formula_structural   KSmH2S2O9
_chemical_formula_sum   'K4 Sm4 H8 S8 O36'
_cell_volume   810.82531395
_cell_formula_units_Z   4
loop_
 _symmetry_equiv_pos_site_id
 _symmetry_equiv_pos_as_xyz
  1  'x, y, z'
loop_
 _atom_site_type_symbol
 _atom_site_label
 _atom_site_symmetry_multiplicity
 _atom_site_fract_x
 _atom_site_fract_y
 _atom_site_fract_z
 _atom_site_occupancy
  K  K0  1  0.31325686  0.21372173  0.19546508  1
  K  K1  1  0.81325686  0.78627827  0.30453492  1
  K  K2  1  0.68674314  0.78627827  0.80453492  1
  K  K3  1  0.18674314  0.21372173  0.69546508  1
  Sm  Sm4  1  0.34870770  0.73858489  0.46760140  1
  Sm  Sm5  1  0.84870770  0.26141511  0.03239860  1
  Sm  Sm6  1  0.65129230  0.26141511  0.53239860  1
  Sm  Sm7  1  0.15129230  0.73858489  0.96760140  1
  H  H8  1  0.02121887  0.71657132  0.55416875  1
  H  H9  1  0.52121887  0.28342868  0.94583125  1
  H  H10  1  0.97878113  0.28342868  0.44583125  1
  H  H11  1  0.47878113  0.71657132  0.05416875  1
  H  H12  1  0.02485562  0.59163770  0.39053432  1
  H  H13  1  0.52485562  0.40836230  0.10946568  1
  H  H14  1  0.97514438  0.40836230  0.60946568  1
  H  H15  1  0.47514438  0.59163770  0.89053432  1
  S  S16  1  0.68360234  0.48290899  0.38860447  1
  S  S17  1  0.18360234  0.51709101  0.11139553  1
  S  S18  1  0.31639766  0.51709101  0.61139553  1
  S  S19  1  0.81639766  0.48290899  0.88860447  1
  S  S20  1  0.36972121  0.94769710  0.32345884  1
  S  S21  1  0.86972121  0.05230290  0.17654116  1
  S  S22  1  0.63027879  0.05230290  0.67654116  1
  S  S23  1  0.13027879  0.94769710  0.82345884  1
  O  O24  1  0.80644953  0.45453727  0.27800167  1
  O  O25  1  0.30644953  0.54546273  0.22199833  1
  O  O26  1  0.19355047  0.54546273  0.72199833  1
  O  O27  1  0.69355047  0.45453727  0.77800167  1
  O  O28  1  0.57583622  0.59238216  0.38095668  1
  O  O29  1  0.07583622  0.40761784  0.11904332  1
  O  O30  1  0.42416378  0.40761784  0.61904332  1
  O  O31  1  0.92416378  0.59238216  0.88095668  1
  O  O32  1  0.60142979  0.33890638  0.35015306  1
  O  O33  1  0.10142979  0.66109362  0.14984694  1
  O  O34  1  0.39857021  0.66109362  0.64984694  1
  O  O35  1  0.89857021  0.33890638  0.85015306  1
  O  O36  1  0.75221993  0.53939728  0.53453924  1
  O  O37  1  0.25221993  0.46060272  0.96546076  1
  O  O38  1  0.24778007  0.46060272  0.46546076  1
  O  O39  1  0.74778007  0.53939728  0.03453924  1
  O  O40  1  0.28842375  0.92622400  0.19042363  1
  O  O41  1  0.78842375  0.07377600  0.30957637  1
  O  O42  1  0.71157625  0.07377600  0.80957637  1
  O  O43  1  0.21157625  0.92622400  0.69042363  1
  O  O44  1  0.44816852  0.09622768  0.38766461  1
  O  O45  1  0.94816852  0.90377232  0.11233539  1
  O  O46  1  0.55183148  0.90377232  0.61233539  1
  O  O47  1  0.05183148  0.09622768  0.88766461  1
  O  O48  1  0.25902415  0.94565287  0.43213034  1
  O  O49  1  0.75902415  0.05434713  0.06786966  1
  O  O50  1  0.74097585  0.05434713  0.56786966  1
  O  O51  1  0.24097585  0.94565287  0.93213034  1
  O  O52  1  0.48067879  0.82234220  0.28877305  1
  O  O53  1  0.98067879  0.17765780  0.21122695  1
  O  O54  1  0.51932121  0.17765780  0.71122695  1
  O  O55  1  0.01932121  0.82234220  0.78877305  1
  O  O56  1  0.05839767  0.69504737  0.45747700  1
  O  O57  1  0.55839767  0.30495263  0.04252300  1
  O  O58  1  0.94160233  0.30495263  0.54252300  1
  O  O59  1  0.44160233  0.69504737  0.95747700  1
