# generated using pymatgen
data_Fe4Te3S
_symmetry_space_group_name_H-M   'P 1'
_cell_length_a   3.60455477
_cell_length_b   7.32485078
_cell_length_c   7.32485078
_cell_angle_alpha   59.25719729
_cell_angle_beta   90.00000000
_cell_angle_gamma   90.00000000
_symmetry_Int_Tables_number   1
_chemical_formula_structural   Fe4Te3S
_chemical_formula_sum   'Fe4 Te3 S1'
_cell_volume   166.21883464
_cell_formula_units_Z   1
loop_
 _symmetry_equiv_pos_site_id
 _symmetry_equiv_pos_as_xyz
  1  'x, y, z'
loop_
 _atom_site_type_symbol
 _atom_site_label
 _atom_site_symmetry_multiplicity
 _atom_site_fract_x
 _atom_site_fract_y
 _atom_site_fract_z
 _atom_site_occupancy
  Fe  Fe0  1  0.75000000  0.11607736  0.87437011  1
  Fe  Fe1  1  0.75000000  0.62437011  0.36607736  1
  Fe  Fe2  1  0.25000000  0.37073815  0.62073815  1
  Fe  Fe3  1  0.25000000  0.87089556  0.12089556  1
  Te  Te4  1  0.75000000  0.22684313  0.47684313  1
  Te  Te5  1  0.25000000  0.26494168  0.01497827  1
  Te  Te6  1  0.25000000  0.76497827  0.51494168  1
  S  S7  1  0.75000000  0.76115574  0.01115574  1
