# generated using pymatgen
data_Te5PbO11
_symmetry_space_group_name_H-M   'P 1'
_cell_length_a   4.50100260
_cell_length_b   9.90654357
_cell_length_c   26.19077472
_cell_angle_alpha   98.03787311
_cell_angle_beta   90.00000000
_cell_angle_gamma   103.13070643
_symmetry_Int_Tables_number   1
_chemical_formula_structural   Te5PbO11
_chemical_formula_sum   'Te20 Pb4 O44'
_cell_volume   1125.51255487
_cell_formula_units_Z   4
loop_
 _symmetry_equiv_pos_site_id
 _symmetry_equiv_pos_as_xyz
  1  'x, y, z'
loop_
 _atom_site_type_symbol
 _atom_site_label
 _atom_site_symmetry_multiplicity
 _atom_site_fract_x
 _atom_site_fract_y
 _atom_site_fract_z
 _atom_site_occupancy
  Te  Te0  1  0.90730790  0.48646541  0.56003882  1
  Te  Te1  1  0.42084248  0.51353459  0.93996118  1
  Te  Te2  1  0.09269210  0.51353459  0.43996118  1
  Te  Te3  1  0.57915752  0.48646541  0.06003882  1
  Te  Te4  1  0.50448897  0.85121965  0.54431100  1
  Te  Te5  1  0.65326932  0.14878035  0.95568900  1
  Te  Te6  1  0.49551103  0.14878035  0.45568900  1
  Te  Te7  1  0.34673068  0.85121965  0.04431100  1
  Te  Te8  1  0.01664139  0.18235752  0.57770083  1
  Te  Te9  1  0.83428387  0.81764248  0.92229917  1
  Te  Te10  1  0.98335861  0.81764248  0.42229917  1
  Te  Te11  1  0.16571613  0.18235752  0.07770083  1
  Te  Te12  1  0.65633127  0.81656260  0.78542953  1
  Te  Te13  1  0.83976867  0.18343740  0.71457047  1
  Te  Te14  1  0.34366873  0.18343740  0.21457047  1
  Te  Te15  1  0.16023133  0.81656260  0.28542953  1
  Te  Te16  1  0.14755057  0.81878937  0.67663124  1
  Te  Te17  1  0.32876120  0.18121063  0.82336876  1
  Te  Te18  1  0.85244943  0.18121063  0.32336876  1
  Te  Te19  1  0.67123880  0.81878937  0.17663124  1
  Pb  Pb20  1  0.91001222  0.50534107  0.81683021  1
  Pb  Pb21  1  0.40467115  0.49465893  0.68316979  1
  Pb  Pb22  1  0.08998778  0.49465893  0.18316979  1
  Pb  Pb23  1  0.59532885  0.50534107  0.31683021  1
  O  O24  1  0.69630833  0.02064916  0.59419234  1
  O  O25  1  0.67565916  0.97935084  0.90580766  1
  O  O26  1  0.30369167  0.97935084  0.40580766  1
  O  O27  1  0.32434084  0.02064916  0.09419234  1
  O  O28  1  0.05640304  0.83474007  0.75706300  1
  O  O29  1  0.22166297  0.16525993  0.74293700  1
  O  O30  1  0.94359696  0.16525993  0.24293700  1
  O  O31  1  0.77833703  0.83474007  0.25706300  1
  O  O32  1  0.50838925  0.61996707  0.77375363  1
  O  O33  1  0.88842218  0.38003293  0.72624637  1
  O  O34  1  0.49161075  0.38003293  0.22624637  1
  O  O35  1  0.11157782  0.61996707  0.27375363  1
  O  O36  1  0.12481038  0.21933910  0.65105297  1
  O  O37  1  0.90547127  0.78066090  0.84894703  1
  O  O38  1  0.87518962  0.78066090  0.34894703  1
  O  O39  1  0.09452873  0.21933910  0.15105297  1
  O  O40  1  0.70312116  0.29004218  0.58166178  1
  O  O41  1  0.41307898  0.70995782  0.91833822  1
  O  O42  1  0.29687884  0.70995782  0.41833822  1
  O  O43  1  0.58692102  0.29004218  0.08166178  1
  O  O44  1  0.99325418  0.62375936  0.67049703  1
  O  O45  1  0.36949482  0.37624064  0.82950297  1
  O  O46  1  0.00674582  0.37624064  0.32950297  1
  O  O47  1  0.63050518  0.62375936  0.17049703  1
  O  O48  1  0.19688072  0.92391119  0.51847271  1
  O  O49  1  0.27296953  0.07608881  0.98152729  1
  O  O50  1  0.80311928  0.07608881  0.48152729  1
  O  O51  1  0.72703047  0.92391119  0.01847271  1
  O  O52  1  0.82031017  0.38275744  0.48998789  1
  O  O53  1  0.43755273  0.61724256  0.01001211  1
  O  O54  1  0.17968983  0.61724256  0.51001211  1
  O  O55  1  0.56244727  0.38275744  0.98998789  1
  O  O56  1  0.26321040  0.42777291  0.57829986  1
  O  O57  1  0.83543749  0.57222709  0.92170014  1
  O  O58  1  0.73678960  0.57222709  0.42170014  1
  O  O59  1  0.16456251  0.42777291  0.07829986  1
  O  O60  1  0.31520959  0.76867508  0.60227630  1
  O  O61  1  0.54653451  0.23132492  0.89772370  1
  O  O62  1  0.68479041  0.23132492  0.39772370  1
  O  O63  1  0.45346549  0.76867508  0.10227630  1
  O  O64  1  0.54996481  0.82315986  0.70432348  1
  O  O65  1  0.72680495  0.17684014  0.79567652  1
  O  O66  1  0.45003519  0.17684014  0.29567652  1
  O  O67  1  0.27319505  0.82315986  0.20432348  1
