# generated using pymatgen
data_MnTe6O13
_symmetry_space_group_name_H-M   'P 1'
_cell_length_a   8.90271791
_cell_length_b   8.90271791
_cell_length_c   8.90271753
_cell_angle_alpha   71.68180766
_cell_angle_beta   71.68180766
_cell_angle_gamma   71.68181370
_symmetry_Int_Tables_number   1
_chemical_formula_structural   MnTe6O13
_chemical_formula_sum   'Mn2 Te12 O26'
_cell_volume   617.46370449
_cell_formula_units_Z   2
loop_
 _symmetry_equiv_pos_site_id
 _symmetry_equiv_pos_as_xyz
  1  'x, y, z'
loop_
 _atom_site_type_symbol
 _atom_site_label
 _atom_site_symmetry_multiplicity
 _atom_site_fract_x
 _atom_site_fract_y
 _atom_site_fract_z
 _atom_site_occupancy
  Mn  Mn0  1  0.75592468  0.75592468  0.75592468  1
  Mn  Mn1  1  0.24407532  0.24407532  0.24407532  1
  Te  Te2  1  0.51163962  0.83376279  0.44420569  1
  Te  Te3  1  0.83376279  0.44420569  0.51163962  1
  Te  Te4  1  0.44420569  0.51163962  0.83376279  1
  Te  Te5  1  0.48836038  0.16623721  0.55579431  1
  Te  Te6  1  0.16623721  0.55579431  0.48836038  1
  Te  Te7  1  0.55579431  0.48836038  0.16623721  1
  Te  Te8  1  0.07858966  0.96684576  0.67852434  1
  Te  Te9  1  0.96684576  0.67852434  0.07858966  1
  Te  Te10  1  0.67852434  0.07858966  0.96684576  1
  Te  Te11  1  0.92141034  0.03315424  0.32147566  1
  Te  Te12  1  0.03315424  0.32147566  0.92141034  1
  Te  Te13  1  0.32147566  0.92141034  0.03315424  1
  O  O14  1  0.57394741  0.89856102  0.60423461  1
  O  O15  1  0.89856102  0.60423461  0.57394741  1
  O  O16  1  0.60423461  0.57394741  0.89856102  1
  O  O17  1  0.42605259  0.10143898  0.39576539  1
  O  O18  1  0.10143898  0.39576539  0.42605259  1
  O  O19  1  0.39576539  0.42605259  0.10143898  1
  O  O20  1  0.96072958  0.86189408  0.61765603  1
  O  O21  1  0.86189408  0.61765603  0.96072958  1
  O  O22  1  0.61765603  0.96072958  0.86189408  1
  O  O23  1  0.03927042  0.13810592  0.38234397  1
  O  O24  1  0.13810592  0.38234397  0.03927042  1
  O  O25  1  0.38234397  0.03927042  0.13810592  1
  O  O26  1  0.58912854  0.58912854  0.58912854  1
  O  O27  1  0.41087146  0.41087146  0.41087146  1
  O  O28  1  0.30089801  0.80521035  0.55350965  1
  O  O29  1  0.80521035  0.55350965  0.30089801  1
  O  O30  1  0.55350965  0.30089801  0.80521035  1
  O  O31  1  0.69910199  0.19478965  0.44649035  1
  O  O32  1  0.19478965  0.44649035  0.69910199  1
  O  O33  1  0.44649035  0.69910199  0.19478965  1
  O  O34  1  0.87671256  0.11237513  0.80032617  1
  O  O35  1  0.11237513  0.80032617  0.87671256  1
  O  O36  1  0.80032617  0.87671256  0.11237513  1
  O  O37  1  0.12328744  0.88762487  0.19967383  1
  O  O38  1  0.88762487  0.19967383  0.12328744  1
  O  O39  1  0.19967383  0.12328744  0.88762487  1
