# generated using pymatgen
data_Na2MgH10S2O13
_symmetry_space_group_name_H-M   'P 1'
_cell_length_a   5.85724169
_cell_length_b   8.16203784
_cell_length_c   24.37098792
_cell_angle_alpha   90.00000000
_cell_angle_beta   90.00000000
_cell_angle_gamma   96.43361154
_symmetry_Int_Tables_number   1
_chemical_formula_structural   Na2MgH10S2O13
_chemical_formula_sum   'Na8 Mg4 H40 S8 O52'
_cell_volume   1157.76709718
_cell_formula_units_Z   4
loop_
 _symmetry_equiv_pos_site_id
 _symmetry_equiv_pos_as_xyz
  1  'x, y, z'
loop_
 _atom_site_type_symbol
 _atom_site_label
 _atom_site_symmetry_multiplicity
 _atom_site_fract_x
 _atom_site_fract_y
 _atom_site_fract_z
 _atom_site_occupancy
  Na  Na0  1  0.77854939  0.95262152  0.04970808  1
  Na  Na1  1  0.22145061  0.54737848  0.54970808  1
  Na  Na2  1  0.22145061  0.04737848  0.95029192  1
  Na  Na3  1  0.77854939  0.45262152  0.45029192  1
  Na  Na4  1  0.82929511  0.65176772  0.94770835  1
  Na  Na5  1  0.17070489  0.84823228  0.44770835  1
  Na  Na6  1  0.17070489  0.34823228  0.05229165  1
  Na  Na7  1  0.82929511  0.15176772  0.55229165  1
  Mg  Mg8  1  0.46014697  0.68216422  0.13996610  1
  Mg  Mg9  1  0.53985303  0.81783578  0.63996610  1
  Mg  Mg10  1  0.53985303  0.31783578  0.86003390  1
  Mg  Mg11  1  0.46014697  0.18216422  0.36003390  1
  H  H12  1  0.91042417  0.69865576  0.12557714  1
  H  H13  1  0.08957583  0.80134424  0.62557714  1
  H  H14  1  0.08957583  0.30134424  0.87442286  1
  H  H15  1  0.91042417  0.19865576  0.37442286  1
  H  H16  1  0.78968501  0.60824981  0.07355820  1
  H  H17  1  0.21031499  0.89175019  0.57355820  1
  H  H18  1  0.21031499  0.39175019  0.92644180  1
  H  H19  1  0.78968501  0.10824981  0.42644180  1
  H  H20  1  0.55187439  0.00953896  0.15225607  1
  H  H21  1  0.44812561  0.49046104  0.65225607  1
  H  H22  1  0.44812561  0.99046104  0.84774393  1
  H  H23  1  0.55187439  0.50953896  0.34774393  1
  H  H24  1  0.31099246  0.98316311  0.12183669  1
  H  H25  1  0.68900754  0.51683689  0.62183669  1
  H  H26  1  0.68900754  0.01683689  0.87816331  1
  H  H27  1  0.31099246  0.48316311  0.37816331  1
  H  H28  1  0.07640798  0.52672534  0.17752731  1
  H  H29  1  0.92359202  0.97327466  0.67752731  1
  H  H30  1  0.92359202  0.47327466  0.82247269  1
  H  H31  1  0.07640798  0.02672534  0.32247269  1
  H  H32  1  0.16041772  0.66369043  0.22253580  1
  H  H33  1  0.83958228  0.83630957  0.72253580  1
  H  H34  1  0.83958228  0.33630957  0.77746420  1
  H  H35  1  0.16041772  0.16369043  0.27746420  1
  H  H36  1  0.40161005  0.35294488  0.17595667  1
  H  H37  1  0.59838995  0.14705512  0.67595667  1
  H  H38  1  0.59838995  0.64705512  0.82404333  1
  H  H39  1  0.40161005  0.85294488  0.32404333  1
  H  H40  1  0.65019057  0.39287306  0.14927985  1
  H  H41  1  0.34980943  0.10712694  0.64927985  1
  H  H42  1  0.34980943  0.60712694  0.85072015  1
  H  H43  1  0.65019057  0.89287306  0.35072015  1
  H  H44  1  0.68339822  0.69507595  0.24379829  1
  H  H45  1  0.31660178  0.80492405  0.74379829  1
  H  H46  1  0.31660178  0.30492405  0.75620171  1
  H  H47  1  0.68339822  0.19507595  0.25620171  1
  H  H48  1  0.71344255  0.87029543  0.21375697  1
  H  H49  1  0.28655745  0.62970457  0.71375697  1
  H  H50  1  0.28655745  0.12970457  0.78624303  1
  H  H51  1  0.71344255  0.37029543  0.28624303  1
  S  S52  1  0.70885245  0.30082207  0.99063215  1
  S  S53  1  0.29114755  0.19917793  0.49063215  1
  S  S54  1  0.29114755  0.69917793  0.00936785  1
  S  S55  1  0.70885245  0.80082207  0.50936785  1
  S  S56  1  0.99181178  0.17772603  0.16801167  1
  S  S57  1  0.00818822  0.32227397  0.66801167  1
  S  S58  1  0.00818822  0.82227397  0.83198833  1
  S  S59  1  0.99181178  0.67772603  0.33198833  1
  O  O60  1  0.04875674  0.08137906  0.11881717  1
  O  O61  1  0.95124326  0.41862094  0.61881717  1
  O  O62  1  0.95124326  0.91862094  0.88118283  1
  O  O63  1  0.04875674  0.58137906  0.38118283  1
  O  O64  1  0.93987684  0.34498439  0.14954622  1
  O  O65  1  0.06012316  0.15501561  0.64954622  1
  O  O66  1  0.06012316  0.65501561  0.85045378  1
  O  O67  1  0.93987684  0.84498439  0.35045378  1
  O  O68  1  0.18926419  0.19675425  0.20677476  1
  O  O69  1  0.81073581  0.30324575  0.70677476  1
  O  O70  1  0.81073581  0.80324575  0.79322524  1
  O  O71  1  0.18926419  0.69675425  0.29322524  1
  O  O72  1  0.78246153  0.09222883  0.19628506  1
  O  O73  1  0.21753847  0.40777117  0.69628506  1
  O  O74  1  0.21753847  0.90777117  0.80371494  1
  O  O75  1  0.78246153  0.59222883  0.30371494  1
  O  O76  1  0.88643742  0.18352703  0.99611331  1
  O  O77  1  0.11356258  0.31647297  0.49611331  1
  O  O78  1  0.11356258  0.81647297  0.00388669  1
  O  O79  1  0.88643742  0.68352703  0.50388669  1
  O  O80  1  0.77336603  0.44598763  0.02632825  1
  O  O81  1  0.22663397  0.05401237  0.52632825  1
  O  O82  1  0.22663397  0.55401237  0.97367175  1
  O  O83  1  0.77336603  0.94598763  0.47367175  1
  O  O84  1  0.71093048  0.36312097  0.93228331  1
  O  O85  1  0.28906952  0.13687903  0.43228331  1
  O  O86  1  0.28906952  0.63687903  0.06771669  1
  O  O87  1  0.71093048  0.86312097  0.56771669  1
  O  O88  1  0.47917195  0.21730816  0.00499599  1
  O  O89  1  0.52082805  0.28269184  0.50499599  1
  O  O90  1  0.52082805  0.78269184  0.99500401  1
  O  O91  1  0.47917195  0.71730816  0.49500401  1
  O  O92  1  0.77886500  0.69806840  0.10050848  1
  O  O93  1  0.22113500  0.80193160  0.60050848  1
  O  O94  1  0.22113500  0.30193160  0.89949152  1
  O  O95  1  0.77886500  0.19806840  0.39949152  1
  O  O96  1  0.46080153  0.93826960  0.12537333  1
  O  O97  1  0.53919847  0.56173040  0.62537333  1
  O  O98  1  0.53919847  0.06173040  0.87462667  1
  O  O99  1  0.46080153  0.43826960  0.37462667  1
  O  O100  1  0.14877510  0.64216578  0.18225182  1
  O  O101  1  0.85122490  0.85783422  0.68225182  1
  O  O102  1  0.85122490  0.35783422  0.81774818  1
  O  O103  1  0.14877510  0.14216578  0.31774818  1
  O  O104  1  0.49598402  0.43153772  0.15200779  1
  O  O105  1  0.50401598  0.06846228  0.65200779  1
  O  O106  1  0.50401598  0.56846228  0.84799221  1
  O  O107  1  0.49598402  0.93153772  0.34799221  1
  O  O108  1  0.63337403  0.75776327  0.21211628  1
  O  O109  1  0.36662597  0.74223673  0.71211628  1
  O  O110  1  0.36662597  0.24223673  0.78788372  1
  O  O111  1  0.63337403  0.25776327  0.28788372  1
