# generated using pymatgen
data_Mo8O23
_symmetry_space_group_name_H-M   'P 1'
_cell_length_a   8.18788457
_cell_length_b   13.70739604
_cell_length_c   17.26485135
_cell_angle_alpha   106.30530044
_cell_angle_beta   90.00000000
_cell_angle_gamma   90.00000000
_symmetry_Int_Tables_number   1
_chemical_formula_structural   Mo8O23
_chemical_formula_sum   'Mo32 O92'
_cell_volume   1859.77714069
_cell_formula_units_Z   4
loop_
 _symmetry_equiv_pos_site_id
 _symmetry_equiv_pos_as_xyz
  1  'x, y, z'
loop_
 _atom_site_type_symbol
 _atom_site_label
 _atom_site_symmetry_multiplicity
 _atom_site_fract_x
 _atom_site_fract_y
 _atom_site_fract_z
 _atom_site_occupancy
  Mo  Mo0  1  0.28761045  0.93405535  0.08346663  1
  Mo  Mo1  1  0.71238955  0.93405535  0.58346663  1
  Mo  Mo2  1  0.28990762  0.06754394  0.41901326  1
  Mo  Mo3  1  0.71009238  0.06754394  0.91901326  1
  Mo  Mo4  1  0.78450479  0.93399775  0.08517410  1
  Mo  Mo5  1  0.21549521  0.93399775  0.58517410  1
  Mo  Mo6  1  0.79414020  0.06585085  0.42099425  1
  Mo  Mo7  1  0.20585980  0.06585085  0.92099425  1
  Mo  Mo8  1  0.21069219  0.81769392  0.25541472  1
  Mo  Mo9  1  0.78930781  0.81769392  0.75541472  1
  Mo  Mo10  1  0.20970122  0.18467370  0.24492141  1
  Mo  Mo11  1  0.79029878  0.18467370  0.74492141  1
  Mo  Mo12  1  0.70791410  0.81446704  0.25707426  1
  Mo  Mo13  1  0.29208590  0.81446704  0.75707426  1
  Mo  Mo14  1  0.71234556  0.18573967  0.24741011  1
  Mo  Mo15  1  0.28765444  0.18573967  0.74741011  1
  Mo  Mo16  1  0.28969996  0.68475517  0.42007354  1
  Mo  Mo17  1  0.71030004  0.68475517  0.92007354  1
  Mo  Mo18  1  0.29095314  0.32000984  0.08183654  1
  Mo  Mo19  1  0.70904686  0.32000984  0.58183654  1
  Mo  Mo20  1  0.79583377  0.68491598  0.42253097  1
  Mo  Mo21  1  0.20416623  0.68491598  0.92253097  1
  Mo  Mo22  1  0.79414824  0.31668991  0.08141603  1
  Mo  Mo23  1  0.20585176  0.31668991  0.58141603  1
  Mo  Mo24  1  0.20733876  0.55603649  0.09925296  1
  Mo  Mo25  1  0.79266124  0.55603649  0.59925296  1
  Mo  Mo26  1  0.20554748  0.44688841  0.40473345  1
  Mo  Mo27  1  0.79445252  0.44688841  0.90473345  1
  Mo  Mo28  1  0.70667686  0.55574592  0.09856135  1
  Mo  Mo29  1  0.29332314  0.55574592  0.59856135  1
  Mo  Mo30  1  0.70566337  0.44738014  0.40363732  1
  Mo  Mo31  1  0.29433663  0.44738014  0.90363732  1
  O  O32  1  0.99561069  0.92608868  0.09351139  1
  O  O33  1  0.00438931  0.92608868  0.59351139  1
  O  O34  1  0.00531640  0.07635579  0.41053642  1
  O  O35  1  0.99468360  0.07635579  0.91053642  1
  O  O36  1  0.49761674  0.94188527  0.07497429  1
  O  O37  1  0.50238326  0.94188527  0.57497429  1
  O  O38  1  0.50006593  0.05567573  0.42353261  1
  O  O39  1  0.49993407  0.05567573  0.92353261  1
  O  O40  1  0.49726709  0.80498772  0.26543814  1
  O  O41  1  0.50273291  0.80498772  0.76543814  1
  O  O42  1  0.50247621  0.20078659  0.23960789  1
  O  O43  1  0.49752379  0.20078659  0.73960789  1
  O  O44  1  0.99866357  0.81326305  0.24660154  1
  O  O45  1  0.00133643  0.81326305  0.74660154  1
  O  O46  1  0.99685829  0.18389943  0.25506269  1
  O  O47  1  0.00314171  0.18389943  0.75506269  1
  O  O48  1  0.00708399  0.67996720  0.43070823  1
  O  O49  1  0.99291601  0.67996720  0.93070823  1
  O  O50  1  0.00558389  0.32051347  0.06994780  1
  O  O51  1  0.99441611  0.32051347  0.56994780  1
  O  O52  1  0.50208838  0.68264338  0.41652943  1
  O  O53  1  0.49791162  0.68264338  0.91652943  1
  O  O54  1  0.50261201  0.31926759  0.08652518  1
  O  O55  1  0.49738799  0.31926759  0.58652518  1
  O  O56  1  0.49424988  0.55372300  0.09760176  1
  O  O57  1  0.50575012  0.55372300  0.59760176  1
  O  O58  1  0.49325131  0.44860969  0.40429055  1
  O  O59  1  0.50674869  0.44860969  0.90429055  1
  O  O60  1  0.99482496  0.55602708  0.09177630  1
  O  O61  1  0.00517504  0.55602708  0.59177630  1
  O  O62  1  0.99303751  0.44932977  0.41187162  1
  O  O63  1  0.00696249  0.44932977  0.91187162  1
  O  O64  1  0.23123569  0.99792951  0.50283455  1
  O  O65  1  0.76876431  0.99792951  0.00283455  1
  O  O66  1  0.78432682  0.99945754  0.50033352  1
  O  O67  1  0.21567318  0.99945754  0.00033352  1
  O  O68  1  0.23943540  0.93510072  0.33613630  1
  O  O69  1  0.76056460  0.93510072  0.83613630  1
  O  O70  1  0.24320122  0.06251172  0.16819307  1
  O  O71  1  0.75679878  0.06251172  0.66819307  1
  O  O72  1  0.75431707  0.94220274  0.33709414  1
  O  O73  1  0.24568293  0.94220274  0.83709414  1
  O  O74  1  0.74621372  0.06777684  0.16494374  1
  O  O75  1  0.25378628  0.06777684  0.66494374  1
  O  O76  1  0.27014121  0.86674049  0.17109517  1
  O  O77  1  0.72985879  0.86674049  0.67109517  1
  O  O78  1  0.27147941  0.13491857  0.33236272  1
  O  O79  1  0.72852059  0.13491857  0.83236272  1
  O  O80  1  0.72328679  0.87491163  0.16878889  1
  O  O81  1  0.27671321  0.87491163  0.66878889  1
  O  O82  1  0.72551373  0.13108925  0.33127086  1
  O  O83  1  0.27448627  0.13108925  0.83127086  1
  O  O84  1  0.24860104  0.79787067  0.00671477  1
  O  O85  1  0.75139896  0.79787067  0.50671477  1
  O  O86  1  0.25728467  0.20188549  0.49972926  1
  O  O87  1  0.74271533  0.20188549  0.99972926  1
  O  O88  1  0.74268817  0.80003405  0.00626243  1
  O  O89  1  0.25731183  0.80003405  0.50626243  1
  O  O90  1  0.74614557  0.19360780  0.49223126  1
  O  O91  1  0.25385443  0.19360780  0.99223126  1
  O  O92  1  0.23937582  0.73803325  0.33708573  1
  O  O93  1  0.76062418  0.73803325  0.83708573  1
  O  O94  1  0.23299331  0.25890035  0.16851877  1
  O  O95  1  0.76700669  0.25890035  0.66851877  1
  O  O96  1  0.77495231  0.74084256  0.33931913  1
  O  O97  1  0.22504769  0.74084256  0.83931913  1
  O  O98  1  0.77705078  0.26670427  0.16803566  1
  O  O99  1  0.22294922  0.26670427  0.66803566  1
  O  O100  1  0.24440364  0.67449281  0.17568517  1
  O  O101  1  0.75559636  0.67449281  0.67568517  1
  O  O102  1  0.24004298  0.32797019  0.32988839  1
  O  O103  1  0.75995702  0.32797019  0.82988839  1
  O  O104  1  0.74480120  0.67524445  0.17401328  1
  O  O105  1  0.25519880  0.67524445  0.67401328  1
  O  O106  1  0.74713044  0.32685125  0.32969793  1
  O  O107  1  0.25286956  0.32685125  0.82969793  1
  O  O108  1  0.25696891  0.59080697  0.49668088  1
  O  O109  1  0.74303109  0.59080697  0.99668088  1
  O  O110  1  0.25902952  0.41350227  0.00627970  1
  O  O111  1  0.74097048  0.41350227  0.50627970  1
  O  O112  1  0.74333955  0.58979687  0.49670078  1
  O  O113  1  0.25666045  0.58979687  0.99670078  1
  O  O114  1  0.74434384  0.41242556  0.00562511  1
  O  O115  1  0.25565616  0.41242556  0.50562511  1
  O  O116  1  0.24158236  0.54475761  0.34879987  1
  O  O117  1  0.75841764  0.54475761  0.84879987  1
  O  O118  1  0.23824186  0.45984387  0.15587655  1
  O  O119  1  0.76175814  0.45984387  0.65587655  1
  O  O120  1  0.75017785  0.54439607  0.34857489  1
  O  O121  1  0.24982215  0.54439607  0.84857489  1
  O  O122  1  0.75076328  0.45792711  0.15310073  1
  O  O123  1  0.24923672  0.45792711  0.65310073  1
