# generated using pymatgen
data_BaSnH16O11
_symmetry_space_group_name_H-M   'P 1'
_cell_length_a   8.66859920
_cell_length_b   10.53902112
_cell_length_c   24.03647908
_cell_angle_alpha   90.30153639
_cell_angle_beta   90.00000000
_cell_angle_gamma   90.00000000
_symmetry_Int_Tables_number   1
_chemical_formula_structural   BaSnH16O11
_chemical_formula_sum   'Ba8 Sn8 H128 O88'
_cell_volume   2195.90746671
_cell_formula_units_Z   8
loop_
 _symmetry_equiv_pos_site_id
 _symmetry_equiv_pos_as_xyz
  1  'x, y, z'
loop_
 _atom_site_type_symbol
 _atom_site_label
 _atom_site_symmetry_multiplicity
 _atom_site_fract_x
 _atom_site_fract_y
 _atom_site_fract_z
 _atom_site_occupancy
  Ba  Ba0  1  0.99773086  0.96836899  0.21618868  1
  Ba  Ba1  1  0.49773086  0.03163101  0.28381132  1
  Ba  Ba2  1  0.00226914  0.03163101  0.78381132  1
  Ba  Ba3  1  0.50226914  0.96836899  0.71618868  1
  Ba  Ba4  1  0.74787706  0.97448543  0.46398573  1
  Ba  Ba5  1  0.24787706  0.02551457  0.03601427  1
  Ba  Ba6  1  0.25212294  0.02551457  0.53601427  1
  Ba  Ba7  1  0.75212294  0.97448543  0.96398573  1
  Sn  Sn8  1  0.12493183  0.00170727  0.37551435  1
  Sn  Sn9  1  0.62493183  0.99829273  0.12448565  1
  Sn  Sn10  1  0.87506817  0.99829273  0.62448565  1
  Sn  Sn11  1  0.37506817  0.00170727  0.87551435  1
  Sn  Sn12  1  0.11726234  0.49843832  0.38070926  1
  Sn  Sn13  1  0.61726234  0.50156168  0.11929074  1
  Sn  Sn14  1  0.88273766  0.50156168  0.61929074  1
  Sn  Sn15  1  0.38273766  0.49843832  0.88070926  1
  H  H16  1  0.85766563  0.60365567  0.35068906  1
  H  H17  1  0.35766563  0.39634433  0.14931094  1
  H  H18  1  0.14233437  0.39634433  0.64931094  1
  H  H19  1  0.64233437  0.60365567  0.85068906  1
  H  H20  1  0.96474472  0.38146399  0.45613686  1
  H  H21  1  0.46474472  0.61853601  0.04386314  1
  H  H22  1  0.03525528  0.61853601  0.54386314  1
  H  H23  1  0.53525528  0.38146399  0.95613686  1
  H  H24  1  0.37631132  0.39139507  0.41021167  1
  H  H25  1  0.87631132  0.60860493  0.08978833  1
  H  H26  1  0.62368868  0.60860493  0.58978833  1
  H  H27  1  0.12368868  0.39139507  0.91021167  1
  H  H28  1  0.16262073  0.64191472  0.46415048  1
  H  H29  1  0.66262073  0.35808528  0.03584952  1
  H  H30  1  0.83737927  0.35808528  0.53584952  1
  H  H31  1  0.33737927  0.64191472  0.96415048  1
  H  H32  1  0.11467016  0.38941067  0.28583009  1
  H  H33  1  0.61467016  0.61058933  0.21416991  1
  H  H34  1  0.88532984  0.61058933  0.71416991  1
  H  H35  1  0.38532984  0.38941067  0.78583009  1
  H  H36  1  0.27847682  0.61477507  0.30742377  1
  H  H37  1  0.77847682  0.38522493  0.19257623  1
  H  H38  1  0.72152318  0.38522493  0.69257623  1
  H  H39  1  0.22152318  0.61477507  0.80742377  1
  H  H40  1  0.07081541  0.81571810  0.44328064  1
  H  H41  1  0.57081541  0.18428190  0.05671936  1
  H  H42  1  0.92918459  0.18428190  0.55671936  1
  H  H43  1  0.42918459  0.81571810  0.94328064  1
  H  H44  1  0.22464741  0.21073307  0.42332539  1
  H  H45  1  0.72464741  0.78926693  0.07667461  1
  H  H46  1  0.77535259  0.78926693  0.57667461  1
  H  H47  1  0.27535259  0.21073307  0.92332539  1
  H  H48  1  0.29848309  0.80186328  0.35786486  1
  H  H49  1  0.79848309  0.19813672  0.14213514  1
  H  H50  1  0.70151691  0.19813672  0.64213514  1
  H  H51  1  0.20151691  0.80186328  0.85786486  1
  H  H52  1  0.16764691  0.18549982  0.30745700  1
  H  H53  1  0.66764691  0.81450018  0.19254300  1
  H  H54  1  0.83235309  0.81450018  0.69254300  1
  H  H55  1  0.33235309  0.18549982  0.80745700  1
  H  H56  1  0.94917036  0.20011160  0.39576873  1
  H  H57  1  0.44917036  0.79988840  0.10423127  1
  H  H58  1  0.05082964  0.79988840  0.60423127  1
  H  H59  1  0.55082964  0.20011160  0.89576873  1
  H  H60  1  0.02634161  0.78933186  0.33106282  1
  H  H61  1  0.52634161  0.21066814  0.16893718  1
  H  H62  1  0.97365839  0.21066814  0.66893718  1
  H  H63  1  0.47365839  0.78933186  0.83106282  1
  H  H64  1  0.80270242  0.86985503  0.33789763  1
  H  H65  1  0.30270242  0.13014497  0.16210237  1
  H  H66  1  0.19729758  0.13014497  0.66210237  1
  H  H67  1  0.69729758  0.86985503  0.83789763  1
  H  H68  1  0.65301064  0.78556483  0.35083776  1
  H  H69  1  0.15301064  0.21443517  0.14916224  1
  H  H70  1  0.34698936  0.21443517  0.64916224  1
  H  H71  1  0.84698936  0.78556483  0.85083776  1
  H  H72  1  0.94499144  0.86886963  0.09133661  1
  H  H73  1  0.44499144  0.13113037  0.40866339  1
  H  H74  1  0.05500856  0.13113037  0.90866339  1
  H  H75  1  0.55500856  0.86886963  0.59133661  1
  H  H76  1  0.08846159  0.77975774  0.10600200  1
  H  H77  1  0.58846159  0.22024226  0.39399800  1
  H  H78  1  0.91153841  0.22024226  0.89399800  1
  H  H79  1  0.41153841  0.77975774  0.60600200  1
  H  H80  1  0.43372251  0.78475233  0.47346054  1
  H  H81  1  0.93372251  0.21524767  0.02653946  1
  H  H82  1  0.56627749  0.21524767  0.52653946  1
  H  H83  1  0.06627749  0.78475233  0.97346054  1
  H  H84  1  0.40279323  0.88476153  0.42646791  1
  H  H85  1  0.90279323  0.11523847  0.07353209  1
  H  H86  1  0.59720677  0.11523847  0.57353209  1
  H  H87  1  0.09720677  0.88476153  0.92646791  1
  H  H88  1  0.34705659  0.87560684  0.17740528  1
  H  H89  1  0.84705659  0.12439316  0.32259472  1
  H  H90  1  0.65294341  0.12439316  0.82259472  1
  H  H91  1  0.15294341  0.87560684  0.67740528  1
  H  H92  1  0.30166126  0.77507081  0.22283156  1
  H  H93  1  0.80166126  0.22492919  0.27716844  1
  H  H94  1  0.69833874  0.22492919  0.77716844  1
  H  H95  1  0.19833874  0.77507081  0.72283156  1
  H  H96  1  0.85677604  0.66360530  0.20622797  1
  H  H97  1  0.35677604  0.33639470  0.29377203  1
  H  H98  1  0.14322396  0.33639470  0.79377203  1
  H  H99  1  0.64322396  0.66360530  0.70622797  1
  H  H100  1  0.94775097  0.65308857  0.26241161  1
  H  H101  1  0.44775097  0.34691143  0.23758839  1
  H  H102  1  0.05224903  0.34691143  0.73758839  1
  H  H103  1  0.55224903  0.65308857  0.76241161  1
  H  H104  1  0.73861984  0.66093120  0.50166230  1
  H  H105  1  0.23861984  0.33906880  0.99833770  1
  H  H106  1  0.26138016  0.33906880  0.49833770  1
  H  H107  1  0.76138016  0.66093120  0.00166230  1
  H  H108  1  0.87607645  0.67282317  0.45941860  1
  H  H109  1  0.37607645  0.32717683  0.04058140  1
  H  H110  1  0.12392355  0.32717683  0.54058140  1
  H  H111  1  0.62392355  0.67282317  0.95941860  1
  H  H112  1  0.60415218  0.65085623  0.40995582  1
  H  H113  1  0.10415218  0.34914377  0.09004418  1
  H  H114  1  0.39584782  0.34914377  0.59004418  1
  H  H115  1  0.89584782  0.65085623  0.90995582  1
  H  H116  1  0.46595525  0.62617514  0.36556767  1
  H  H117  1  0.96595525  0.37382486  0.13443233  1
  H  H118  1  0.53404475  0.37382486  0.63443233  1
  H  H119  1  0.03404475  0.62617514  0.86556767  1
  H  H120  1  0.62921831  0.46288375  0.38513568  1
  H  H121  1  0.12921831  0.53711625  0.11486432  1
  H  H122  1  0.37078169  0.53711625  0.61486432  1
  H  H123  1  0.87078169  0.46288375  0.88513568  1
  H  H124  1  0.77432739  0.37860067  0.40395957  1
  H  H125  1  0.27432739  0.62139933  0.09604043  1
  H  H126  1  0.22567261  0.62139933  0.59604043  1
  H  H127  1  0.72567261  0.37860067  0.90395957  1
  H  H128  1  0.65952123  0.38356867  0.28373931  1
  H  H129  1  0.15952123  0.61643133  0.21626069  1
  H  H130  1  0.34047877  0.61643133  0.71626069  1
  H  H131  1  0.84047877  0.38356867  0.78373931  1
  H  H132  1  0.82441176  0.45190455  0.29276310  1
  H  H133  1  0.32441176  0.54809545  0.20723690  1
  H  H134  1  0.17558824  0.54809545  0.70723690  1
  H  H135  1  0.67558824  0.45190455  0.79276310  1
  H  H136  1  0.12129955  0.61705370  0.02863015  1
  H  H137  1  0.62129955  0.38294630  0.47136985  1
  H  H138  1  0.87870045  0.38294630  0.97136985  1
  H  H139  1  0.37870045  0.61705370  0.52863015  1
  H  H140  1  0.13273386  0.54842450  0.96881013  1
  H  H141  1  0.63273386  0.45157550  0.53118987  1
  H  H142  1  0.86726614  0.45157550  0.03118987  1
  H  H143  1  0.36726614  0.54842450  0.46881013  1
  O  O144  1  0.94036845  0.56792544  0.32781208  1
  O  O145  1  0.44036845  0.43207456  0.17218792  1
  O  O146  1  0.05963155  0.43207456  0.67218792  1
  O  O147  1  0.55963155  0.56792544  0.82781208  1
  O  O148  1  0.95879232  0.36959757  0.41572369  1
  O  O149  1  0.45879232  0.63040243  0.08427631  1
  O  O150  1  0.04120768  0.63040243  0.58427631  1
  O  O151  1  0.54120768  0.36959757  0.91572369  1
  O  O152  1  0.28926518  0.41939085  0.43274201  1
  O  O153  1  0.78926518  0.58060915  0.06725799  1
  O  O154  1  0.71073482  0.58060915  0.56725799  1
  O  O155  1  0.21073482  0.41939085  0.93274201  1
  O  O156  1  0.06386323  0.62766693  0.44456225  1
  O  O157  1  0.56386323  0.37233307  0.05543775  1
  O  O158  1  0.93613677  0.37233307  0.55543775  1
  O  O159  1  0.43613677  0.62766693  0.94456225  1
  O  O160  1  0.17210387  0.36455051  0.31900971  1
  O  O161  1  0.67210387  0.63544949  0.18099029  1
  O  O162  1  0.82789613  0.63544949  0.68099029  1
  O  O163  1  0.32789613  0.36455051  0.81900971  1
  O  O164  1  0.27789480  0.62761601  0.34807235  1
  O  O165  1  0.77789480  0.37238399  0.15192765  1
  O  O166  1  0.72210520  0.37238399  0.65192765  1
  O  O167  1  0.22210520  0.62761601  0.84807235  1
  O  O168  1  0.06354730  0.90817393  0.44917948  1
  O  O169  1  0.56354730  0.09182607  0.05082052  1
  O  O170  1  0.93645270  0.09182607  0.55082052  1
  O  O171  1  0.43645270  0.90817393  0.94917948  1
  O  O172  1  0.26047923  0.12277758  0.42561261  1
  O  O173  1  0.76047923  0.87722242  0.07438739  1
  O  O174  1  0.73952077  0.87722242  0.57438739  1
  O  O175  1  0.23952077  0.12277758  0.92561261  1
  O  O176  1  0.32400134  0.89253453  0.36455631  1
  O  O177  1  0.82400134  0.10746547  0.13544369  1
  O  O178  1  0.67599866  0.10746547  0.63544369  1
  O  O179  1  0.17599866  0.89253453  0.86455631  1
  O  O180  1  0.18309470  0.09340200  0.30149465  1
  O  O181  1  0.68309470  0.90659800  0.19850535  1
  O  O182  1  0.81690530  0.90659800  0.69850535  1
  O  O183  1  0.31690530  0.09340200  0.80149465  1
  O  O184  1  0.92522799  0.11071824  0.38564371  1
  O  O185  1  0.42522799  0.88928176  0.11435629  1
  O  O186  1  0.07477201  0.88928176  0.61435629  1
  O  O187  1  0.57477201  0.11071824  0.88564371  1
  O  O188  1  0.98993473  0.87655775  0.32651125  1
  O  O189  1  0.48993473  0.12344225  0.17348875  1
  O  O190  1  0.01006527  0.12344225  0.67348875  1
  O  O191  1  0.51006527  0.87655775  0.82651125  1
  O  O192  1  0.68992382  0.87396912  0.34811898  1
  O  O193  1  0.18992382  0.12603088  0.15188102  1
  O  O194  1  0.31007618  0.12603088  0.65188102  1
  O  O195  1  0.81007618  0.87396912  0.84811898  1
  O  O196  1  0.05508139  0.86941841  0.10508979  1
  O  O197  1  0.55508139  0.13058159  0.39491021  1
  O  O198  1  0.94491861  0.13058159  0.89491021  1
  O  O199  1  0.44491861  0.86941841  0.60508979  1
  O  O200  1  0.44796989  0.87623389  0.46518657  1
  O  O201  1  0.94796989  0.12376611  0.03481343  1
  O  O202  1  0.55203011  0.12376611  0.53481343  1
  O  O203  1  0.05203011  0.87623389  0.96518657  1
  O  O204  1  0.30438643  0.86792277  0.21646058  1
  O  O205  1  0.80438643  0.13207723  0.28353942  1
  O  O206  1  0.69561357  0.13207723  0.78353942  1
  O  O207  1  0.19561357  0.86792277  0.71646058  1
  O  O208  1  0.95643627  0.68871171  0.22433359  1
  O  O209  1  0.45643627  0.31128829  0.27566641  1
  O  O210  1  0.04356373  0.31128829  0.77566641  1
  O  O211  1  0.54356373  0.68871171  0.72433359  1
  O  O212  1  0.76746269  0.70090884  0.46577595  1
  O  O213  1  0.26746269  0.29909116  0.03422405  1
  O  O214  1  0.23253731  0.29909116  0.53422405  1
  O  O215  1  0.73253731  0.70090884  0.96577595  1
  O  O216  1  0.58190211  0.62488597  0.37120239  1
  O  O217  1  0.08190211  0.37511403  0.12879761  1
  O  O218  1  0.41809789  0.37511403  0.62879761  1
  O  O219  1  0.91809789  0.62488597  0.87120239  1
  O  O220  1  0.65711462  0.37966192  0.40153064  1
  O  O221  1  0.15711462  0.62033808  0.09846936  1
  O  O222  1  0.34288538  0.62033808  0.59846936  1
  O  O223  1  0.84288538  0.37966192  0.90153064  1
  O  O224  1  0.76613118  0.38986298  0.26925508  1
  O  O225  1  0.26613118  0.61013702  0.23074492  1
  O  O226  1  0.23386882  0.61013702  0.73074492  1
  O  O227  1  0.73386882  0.38986298  0.76925508  1
  O  O228  1  0.11712893  0.63196156  0.98764697  1
  O  O229  1  0.61712893  0.36803844  0.51235303  1
  O  O230  1  0.88287107  0.36803844  0.01235303  1
  O  O231  1  0.38287107  0.63196156  0.48764697  1
