# generated using pymatgen
data_NaFe7(PO4)6
_symmetry_space_group_name_H-M   'P 1'
_cell_length_a   6.48246216
_cell_length_b   8.09609199
_cell_length_c   9.48842996
_cell_angle_alpha   105.39294537
_cell_angle_beta   108.23523889
_cell_angle_gamma   101.43833424
_symmetry_Int_Tables_number   1
_chemical_formula_structural   NaFe7(PO4)6
_chemical_formula_sum   'Na1 Fe7 P6 O24'
_cell_volume   433.94181891
_cell_formula_units_Z   1
loop_
 _symmetry_equiv_pos_site_id
 _symmetry_equiv_pos_as_xyz
  1  'x, y, z'
loop_
 _atom_site_type_symbol
 _atom_site_label
 _atom_site_symmetry_multiplicity
 _atom_site_fract_x
 _atom_site_fract_y
 _atom_site_fract_z
 _atom_site_occupancy
  Na  Na0  1  0.50000000  -0.00000000  -0.00000000  1
  Fe  Fe1  1  -0.00000000  -0.00000000  -0.00000000  1
  Fe  Fe2  1  0.71592984  0.18840931  0.70753265  1
  Fe  Fe3  1  0.28407016  0.81159069  0.29246735  1
  Fe  Fe4  1  0.96006519  0.28176164  0.47389891  1
  Fe  Fe5  1  0.03993481  0.71823836  0.52610109  1
  Fe  Fe6  1  0.60773650  0.54242781  0.89007871  1
  Fe  Fe7  1  0.39226350  0.45757219  0.10992129  1
  P  P8  1  0.22632489  0.14647359  0.76457782  1
  P  P9  1  0.77367511  0.85352641  0.23542218  1
  P  P10  1  0.08524566  0.58915014  0.82927877  1
  P  P11  1  0.91475434  0.41084986  0.17072123  1
  P  P12  1  0.59879663  0.76791100  0.63187017  1
  P  P13  1  0.40120337  0.23208900  0.36812983  1
  O  O14  1  0.30136273  0.54207513  0.91382669  1
  O  O15  1  0.69863727  0.45792487  0.08617331  1
  O  O16  1  0.11339620  0.78702851  0.91068661  1
  O  O17  1  0.88660380  0.21297149  0.08931339  1
  O  O18  1  0.28170233  0.03761412  0.23734596  1
  O  O19  1  0.71829767  0.96238588  0.76265404  1
  O  O20  1  0.87389356  0.46494956  0.83383088  1
  O  O21  1  0.12610644  0.53505044  0.16616912  1
  O  O22  1  0.75137476  0.72509438  0.54074295  1
  O  O23  1  0.24862524  0.27490562  0.45925705  1
  O  O24  1  0.63230274  0.23547271  0.49096831  1
  O  O25  1  0.36769726  0.76452729  0.50903169  1
  O  O26  1  0.93793836  0.45339744  0.34821580  1
  O  O27  1  0.06206164  0.54660256  0.65178420  1
  O  O28  1  0.54898431  0.63727806  0.71496041  1
  O  O29  1  0.45101569  0.36272194  0.28503959  1
  O  O30  1  0.54719718  0.73785572  0.22883662  1
  O  O31  1  0.45280282  0.26214428  0.77116338  1
  O  O32  1  0.76687613  0.80936081  0.06169993  1
  O  O33  1  0.23312387  0.19063919  0.93830007  1
  O  O34  1  0.78909676  0.05202734  0.29618381  1
  O  O35  1  0.21090324  0.94797266  0.70381619  1
  O  O36  1  0.98087160  0.81376181  0.34240498  1
  O  O37  1  0.01912840  0.18623819  0.65759502  1
