# generated using pymatgen
data_Na2V2CoH4(OF)6
_symmetry_space_group_name_H-M   'P 1'
_cell_length_a   5.35240863
_cell_length_b   8.41308849
_cell_length_c   10.61067292
_cell_angle_alpha   91.99536048
_cell_angle_beta   90.00000000
_cell_angle_gamma   90.00000000
_symmetry_Int_Tables_number   1
_chemical_formula_structural   Na2V2CoH4(OF)6
_chemical_formula_sum   'Na4 V4 Co2 H8 O12 F12'
_cell_volume   477.51193630
_cell_formula_units_Z   2
loop_
 _symmetry_equiv_pos_site_id
 _symmetry_equiv_pos_as_xyz
  1  'x, y, z'
loop_
 _atom_site_type_symbol
 _atom_site_label
 _atom_site_symmetry_multiplicity
 _atom_site_fract_x
 _atom_site_fract_y
 _atom_site_fract_z
 _atom_site_occupancy
  Na  Na0  1  0.44702206  0.53308984  0.66412376  1
  Na  Na1  1  0.94702206  0.46691016  0.83587624  1
  Na  Na2  1  0.55297794  0.46691016  0.33587624  1
  Na  Na3  1  0.05297794  0.53308984  0.16412376  1
  V  V4  1  0.97464590  0.71014853  0.50640928  1
  V  V5  1  0.47464590  0.28985147  0.99359072  1
  V  V6  1  0.02535410  0.28985147  0.49359072  1
  V  V7  1  0.52535410  0.71014853  0.00640928  1
  Co  Co8  1  0.50000000  -0.00000000  0.50000000  1
  Co  Co9  1  -0.00000000  -0.00000000  -0.00000000  1
  H  H10  1  0.53253399  0.84318782  0.27705087  1
  H  H11  1  0.03253399  0.15681218  0.22294913  1
  H  H12  1  0.46746601  0.15681218  0.72294913  1
  H  H13  1  0.96746601  0.84318782  0.77705087  1
  H  H14  1  0.69998208  0.99477938  0.26911169  1
  H  H15  1  0.19998208  0.00522062  0.23088831  1
  H  H16  1  0.30001792  0.00522062  0.73088831  1
  H  H17  1  0.80001792  0.99477938  0.76911169  1
  O  O18  1  0.70537450  0.80518658  0.54247169  1
  O  O19  1  0.20537450  0.19481342  0.95752831  1
  O  O20  1  0.29462550  0.19481342  0.45752831  1
  O  O21  1  0.79462550  0.80518658  0.04247169  1
  O  O22  1  0.18853930  0.85116067  0.48624992  1
  O  O23  1  0.68853930  0.14883933  0.01375008  1
  O  O24  1  0.81146070  0.14883933  0.51375008  1
  O  O25  1  0.31146070  0.85116067  0.98624992  1
  O  O26  1  0.53922110  0.95696682  0.30270965  1
  O  O27  1  0.03922110  0.04303318  0.19729035  1
  O  O28  1  0.46077890  0.04303318  0.69729035  1
  O  O29  1  0.96077890  0.95696682  0.80270965  1
  F  F30  1  0.22343950  0.51867989  0.47000016  1
  F  F31  1  0.72343950  0.48132011  0.02999984  1
  F  F32  1  0.77656050  0.48132011  0.52999984  1
  F  F33  1  0.27656050  0.51867989  0.97000016  1
  F  F34  1  0.88466766  0.66349091  0.33637203  1
  F  F35  1  0.38466766  0.33650909  0.16362797  1
  F  F36  1  0.11533234  0.33650909  0.66362797  1
  F  F37  1  0.61533234  0.66349091  0.83637203  1
  F  F38  1  0.06787999  0.67129134  0.67937330  1
  F  F39  1  0.56787999  0.32870866  0.82062670  1
  F  F40  1  0.93212001  0.32870866  0.32062670  1
  F  F41  1  0.43212001  0.67129134  0.17937330  1
