# generated using pymatgen
data_W15I47
_symmetry_space_group_name_H-M   'P 1'
_cell_length_a   10.32738809
_cell_length_b   12.54633603
_cell_length_c   21.62318341
_cell_angle_alpha   103.77568322
_cell_angle_beta   103.81594004
_cell_angle_gamma   90.00000000
_symmetry_Int_Tables_number   1
_chemical_formula_structural   W15I47
_chemical_formula_sum   'W15 I47'
_cell_volume   2637.60850892
_cell_formula_units_Z   1
loop_
 _symmetry_equiv_pos_site_id
 _symmetry_equiv_pos_as_xyz
  1  'x, y, z'
loop_
 _atom_site_type_symbol
 _atom_site_label
 _atom_site_symmetry_multiplicity
 _atom_site_fract_x
 _atom_site_fract_y
 _atom_site_fract_z
 _atom_site_occupancy
  W  W0  1  0.65670294  0.50000000  0.00000000  1
  W  W1  1  0.88535162  0.60037043  0.07815922  1
  W  W2  1  0.80719241  0.39962957  0.92184078  1
  W  W3  1  0.86171307  0.38218629  0.04365381  1
  W  W4  1  0.81805926  0.61781371  0.95634619  1
  W  W5  1  0.00022232  0.87552890  0.68665572  1
  W  W6  1  0.31356660  0.12447110  0.31334428  1
  W  W7  1  0.14756787  0.91356886  0.60590831  1
  W  W8  1  0.54165956  0.08643114  0.39409169  1
  W  W9  1  0.16605083  0.72570004  0.64494841  1
  W  W10  1  0.52110242  0.27429996  0.35505159  1
  W  W11  1  0.22609489  0.83960501  0.76899879  1
  W  W12  1  0.45709609  0.16039499  0.23100121  1
  W  W13  1  0.20795275  0.02500648  0.73087730  1
  W  W14  1  0.47707545  0.97499352  0.26912270  1
  I  I15  1  0.38351826  0.50000000  0.00000000  1
  I  I16  1  0.62801594  0.26838865  0.95953911  1
  I  I17  1  0.66847683  0.73161135  0.04046089  1
  I  I18  1  0.01881322  0.27500781  0.96209722  1
  I  I19  1  0.05671600  0.72499219  0.03790278  1
  I  I20  1  0.71803983  0.49014829  0.13346788  1
  I  I21  1  0.58457195  0.50985171  0.86653212  1
  I  I22  1  0.10115284  0.48665403  0.12551387  1
  I  I23  1  0.97563897  0.51334597  0.87448613  1
  I  I24  1  0.95109009  0.76210114  0.20238099  1
  I  I25  1  0.74870911  0.23789886  0.79761901  1
  I  I26  1  0.00287601  0.63292613  0.31119641  1
  I  I27  1  0.69167960  0.36707387  0.68880359  1
  I  I28  1  0.04831421  0.50565670  0.40644234  1
  I  I29  1  0.64187187  0.49434330  0.59355766  1
  I  I30  1  0.90217584  0.20432207  0.10846110  1
  I  I31  1  0.79371474  0.79567793  0.89153890  1
  I  I32  1  0.84851824  0.00000000  0.00000000  1
  I  I33  1  0.72806561  0.87489079  0.68552411  1
  I  I34  1  0.04254150  0.12510921  0.31447589  1
  I  I35  1  0.08872533  0.97674026  0.48732888  1
  I  I36  1  0.60139644  0.02325974  0.51267112  1
  I  I37  1  0.93096257  0.75350487  0.55414046  1
  I  I38  1  0.37682211  0.24649513  0.44585954  1
  I  I39  1  0.31703687  0.76017963  0.56103220  1
  I  I40  1  0.75600467  0.23982037  0.43896780  1
  I  I41  1  0.01303933  0.67711049  0.72748621  1
  I  I42  1  0.28555312  0.32288951  0.27251379  1
  I  I43  1  0.40108893  0.68637942  0.72750988  1
  I  I44  1  0.67357904  0.31362058  0.27249012  1
  I  I45  1  0.05746102  0.99445032  0.81971453  1
  I  I46  1  0.23774649  0.00554968  0.18028547  1
  I  I47  1  0.44385392  0.99052882  0.81585019  1
  I  I48  1  0.62800373  0.00947118  0.18414981  1
  I  I49  1  0.97466265  0.07514333  0.64847015  1
  I  I50  1  0.32619250  0.92485667  0.35152985  1
  I  I51  1  0.36623193  0.06309956  0.65114975  1
  I  I52  1  0.71508219  0.93690044  0.34885025  1
  I  I53  1  0.14151996  0.49304742  0.58185335  1
  I  I54  1  0.55966661  0.50695258  0.41814665  1
  I  I55  1  0.19423311  0.37696741  0.68970265  1
  I  I56  1  0.50453046  0.62303259  0.31029735  1
  I  I57  1  0.24728983  0.25437105  0.79690598  1
  I  I58  1  0.45038385  0.74562895  0.20309402  1
  I  I59  1  0.29525783  0.78694162  0.89569831  1
  I  I60  1  0.39955952  0.21305838  0.10430169  1
  I  I61  1  0.34569725  1.00000000  1.00000000  1
