# generated using pymatgen
data_Tm(BRh)4
_symmetry_space_group_name_H-M   'P 1'
_cell_length_a   7.52202005
_cell_length_b   7.52081727
_cell_length_c   11.79260947
_cell_angle_alpha   90.00000000
_cell_angle_beta   108.59819128
_cell_angle_gamma   90.00000000
_symmetry_Int_Tables_number   1
_chemical_formula_structural   Tm(BRh)4
_chemical_formula_sum   'Tm6 B24 Rh24'
_cell_volume   632.28995604
_cell_formula_units_Z   6
loop_
 _symmetry_equiv_pos_site_id
 _symmetry_equiv_pos_as_xyz
  1  'x, y, z'
loop_
 _atom_site_type_symbol
 _atom_site_label
 _atom_site_symmetry_multiplicity
 _atom_site_fract_x
 _atom_site_fract_y
 _atom_site_fract_z
 _atom_site_occupancy
  Tm  Tm0  1  0.91619155  0.25000000  0.83238309  1
  Tm  Tm1  1  0.41619155  0.75000000  0.83238309  1
  Tm  Tm2  1  0.08380845  0.75000000  0.16761691  1
  Tm  Tm3  1  0.58380845  0.25000000  0.16761691  1
  Tm  Tm4  1  0.25000000  0.25000000  0.50000000  1
  Tm  Tm5  1  0.75000000  0.75000000  0.50000000  1
  B  B6  1  0.22551606  0.07572792  0.72112835  1
  B  B7  1  0.99561229  0.57572792  0.72112835  1
  B  B8  1  0.50438771  0.57572792  0.27887165  1
  B  B9  1  0.27448394  0.07572792  0.27887165  1
  B  B10  1  0.77448394  0.92427208  0.27887165  1
  B  B11  1  0.00438771  0.42427208  0.27887165  1
  B  B12  1  0.49561229  0.42427208  0.72112835  1
  B  B13  1  0.72551606  0.92427208  0.72112835  1
  B  B14  1  0.30074538  0.38867663  0.94259535  1
  B  B15  1  0.14184997  0.88867663  0.94259535  1
  B  B16  1  0.35815003  0.88867663  0.05740465  1
  B  B17  1  0.19925462  0.38867663  0.05740465  1
  B  B18  1  0.69925462  0.61132337  0.05740465  1
  B  B19  1  0.85815003  0.11132337  0.05740465  1
  B  B20  1  0.64184997  0.11132337  0.94259535  1
  B  B21  1  0.80074538  0.61132337  0.94259535  1
  B  B22  1  0.83900542  0.08663726  0.39161366  1
  B  B23  1  0.05260824  0.58663726  0.39161366  1
  B  B24  1  0.44739176  0.58663726  0.60838634  1
  B  B25  1  0.66099458  0.08663726  0.60838634  1
  B  B26  1  0.16099458  0.91336274  0.60838634  1
  B  B27  1  0.94739176  0.41336274  0.60838634  1
  B  B28  1  0.55260824  0.41336274  0.39161366  1
  B  B29  1  0.33900542  0.91336274  0.39161366  1
  Rh  Rh30  1  0.34328829  0.09520973  0.91789786  1
  Rh  Rh31  1  0.07460957  0.59520973  0.91789786  1
  Rh  Rh32  1  0.42539043  0.59520973  0.08210214  1
  Rh  Rh33  1  0.15671171  0.09520973  0.08210214  1
  Rh  Rh34  1  0.65671171  0.90479027  0.08210214  1
  Rh  Rh35  1  0.92539043  0.40479027  0.08210214  1
  Rh  Rh36  1  0.57460957  0.40479027  0.91789786  1
  Rh  Rh37  1  0.84328829  0.90479027  0.91789786  1
  Rh  Rh38  1  0.22093909  0.36278604  0.74971341  1
  Rh  Rh39  1  0.02877432  0.86278604  0.74971341  1
  Rh  Rh40  1  0.47122568  0.86278604  0.25028659  1
  Rh  Rh41  1  0.27906091  0.36278604  0.25028659  1
  Rh  Rh42  1  0.77906091  0.63721396  0.25028659  1
  Rh  Rh43  1  0.97122568  0.13721396  0.25028659  1
  Rh  Rh44  1  0.52877432  0.13721396  0.74971341  1
  Rh  Rh45  1  0.72093909  0.63721396  0.74971341  1
  Rh  Rh46  1  0.94349247  0.12392252  0.58441978  1
  Rh  Rh47  1  0.14092731  0.62392252  0.58441978  1
  Rh  Rh48  1  0.35907269  0.62392252  0.41558022  1
  Rh  Rh49  1  0.55650753  0.12392252  0.41558022  1
  Rh  Rh50  1  0.05650753  0.87607748  0.41558022  1
  Rh  Rh51  1  0.85907269  0.37607748  0.41558022  1
  Rh  Rh52  1  0.64092731  0.37607748  0.58441978  1
  Rh  Rh53  1  0.44349247  0.87607748  0.58441978  1
