# generated using pymatgen
data_NiPH15O11
_symmetry_space_group_name_H-M   'P 1'
_cell_length_a   6.09720427
_cell_length_b   7.10562908
_cell_length_c   11.37315601
_cell_angle_alpha   90.00000000
_cell_angle_beta   90.00000000
_cell_angle_gamma   90.00000000
_symmetry_Int_Tables_number   1
_chemical_formula_structural   NiPH15O11
_chemical_formula_sum   'Ni2 P2 H30 O22'
_cell_volume   492.73597874
_cell_formula_units_Z   2
loop_
 _symmetry_equiv_pos_site_id
 _symmetry_equiv_pos_as_xyz
  1  'x, y, z'
loop_
 _atom_site_type_symbol
 _atom_site_label
 _atom_site_symmetry_multiplicity
 _atom_site_fract_x
 _atom_site_fract_y
 _atom_site_fract_z
 _atom_site_occupancy
  Ni  Ni0  1  0.62125855  0.50000000  0.90464345  1
  Ni  Ni1  1  0.37874145  -0.00000000  0.40464345  1
  P  P2  1  0.99634902  -0.00000000  0.76809392  1
  P  P3  1  0.00365098  0.50000000  0.26809392  1
  H  H4  1  0.17463965  0.50000000  0.94284592  1
  H  H5  1  0.82536035  0.00000000  0.44284592  1
  H  H6  1  0.28530129  0.50000000  0.07215616  1
  H  H7  1  0.71469871  -0.00000000  0.57215616  1
  H  H8  1  0.99360319  0.38692128  0.78492204  1
  H  H9  1  0.99360319  0.61307872  0.78492204  1
  H  H10  1  0.00639681  0.11307872  0.28492204  1
  H  H11  1  0.00639681  0.88692128  0.28492204  1
  H  H12  1  0.61522099  0.18421181  0.76649071  1
  H  H13  1  0.61522099  0.81578819  0.76649071  1
  H  H14  1  0.38477901  0.31578819  0.26649071  1
  H  H15  1  0.38477901  0.68421181  0.26649071  1
  H  H16  1  0.36858260  0.25104658  0.78166056  1
  H  H17  1  0.36858260  0.74895342  0.78166056  1
  H  H18  1  0.63141740  0.24895342  0.28166056  1
  H  H19  1  0.63141740  0.75104658  0.28166056  1
  H  H20  1  0.78772317  0.30264627  0.09844810  1
  H  H21  1  0.78772317  0.69735373  0.09844810  1
  H  H22  1  0.21227683  0.19735373  0.59844810  1
  H  H23  1  0.21227683  0.80264627  0.59844810  1
  H  H24  1  0.81908396  0.18937834  0.97898660  1
  H  H25  1  0.81908396  0.81062166  0.97898660  1
  H  H26  1  0.18091604  0.31062166  0.47898660  1
  H  H27  1  0.18091604  0.68937834  0.47898660  1
  H  H28  1  0.13522066  -0.00000000  0.95142121  1
  H  H29  1  0.86477934  0.50000000  0.45142121  1
  H  H30  1  0.44338370  0.11075421  0.02549864  1
  H  H31  1  0.44338370  0.88924579  0.02549864  1
  H  H32  1  0.55661630  0.38924579  0.52549864  1
  H  H33  1  0.55661630  0.61075421  0.52549864  1
  O  O34  1  0.31480384  0.50000000  0.98637313  1
  O  O35  1  0.68519616  0.00000000  0.48637313  1
  O  O36  1  0.95010194  0.50000000  0.83182429  1
  O  O37  1  0.04989806  0.00000000  0.33182429  1
  O  O38  1  0.52231156  0.29297781  0.79179576  1
  O  O39  1  0.52231156  0.70702219  0.79179576  1
  O  O40  1  0.47768844  0.20702219  0.29179576  1
  O  O41  1  0.47768844  0.79297781  0.29179576  1
  O  O42  1  0.72180926  0.28064128  0.01815322  1
  O  O43  1  0.72180926  0.71935872  0.01815322  1
  O  O44  1  0.27819074  0.21935872  0.51815322  1
  O  O45  1  0.27819074  0.78064128  0.51815322  1
  O  O46  1  0.98178748  0.00000000  0.91086272  1
  O  O47  1  0.01821252  0.50000000  0.41086272  1
  O  O48  1  0.75821495  0.00000000  0.72508194  1
  O  O49  1  0.24178505  0.50000000  0.22508194  1
  O  O50  1  0.11749766  0.81908460  0.73232102  1
  O  O51  1  0.11749766  0.18091540  0.73232102  1
  O  O52  1  0.88250234  0.68091540  0.23232102  1
  O  O53  1  0.88250234  0.31908460  0.23232102  1
  O  O54  1  0.34786094  0.00000000  0.01821398  1
  O  O55  1  0.65213906  0.50000000  0.51821398  1
