# generated using pymatgen
data_Nb10Ge7
_symmetry_space_group_name_H-M   'P 1'
_cell_length_a   5.46614807
_cell_length_b   13.55534732
_cell_length_c   13.55578074
_cell_angle_alpha   120.00105788
_cell_angle_beta   90.00000002
_cell_angle_gamma   90.00480261
_symmetry_Int_Tables_number   1
_chemical_formula_structural   Nb10Ge7
_chemical_formula_sum   'Nb30 Ge21'
_cell_volume   869.84641349
_cell_formula_units_Z   3
loop_
 _symmetry_equiv_pos_site_id
 _symmetry_equiv_pos_as_xyz
  1  'x, y, z'
loop_
 _atom_site_type_symbol
 _atom_site_label
 _atom_site_symmetry_multiplicity
 _atom_site_fract_x
 _atom_site_fract_y
 _atom_site_fract_z
 _atom_site_occupancy
  Nb  Nb0  1  0.27135655  0.17475891  0.08737945  1
  Nb  Nb1  1  0.27136243  0.91262475  0.08737912  1
  Nb  Nb2  1  0.27136243  0.91262475  0.82524563  1
  Nb  Nb3  1  0.72864345  0.82524109  0.91262055  1
  Nb  Nb4  1  0.72863757  0.08737525  0.91262088  1
  Nb  Nb5  1  0.72863757  0.08737525  0.17475437  1
  Nb  Nb6  1  0.22665884  0.84065912  0.42032956  1
  Nb  Nb7  1  0.22663364  0.57965775  0.42033984  1
  Nb  Nb8  1  0.22663364  0.57965775  0.15931790  1
  Nb  Nb9  1  0.77334116  0.15934088  0.57967044  1
  Nb  Nb10  1  0.77336636  0.42034225  0.57966016  1
  Nb  Nb11  1  0.77336636  0.42034225  0.84068210  1
  Nb  Nb12  1  0.23232450  0.50878260  0.75439130  1
  Nb  Nb13  1  0.23234457  0.24561933  0.75438849  1
  Nb  Nb14  1  0.23234457  0.24561933  0.49123084  1
  Nb  Nb15  1  0.76767550  0.49121740  0.24560870  1
  Nb  Nb16  1  0.76765543  0.75438067  0.24561151  1
  Nb  Nb17  1  0.76765543  0.75438067  0.50876916  1
  Nb  Nb18  1  0.49999995  0.66358640  0.66358873  1
  Nb  Nb19  1  0.50000005  0.33641360  0.00000233  1
  Nb  Nb20  1  0.50000000  0.00000000  0.33640876  1
  Nb  Nb21  1  0.49999995  0.66358640  0.99999767  1
  Nb  Nb22  1  0.50000000  1.00000000  0.66359124  1
  Nb  Nb23  1  0.50000005  0.33641360  0.33641127  1
  Nb  Nb24  1  0.00000010  0.66908056  0.66907996  1
  Nb  Nb25  1  -0.00000010  0.33091944  -0.00000059  1
  Nb  Nb26  1  -0.00000000  1.00000000  0.33091218  1
  Nb  Nb27  1  0.00000010  0.66908056  0.00000059  1
  Nb  Nb28  1  0.00000000  0.00000000  0.66908782  1
  Nb  Nb29  1  -0.00000010  0.33091944  0.33092004  1
  Ge  Ge30  1  0.25341447  0.40605664  0.20302832  1
  Ge  Ge31  1  0.25342790  0.79696897  0.20302129  1
  Ge  Ge32  1  0.25342790  0.79696897  0.59394769  1
  Ge  Ge33  1  0.74658553  0.59394336  0.79697168  1
  Ge  Ge34  1  0.74657210  0.20303103  0.79697871  1
  Ge  Ge35  1  0.74657210  0.20303103  0.40605231  1
  Ge  Ge36  1  0.24621187  0.07311427  0.53655714  1
  Ge  Ge37  1  0.24621415  0.46344749  0.53655958  1
  Ge  Ge38  1  0.24621415  0.46344749  0.92688790  1
  Ge  Ge39  1  0.75378813  0.92688573  0.46344286  1
  Ge  Ge40  1  0.75378585  0.53655251  0.46344042  1
  Ge  Ge41  1  0.75378585  0.53655251  0.07311210  1
  Ge  Ge42  1  0.25270084  0.73971854  0.86985927  1
  Ge  Ge43  1  0.25271285  0.13013909  0.86986018  1
  Ge  Ge44  1  0.25271285  0.13013909  0.26027891  1
  Ge  Ge45  1  0.74729916  0.26028146  0.13014073  1
  Ge  Ge46  1  0.74728715  0.86986091  0.13013982  1
  Ge  Ge47  1  0.74728715  0.86986091  0.73972109  1
  Ge  Ge48  1  0.50047373  0.33333808  0.66666904  1
  Ge  Ge49  1  0.49952627  0.66666192  0.33333096  1
  Ge  Ge50  1  -0.00000000  -0.00000000  -0.00000000  1
