# generated using pymatgen
data_TlHg6S4Br5
_symmetry_space_group_name_H-M   'P 1'
_cell_length_a   9.07687585
_cell_length_b   11.24555120
_cell_length_c   11.24555120
_cell_angle_alpha   80.62625488
_cell_angle_beta   66.19805585
_cell_angle_gamma   66.19805585
_symmetry_Int_Tables_number   1
_chemical_formula_structural   TlHg6S4Br5
_chemical_formula_sum   'Tl2 Hg12 S8 Br10'
_cell_volume   960.92344779
_cell_formula_units_Z   2
loop_
 _symmetry_equiv_pos_site_id
 _symmetry_equiv_pos_as_xyz
  1  'x, y, z'
loop_
 _atom_site_type_symbol
 _atom_site_label
 _atom_site_symmetry_multiplicity
 _atom_site_fract_x
 _atom_site_fract_y
 _atom_site_fract_z
 _atom_site_occupancy
  Tl  Tl0  1  0.25000000  0.50000000  0.50000000  1
  Tl  Tl1  1  0.75000000  0.50000000  0.50000000  1
  Hg  Hg2  1  0.69985165  0.21429126  0.86126914  1
  Hg  Hg3  1  0.77541205  0.78570874  0.13873086  1
  Hg  Hg4  1  0.91414290  0.86126914  0.78570874  1
  Hg  Hg5  1  0.56112079  0.13873086  0.21429126  1
  Hg  Hg6  1  0.30014835  0.78570874  0.13873086  1
  Hg  Hg7  1  0.22458795  0.21429126  0.86126914  1
  Hg  Hg8  1  0.08585710  0.13873086  0.21429126  1
  Hg  Hg9  1  0.43887921  0.86126914  0.78570874  1
  Hg  Hg10  1  0.76944298  0.37179261  0.08932144  1
  Hg  Hg11  1  0.23055702  0.62820739  0.91067856  1
  Hg  Hg12  1  0.14123558  0.08932144  0.62820739  1
  Hg  Hg13  1  0.85876442  0.91067856  0.37179261  1
  S  S14  1  0.53586360  0.32810575  0.06991805  1
  S  S15  1  0.93388740  0.67189425  0.93008195  1
  S  S16  1  0.86396935  0.06991805  0.67189425  1
  S  S17  1  0.60578165  0.93008195  0.32810575  1
  S  S18  1  0.46413640  0.67189425  0.93008195  1
  S  S19  1  0.06611260  0.32810575  0.06991805  1
  S  S20  1  0.13603065  0.93008195  0.32810575  1
  S  S21  1  0.39421835  0.06991805  0.67189425  1
  Br  Br22  1  0.50000000  0.00000000  -0.00000000  1
  Br  Br23  1  -0.00000000  0.00000000  -0.00000000  1
  Br  Br24  1  0.57169431  0.60094545  0.25566592  1
  Br  Br25  1  0.42830569  0.39905455  0.74433408  1
  Br  Br26  1  0.17263976  0.25566592  0.39905455  1
  Br  Br27  1  0.82736024  0.74433408  0.60094545  1
  Br  Br28  1  0.93071408  0.38277560  0.75579623  1
  Br  Br29  1  0.06928592  0.61722440  0.24420377  1
  Br  Br30  1  0.31348968  0.75579623  0.61722440  1
  Br  Br31  1  0.68651032  0.24420377  0.38277560  1
