# generated using pymatgen
data_Gd4Si2S3O7
_symmetry_space_group_name_H-M   'P 1'
_cell_length_a   10.88508131
_cell_length_b   10.88508131
_cell_length_c   10.88508131
_cell_angle_alpha   100.72590083
_cell_angle_beta   114.01304359
_cell_angle_gamma   114.01304359
_symmetry_Int_Tables_number   1
_chemical_formula_structural   Gd4Si2S3O7
_chemical_formula_sum   'Gd16 Si8 S12 O28'
_cell_volume   975.86094502
_cell_formula_units_Z   4
loop_
 _symmetry_equiv_pos_site_id
 _symmetry_equiv_pos_as_xyz
  1  'x, y, z'
loop_
 _atom_site_type_symbol
 _atom_site_label
 _atom_site_symmetry_multiplicity
 _atom_site_fract_x
 _atom_site_fract_y
 _atom_site_fract_z
 _atom_site_occupancy
  Gd  Gd0  1  0.98571089  0.82671299  0.34100210  1
  Gd  Gd1  1  0.48571089  0.34100210  0.82671299  1
  Gd  Gd2  1  0.01428911  0.34100210  0.35529121  1
  Gd  Gd3  1  0.51428911  0.35529121  0.34100210  1
  Gd  Gd4  1  0.01428911  0.17328701  0.65899790  1
  Gd  Gd5  1  0.51428911  0.65899790  0.17328701  1
  Gd  Gd6  1  0.98571089  0.65899790  0.64470879  1
  Gd  Gd7  1  0.48571089  0.64470879  0.65899790  1
  Gd  Gd8  1  0.40550931  0.95275465  0.70275465  1
  Gd  Gd9  1  0.75000000  0.95275465  0.04724535  1
  Gd  Gd10  1  0.90550931  0.70275465  0.95275465  1
  Gd  Gd11  1  0.25000000  0.70275465  0.29724535  1
  Gd  Gd12  1  0.75000000  0.29724535  0.70275465  1
  Gd  Gd13  1  0.09449069  0.29724535  0.04724535  1
  Gd  Gd14  1  0.25000000  0.04724535  0.95275465  1
  Gd  Gd15  1  0.59449069  0.04724535  0.29724535  1
  Si  Si16  1  0.62597203  0.22101166  0.09503963  1
  Si  Si17  1  0.12597203  0.09503963  0.22101166  1
  Si  Si18  1  0.37402797  0.09503963  0.46906761  1
  Si  Si19  1  0.87402797  0.46906761  0.09503963  1
  Si  Si20  1  0.37402797  0.77898834  0.90496037  1
  Si  Si21  1  0.87402797  0.90496037  0.77898834  1
  Si  Si22  1  0.62597203  0.90496037  0.53093239  1
  Si  Si23  1  0.12597203  0.53093239  0.90496037  1
  S  S24  1  0.64681343  0.50000000  0.64681343  1
  S  S25  1  0.35318657  0.50000000  0.35318657  1
  S  S26  1  0.14681343  0.64681343  0.50000000  1
  S  S27  1  0.64681343  0.64681343  -0.00000000  1
  S  S28  1  0.14681343  -0.00000000  0.64681343  1
  S  S29  1  0.85318657  0.00000000  0.35318657  1
  S  S30  1  0.85318657  0.35318657  0.50000000  1
  S  S31  1  0.35318657  0.35318657  0.00000000  1
  S  S32  1  0.75000000  0.62500000  0.37500000  1
  S  S33  1  0.25000000  0.37500000  0.62500000  1
  S  S34  1  0.25000000  0.87500000  0.12500000  1
  S  S35  1  0.75000000  0.12500000  0.87500000  1
  O  O36  1  0.76813795  0.43052767  0.91878974  1
  O  O37  1  0.01173792  0.43052767  0.16238972  1
  O  O38  1  0.26813795  0.91878974  0.43052767  1
  O  O39  1  0.98826208  0.91878974  0.15065180  1
  O  O40  1  0.48826208  0.15065180  0.91878974  1
  O  O41  1  0.73186205  0.15065180  0.16238972  1
  O  O42  1  0.51173792  0.16238972  0.43052767  1
  O  O43  1  0.23186205  0.16238972  0.15065180  1
  O  O44  1  0.23186205  0.56947233  0.08121026  1
  O  O45  1  0.98826208  0.56947233  0.83761028  1
  O  O46  1  0.73186205  0.08121026  0.56947233  1
  O  O47  1  0.01173792  0.08121026  0.84934820  1
  O  O48  1  0.51173792  0.84934820  0.08121026  1
  O  O49  1  0.26813795  0.84934820  0.83761028  1
  O  O50  1  0.48826208  0.83761028  0.56947233  1
  O  O51  1  0.76813795  0.83761028  0.84934820  1
  O  O52  1  0.97977823  0.65250574  0.17272751  1
  O  O53  1  0.47977823  0.17272751  0.65250574  1
  O  O54  1  0.02022177  0.17272751  0.19294928  1
  O  O55  1  0.52022177  0.19294928  0.17272751  1
  O  O56  1  0.02022177  0.34749426  0.82727249  1
  O  O57  1  0.52022177  0.82727249  0.34749426  1
  O  O58  1  0.97977823  0.82727249  0.80705072  1
  O  O59  1  0.47977823  0.80705072  0.82727249  1
  O  O60  1  0.75000000  0.85294565  0.60294565  1
  O  O61  1  0.25000000  0.60294565  0.85294565  1
  O  O62  1  0.25000000  0.14705435  0.39705435  1
  O  O63  1  0.75000000  0.39705435  0.14705435  1
