# generated using pymatgen
data_ZnAg2(PS3)2
_symmetry_space_group_name_H-M   'P 1'
_cell_length_a   6.32867924
_cell_length_b   6.32867924
_cell_length_c   27.41431168
_cell_angle_alpha   93.09401068
_cell_angle_beta   93.09401068
_cell_angle_gamma   119.83183437
_symmetry_Int_Tables_number   1
_chemical_formula_structural   ZnAg2(PS3)2
_chemical_formula_sum   'Zn4 Ag8 P8 S24'
_cell_volume   946.96795509
_cell_formula_units_Z   4
loop_
 _symmetry_equiv_pos_site_id
 _symmetry_equiv_pos_as_xyz
  1  'x, y, z'
loop_
 _atom_site_type_symbol
 _atom_site_label
 _atom_site_symmetry_multiplicity
 _atom_site_fract_x
 _atom_site_fract_y
 _atom_site_fract_z
 _atom_site_occupancy
  Zn  Zn0  1  0.81765705  0.95405001  0.37406023  1
  Zn  Zn1  1  0.18234295  0.04594999  0.62593977  1
  Zn  Zn2  1  0.04594999  0.18234295  0.12593977  1
  Zn  Zn3  1  0.95405001  0.81765705  0.87406023  1
  Ag  Ag4  1  0.53244873  0.74798413  0.68704433  1
  Ag  Ag5  1  0.46755127  0.25201587  0.31295567  1
  Ag  Ag6  1  0.25201587  0.46755127  0.81295567  1
  Ag  Ag7  1  0.74798413  0.53244873  0.18704433  1
  Ag  Ag8  1  0.51827900  0.69721154  0.55997465  1
  Ag  Ag9  1  0.48172100  0.30278846  0.44002535  1
  Ag  Ag10  1  0.30278846  0.48172100  0.94002535  1
  Ag  Ag11  1  0.69721154  0.51827900  0.05997465  1
  P  P12  1  0.59070402  0.13410098  0.83343517  1
  P  P13  1  0.40929598  0.86589902  0.16656483  1
  P  P14  1  0.86589902  0.40929598  0.66656483  1
  P  P15  1  0.13410098  0.59070402  0.33343517  1
  P  P16  1  0.62485834  0.14462840  0.91692219  1
  P  P17  1  0.37514166  0.85537160  0.08307781  1
  P  P18  1  0.85537160  0.37514166  0.58307781  1
  P  P19  1  0.14462840  0.62485834  0.41692219  1
  S  S20  1  0.51489021  0.30146965  0.55717826  1
  S  S21  1  0.48510979  0.69853035  0.44282174  1
  S  S22  1  0.69853035  0.48510979  0.94282174  1
  S  S23  1  0.30146965  0.51489021  0.05717826  1
  S  S24  1  0.90870558  0.08523378  0.93663635  1
  S  S25  1  0.09129442  0.91476622  0.06336365  1
  S  S26  1  0.91476622  0.09129442  0.56336365  1
  S  S27  1  0.08523378  0.90870558  0.43663635  1
  S  S28  1  0.64265113  0.85555121  0.80757019  1
  S  S29  1  0.35734887  0.14444879  0.19242981  1
  S  S30  1  0.14444879  0.35734887  0.69242981  1
  S  S31  1  0.85555121  0.64265113  0.30757019  1
  S  S32  1  0.24647972  0.07247077  0.81298473  1
  S  S33  1  0.75352028  0.92752923  0.18701527  1
  S  S34  1  0.92752923  0.75352028  0.68701527  1
  S  S35  1  0.07247077  0.24647972  0.31298473  1
  S  S36  1  0.29651459  0.87028576  0.93555932  1
  S  S37  1  0.70348541  0.12971424  0.06444068  1
  S  S38  1  0.12971424  0.70348541  0.56444068  1
  S  S39  1  0.87028576  0.29651459  0.43555932  1
  S  S40  1  0.53314885  0.14193096  0.68578590  1
  S  S41  1  0.46685115  0.85806904  0.31421410  1
  S  S42  1  0.85806904  0.46685115  0.81421410  1
  S  S43  1  0.14193096  0.53314885  0.18578590  1
