# generated using pymatgen
data_Sr2NbGaO6
_symmetry_space_group_name_H-M   'P 1'
_cell_length_a   5.63458397
_cell_length_b   5.63458397
_cell_length_c   5.65923924
_cell_angle_alpha   119.85598060
_cell_angle_beta   119.85598060
_cell_angle_gamma   90.00000000
_symmetry_Int_Tables_number   1
_chemical_formula_structural   Sr2NbGaO6
_chemical_formula_sum   'Sr2 Nb1 Ga1 O6'
_cell_volume   127.59881599
_cell_formula_units_Z   1
loop_
 _symmetry_equiv_pos_site_id
 _symmetry_equiv_pos_as_xyz
  1  'x, y, z'
loop_
 _atom_site_type_symbol
 _atom_site_label
 _atom_site_symmetry_multiplicity
 _atom_site_fract_x
 _atom_site_fract_y
 _atom_site_fract_z
 _atom_site_occupancy
  Sr  Sr0  1  0.25000000  0.75000000  0.50000000  1
  Sr  Sr1  1  0.75000000  0.25000000  0.50000000  1
  Nb  Nb2  1  0.50000000  0.50000000  -0.00000000  1
  Ga  Ga3  1  -0.00000000  0.00000000  -0.00000000  1
  O  O4  1  0.21746382  0.28155228  0.00000000  1
  O  O5  1  0.78253618  0.71844772  1.00000000  1
  O  O6  1  0.71844772  0.21746382  1.00000000  1
  O  O7  1  0.28155228  0.78253618  0.00000000  1
  O  O8  1  0.24950186  0.24950186  0.49900371  1
  O  O9  1  0.75049814  0.75049814  0.50099629  1
