# generated using pymatgen
data_In3H11C6O19
_symmetry_space_group_name_H-M   'P 1'
_cell_length_a   8.21329296
_cell_length_b   11.34998812
_cell_length_c   11.34460745
_cell_angle_alpha   113.82866794
_cell_angle_beta   103.99206013
_cell_angle_gamma   104.13400192
_symmetry_Int_Tables_number   1
_chemical_formula_structural   In3H11C6O19
_chemical_formula_sum   'In6 H22 C12 O38'
_cell_volume   866.28055712
_cell_formula_units_Z   2
loop_
 _symmetry_equiv_pos_site_id
 _symmetry_equiv_pos_as_xyz
  1  'x, y, z'
loop_
 _atom_site_type_symbol
 _atom_site_label
 _atom_site_symmetry_multiplicity
 _atom_site_fract_x
 _atom_site_fract_y
 _atom_site_fract_z
 _atom_site_occupancy
  In  In0  1  0.44996211  0.58946477  0.59235301  1
  In  In1  1  0.85174231  0.40628436  0.99751727  1
  In  In2  1  0.85280072  0.00189298  0.40056113  1
  In  In3  1  0.95652037  0.60098412  0.59760782  1
  In  In4  1  0.35325023  0.40485447  0.00200951  1
  In  In5  1  0.35723900  0.00379356  0.40599139  1
  H  H6  1  0.19957965  0.66829042  0.49676105  1
  H  H7  1  0.69450837  0.49872360  0.16936138  1
  H  H8  1  0.52502693  0.83306209  0.33481570  1
  H  H9  1  0.69787163  0.49954973  0.66704546  1
  H  H10  1  0.02409091  0.32879315  0.83233934  1
  H  H11  1  0.19488153  0.16881608  0.49789684  1
  H  H12  1  0.53155896  0.88865942  0.67535270  1
  H  H13  1  0.86594340  0.33541518  0.22751111  1
  H  H14  1  0.64404418  0.78633589  0.10933410  1
  H  H15  1  0.05085165  0.64666312  0.86719607  1
  H  H16  1  0.15282740  0.10871006  0.78726769  1
  H  H17  1  0.36932434  0.20991515  0.32603002  1
  H  H18  1  0.53877943  0.84953361  0.79484420  1
  H  H19  1  0.71958215  0.22272247  0.07903043  1
  H  H20  1  0.74873172  0.92323856  0.10653882  1
  H  H21  1  0.12384292  0.80025179  0.89460339  1
  H  H22  1  0.23180048  0.11737951  0.93333370  1
  H  H23  1  0.30094410  0.06253271  0.18680702  1
  H  H24  1  0.03427440  0.95913902  0.02677264  1
  H  H25  1  0.80114566  0.99798053  0.91395620  1
  H  H26  1  0.89127912  0.12127013  0.06820792  1
  H  H27  1  0.50105334  0.05466635  0.03939795  1
  C  C28  1  0.35810534  0.41221997  0.27604914  1
  C  C29  1  0.07609803  0.72330594  0.13062641  1
  C  C30  1  0.94918301  0.86512529  0.58821918  1
  C  C31  1  0.86826546  0.27821260  0.41178504  1
  C  C32  1  0.44709721  0.58564132  0.86157292  1
  C  C33  1  0.58723906  0.13729935  0.72623163  1
  C  C34  1  0.42342838  0.56669209  0.31128778  1
  C  C35  1  0.11146981  0.68964298  0.25228330  1
  C  C36  1  0.85735229  0.74750769  0.43417804  1
  C  C37  1  0.91719322  0.30949017  0.56420255  1
  C  C38  1  0.35173411  0.43159316  0.74453862  1
  C  C39  1  0.60866509  0.25685965  0.69092770  1
  O  O40  1  0.47833396  0.65993969  0.43738633  1
  O  O41  1  0.04097689  0.56305170  0.21974477  1
  O  O42  1  0.81503825  0.78050279  0.34045783  1
  O  O43  1  0.96482287  0.43430830  0.65759991  1
  O  O44  1  0.30936197  0.33857744  0.77876393  1
  O  O45  1  0.53452489  0.22591098  0.56567317  1
  O  O46  1  0.58398812  0.83979712  0.72054148  1
  O  O47  1  0.84855833  0.28503323  0.12608279  1
  O  O48  1  0.75203657  0.87531346  0.16190841  1
  O  O49  1  0.10867968  0.70232280  0.83012543  1
  O  O50  1  0.25799264  0.16180080  0.87843268  1
  O  O51  1  0.38840732  0.12147833  0.28776516  1
  O  O52  1  0.34660187  0.38716871  0.37340751  1
  O  O53  1  0.96794765  0.62534521  0.01107687  1
  O  O54  1  0.96210102  0.98663714  0.61226972  1
  O  O55  1  0.86320280  0.37810199  0.38876255  1
  O  O56  1  0.46128111  0.61045364  0.98377049  1
  O  O57  1  0.48090654  0.01572928  0.62847654  1
  O  O58  1  0.20472431  0.63033213  0.56069972  1
  O  O59  1  0.63626307  0.43631624  0.06799057  1
  O  O60  1  0.56889356  0.93404624  0.37056256  1
  O  O61  1  0.70221533  0.56215396  0.62747719  1
  O  O62  1  0.06902259  0.37183506  0.93434142  1
  O  O63  1  0.13821830  0.06706628  0.43750942  1
  O  O64  1  0.50626348  0.67510479  0.82662586  1
  O  O65  1  0.67996326  0.16999698  0.84983590  1
  O  O66  1  0.84026285  0.15647605  0.32148393  1
  O  O67  1  0.00788767  0.83120525  0.67889434  1
  O  O68  1  0.32212196  0.32170455  0.15191202  1
  O  O69  1  0.16510027  0.84844458  0.16635005  1
  O  O70  1  0.32156353  0.40526620  0.61972012  1
  O  O71  1  0.70174436  0.38134710  0.78982469  1
  O  O72  1  0.91007149  0.20904338  0.58849937  1
  O  O73  1  0.83112233  0.62303561  0.40845094  1
  O  O74  1  0.41953985  0.59236022  0.21193160  1
  O  O75  1  0.20845861  0.78858327  0.37506905  1
  O  O76  1  0.85714958  0.01971297  0.01093142  1
  O  O77  1  0.15296305  0.94948352  0.02779809  1
