# generated using pymatgen
data_FeH10S2NO11
_symmetry_space_group_name_H-M   'P 1'
_cell_length_a   9.63831565
_cell_length_b   10.04710396
_cell_length_c   10.40863047
_cell_angle_alpha   90.00000000
_cell_angle_beta   90.00000000
_cell_angle_gamma   94.55792424
_symmetry_Int_Tables_number   1
_chemical_formula_structural   FeH10S2NO11
_chemical_formula_sum   'Fe4 H40 S8 N4 O44'
_cell_volume   1004.75459441
_cell_formula_units_Z   4
loop_
 _symmetry_equiv_pos_site_id
 _symmetry_equiv_pos_as_xyz
  1  'x, y, z'
loop_
 _atom_site_type_symbol
 _atom_site_label
 _atom_site_symmetry_multiplicity
 _atom_site_fract_x
 _atom_site_fract_y
 _atom_site_fract_z
 _atom_site_occupancy
  Fe  Fe0  1  0.01565138  0.21354725  0.38532891  1
  Fe  Fe1  1  0.48434862  0.78645275  0.88532891  1
  Fe  Fe2  1  0.98434862  0.78645275  0.61467109  1
  Fe  Fe3  1  0.51565138  0.21354725  0.11467109  1
  H  H4  1  0.49171050  0.30025836  0.60035852  1
  H  H5  1  0.00828950  0.69974164  0.10035852  1
  H  H6  1  0.50828950  0.69974164  0.39964148  1
  H  H7  1  0.99171050  0.30025836  0.89964148  1
  H  H8  1  0.63863659  0.37410876  0.53729967  1
  H  H9  1  0.86136341  0.62589124  0.03729967  1
  H  H10  1  0.36136341  0.62589124  0.46270033  1
  H  H11  1  0.13863659  0.37410876  0.96270033  1
  H  H12  1  0.50479017  0.32722499  0.44117565  1
  H  H13  1  0.99520983  0.67277501  0.94117565  1
  H  H14  1  0.49520983  0.67277501  0.55882435  1
  H  H15  1  0.00479017  0.32722499  0.05882435  1
  H  H16  1  0.59761202  0.20699130  0.51361434  1
  H  H17  1  0.90238798  0.79300870  0.01361434  1
  H  H18  1  0.40238798  0.79300870  0.48638566  1
  H  H19  1  0.09761202  0.20699130  0.98638566  1
  H  H20  1  0.95427099  0.32013894  0.61728871  1
  H  H21  1  0.54572901  0.67986106  0.11728871  1
  H  H22  1  0.04572901  0.67986106  0.38271129  1
  H  H23  1  0.45427099  0.32013894  0.88271129  1
  H  H24  1  0.08809593  0.40852715  0.56489700  1
  H  H25  1  0.41190407  0.59147285  0.06489700  1
  H  H26  1  0.91190407  0.59147285  0.43510300  1
  H  H27  1  0.58809593  0.40852715  0.93510300  1
  H  H28  1  0.93836313  0.04126292  0.18517040  1
  H  H29  1  0.56163687  0.95873708  0.68517040  1
  H  H30  1  0.06163687  0.95873708  0.81482960  1
  H  H31  1  0.43836313  0.04126292  0.31482960  1
  H  H32  1  0.10439122  0.04110744  0.20527471  1
  H  H33  1  0.39560878  0.95889256  0.70527471  1
  H  H34  1  0.89560878  0.95889256  0.79472529  1
  H  H35  1  0.60439122  0.04110744  0.29472529  1
  H  H36  1  0.68329897  0.78990287  0.27131739  1
  H  H37  1  0.81670103  0.21009713  0.77131739  1
  H  H38  1  0.31670103  0.21009713  0.72868261  1
  H  H39  1  0.18329897  0.78990287  0.22868261  1
  H  H40  1  0.68703187  0.63162241  0.28224278  1
  H  H41  1  0.81296813  0.36837759  0.78224278  1
  H  H42  1  0.31296813  0.36837759  0.71775722  1
  H  H43  1  0.18703187  0.63162241  0.21775722  1
  S  S44  1  0.77216328  0.98960470  0.48472133  1
  S  S45  1  0.72783672  0.01039530  0.98472133  1
  S  S46  1  0.22783672  0.01039530  0.51527867  1
  S  S47  1  0.27216328  0.98960470  0.01527867  1
  S  S48  1  0.78268828  0.39285623  0.24414049  1
  S  S49  1  0.71731172  0.60714377  0.74414049  1
  S  S50  1  0.21731172  0.60714377  0.75585951  1
  S  S51  1  0.28268828  0.39285623  0.25585951  1
  N  N52  1  0.55931450  0.30076785  0.52190314  1
  N  N53  1  0.94068550  0.69923215  0.02190314  1
  N  N54  1  0.44068550  0.69923215  0.47809686  1
  N  N55  1  0.05931450  0.30076785  0.97809686  1
  O  O56  1  0.65418313  0.04107946  0.55411218  1
  O  O57  1  0.84581687  0.95892054  0.05411218  1
  O  O58  1  0.34581687  0.95892054  0.44588782  1
  O  O59  1  0.15418313  0.04107946  0.94588782  1
  O  O60  1  0.73665387  0.96114843  0.34875273  1
  O  O61  1  0.76334613  0.03885157  0.84875273  1
  O  O62  1  0.26334613  0.03885157  0.65124727  1
  O  O63  1  0.23665387  0.96114843  0.15124727  1
  O  O64  1  0.80990467  0.86281755  0.54788860  1
  O  O65  1  0.69009533  0.13718245  0.04788860  1
  O  O66  1  0.19009533  0.13718245  0.45211140  1
  O  O67  1  0.30990467  0.86281755  0.95211140  1
  O  O68  1  0.89445565  0.09094517  0.49523417  1
  O  O69  1  0.60554435  0.90905483  0.99523417  1
  O  O70  1  0.10554435  0.90905483  0.50476583  1
  O  O71  1  0.39445565  0.09094517  0.00476583  1
  O  O72  1  0.77933187  0.50610415  0.33536438  1
  O  O73  1  0.72066813  0.49389585  0.83536438  1
  O  O74  1  0.22066813  0.49389585  0.66463562  1
  O  O75  1  0.27933187  0.50610415  0.16463562  1
  O  O76  1  0.83628295  0.27509228  0.31149342  1
  O  O77  1  0.66371705  0.72490772  0.81149342  1
  O  O78  1  0.16371705  0.72490772  0.68850658  1
  O  O79  1  0.33628295  0.27509228  0.18850658  1
  O  O80  1  0.63250357  0.35347892  0.20991715  1
  O  O81  1  0.86749643  0.64652108  0.70991715  1
  O  O82  1  0.36749643  0.64652108  0.79008285  1
  O  O83  1  0.13250357  0.35347892  0.29008285  1
  O  O84  1  0.86383543  0.42881255  0.12882078  1
  O  O85  1  0.63616457  0.57118745  0.62882078  1
  O  O86  1  0.13616457  0.57118745  0.87117922  1
  O  O87  1  0.36383543  0.42881255  0.37117922  1
  O  O88  1  0.01853414  0.08360054  0.23341152  1
  O  O89  1  0.48146586  0.91639946  0.73341152  1
  O  O90  1  0.98146586  0.91639946  0.76658848  1
  O  O91  1  0.51853414  0.08360054  0.26658848  1
  O  O92  1  0.00990315  0.34463075  0.53772964  1
  O  O93  1  0.49009685  0.65536925  0.03772964  1
  O  O94  1  0.99009685  0.65536925  0.46227036  1
  O  O95  1  0.50990315  0.34463075  0.96227036  1
  O  O96  1  0.62749208  0.70474721  0.25771851  1
  O  O97  1  0.87250792  0.29525279  0.75771851  1
  O  O98  1  0.37250792  0.29525279  0.74228149  1
  O  O99  1  0.12749208  0.70474721  0.24228149  1
