# generated using pymatgen
data_Pr2(CuSn2)3
_symmetry_space_group_name_H-M   'P 1'
_cell_length_a   4.48579505
_cell_length_b   4.48579505
_cell_length_c   13.47917557
_cell_angle_alpha   99.57841220
_cell_angle_beta   99.57841220
_cell_angle_gamma   90.00000000
_symmetry_Int_Tables_number   1
_chemical_formula_structural   Pr2(CuSn2)3
_chemical_formula_sum   'Pr2 Cu3 Sn6'
_cell_volume   263.61593249
_cell_formula_units_Z   1
loop_
 _symmetry_equiv_pos_site_id
 _symmetry_equiv_pos_as_xyz
  1  'x, y, z'
loop_
 _atom_site_type_symbol
 _atom_site_label
 _atom_site_symmetry_multiplicity
 _atom_site_fract_x
 _atom_site_fract_y
 _atom_site_fract_z
 _atom_site_occupancy
  Pr  Pr0  1  0.99654826  0.99654826  0.99309651  1
  Pr  Pr1  1  0.68481113  0.68481113  0.36962226  1
  Cu  Cu2  1  0.08723382  0.58723382  0.17446765  1
  Cu  Cu3  1  0.58723382  0.08723382  0.17446765  1
  Cu  Cu4  1  0.23512483  0.23512483  0.47024967  1
  Sn  Sn5  1  0.28917473  0.78917473  0.57834946  1
  Sn  Sn6  1  0.78917473  0.28917473  0.57834946  1
  Sn  Sn7  1  0.40086182  0.90086182  0.80172365  1
  Sn  Sn8  1  0.90086182  0.40086182  0.80172365  1
  Sn  Sn9  1  0.13892917  0.13892917  0.27785833  1
  Sn  Sn10  1  0.53064585  0.53064585  0.06129171  1
