# generated using pymatgen
data_InP2H9(NO4)2
_symmetry_space_group_name_H-M   'P 1'
_cell_length_a   6.74795702
_cell_length_b   6.74795702
_cell_length_c   10.05739910
_cell_angle_alpha   108.68565257
_cell_angle_beta   108.68565257
_cell_angle_gamma   92.57922013
_symmetry_Int_Tables_number   1
_chemical_formula_structural   InP2H9(NO4)2
_chemical_formula_sum   'In2 P4 H18 N4 O16'
_cell_volume   405.35689371
_cell_formula_units_Z   2
loop_
 _symmetry_equiv_pos_site_id
 _symmetry_equiv_pos_as_xyz
  1  'x, y, z'
loop_
 _atom_site_type_symbol
 _atom_site_label
 _atom_site_symmetry_multiplicity
 _atom_site_fract_x
 _atom_site_fract_y
 _atom_site_fract_z
 _atom_site_occupancy
  In  In0  1  0.89811663  0.10188337  -0.00000000  1
  In  In1  1  0.14811663  0.85188337  0.50000000  1
  P  P2  1  0.88428708  0.63681365  0.09595192  1
  P  P3  1  0.36318635  0.11571292  0.90404808  1
  P  P4  1  0.03833516  0.29086173  0.40404808  1
  P  P5  1  0.70913827  0.96166484  0.59595192  1
  H  H6  1  0.52521770  0.47478230  -0.00000000  1
  H  H7  1  0.77521770  0.22478230  0.50000000  1
  H  H8  1  0.38068243  0.01034945  0.13528937  1
  H  H9  1  0.98965055  0.61931757  0.86471063  1
  H  H10  1  0.49539306  0.62506008  0.36471063  1
  H  H11  1  0.37493992  0.50460694  0.63528937  1
  H  H12  1  0.51955646  0.82110825  0.17953722  1
  H  H13  1  0.17889175  0.48044354  0.82046278  1
  H  H14  1  0.59001924  0.39157103  0.32046278  1
  H  H15  1  0.60842897  0.40998076  0.67953722  1
  H  H16  1  0.49156770  0.02598447  0.31732989  1
  H  H17  1  0.97401553  0.50843230  0.68267011  1
  H  H18  1  0.42423780  0.45865457  0.18267011  1
  H  H19  1  0.54134543  0.57576220  0.81732989  1
  H  H20  1  0.27677915  0.84888219  0.20307947  1
  H  H21  1  0.15111781  0.72322085  0.79692053  1
  H  H22  1  0.32369968  0.39580272  0.29692053  1
  H  H23  1  0.60419728  0.67630032  0.70307947  1
  N  N24  1  0.41751874  0.92560984  0.20858208  1
  N  N25  1  0.07439016  0.58248126  0.79141792  1
  N  N26  1  0.45893666  0.46702776  0.29141792  1
  N  N27  1  0.53297224  0.54106334  0.70858208  1
  O  O28  1  0.91938640  0.41955455  0.00277419  1
  O  O29  1  0.58044545  0.08061360  0.99722581  1
  O  O30  1  0.16661221  0.16678036  0.49722581  1
  O  O31  1  0.83321964  0.83338779  0.50277419  1
  O  O32  1  0.89980217  0.78077691  0.00416276  1
  O  O33  1  0.21922309  0.10019783  0.99583724  1
  O  O34  1  0.14563941  0.52661415  0.49583724  1
  O  O35  1  0.47338585  0.85436059  0.50416276  1
  O  O36  1  0.05441415  0.73029972  0.25372945  1
  O  O37  1  0.26970028  0.94558585  0.74627055  1
  O  O38  1  0.05068470  0.22657026  0.24627055  1
  O  O39  1  0.77342974  0.94931530  0.75372945  1
  O  O40  1  0.65481982  0.61701940  0.10351584  1
  O  O41  1  0.38298060  0.34518018  0.89648416  1
  O  O42  1  0.80130398  0.26350355  0.39648416  1
  O  O43  1  0.73649645  0.19869602  0.60351584  1
