# generated using pymatgen
data_Y(GaCo)6
_symmetry_space_group_name_H-M   'P 1'
_cell_length_a   5.03798707
_cell_length_b   6.46684577
_cell_length_c   6.46684577
_cell_angle_alpha   83.75659178
_cell_angle_beta   67.07510129
_cell_angle_gamma   67.07510129
_symmetry_Int_Tables_number   1
_chemical_formula_structural   Y(GaCo)6
_chemical_formula_sum   'Y1 Ga6 Co6'
_cell_volume   178.49190198
_cell_formula_units_Z   1
loop_
 _symmetry_equiv_pos_site_id
 _symmetry_equiv_pos_as_xyz
  1  'x, y, z'
loop_
 _atom_site_type_symbol
 _atom_site_label
 _atom_site_symmetry_multiplicity
 _atom_site_fract_x
 _atom_site_fract_y
 _atom_site_fract_z
 _atom_site_occupancy
  Y  Y0  1  0.00000000  0.00000000  -0.00000000  1
  Ga  Ga1  1  0.50000000  0.18877216  0.81122784  1
  Ga  Ga2  1  0.50000000  0.81122784  0.18877216  1
  Ga  Ga3  1  0.34120377  0.65879623  0.65879623  1
  Ga  Ga4  1  0.65879623  0.34120377  0.34120377  1
  Ga  Ga5  1  0.00000000  0.34587022  0.65412978  1
  Ga  Ga6  1  -0.00000000  0.65412978  0.34587022  1
  Co  Co7  1  0.50000000  0.00000000  0.50000000  1
  Co  Co8  1  0.50000000  0.50000000  -0.00000000  1
  Co  Co9  1  0.00000000  0.50000000  -0.00000000  1
  Co  Co10  1  0.00000000  0.00000000  0.50000000  1
  Co  Co11  1  0.26144030  0.23855970  0.23855970  1
  Co  Co12  1  0.73855970  0.76144030  0.76144030  1
