# generated using pymatgen
data_TmAgS2
_symmetry_space_group_name_H-M   'P 1'
_cell_length_a   7.58692157
_cell_length_b   7.58917243
_cell_length_c   12.33395706
_cell_angle_alpha   90.00000000
_cell_angle_beta   90.02184373
_cell_angle_gamma   90.00000000
_symmetry_Int_Tables_number   1
_chemical_formula_structural   TmAgS2
_chemical_formula_sum   'Tm8 Ag8 S16'
_cell_volume   710.17015254
_cell_formula_units_Z   8
loop_
 _symmetry_equiv_pos_site_id
 _symmetry_equiv_pos_as_xyz
  1  'x, y, z'
loop_
 _atom_site_type_symbol
 _atom_site_label
 _atom_site_symmetry_multiplicity
 _atom_site_fract_x
 _atom_site_fract_y
 _atom_site_fract_z
 _atom_site_occupancy
  Tm  Tm0  1  0.50125792  0.27662801  0.25490386  1
  Tm  Tm1  1  0.49874208  0.77662801  0.74509614  1
  Tm  Tm2  1  0.24661591  0.02903642  0.50244111  1
  Tm  Tm3  1  0.75338409  0.52903642  0.49755889  1
  Tm  Tm4  1  0.00010476  0.28327020  0.75361819  1
  Tm  Tm5  1  0.99989524  0.78327020  0.24638181  1
  Tm  Tm6  1  0.25285403  0.52987285  0.00360003  1
  Tm  Tm7  1  0.74714597  0.02987285  0.99639997  1
  Ag  Ag8  1  0.00098570  0.28108208  0.28307924  1
  Ag  Ag9  1  0.99901430  0.78108208  0.71692076  1
  Ag  Ag10  1  0.25221985  0.52877337  0.52181039  1
  Ag  Ag11  1  0.74778015  0.02877337  0.47818961  1
  Ag  Ag12  1  0.49737724  0.77840805  0.20267619  1
  Ag  Ag13  1  0.50262276  0.27840805  0.79732381  1
  Ag  Ag14  1  0.24557632  0.03030590  0.01872055  1
  Ag  Ag15  1  0.75442368  0.53030590  0.98127945  1
  S  S16  1  0.26667118  0.54620941  0.22483194  1
  S  S17  1  0.73332882  0.04620941  0.77516806  1
  S  S18  1  0.48140584  0.26034753  0.03396180  1
  S  S19  1  0.51859416  0.76034753  0.96603820  1
  S  S20  1  0.01863760  0.29752676  0.53387479  1
  S  S21  1  0.98136240  0.79752676  0.46612521  1
  S  S22  1  0.23195223  0.04722956  0.28294123  1
  S  S23  1  0.76804777  0.54722956  0.71705877  1
  S  S24  1  0.51680061  0.26241155  0.47535008  1
  S  S25  1  0.48319939  0.76241155  0.52464992  1
  S  S26  1  0.23288968  0.01220109  0.72405970  1
  S  S27  1  0.76711032  0.51220109  0.27594030  1
  S  S28  1  0.01503919  0.79398982  0.02522584  1
  S  S29  1  0.98496081  0.29398982  0.97477416  1
  S  S30  1  0.73021843  0.00950740  0.21597726  1
  S  S31  1  0.26978157  0.50950740  0.78402274  1
