# generated using pymatgen
data_Tb5Ni2Bi
_symmetry_space_group_name_H-M   'P 1'
_cell_length_a   7.71259622
_cell_length_b   7.71259622
_cell_length_c   8.72545264
_cell_angle_alpha   116.22898608
_cell_angle_beta   116.22898608
_cell_angle_gamma   90.00000000
_symmetry_Int_Tables_number   1
_chemical_formula_structural   Tb5Ni2Bi
_chemical_formula_sum   'Tb10 Ni4 Bi2'
_cell_volume   405.15401191
_cell_formula_units_Z   2
loop_
 _symmetry_equiv_pos_site_id
 _symmetry_equiv_pos_as_xyz
  1  'x, y, z'
loop_
 _atom_site_type_symbol
 _atom_site_label
 _atom_site_symmetry_multiplicity
 _atom_site_fract_x
 _atom_site_fract_y
 _atom_site_fract_z
 _atom_site_occupancy
  Tb  Tb0  1  0.00000000  -0.00000000  0.00000000  1
  Tb  Tb1  1  0.50000000  0.50000000  0.00000000  1
  Tb  Tb2  1  0.28983685  0.78983685  0.26711755  1
  Tb  Tb3  1  0.71016315  0.21016315  0.73288245  1
  Tb  Tb4  1  0.97728070  0.47728070  0.26711755  1
  Tb  Tb5  1  0.47728070  0.28983685  0.26711755  1
  Tb  Tb6  1  0.21016315  0.02271930  0.73288245  1
  Tb  Tb7  1  0.02271930  0.52271930  0.73288245  1
  Tb  Tb8  1  0.52271930  0.71016315  0.73288245  1
  Tb  Tb9  1  0.78983685  0.97728070  0.26711755  1
  Ni  Ni10  1  0.63307183  0.13307183  1.00000000  1
  Ni  Ni11  1  0.36692817  0.86692817  0.00000000  1
  Ni  Ni12  1  0.86692817  0.63307183  0.00000000  1
  Ni  Ni13  1  0.13307183  0.36692817  0.00000000  1
  Bi  Bi14  1  0.25000000  0.25000000  0.50000000  1
  Bi  Bi15  1  0.75000000  0.75000000  0.50000000  1
