# generated using pymatgen
data_Sm2NiPtO6
_symmetry_space_group_name_H-M   'P 1'
_cell_length_a   5.42864887
_cell_length_b   5.78709803
_cell_length_c   7.78688456
_cell_angle_alpha   90.00000000
_cell_angle_beta   89.92208879
_cell_angle_gamma   90.00000000
_symmetry_Int_Tables_number   1
_chemical_formula_structural   Sm2NiPtO6
_chemical_formula_sum   'Sm4 Ni2 Pt2 O12'
_cell_volume   244.63349869
_cell_formula_units_Z   2
loop_
 _symmetry_equiv_pos_site_id
 _symmetry_equiv_pos_as_xyz
  1  'x, y, z'
loop_
 _atom_site_type_symbol
 _atom_site_label
 _atom_site_symmetry_multiplicity
 _atom_site_fract_x
 _atom_site_fract_y
 _atom_site_fract_z
 _atom_site_occupancy
  Sm  Sm0  1  0.02155703  0.42838743  0.25101907  1
  Sm  Sm1  1  0.97844297  0.57161257  0.74898093  1
  Sm  Sm2  1  0.47844297  0.92838743  0.24898093  1
  Sm  Sm3  1  0.52155703  0.07161257  0.75101907  1
  Ni  Ni4  1  0.00000000  -0.00000000  0.50000000  1
  Ni  Ni5  1  0.50000000  0.50000000  -0.00000000  1
  Pt  Pt6  1  0.00000000  -0.00000000  -0.00000000  1
  Pt  Pt7  1  0.50000000  0.50000000  0.50000000  1
  O  O8  1  0.88709322  0.03934100  0.24946036  1
  O  O9  1  0.11290678  0.96065900  0.75053964  1
  O  O10  1  0.61290678  0.53934100  0.25053964  1
  O  O11  1  0.38709322  0.46065900  0.74946036  1
  O  O12  1  0.18845014  0.70084247  0.05842220  1
  O  O13  1  0.81154986  0.29915753  0.94157780  1
  O  O14  1  0.31154986  0.20084247  0.44157780  1
  O  O15  1  0.68845014  0.79915753  0.55842220  1
  O  O16  1  0.30729094  0.19533579  0.05493879  1
  O  O17  1  0.69270906  0.80466421  0.94506121  1
  O  O18  1  0.19270906  0.69533579  0.44506121  1
  O  O19  1  0.80729094  0.30466421  0.55493879  1
