# generated using pymatgen
data_SrCo(GeO3)2
_symmetry_space_group_name_H-M   'P 1'
_cell_length_a   5.58200137
_cell_length_b   6.95762450
_cell_length_c   6.95762450
_cell_angle_alpha   83.80695122
_cell_angle_beta   78.60063971
_cell_angle_gamma   78.60063971
_symmetry_Int_Tables_number   1
_chemical_formula_structural   SrCo(GeO3)2
_chemical_formula_sum   'Sr2 Co2 Ge4 O12'
_cell_volume   258.99409987
_cell_formula_units_Z   2
loop_
 _symmetry_equiv_pos_site_id
 _symmetry_equiv_pos_as_xyz
  1  'x, y, z'
loop_
 _atom_site_type_symbol
 _atom_site_label
 _atom_site_symmetry_multiplicity
 _atom_site_fract_x
 _atom_site_fract_y
 _atom_site_fract_z
 _atom_site_occupancy
  Sr  Sr0  1  0.25000000  0.19498241  0.80501759  1
  Sr  Sr1  1  0.75000000  0.80501759  0.19498241  1
  Co  Co2  1  0.25000000  0.59230014  0.40769986  1
  Co  Co3  1  0.75000000  0.40769986  0.59230014  1
  Ge  Ge4  1  0.21557711  0.12288937  0.31526375  1
  Ge  Ge5  1  0.78442289  0.87711063  0.68473625  1
  Ge  Ge6  1  0.28442289  0.68473625  0.87711063  1
  Ge  Ge7  1  0.71557711  0.31526375  0.12288937  1
  O  O8  1  0.01312459  0.87439482  0.83696104  1
  O  O9  1  0.98687541  0.12560518  0.16303896  1
  O  O10  1  0.48687541  0.16303896  0.12560518  1
  O  O11  1  0.51312459  0.83696104  0.87439482  1
  O  O12  1  0.13364107  0.30996524  0.47624817  1
  O  O13  1  0.86635893  0.69003476  0.52375183  1
  O  O14  1  0.36635893  0.52375183  0.69003476  1
  O  O15  1  0.63364107  0.47624817  0.30996524  1
  O  O16  1  0.31392693  0.88262610  0.40305550  1
  O  O17  1  0.68607307  0.11737390  0.59694450  1
  O  O18  1  0.18607307  0.59694450  0.11737390  1
  O  O19  1  0.81392693  0.40305550  0.88262610  1
