# generated using pymatgen
data_TlCr(SO4)2
_symmetry_space_group_name_H-M   'P 1'
_cell_length_a   4.94628613
_cell_length_b   4.94628613
_cell_length_c   8.71046129
_cell_angle_alpha   90.00000000
_cell_angle_beta   90.00000000
_cell_angle_gamma   119.99999510
_symmetry_Int_Tables_number   1
_chemical_formula_structural   TlCr(SO4)2
_chemical_formula_sum   'Tl1 Cr1 S2 O8'
_cell_volume   184.55689712
_cell_formula_units_Z   1
loop_
 _symmetry_equiv_pos_site_id
 _symmetry_equiv_pos_as_xyz
  1  'x, y, z'
loop_
 _atom_site_type_symbol
 _atom_site_label
 _atom_site_symmetry_multiplicity
 _atom_site_fract_x
 _atom_site_fract_y
 _atom_site_fract_z
 _atom_site_occupancy
  Tl  Tl0  1  0.00000000  -0.00000000  0.50000000  1
  Cr  Cr1  1  0.00000000  -0.00000000  0.00000000  1
  S  S2  1  0.66666700  0.33333300  0.79532433  1
  S  S3  1  0.33333300  0.66666700  0.20467567  1
  O  O4  1  0.90714666  0.25966322  0.85237176  1
  O  O5  1  0.35251656  0.09285334  0.85237176  1
  O  O6  1  0.64748344  0.74033678  0.14762824  1
  O  O7  1  0.74033678  0.64748344  0.85237176  1
  O  O8  1  0.25966322  0.90714666  0.14762824  1
  O  O9  1  0.09285334  0.35251656  0.14762824  1
  O  O10  1  0.66666700  0.33333300  0.62754469  1
  O  O11  1  0.33333300  0.66666700  0.37245531  1
