# generated using pymatgen
data_Tm3Fe2Ge3
_symmetry_space_group_name_H-M   'P 1'
_cell_length_a   4.11137290
_cell_length_b   5.63668889
_cell_length_c   13.58574447
_cell_angle_alpha   90.00000000
_cell_angle_beta   90.00000000
_cell_angle_gamma   111.38896865
_symmetry_Int_Tables_number   1
_chemical_formula_structural   Tm3Fe2Ge3
_chemical_formula_sum   'Tm6 Fe4 Ge6'
_cell_volume   293.15874431
_cell_formula_units_Z   2
loop_
 _symmetry_equiv_pos_site_id
 _symmetry_equiv_pos_as_xyz
  1  'x, y, z'
loop_
 _atom_site_type_symbol
 _atom_site_label
 _atom_site_symmetry_multiplicity
 _atom_site_fract_x
 _atom_site_fract_y
 _atom_site_fract_z
 _atom_site_occupancy
  Tm  Tm0  1  0.35852906  0.71705811  0.25000000  1
  Tm  Tm1  1  0.64147094  0.28294189  0.75000000  1
  Tm  Tm2  1  0.07964920  0.15929840  0.11220145  1
  Tm  Tm3  1  0.92035080  0.84070160  0.88779855  1
  Tm  Tm4  1  0.92035080  0.84070160  0.61220145  1
  Tm  Tm5  1  0.07964920  0.15929840  0.38779855  1
  Fe  Fe6  1  0.21500650  0.43001300  0.58300648  1
  Fe  Fe7  1  0.78499350  0.56998700  0.41699352  1
  Fe  Fe8  1  0.78499350  0.56998700  0.08300648  1
  Fe  Fe9  1  0.21500650  0.43001300  0.91699352  1
  Ge  Ge10  1  0.66663752  0.33327504  0.25000000  1
  Ge  Ge11  1  0.33336248  0.66672496  0.75000000  1
  Ge  Ge12  1  0.37768818  0.75537637  0.04081900  1
  Ge  Ge13  1  0.62231182  0.24462363  0.95918100  1
  Ge  Ge14  1  0.62231182  0.24462363  0.54081900  1
  Ge  Ge15  1  0.37768818  0.75537637  0.45918100  1
