# generated using pymatgen
data_KNb3VCl11
_symmetry_space_group_name_H-M   'P 1'
_cell_length_a   6.88226735
_cell_length_b   13.18747243
_cell_length_c   17.24811945
_cell_angle_alpha   90.00000000
_cell_angle_beta   90.00000000
_cell_angle_gamma   90.00000000
_symmetry_Int_Tables_number   1
_chemical_formula_structural   KNb3VCl11
_chemical_formula_sum   'K4 Nb12 V4 Cl44'
_cell_volume   1565.43433544
_cell_formula_units_Z   4
loop_
 _symmetry_equiv_pos_site_id
 _symmetry_equiv_pos_as_xyz
  1  'x, y, z'
loop_
 _atom_site_type_symbol
 _atom_site_label
 _atom_site_symmetry_multiplicity
 _atom_site_fract_x
 _atom_site_fract_y
 _atom_site_fract_z
 _atom_site_occupancy
  K  K0  1  0.75000000  0.50648250  0.23818305  1
  K  K1  1  0.25000000  0.49351750  0.76181695  1
  K  K2  1  0.25000000  0.99351750  0.73818305  1
  K  K3  1  0.75000000  0.00648250  0.26181695  1
  Nb  Nb4  1  0.95641151  0.75174388  0.98779973  1
  Nb  Nb5  1  0.04358849  0.24825612  0.01220027  1
  Nb  Nb6  1  0.04358849  0.74825612  0.48779973  1
  Nb  Nb7  1  0.45641151  0.24825612  0.01220027  1
  Nb  Nb8  1  0.95641151  0.25174388  0.51220027  1
  Nb  Nb9  1  0.54358849  0.75174388  0.98779973  1
  Nb  Nb10  1  0.54358849  0.25174388  0.51220027  1
  Nb  Nb11  1  0.45641151  0.74825612  0.48779973  1
  Nb  Nb12  1  0.75000000  0.81050380  0.85211142  1
  Nb  Nb13  1  0.25000000  0.18949620  0.14788858  1
  Nb  Nb14  1  0.25000000  0.68949620  0.35211142  1
  Nb  Nb15  1  0.75000000  0.31050380  0.64788858  1
  V  V16  1  0.75000000  0.82065179  0.66467045  1
  V  V17  1  0.25000000  0.17934821  0.33532955  1
  V  V18  1  0.25000000  0.67934821  0.16467045  1
  V  V19  1  0.75000000  0.32065179  0.83532955  1
  Cl  Cl20  1  0.75000000  0.67532181  0.57209188  1
  Cl  Cl21  1  0.25000000  0.32467819  0.42790812  1
  Cl  Cl22  1  0.25000000  0.82467819  0.07209188  1
  Cl  Cl23  1  0.75000000  0.17532181  0.92790812  1
  Cl  Cl24  1  0.75000000  0.63894641  0.90985603  1
  Cl  Cl25  1  0.25000000  0.36105359  0.09014397  1
  Cl  Cl26  1  0.25000000  0.86105359  0.40985603  1
  Cl  Cl27  1  0.75000000  0.13894641  0.59014397  1
  Cl  Cl28  1  0.99141470  0.74460793  0.75325181  1
  Cl  Cl29  1  0.00858530  0.25539207  0.24674819  1
  Cl  Cl30  1  0.00858530  0.75539207  0.25325181  1
  Cl  Cl31  1  0.49141470  0.25539207  0.24674819  1
  Cl  Cl32  1  0.99141470  0.24460793  0.74674819  1
  Cl  Cl33  1  0.50858530  0.74460793  0.75325181  1
  Cl  Cl34  1  0.50858530  0.24460793  0.74674819  1
  Cl  Cl35  1  0.49141470  0.75539207  0.25325181  1
  Cl  Cl36  1  0.49685907  0.89525851  0.58162337  1
  Cl  Cl37  1  0.50314093  0.10474149  0.41837663  1
  Cl  Cl38  1  0.50314093  0.60474149  0.08162337  1
  Cl  Cl39  1  0.99685907  0.10474149  0.41837663  1
  Cl  Cl40  1  0.49685907  0.39525851  0.91837663  1
  Cl  Cl41  1  0.00314093  0.89525851  0.58162337  1
  Cl  Cl42  1  0.00314093  0.39525851  0.91837663  1
  Cl  Cl43  1  0.99685907  0.60474149  0.08162337  1
  Cl  Cl44  1  0.75000000  0.96493485  0.75432111  1
  Cl  Cl45  1  0.25000000  0.03506515  0.24567889  1
  Cl  Cl46  1  0.25000000  0.53506515  0.25432111  1
  Cl  Cl47  1  0.75000000  0.46493485  0.74567889  1
  Cl  Cl48  1  0.99655696  0.91367016  0.91786098  1
  Cl  Cl49  1  0.00344304  0.08632984  0.08213902  1
  Cl  Cl50  1  0.00344304  0.58632984  0.41786098  1
  Cl  Cl51  1  0.49655696  0.08632984  0.08213902  1
  Cl  Cl52  1  0.99655696  0.41367016  0.58213902  1
  Cl  Cl53  1  0.50344304  0.91367016  0.91786098  1
  Cl  Cl54  1  0.50344304  0.41367016  0.58213902  1
  Cl  Cl55  1  0.49655696  0.58632984  0.41786098  1
  Cl  Cl56  1  0.75000000  0.34291914  0.41884692  1
  Cl  Cl57  1  0.25000000  0.65708086  0.58115308  1
  Cl  Cl58  1  0.25000000  0.15708086  0.91884692  1
  Cl  Cl59  1  0.75000000  0.84291914  0.08115308  1
  Cl  Cl60  1  0.75000000  0.82624091  0.41636598  1
  Cl  Cl61  1  0.25000000  0.17375909  0.58363402  1
  Cl  Cl62  1  0.25000000  0.67375909  0.91636598  1
  Cl  Cl63  1  0.75000000  0.32624091  0.08363402  1
