# generated using pymatgen
data_MgU(MoO4)4
_symmetry_space_group_name_H-M   'P 1'
_cell_length_a   6.60506037
_cell_length_b   7.99297335
_cell_length_c   11.64542037
_cell_angle_alpha   90.27596242
_cell_angle_beta   89.94356217
_cell_angle_gamma   89.84381131
_symmetry_Int_Tables_number   1
_chemical_formula_structural   MgU(MoO4)4
_chemical_formula_sum   'Mg2 U2 Mo8 O32'
_cell_volume   614.79943422
_cell_formula_units_Z   2
loop_
 _symmetry_equiv_pos_site_id
 _symmetry_equiv_pos_as_xyz
  1  'x, y, z'
loop_
 _atom_site_type_symbol
 _atom_site_label
 _atom_site_symmetry_multiplicity
 _atom_site_fract_x
 _atom_site_fract_y
 _atom_site_fract_z
 _atom_site_occupancy
  Mg  Mg0  1  0.29694603  0.25028954  0.74987307  1
  Mg  Mg1  1  0.70305397  0.74971046  0.25012693  1
  U  U2  1  0.70417391  0.24925067  0.24990198  1
  U  U3  1  0.29582609  0.75074933  0.75009802  1
  Mo  Mo4  1  0.17038880  0.28700278  0.08896513  1
  Mo  Mo5  1  0.82961120  0.71299722  0.91103487  1
  Mo  Mo6  1  0.16953864  0.21014250  0.41064892  1
  Mo  Mo7  1  0.83046136  0.78985750  0.58935108  1
  Mo  Mo8  1  0.17631888  0.78725605  0.09885672  1
  Mo  Mo9  1  0.82368112  0.21274395  0.90114328  1
  Mo  Mo10  1  0.17662644  0.71072464  0.40124965  1
  Mo  Mo11  1  0.82337356  0.28927536  0.59875035  1
  O  O12  1  0.15377085  0.75214883  0.56522802  1
  O  O13  1  0.84622915  0.24785117  0.43477198  1
  O  O14  1  0.15228207  0.49148507  0.40318174  1
  O  O15  1  0.84771793  0.50851493  0.59681826  1
  O  O16  1  0.15679547  0.50696047  0.09631377  1
  O  O17  1  0.84320453  0.49303953  0.90368623  1
  O  O18  1  0.05588622  0.74848896  0.25000711  1
  O  O19  1  0.94411378  0.25151104  0.74999289  1
  O  O20  1  0.70139716  0.48195465  0.25085260  1
  O  O21  1  0.29860284  0.51804535  0.74914740  1
  O  O22  1  0.56762518  0.26236482  0.63337249  1
  O  O23  1  0.43237482  0.73763518  0.36662751  1
  O  O24  1  0.84713517  0.25237609  0.06516877  1
  O  O25  1  0.15286483  0.74762391  0.93483123  1
  O  O26  1  0.70162336  0.01697277  0.24857816  1
  O  O27  1  0.29837664  0.98302723  0.75142184  1
  O  O28  1  0.15869575  0.24949836  0.93274476  1
  O  O29  1  0.84130425  0.75050164  0.06725524  1
  O  O30  1  0.43031057  0.25203638  0.12738186  1
  O  O31  1  0.56968943  0.74796362  0.87261814  1
  O  O32  1  0.43202414  0.75905737  0.13296618  1
  O  O33  1  0.56797586  0.24094263  0.86703382  1
  O  O34  1  0.84338459  0.00962076  0.59672828  1
  O  O35  1  0.15661541  0.99037924  0.40327172  1
  O  O36  1  0.05860954  0.24834908  0.24988116  1
  O  O37  1  0.94139046  0.75165092  0.75011884  1
  O  O38  1  0.42949630  0.24408239  0.37231767  1
  O  O39  1  0.57050370  0.75591761  0.62768233  1
  O  O40  1  0.15269090  0.00656563  0.09730333  1
  O  O41  1  0.84730910  0.99343437  0.90269667  1
  O  O42  1  0.15742129  0.24754557  0.56698499  1
  O  O43  1  0.84257871  0.75245443  0.43301501  1
