# generated using pymatgen
data_LiYGeO4
_symmetry_space_group_name_H-M   'P 1'
_cell_length_a   5.10753476
_cell_length_b   6.40389555
_cell_length_c   11.16386835
_cell_angle_alpha   90.00000000
_cell_angle_beta   90.00000000
_cell_angle_gamma   90.00000000
_symmetry_Int_Tables_number   1
_chemical_formula_structural   LiYGeO4
_chemical_formula_sum   'Li4 Y4 Ge4 O16'
_cell_volume   365.14913584
_cell_formula_units_Z   4
loop_
 _symmetry_equiv_pos_site_id
 _symmetry_equiv_pos_as_xyz
  1  'x, y, z'
loop_
 _atom_site_type_symbol
 _atom_site_label
 _atom_site_symmetry_multiplicity
 _atom_site_fract_x
 _atom_site_fract_y
 _atom_site_fract_z
 _atom_site_occupancy
  Li  Li0  1  -0.00000000  0.00000000  -0.00000000  1
  Li  Li1  1  0.50000000  0.00000000  0.50000000  1
  Li  Li2  1  -0.00000000  0.50000000  -0.00000000  1
  Li  Li3  1  0.50000000  0.50000000  0.50000000  1
  Y  Y4  1  0.47909407  0.75000000  0.77333005  1
  Y  Y5  1  0.52090593  0.25000000  0.22666995  1
  Y  Y6  1  0.97909407  0.25000000  0.72666995  1
  Y  Y7  1  0.02090593  0.75000000  0.27333005  1
  Ge  Ge8  1  0.92182688  0.75000000  0.58156783  1
  Ge  Ge9  1  0.07817312  0.25000000  0.41843217  1
  Ge  Ge10  1  0.42182688  0.25000000  0.91843217  1
  Ge  Ge11  1  0.57817312  0.75000000  0.08156783  1
  O  O12  1  0.76697159  0.96237265  0.66146052  1
  O  O13  1  0.23302841  0.03762735  0.33853948  1
  O  O14  1  0.26697159  0.03762735  0.83853948  1
  O  O15  1  0.23302841  0.46237265  0.33853948  1
  O  O16  1  0.73302841  0.96237265  0.16146052  1
  O  O17  1  0.76697159  0.53762735  0.66146052  1
  O  O18  1  0.73302841  0.53762735  0.16146052  1
  O  O19  1  0.26697159  0.46237265  0.83853948  1
  O  O20  1  0.72800272  0.75000000  0.93950903  1
  O  O21  1  0.27199728  0.25000000  0.06049097  1
  O  O22  1  0.22800272  0.25000000  0.56049097  1
  O  O23  1  0.77199728  0.75000000  0.43950903  1
  O  O24  1  0.26272742  0.75000000  0.59081356  1
  O  O25  1  0.73727258  0.25000000  0.40918644  1
  O  O26  1  0.76272742  0.25000000  0.90918644  1
  O  O27  1  0.23727258  0.75000000  0.09081356  1
