# generated using pymatgen
data_KLiSm2(MoO4)4
_symmetry_space_group_name_H-M   'P 1'
_cell_length_a   5.35079687
_cell_length_b   7.00999223
_cell_length_c   19.75324547
_cell_angle_alpha   88.87881634
_cell_angle_beta   87.06120999
_cell_angle_gamma   67.56376644
_symmetry_Int_Tables_number   1
_chemical_formula_structural   KLiSm2(MoO4)4
_chemical_formula_sum   'K2 Li2 Sm4 Mo8 O32'
_cell_volume   683.94026437
_cell_formula_units_Z   2
loop_
 _symmetry_equiv_pos_site_id
 _symmetry_equiv_pos_as_xyz
  1  'x, y, z'
loop_
 _atom_site_type_symbol
 _atom_site_label
 _atom_site_symmetry_multiplicity
 _atom_site_fract_x
 _atom_site_fract_y
 _atom_site_fract_z
 _atom_site_occupancy
  K  K0  1  0.46879113  0.06241774  0.75000000  1
  K  K1  1  0.53120887  0.93758226  0.25000000  1
  Li  Li2  1  0.18640714  0.62718572  0.75000000  1
  Li  Li3  1  0.81359286  0.37281428  0.25000000  1
  Sm  Sm4  1  0.35282558  0.29324378  0.96691060  1
  Sm  Sm5  1  0.64717442  0.70675622  0.03308940  1
  Sm  Sm6  1  0.35393063  0.29324378  0.53308940  1
  Sm  Sm7  1  0.64606937  0.70675622  0.46691060  1
  Mo  Mo8  1  0.08058172  0.87515227  0.90784654  1
  Mo  Mo9  1  0.91941828  0.12484773  0.09215346  1
  Mo  Mo10  1  0.04426600  0.87515227  0.59215346  1
  Mo  Mo11  1  0.95573400  0.12484773  0.40784654  1
  Mo  Mo12  1  0.76692666  0.48577902  0.85099314  1
  Mo  Mo13  1  0.23307334  0.51422098  0.14900686  1
  Mo  Mo14  1  0.74729432  0.48577902  0.64900686  1
  Mo  Mo15  1  0.25270568  0.51422098  0.35099314  1
  O  O16  1  0.32767229  0.66197991  0.95661621  1
  O  O17  1  0.67232771  0.33802009  0.04338379  1
  O  O18  1  0.01034780  0.66197991  0.54338379  1
  O  O19  1  0.98965220  0.33802009  0.45661621  1
  O  O20  1  0.51238262  0.71994110  0.82618007  1
  O  O21  1  0.48761738  0.28005890  0.17381993  1
  O  O22  1  0.76767628  0.71994110  0.67381993  1
  O  O23  1  0.23232372  0.28005890  0.32618007  1
  O  O24  1  0.27401441  0.96085405  0.53807360  1
  O  O25  1  0.72598559  0.03914595  0.46192640  1
  O  O26  1  0.76513154  0.96085405  0.96192640  1
  O  O27  1  0.23486846  0.03914595  0.03807360  1
  O  O28  1  0.56890955  0.51914544  0.56771042  1
  O  O29  1  0.43109045  0.48085456  0.43228958  1
  O  O30  1  0.91194501  0.51914544  0.93228958  1
  O  O31  1  0.08805499  0.48085456  0.06771042  1
  O  O32  1  0.19800584  0.81595361  0.67070519  1
  O  O33  1  0.80199416  0.18404639  0.32929481  1
  O  O34  1  0.98604056  0.81595361  0.82929481  1
  O  O35  1  0.01395944  0.18404639  0.17070519  1
  O  O36  1  0.27503414  0.91311836  0.39792683  1
  O  O37  1  0.72496586  0.08688164  0.60207317  1
  O  O38  1  0.81184750  0.91311836  0.10207317  1
  O  O39  1  0.18815250  0.08688164  0.89792683  1
  O  O40  1  0.60432494  0.30291312  0.86616844  1
  O  O41  1  0.39567506  0.69708688  0.13383156  1
  O  O42  1  0.09276194  0.30291312  0.63383156  1
  O  O43  1  0.90723806  0.69708688  0.36616844  1
  O  O44  1  0.56370504  0.40857300  0.71367359  1
  O  O45  1  0.43629496  0.59142700  0.28632641  1
  O  O46  1  0.02772196  0.40857300  0.78632641  1
  O  O47  1  0.97227804  0.59142700  0.21367359  1
