# generated using pymatgen
data_Na5(Sn5Hg)2
_symmetry_space_group_name_H-M   'P 1'
_cell_length_a   11.04122278
_cell_length_b   13.46146377
_cell_length_c   13.51961933
_cell_angle_alpha   90.00000000
_cell_angle_beta   90.00000000
_cell_angle_gamma   90.00000000
_symmetry_Int_Tables_number   1
_chemical_formula_structural   Na5(Sn5Hg)2
_chemical_formula_sum   'Na20 Sn40 Hg8'
_cell_volume   2009.43481684
_cell_formula_units_Z   4
loop_
 _symmetry_equiv_pos_site_id
 _symmetry_equiv_pos_as_xyz
  1  'x, y, z'
loop_
 _atom_site_type_symbol
 _atom_site_label
 _atom_site_symmetry_multiplicity
 _atom_site_fract_x
 _atom_site_fract_y
 _atom_site_fract_z
 _atom_site_occupancy
  Na  Na0  1  0.73788387  0.00000000  0.75000000  1
  Na  Na1  1  0.26211613  0.00000000  0.25000000  1
  Na  Na2  1  0.76211613  0.50000000  0.25000000  1
  Na  Na3  1  0.23788387  0.50000000  0.75000000  1
  Na  Na4  1  0.95755248  0.87031010  0.90422213  1
  Na  Na5  1  0.04244752  0.12968990  0.09577787  1
  Na  Na6  1  0.54244752  0.62968990  0.40422213  1
  Na  Na7  1  0.95755248  0.12968990  0.59577787  1
  Na  Na8  1  0.45755248  0.37031010  0.59577787  1
  Na  Na9  1  0.04244752  0.87031010  0.40422213  1
  Na  Na10  1  0.54244752  0.37031010  0.09577787  1
  Na  Na11  1  0.45755248  0.62968990  0.90422213  1
  Na  Na12  1  0.55401097  0.83780596  0.60721759  1
  Na  Na13  1  0.44598903  0.16219404  0.39278241  1
  Na  Na14  1  0.94598903  0.66219404  0.10721759  1
  Na  Na15  1  0.55401097  0.16219404  0.89278241  1
  Na  Na16  1  0.05401097  0.33780596  0.89278241  1
  Na  Na17  1  0.44598903  0.83780596  0.10721759  1
  Na  Na18  1  0.94598903  0.33780596  0.39278241  1
  Na  Na19  1  0.05401097  0.66219404  0.60721759  1
  Sn  Sn20  1  0.93749091  0.57938301  0.83485725  1
  Sn  Sn21  1  0.06250909  0.42061699  0.16514275  1
  Sn  Sn22  1  0.56250909  0.92061699  0.33485725  1
  Sn  Sn23  1  0.93749091  0.42061699  0.66514275  1
  Sn  Sn24  1  0.43749091  0.07938301  0.66514275  1
  Sn  Sn25  1  0.06250909  0.57938301  0.33485725  1
  Sn  Sn26  1  0.56250909  0.07938301  0.16514275  1
  Sn  Sn27  1  0.43749091  0.92061699  0.83485725  1
  Sn  Sn28  1  0.64359784  0.81603867  0.92989688  1
  Sn  Sn29  1  0.35640216  0.18396133  0.07010312  1
  Sn  Sn30  1  0.85640216  0.68396133  0.42989688  1
  Sn  Sn31  1  0.64359784  0.18396133  0.57010312  1
  Sn  Sn32  1  0.14359784  0.31603867  0.57010312  1
  Sn  Sn33  1  0.35640216  0.81603867  0.42989688  1
  Sn  Sn34  1  0.85640216  0.31603867  0.07010312  1
  Sn  Sn35  1  0.14359784  0.68396133  0.92989688  1
  Sn  Sn36  1  0.59318379  0.58319755  0.67288763  1
  Sn  Sn37  1  0.40681621  0.41680245  0.32711237  1
  Sn  Sn38  1  0.90681621  0.91680245  0.17288763  1
  Sn  Sn39  1  0.59318379  0.41680245  0.82711237  1
  Sn  Sn40  1  0.09318379  0.08319755  0.82711237  1
  Sn  Sn41  1  0.40681621  0.58319755  0.17288763  1
  Sn  Sn42  1  0.90681621  0.08319755  0.32711237  1
  Sn  Sn43  1  0.09318379  0.91680245  0.67288763  1
  Sn  Sn44  1  0.76571564  0.72670317  0.75483729  1
  Sn  Sn45  1  0.23428436  0.27329683  0.24516271  1
  Sn  Sn46  1  0.73428436  0.77329683  0.25483729  1
  Sn  Sn47  1  0.76571564  0.27329683  0.74516271  1
  Sn  Sn48  1  0.26571564  0.22670317  0.74516271  1
  Sn  Sn49  1  0.23428436  0.72670317  0.25483729  1
  Sn  Sn50  1  0.73428436  0.22670317  0.24516271  1
  Sn  Sn51  1  0.26571564  0.77329683  0.75483729  1
  Sn  Sn52  1  0.75944497  0.49877892  0.97531320  1
  Sn  Sn53  1  0.24055503  0.50122108  0.02468680  1
  Sn  Sn54  1  0.74055503  0.00122108  0.47531320  1
  Sn  Sn55  1  0.75944497  0.50122108  0.52468680  1
  Sn  Sn56  1  0.25944497  0.99877892  0.52468680  1
  Sn  Sn57  1  0.24055503  0.49877892  0.47531320  1
  Sn  Sn58  1  0.74055503  0.99877892  0.02468680  1
  Sn  Sn59  1  0.25944497  0.00122108  0.97531320  1
  Hg  Hg60  1  0.86342045  0.84788524  0.59380680  1
  Hg  Hg61  1  0.13657955  0.15211476  0.40619320  1
  Hg  Hg62  1  0.63657955  0.65211476  0.09380680  1
  Hg  Hg63  1  0.86342045  0.15211476  0.90619320  1
  Hg  Hg64  1  0.36342045  0.34788524  0.90619320  1
  Hg  Hg65  1  0.13657955  0.84788524  0.09380680  1
  Hg  Hg66  1  0.63657955  0.34788524  0.40619320  1
  Hg  Hg67  1  0.36342045  0.65211476  0.59380680  1
