# generated using pymatgen
data_CuH
_symmetry_space_group_name_H-M   'P 1'
_cell_length_a   2.83964367
_cell_length_b   2.83964367
_cell_length_c   4.68527655
_cell_angle_alpha   89.94347322
_cell_angle_beta   90.05652678
_cell_angle_gamma   119.98818007
_symmetry_Int_Tables_number   1
_chemical_formula_structural   CuH
_chemical_formula_sum   'Cu2 H2'
_cell_volume   32.72238782
_cell_formula_units_Z   2
loop_
 _symmetry_equiv_pos_site_id
 _symmetry_equiv_pos_as_xyz
  1  'x, y, z'
loop_
 _atom_site_type_symbol
 _atom_site_label
 _atom_site_symmetry_multiplicity
 _atom_site_fract_x
 _atom_site_fract_y
 _atom_site_fract_z
 _atom_site_occupancy
  Cu  Cu0  1  0.66661702  0.33338298  0.72362430  1
  Cu  Cu1  1  0.33338298  0.66661702  0.27637570  1
  H  H2  1  0.66668636  0.33331364  0.18661769  1
  H  H3  1  0.33331364  0.66668636  0.81338231  1
