# generated using pymatgen
data_Rb2Zr(MoO4)3
_symmetry_space_group_name_H-M   'P 1'
_cell_length_a   7.20221431
_cell_length_b   10.45665739
_cell_length_c   10.91855371
_cell_angle_alpha   104.70641244
_cell_angle_beta   90.00000000
_cell_angle_gamma   110.14420707
_symmetry_Int_Tables_number   1
_chemical_formula_structural   Rb2Zr(MoO4)3
_chemical_formula_sum   'Rb4 Zr2 Mo6 O24'
_cell_volume   743.22818754
_cell_formula_units_Z   2
loop_
 _symmetry_equiv_pos_site_id
 _symmetry_equiv_pos_as_xyz
  1  'x, y, z'
loop_
 _atom_site_type_symbol
 _atom_site_label
 _atom_site_symmetry_multiplicity
 _atom_site_fract_x
 _atom_site_fract_y
 _atom_site_fract_z
 _atom_site_occupancy
  Rb  Rb0  1  0.06638451  0.16752210  0.63400998  1
  Rb  Rb1  1  0.10113760  0.16752210  0.13400998  1
  Rb  Rb2  1  0.72511569  0.50991458  0.99798897  1
  Rb  Rb3  1  0.78479888  0.50991458  0.49798897  1
  Zr  Zr4  1  0.42002577  0.83876134  0.56110633  1
  Zr  Zr5  1  0.41873557  0.83876134  0.06110633  1
  Mo  Mo6  1  0.38109432  0.57675943  0.74429071  1
  Mo  Mo7  1  0.19566512  0.57675943  0.24429071  1
  Mo  Mo8  1  0.46019952  0.10595086  0.38405975  1
  Mo  Mo9  1  0.64575134  0.10595086  0.88405975  1
  Mo  Mo10  1  0.80100581  0.83399628  0.30911810  1
  Mo  Mo11  1  0.03299047  0.83399628  0.80911810  1
  O  O12  1  0.12175758  0.51537068  0.71876113  1
  O  O13  1  0.39361310  0.51537068  0.21876113  1
  O  O14  1  0.47729603  0.68664127  0.63357767  1
  O  O15  1  0.20934524  0.68664127  0.13357767  1
  O  O16  1  0.81570522  0.68370433  0.78218835  1
  O  O17  1  0.86799912  0.68370433  0.28218835  1
  O  O18  1  0.44874625  0.67472270  0.91482645  1
  O  O19  1  0.22597645  0.67472270  0.41482645  1
  O  O20  1  0.17039540  0.82113923  0.66771359  1
  O  O21  1  0.65074383  0.82113923  0.16771359  1
  O  O22  1  0.44730440  0.42566230  0.70810018  1
  O  O23  1  0.97835790  0.42566230  0.20810018  1
  O  O24  1  0.96850680  0.98476544  0.83238996  1
  O  O25  1  0.01625865  0.98476544  0.33238996  1
  O  O26  1  0.46278136  0.18191622  0.91811847  1
  O  O27  1  0.71913486  0.18191622  0.41811847  1
  O  O28  1  0.37507168  0.24738417  0.40511027  1
  O  O29  1  0.87231250  0.24738417  0.90511027  1
  O  O30  1  0.66495952  0.85062447  0.45268462  1
  O  O31  1  0.18566495  0.85062447  0.95268462  1
  O  O32  1  0.59605691  0.99923020  0.71650852  1
  O  O33  1  0.40317328  0.99923020  0.21650852  1
  O  O34  1  0.63192656  0.99833439  0.99744695  1
  O  O35  1  0.36640783  0.99833439  0.49744695  1
