# generated using pymatgen
data_La6Mg23Si
_symmetry_space_group_name_H-M   'P 1'
_cell_length_a   10.35844235
_cell_length_b   10.35844235
_cell_length_c   10.35844235
_cell_angle_alpha   60.00000000
_cell_angle_beta   60.00000000
_cell_angle_gamma   60.00000000
_symmetry_Int_Tables_number   1
_chemical_formula_structural   La6Mg23Si
_chemical_formula_sum   'La6 Mg23 Si1'
_cell_volume   785.90194291
_cell_formula_units_Z   1
loop_
 _symmetry_equiv_pos_site_id
 _symmetry_equiv_pos_as_xyz
  1  'x, y, z'
loop_
 _atom_site_type_symbol
 _atom_site_label
 _atom_site_symmetry_multiplicity
 _atom_site_fract_x
 _atom_site_fract_y
 _atom_site_fract_z
 _atom_site_occupancy
  La  La0  1  0.70744040  0.70744040  0.29255960  1
  La  La1  1  0.29255960  0.29255960  0.70744040  1
  La  La2  1  0.70744040  0.29255960  0.70744040  1
  La  La3  1  0.29255960  0.70744040  0.29255960  1
  La  La4  1  0.29255960  0.70744040  0.70744040  1
  La  La5  1  0.70744040  0.29255960  0.29255960  1
  Mg  Mg6  1  0.87723222  0.87723222  0.87723222  1
  Mg  Mg7  1  0.12276778  0.12276778  0.12276778  1
  Mg  Mg8  1  0.36830335  0.87723222  0.87723222  1
  Mg  Mg9  1  0.87723222  0.36830335  0.87723222  1
  Mg  Mg10  1  0.63169665  0.12276778  0.12276778  1
  Mg  Mg11  1  0.12276778  0.63169665  0.12276778  1
  Mg  Mg12  1  0.87723222  0.87723222  0.36830335  1
  Mg  Mg13  1  0.12276778  0.12276778  0.63169665  1
  Mg  Mg14  1  -0.00000000  0.00000000  0.50000000  1
  Mg  Mg15  1  0.50000000  0.50000000  -0.00000000  1
  Mg  Mg16  1  -0.00000000  0.50000000  -0.00000000  1
  Mg  Mg17  1  0.50000000  0.00000000  0.50000000  1
  Mg  Mg18  1  0.50000000  0.00000000  -0.00000000  1
  Mg  Mg19  1  -0.00000000  0.50000000  0.50000000  1
  Mg  Mg20  1  0.66712313  0.66712313  0.66712313  1
  Mg  Mg21  1  0.33287687  0.33287687  0.33287687  1
  Mg  Mg22  1  0.99863061  0.66712313  0.66712313  1
  Mg  Mg23  1  0.66712313  0.99863061  0.66712313  1
  Mg  Mg24  1  0.00136939  0.33287687  0.33287687  1
  Mg  Mg25  1  0.33287687  0.00136939  0.33287687  1
  Mg  Mg26  1  0.66712313  0.66712313  0.99863061  1
  Mg  Mg27  1  0.33287687  0.33287687  0.00136939  1
  Mg  Mg28  1  -0.00000000  0.00000000  -0.00000000  1
  Si  Si29  1  0.50000000  0.50000000  0.50000000  1
