# generated using pymatgen
data_Ho12Al7Si
_symmetry_space_group_name_H-M   'P 1'
_cell_length_a   11.18288943
_cell_length_b   11.18288943
_cell_length_c   11.18288943
_cell_angle_alpha   94.52347796
_cell_angle_beta   117.42364960
_cell_angle_gamma   117.42364960
_symmetry_Int_Tables_number   1
_chemical_formula_structural   Ho12Al7Si
_chemical_formula_sum   'Ho24 Al14 Si2'
_cell_volume   1023.94416153
_cell_formula_units_Z   2
loop_
 _symmetry_equiv_pos_site_id
 _symmetry_equiv_pos_as_xyz
  1  'x, y, z'
loop_
 _atom_site_type_symbol
 _atom_site_label
 _atom_site_symmetry_multiplicity
 _atom_site_fract_x
 _atom_site_fract_y
 _atom_site_fract_z
 _atom_site_occupancy
  Ho  Ho0  1  0.50000000  0.85253129  0.35253129  1
  Ho  Ho1  1  0.50000000  0.14746871  0.64746871  1
  Ho  Ho2  1  0.50000000  0.35253129  0.85253129  1
  Ho  Ho3  1  0.50000000  0.64746871  0.14746871  1
  Ho  Ho4  1  0.73486995  0.79931552  0.66312321  1
  Ho  Ho5  1  0.26513005  0.20068448  0.33687679  1
  Ho  Ho6  1  0.26513005  0.92825326  0.06444558  1
  Ho  Ho7  1  0.13619232  0.06444558  0.79931552  1
  Ho  Ho8  1  0.86380768  0.70068448  0.43555442  1
  Ho  Ho9  1  0.73486995  0.07174674  0.93555442  1
  Ho  Ho10  1  0.86380768  0.93555442  0.20068448  1
  Ho  Ho11  1  0.13619232  0.29931552  0.56444558  1
  Ho  Ho12  1  0.86380768  0.66312321  0.92825326  1
  Ho  Ho13  1  0.13619232  0.57174674  0.83687679  1
  Ho  Ho14  1  0.13619232  0.33687679  0.07174674  1
  Ho  Ho15  1  0.86380768  0.42825326  0.16312321  1
  Ho  Ho16  1  0.73486995  0.43555442  0.57174674  1
  Ho  Ho17  1  0.26513005  0.56444558  0.42825326  1
  Ho  Ho18  1  0.26513005  0.83687679  0.70068448  1
  Ho  Ho19  1  0.73486995  0.16312321  0.29931552  1
  Ho  Ho20  1  0.16008879  0.83004440  0.33004440  1
  Ho  Ho21  1  0.83991121  0.16995560  0.66995560  1
  Ho  Ho22  1  0.50000000  0.66995560  0.83004440  1
  Ho  Ho23  1  0.50000000  0.33004440  0.16995560  1
  Al  Al24  1  0.26416426  0.38208213  0.88208213  1
  Al  Al25  1  0.73583574  0.61791787  0.11791787  1
  Al  Al26  1  0.50000000  0.11791787  0.38208213  1
  Al  Al27  1  0.50000000  0.88208213  0.61791787  1
  Al  Al28  1  -0.00000000  -0.00000000  0.00000000  1
  Al  Al29  1  -0.00000000  0.50000000  0.50000000  1
  Al  Al30  1  0.14353527  0.61834741  0.11834741  1
  Al  Al31  1  0.85646473  0.38165259  0.88165259  1
  Al  Al32  1  0.85646473  0.97481215  0.47481215  1
  Al  Al33  1  0.50000000  0.47481215  0.61834741  1
  Al  Al34  1  0.50000000  0.88165259  0.02518785  1
  Al  Al35  1  0.14353527  0.02518785  0.52518785  1
  Al  Al36  1  0.50000000  0.52518785  0.38165259  1
  Al  Al37  1  0.50000000  0.11834741  0.97481215  1
  Si  Si38  1  -0.00000000  0.75000000  0.75000000  1
  Si  Si39  1  -0.00000000  0.25000000  0.25000000  1
