# generated using pymatgen
data_CuAgAs2H3O8
_symmetry_space_group_name_H-M   'P 1'
_cell_length_a   7.87073210
_cell_length_b   9.39603456
_cell_length_c   9.86840203
_cell_angle_alpha   104.10382657
_cell_angle_beta   90.00000000
_cell_angle_gamma   90.00000000
_symmetry_Int_Tables_number   1
_chemical_formula_structural   CuAgAs2H3O8
_chemical_formula_sum   'Cu4 Ag4 As8 H12 O32'
_cell_volume   707.80513951
_cell_formula_units_Z   4
loop_
 _symmetry_equiv_pos_site_id
 _symmetry_equiv_pos_as_xyz
  1  'x, y, z'
loop_
 _atom_site_type_symbol
 _atom_site_label
 _atom_site_symmetry_multiplicity
 _atom_site_fract_x
 _atom_site_fract_y
 _atom_site_fract_z
 _atom_site_occupancy
  Cu  Cu0  1  0.31785027  0.90575428  0.99547710  1
  Cu  Cu1  1  0.68214973  0.09424572  0.00452290  1
  Cu  Cu2  1  0.81785027  0.09424572  0.50452290  1
  Cu  Cu3  1  0.18214973  0.90575428  0.49547710  1
  Ag  Ag4  1  0.73317114  0.73278571  0.99198044  1
  Ag  Ag5  1  0.26682886  0.26721429  0.00801956  1
  Ag  Ag6  1  0.23317114  0.26721429  0.50801956  1
  Ag  Ag7  1  0.76682886  0.73278571  0.49198044  1
  As  As8  1  0.99340169  0.97061052  0.79643726  1
  As  As9  1  0.00659831  0.02938948  0.20356274  1
  As  As10  1  0.49340169  0.02938948  0.70356274  1
  As  As11  1  0.50659831  0.97061052  0.29643726  1
  As  As12  1  0.81386984  0.43133520  0.67440762  1
  As  As13  1  0.18613016  0.56866480  0.32559238  1
  As  As14  1  0.31386984  0.56866480  0.82559238  1
  As  As15  1  0.68613016  0.43133520  0.17440762  1
  H  H16  1  0.55750762  0.43453497  0.84530502  1
  H  H17  1  0.44249238  0.56546503  0.15469498  1
  H  H18  1  0.05750762  0.56546503  0.65469498  1
  H  H19  1  0.94249238  0.43453497  0.34530502  1
  H  H20  1  0.49422949  0.79370519  0.73366187  1
  H  H21  1  0.50577051  0.20629481  0.26633813  1
  H  H22  1  0.99422949  0.20629481  0.76633813  1
  H  H23  1  0.00577051  0.79370519  0.23366187  1
  H  H24  1  0.83775032  0.43391527  0.97649488  1
  H  H25  1  0.16224968  0.56608473  0.02350512  1
  H  H26  1  0.33775032  0.56608473  0.52350512  1
  H  H27  1  0.66224968  0.43391527  0.47649488  1
  O  O28  1  0.52403287  0.83536486  0.65196281  1
  O  O29  1  0.47596713  0.16463514  0.34803719  1
  O  O30  1  0.02403287  0.16463514  0.84803719  1
  O  O31  1  0.97596713  0.83536486  0.15196281  1
  O  O32  1  0.43732299  0.72381194  0.87691048  1
  O  O33  1  0.56267701  0.27618806  0.12308952  1
  O  O34  1  0.93732299  0.27618806  0.62308952  1
  O  O35  1  0.06267701  0.72381194  0.37691048  1
  O  O36  1  0.16350720  0.87909367  0.83865890  1
  O  O37  1  0.83649280  0.12090633  0.16134110  1
  O  O38  1  0.66350720  0.12090633  0.66134110  1
  O  O39  1  0.33649280  0.87909367  0.33865890  1
  O  O40  1  0.92700540  0.58223663  0.64857411  1
  O  O41  1  0.07299460  0.41776337  0.35142589  1
  O  O42  1  0.42700540  0.41776337  0.85142589  1
  O  O43  1  0.57299460  0.58223663  0.14857411  1
  O  O44  1  0.62993279  0.43015861  0.57536175  1
  O  O45  1  0.37006721  0.56984139  0.42463825  1
  O  O46  1  0.12993279  0.56984139  0.92463825  1
  O  O47  1  0.87006721  0.43015861  0.07536175  1
  O  O48  1  0.97707696  0.92398370  0.61605338  1
  O  O49  1  0.02292304  0.07601630  0.38394662  1
  O  O50  1  0.47707696  0.07601630  0.88394662  1
  O  O51  1  0.52292304  0.92398370  0.11605338  1
  O  O52  1  0.74348646  0.46694066  0.84242943  1
  O  O53  1  0.25651354  0.53305934  0.15757057  1
  O  O54  1  0.24348646  0.53305934  0.65757057  1
  O  O55  1  0.75651354  0.46694066  0.34242943  1
  O  O56  1  0.80950515  0.93594110  0.87782500  1
  O  O57  1  0.19049485  0.06405890  0.12217500  1
  O  O58  1  0.30950515  0.06405890  0.62217500  1
  O  O59  1  0.69049485  0.93594110  0.37782500  1
