# generated using pymatgen
data_CsMo3I3Cl4
_symmetry_space_group_name_H-M   'P 1'
_cell_length_a   10.81364803
_cell_length_b   10.81364803
_cell_length_c   16.33798243
_cell_angle_alpha   90.00000000
_cell_angle_beta   90.00000000
_cell_angle_gamma   120.00000327
_symmetry_Int_Tables_number   1
_chemical_formula_structural   CsMo3I3Cl4
_chemical_formula_sum   'Cs4 Mo12 I12 Cl16'
_cell_volume   1654.52564072
_cell_formula_units_Z   4
loop_
 _symmetry_equiv_pos_site_id
 _symmetry_equiv_pos_as_xyz
  1  'x, y, z'
loop_
 _atom_site_type_symbol
 _atom_site_label
 _atom_site_symmetry_multiplicity
 _atom_site_fract_x
 _atom_site_fract_y
 _atom_site_fract_z
 _atom_site_occupancy
  Cs  Cs0  1  0.00000000  0.00000000  0.99841877  1
  Cs  Cs1  1  0.00000000  0.00000000  0.49841877  1
  Cs  Cs2  1  0.66666700  0.33333300  0.71629295  1
  Cs  Cs3  1  0.33333300  0.66666700  0.21629295  1
  Mo  Mo4  1  0.47757084  0.67397352  0.77791119  1
  Mo  Mo5  1  0.19640268  0.52242916  0.77791119  1
  Mo  Mo6  1  0.80359732  0.32602648  0.27791119  1
  Mo  Mo7  1  0.32602648  0.80359732  0.77791119  1
  Mo  Mo8  1  0.67397352  0.47757084  0.27791119  1
  Mo  Mo9  1  0.52242916  0.19640268  0.27791119  1
  Mo  Mo10  1  0.46893449  0.81184762  0.64674188  1
  Mo  Mo11  1  0.34291313  0.53106551  0.64674188  1
  Mo  Mo12  1  0.65708687  0.18815238  0.14674188  1
  Mo  Mo13  1  0.18815238  0.65708687  0.64674188  1
  Mo  Mo14  1  0.81184762  0.46893449  0.14674188  1
  Mo  Mo15  1  0.53106551  0.34291313  0.14674188  1
  I  I16  1  0.97338360  0.30317291  0.86923937  1
  I  I17  1  0.32978931  0.02661640  0.86923937  1
  I  I18  1  0.67021069  0.69682709  0.36923937  1
  I  I19  1  0.69682709  0.67021069  0.86923937  1
  I  I20  1  0.30317291  0.97338360  0.36923937  1
  I  I21  1  0.02661640  0.32978931  0.36923937  1
  I  I22  1  0.67192232  0.04394304  0.55331959  1
  I  I23  1  0.37202072  0.32807768  0.55331959  1
  I  I24  1  0.62797928  0.95605696  0.05331959  1
  I  I25  1  0.95605696  0.62797928  0.55331959  1
  I  I26  1  0.04394304  0.67192232  0.05331959  1
  I  I27  1  0.32807768  0.37202072  0.05331959  1
  Cl  Cl28  1  0.60789736  0.68584009  0.64883973  1
  Cl  Cl29  1  0.07794273  0.39210264  0.64883973  1
  Cl  Cl30  1  0.92205727  0.31415991  0.14883973  1
  Cl  Cl31  1  0.31415991  0.92205727  0.64883973  1
  Cl  Cl32  1  0.68584009  0.60789736  0.14883973  1
  Cl  Cl33  1  0.39210264  0.07794273  0.14883973  1
  Cl  Cl34  1  0.66666700  0.33333300  0.02572895  1
  Cl  Cl35  1  0.33333300  0.66666700  0.52572895  1
  Cl  Cl36  1  0.66666700  0.33333300  0.39810631  1
  Cl  Cl37  1  0.33333300  0.66666700  0.89810631  1
  Cl  Cl38  1  0.59171282  0.93803170  0.77549926  1
  Cl  Cl39  1  0.34631888  0.40828718  0.77549926  1
  Cl  Cl40  1  0.65368112  0.06196830  0.27549926  1
  Cl  Cl41  1  0.06196830  0.65368112  0.77549926  1
  Cl  Cl42  1  0.93803170  0.59171282  0.27549926  1
  Cl  Cl43  1  0.40828718  0.34631888  0.27549926  1
