# generated using pymatgen
data_CuAgGeSe3
_symmetry_space_group_name_H-M   'P 1'
_cell_length_a   7.18095772
_cell_length_b   7.10893640
_cell_length_c   7.05516201
_cell_angle_alpha   59.74754672
_cell_angle_beta   79.26640220
_cell_angle_gamma   68.30486607
_symmetry_Int_Tables_number   1
_chemical_formula_structural   CuAgGeSe3
_chemical_formula_sum   'Cu2 Ag2 Ge2 Se6'
_cell_volume   289.07235199
_cell_formula_units_Z   2
loop_
 _symmetry_equiv_pos_site_id
 _symmetry_equiv_pos_as_xyz
  1  'x, y, z'
loop_
 _atom_site_type_symbol
 _atom_site_label
 _atom_site_symmetry_multiplicity
 _atom_site_fract_x
 _atom_site_fract_y
 _atom_site_fract_z
 _atom_site_occupancy
  Cu  Cu0  1  0.14918563  0.02603459  0.16576941  1
  Cu  Cu1  1  0.64918563  0.19180401  0.83423059  1
  Ag  Ag2  1  0.63676350  0.86379374  0.49012855  1
  Ag  Ag3  1  0.13676350  0.35392229  0.50987145  1
  Ge  Ge4  1  0.11863274  0.70955994  0.83292336  1
  Ge  Ge5  1  0.61863274  0.54248330  0.16707664  1
  Se  Se6  1  0.53136568  0.25730217  0.50127074  1
  Se  Se7  1  0.03136568  0.75857291  0.49872926  1
  Se  Se8  1  0.00699702  0.05568027  0.86497933  1
  Se  Se9  1  0.50699702  0.92065959  0.13502067  1
  Se  Se10  1  0.00005543  0.40333434  0.15071851  1
  Se  Se11  1  0.50005543  0.55405285  0.84928149  1
