# generated using pymatgen
data_CsPO3
_symmetry_space_group_name_H-M   'P 1'
_cell_length_a   4.39177533
_cell_length_b   6.94380107
_cell_length_c   12.88414567
_cell_angle_alpha   95.07137365
_cell_angle_beta   90.00000000
_cell_angle_gamma   90.00000000
_symmetry_Int_Tables_number   1
_chemical_formula_structural   CsPO3
_chemical_formula_sum   'Cs4 P4 O12'
_cell_volume   391.37183340
_cell_formula_units_Z   4
loop_
 _symmetry_equiv_pos_site_id
 _symmetry_equiv_pos_as_xyz
  1  'x, y, z'
loop_
 _atom_site_type_symbol
 _atom_site_label
 _atom_site_symmetry_multiplicity
 _atom_site_fract_x
 _atom_site_fract_y
 _atom_site_fract_z
 _atom_site_occupancy
  Cs  Cs0  1  0.36516159  0.27632167  0.59166745  1
  Cs  Cs1  1  0.63483841  0.72367833  0.40833255  1
  Cs  Cs2  1  0.86516159  0.22367833  0.90833255  1
  Cs  Cs3  1  0.13483841  0.77632167  0.09166745  1
  P  P4  1  0.00981475  0.81501289  0.68275433  1
  P  P5  1  0.99018525  0.18498711  0.31724567  1
  P  P6  1  0.50981475  0.68498711  0.81724567  1
  P  P7  1  0.49018525  0.31501289  0.18275433  1
  O  O8  1  0.37363237  0.48706416  0.82028169  1
  O  O9  1  0.62636763  0.51293584  0.17971831  1
  O  O10  1  0.87363237  0.01293584  0.67971831  1
  O  O11  1  0.12636763  0.98706416  0.32028169  1
  O  O12  1  0.25501170  0.83534462  0.77888795  1
  O  O13  1  0.74498830  0.16465538  0.22111205  1
  O  O14  1  0.75501170  0.66465538  0.72111205  1
  O  O15  1  0.24498830  0.33534462  0.27888795  1
  O  O16  1  0.15299774  0.71453097  0.58687285  1
  O  O17  1  0.84700226  0.28546903  0.41312715  1
  O  O18  1  0.65299774  0.78546903  0.91312715  1
  O  O19  1  0.34700226  0.21453097  0.08687285  1
