# generated using pymatgen
data_CuP4(RuO7)2
_symmetry_space_group_name_H-M   'P 1'
_cell_length_a   4.88392367
_cell_length_b   6.81523085
_cell_length_c   8.32572144
_cell_angle_alpha   92.74324210
_cell_angle_beta   92.04300620
_cell_angle_gamma   106.51619630
_symmetry_Int_Tables_number   1
_chemical_formula_structural   CuP4(RuO7)2
_chemical_formula_sum   'Cu1 P4 Ru2 O14'
_cell_volume   265.03223695
_cell_formula_units_Z   1
loop_
 _symmetry_equiv_pos_site_id
 _symmetry_equiv_pos_as_xyz
  1  'x, y, z'
loop_
 _atom_site_type_symbol
 _atom_site_label
 _atom_site_symmetry_multiplicity
 _atom_site_fract_x
 _atom_site_fract_y
 _atom_site_fract_z
 _atom_site_occupancy
  Cu  Cu0  1  -0.00000000  0.00000000  0.50000000  1
  P  P1  1  0.38822865  0.76121718  0.80370669  1
  P  P2  1  0.61177135  0.23878282  0.19629331  1
  P  P3  1  0.02458897  0.64858316  0.26716113  1
  P  P4  1  0.97541103  0.35141684  0.73283887  1
  Ru  Ru5  1  0.50000000  0.50000000  0.50000000  1
  Ru  Ru6  1  -0.00000000  0.00000000  -0.00000000  1
  O  O7  1  0.13357833  0.82207170  0.15772076  1
  O  O8  1  0.86642167  0.17792830  0.84227924  1
  O  O9  1  0.48649709  0.76033875  0.62918241  1
  O  O10  1  0.51350291  0.23966125  0.37081759  1
  O  O11  1  0.20599227  0.52886673  0.83723036  1
  O  O12  1  0.79400773  0.47113327  0.16276964  1
  O  O13  1  0.18617587  0.89862444  0.81258410  1
  O  O14  1  0.81382413  0.10137556  0.18741590  1
  O  O15  1  0.26678068  0.56328725  0.32020922  1
  O  O16  1  0.73321932  0.43671275  0.67979078  1
  O  O17  1  0.62349462  0.79700772  0.93650553  1
  O  O18  1  0.37650538  0.20299228  0.06349447  1
  O  O19  1  0.13508784  0.28662473  0.58602363  1
  O  O20  1  0.86491216  0.71337527  0.41397637  1
