# generated using pymatgen
data_Ga2P2H9N2O9F
_symmetry_space_group_name_H-M   'P 1'
_cell_length_a   9.72003326
_cell_length_b   9.88572155
_cell_length_c   10.10097073
_cell_angle_alpha   90.00000000
_cell_angle_beta   90.00000000
_cell_angle_gamma   90.00000000
_symmetry_Int_Tables_number   1
_chemical_formula_structural   Ga2P2H9N2O9F
_chemical_formula_sum   'Ga8 P8 H36 N8 O36 F4'
_cell_volume   970.59765388
_cell_formula_units_Z   4
loop_
 _symmetry_equiv_pos_site_id
 _symmetry_equiv_pos_as_xyz
  1  'x, y, z'
loop_
 _atom_site_type_symbol
 _atom_site_label
 _atom_site_symmetry_multiplicity
 _atom_site_fract_x
 _atom_site_fract_y
 _atom_site_fract_z
 _atom_site_occupancy
  Ga  Ga0  1  0.15516479  0.52130838  0.17755199  1
  Ga  Ga1  1  0.34483521  0.47869162  0.67755199  1
  Ga  Ga2  1  0.84483521  0.02130838  0.32244801  1
  Ga  Ga3  1  0.65516479  0.97869162  0.82244801  1
  Ga  Ga4  1  0.39844001  0.26097280  0.14109927  1
  Ga  Ga5  1  0.10155999  0.73902720  0.64109927  1
  Ga  Ga6  1  0.60155999  0.76097280  0.35890073  1
  Ga  Ga7  1  0.89844001  0.23902720  0.85890073  1
  P  P8  1  0.07892920  0.20273775  0.14201146  1
  P  P9  1  0.42107080  0.79726225  0.64201146  1
  P  P10  1  0.92107080  0.70273775  0.35798854  1
  P  P11  1  0.57892920  0.29726225  0.85798854  1
  P  P12  1  0.42248731  0.48393502  0.36353862  1
  P  P13  1  0.07751269  0.51606498  0.86353862  1
  P  P14  1  0.57751269  0.98393502  0.13646138  1
  P  P15  1  0.92248731  0.01606498  0.63646138  1
  H  H16  1  0.25039406  0.17790434  0.74903663  1
  H  H17  1  0.24960594  0.82209566  0.24903663  1
  H  H18  1  0.74960594  0.67790434  0.75096337  1
  H  H19  1  0.75039406  0.32209566  0.25096337  1
  H  H20  1  0.72156686  0.38220239  0.09478462  1
  H  H21  1  0.77843314  0.61779761  0.59478462  1
  H  H22  1  0.27843314  0.88220239  0.40521538  1
  H  H23  1  0.22156686  0.11779761  0.90521538  1
  H  H24  1  0.11960684  0.32645585  0.54938465  1
  H  H25  1  0.38039316  0.67354415  0.04938465  1
  H  H26  1  0.88039316  0.82645585  0.95061535  1
  H  H27  1  0.61960684  0.17354415  0.45061535  1
  H  H28  1  0.35915525  0.06433965  0.81579466  1
  H  H29  1  0.14084475  0.93566035  0.31579466  1
  H  H30  1  0.64084475  0.56433965  0.68420534  1
  H  H31  1  0.85915525  0.43566035  0.18420534  1
  H  H32  1  0.49483938  0.06666029  0.49331683  1
  H  H33  1  0.00516062  0.93333971  0.99331683  1
  H  H34  1  0.50516062  0.56666029  0.00668317  1
  H  H35  1  0.99483938  0.43333971  0.50668317  1
  H  H36  1  0.04665920  0.32159236  0.39296422  1
  H  H37  1  0.45334080  0.67840764  0.89296422  1
  H  H38  1  0.95334080  0.82159236  0.10703578  1
  H  H39  1  0.54665920  0.17840764  0.60703578  1
  H  H40  1  0.46039345  0.23271910  0.46901384  1
  H  H41  1  0.03960655  0.76728090  0.96901384  1
  H  H42  1  0.53960655  0.73271910  0.03098616  1
  H  H43  1  0.96039345  0.26728090  0.53098616  1
  H  H44  1  0.19897339  0.01528473  0.77197479  1
  H  H45  1  0.30102661  0.98471527  0.27197479  1
  H  H46  1  0.80102661  0.51528473  0.72802521  1
  H  H47  1  0.69897339  0.48471527  0.22802521  1
  H  H48  1  0.20777419  0.56461111  0.48993434  1
  H  H49  1  0.29222581  0.43538889  0.98993434  1
  H  H50  1  0.79222581  0.06461111  0.01006566  1
  H  H51  1  0.70777419  0.93538889  0.51006566  1
  N  N52  1  0.02966066  0.33651401  0.49414614  1
  N  N53  1  0.47033934  0.66348599  0.99414614  1
  N  N54  1  0.97033934  0.83651401  0.00585386  1
  N  N55  1  0.52966066  0.16348599  0.50585386  1
  N  N56  1  0.25713293  0.09318731  0.81182109  1
  N  N57  1  0.24286707  0.90681269  0.31182109  1
  N  N58  1  0.74286707  0.59318731  0.68817891  1
  N  N59  1  0.75713293  0.40681269  0.18817891  1
  O  O60  1  0.23276884  0.15680860  0.13003225  1
  O  O61  1  0.26723116  0.84319140  0.63003225  1
  O  O62  1  0.76723116  0.65680860  0.36996775  1
  O  O63  1  0.73276884  0.34319140  0.86996775  1
  O  O64  1  0.45388292  0.34191399  0.30169736  1
  O  O65  1  0.04611708  0.65808601  0.80169736  1
  O  O66  1  0.54611708  0.84191399  0.19830264  1
  O  O67  1  0.95388292  0.15808601  0.69830264  1
  O  O68  1  0.30857684  0.42985783  0.08736499  1
  O  O69  1  0.19142316  0.57014217  0.58736499  1
  O  O70  1  0.69142316  0.92985783  0.41263501  1
  O  O71  1  0.80857684  0.07014217  0.91263501  1
  O  O72  1  0.26745193  0.51875083  0.34296347  1
  O  O73  1  0.23254807  0.48124917  0.84296347  1
  O  O74  1  0.73254807  0.01875083  0.15703653  1
  O  O75  1  0.76745193  0.98124917  0.65703653  1
  O  O76  1  0.06534162  0.33795061  0.21873966  1
  O  O77  1  0.43465838  0.66204939  0.71873966  1
  O  O78  1  0.93465838  0.83795061  0.28126034  1
  O  O79  1  0.56534162  0.16204939  0.78126034  1
  O  O80  1  0.02976454  0.21663457  0.99674307  1
  O  O81  1  0.47023546  0.78336543  0.49674307  1
  O  O82  1  0.97023546  0.71663457  0.50325693  1
  O  O83  1  0.52976454  0.28336543  0.00325693  1
  O  O84  1  0.00301872  0.08963930  0.21654044  1
  O  O85  1  0.49698128  0.91036070  0.71654044  1
  O  O86  1  0.99698128  0.58963930  0.28345956  1
  O  O87  1  0.50301872  0.41036070  0.78345956  1
  O  O88  1  0.04569025  0.52976956  0.01250950  1
  O  O89  1  0.45430975  0.47023044  0.51250950  1
  O  O90  1  0.95430975  0.02976956  0.48749050  1
  O  O91  1  0.54569025  0.97023044  0.98749050  1
  O  O92  1  0.48191831  0.08900007  0.20324470  1
  O  O93  1  0.01808169  0.91099993  0.70324470  1
  O  O94  1  0.51808169  0.58900007  0.29675530  1
  O  O95  1  0.98191831  0.41099993  0.79675530  1
  F  F96  1  0.22842748  0.70184383  0.13762091  1
  F  F97  1  0.27157252  0.29815617  0.63762091  1
  F  F98  1  0.77157252  0.20184383  0.36237909  1
  F  F99  1  0.72842748  0.79815617  0.86237909  1
