# generated using pymatgen
data_H9C3IN6O
_symmetry_space_group_name_H-M   'P 1'
_cell_length_a   6.39105273
_cell_length_b   7.11331470
_cell_length_c   11.70652167
_cell_angle_alpha   102.85614967
_cell_angle_beta   92.32533734
_cell_angle_gamma   104.53844523
_symmetry_Int_Tables_number   1
_chemical_formula_structural   H9C3IN6O
_chemical_formula_sum   'H18 C6 I2 N12 O2'
_cell_volume   499.61278165
_cell_formula_units_Z   2
loop_
 _symmetry_equiv_pos_site_id
 _symmetry_equiv_pos_as_xyz
  1  'x, y, z'
loop_
 _atom_site_type_symbol
 _atom_site_label
 _atom_site_symmetry_multiplicity
 _atom_site_fract_x
 _atom_site_fract_y
 _atom_site_fract_z
 _atom_site_occupancy
  H  H0  1  0.62401667  0.75284966  0.12927057  1
  H  H1  1  0.37598333  0.24715034  0.87072943  1
  H  H2  1  0.14584161  0.04945710  0.36343047  1
  H  H3  1  0.85415839  0.95054290  0.63656953  1
  H  H4  1  0.66610812  0.05777242  0.71140085  1
  H  H5  1  0.33389188  0.94222758  0.28859915  1
  H  H6  1  0.74347708  0.18209352  0.42721961  1
  H  H7  1  0.25652292  0.81790648  0.57278039  1
  H  H8  1  0.50130053  0.91408489  0.07414667  1
  H  H9  1  0.49869947  0.08591511  0.92585333  1
  H  H10  1  0.16108225  0.51256142  0.77565205  1
  H  H11  1  0.83891775  0.48743858  0.22434795  1
  H  H12  1  0.10511196  0.46182937  0.91395164  1
  H  H13  1  0.89488804  0.53817063  0.08604836  1
  H  H14  1  0.21330507  0.58640020  0.56010303  1
  H  H15  1  0.78669493  0.41359980  0.43989697  1
  H  H16  1  0.01371107  0.73462723  0.70547073  1
  H  H17  1  0.98628893  0.26537277  0.29452927  1
  C  C18  1  0.29019217  0.20407100  0.03209342  1
  C  C19  1  0.70980783  0.79592900  0.96790658  1
  C  C20  1  0.04980706  0.34608656  0.13504965  1
  C  C21  1  0.95019294  0.65391344  0.86495035  1
  C  C22  1  0.21045009  0.12476835  0.20713984  1
  C  C23  1  0.78954991  0.87523165  0.79286016  1
  I  I24  1  0.38647952  0.25526064  0.64011883  1
  I  I25  1  0.61352048  0.74473936  0.35988117  1
  N  N26  1  0.32181188  0.10150585  0.11351184  1
  N  N27  1  0.67818812  0.89849415  0.88648816  1
  N  N28  1  0.22619219  0.02752898  0.29057876  1
  N  N29  1  0.77380781  0.97247102  0.70942124  1
  N  N30  1  0.08391733  0.53667479  0.85014500  1
  N  N31  1  0.91608267  0.46332521  0.14985500  1
  N  N32  1  0.15548374  0.32550412  0.03882487  1
  N  N33  1  0.84451626  0.67449588  0.96117513  1
  N  N34  1  0.59982922  0.81796810  0.06212126  1
  N  N35  1  0.40017078  0.18203190  0.93787874  1
  N  N36  1  0.07390449  0.24705821  0.22048131  1
  N  N37  1  0.92609551  0.75294179  0.77951869  1
  O  O38  1  0.15374513  0.70039741  0.58802078  1
  O  O39  1  0.84625487  0.29960259  0.41197922  1
