# generated using pymatgen
data_Ba3Sm(BO2)9
_symmetry_space_group_name_H-M   'P 1'
_cell_length_a   7.30711982
_cell_length_b   7.30711983
_cell_length_c   17.77470867
_cell_angle_alpha   90.00000000
_cell_angle_beta   90.00000000
_cell_angle_gamma   119.99999489
_symmetry_Int_Tables_number   1
_chemical_formula_structural   Ba3Sm(BO2)9
_chemical_formula_sum   'Ba6 Sm2 B18 O36'
_cell_volume   821.91253464
_cell_formula_units_Z   2
loop_
 _symmetry_equiv_pos_site_id
 _symmetry_equiv_pos_as_xyz
  1  'x, y, z'
loop_
 _atom_site_type_symbol
 _atom_site_label
 _atom_site_symmetry_multiplicity
 _atom_site_fract_x
 _atom_site_fract_y
 _atom_site_fract_z
 _atom_site_occupancy
  Ba  Ba0  1  0.66666700  0.33333300  0.86669088  1
  Ba  Ba1  1  0.33333300  0.66666700  0.13330912  1
  Ba  Ba2  1  0.33333300  0.66666700  0.36669088  1
  Ba  Ba3  1  0.66666700  0.33333300  0.63330912  1
  Ba  Ba4  1  0.00000000  0.00000000  0.75000000  1
  Ba  Ba5  1  0.00000000  0.00000000  0.25000000  1
  Sm  Sm6  1  0.00000000  0.00000000  0.00000000  1
  Sm  Sm7  1  0.00000000  0.00000000  0.50000000  1
  B  B8  1  0.54881163  0.83519497  0.91774546  1
  B  B9  1  0.45118837  0.16480503  0.08225454  1
  B  B10  1  0.28638335  0.45118837  0.91774546  1
  B  B11  1  0.45118837  0.16480503  0.41774546  1
  B  B12  1  0.71361665  0.54881163  0.08225454  1
  B  B13  1  0.54881163  0.83519497  0.58225454  1
  B  B14  1  0.16480503  0.71361665  0.91774546  1
  B  B15  1  0.71361665  0.54881163  0.41774546  1
  B  B16  1  0.83519497  0.28638335  0.08225454  1
  B  B17  1  0.28638335  0.45118837  0.58225454  1
  B  B18  1  0.83519497  0.28638335  0.41774546  1
  B  B19  1  0.16480503  0.71361665  0.58225454  1
  B  B20  1  0.50445227  0.62201996  0.75000000  1
  B  B21  1  0.49554773  0.37798004  0.25000000  1
  B  B22  1  0.11756769  0.49554773  0.75000000  1
  B  B23  1  0.88243231  0.50445227  0.25000000  1
  B  B24  1  0.37798004  0.88243231  0.75000000  1
  B  B25  1  0.62201996  0.11756769  0.25000000  1
  O  O26  1  0.54110491  0.83238405  0.75000000  1
  O  O27  1  0.45889509  0.16761595  0.25000000  1
  O  O28  1  0.29127914  0.45889509  0.75000000  1
  O  O29  1  0.70872086  0.54110491  0.25000000  1
  O  O30  1  0.16761595  0.70872086  0.75000000  1
  O  O31  1  0.83238405  0.29127914  0.25000000  1
  O  O32  1  0.92086480  0.33357747  0.75000000  1
  O  O33  1  0.07913520  0.66642253  0.25000000  1
  O  O34  1  0.41271267  0.07913520  0.75000000  1
  O  O35  1  0.58728733  0.92086480  0.25000000  1
  O  O36  1  0.66642253  0.58728733  0.75000000  1
  O  O37  1  0.33357747  0.41271267  0.25000000  1
  O  O38  1  0.74676372  0.99590313  0.91764456  1
  O  O39  1  0.25323628  0.00409687  0.08235544  1
  O  O40  1  0.24913941  0.25323628  0.91764456  1
  O  O41  1  0.25323628  0.00409687  0.41764456  1
  O  O42  1  0.75086059  0.74676372  0.08235544  1
  O  O43  1  0.74676372  0.99590313  0.58235544  1
  O  O44  1  0.00409687  0.75086059  0.91764456  1
  O  O45  1  0.75086059  0.74676372  0.41764456  1
  O  O46  1  0.99590313  0.24913941  0.08235544  1
  O  O47  1  0.24913941  0.25323628  0.58235544  1
  O  O48  1  0.99590313  0.24913941  0.41764456  1
  O  O49  1  0.00409687  0.75086059  0.58235544  1
  O  O50  1  0.49694333  0.62144045  0.91810947  1
  O  O51  1  0.50305667  0.37855955  0.08189053  1
  O  O52  1  0.12449712  0.50305667  0.91810947  1
  O  O53  1  0.50305667  0.37855955  0.41810947  1
  O  O54  1  0.87550288  0.49694333  0.08189053  1
  O  O55  1  0.49694333  0.62144045  0.58189053  1
  O  O56  1  0.37855955  0.87550288  0.91810947  1
  O  O57  1  0.87550288  0.49694333  0.41810947  1
  O  O58  1  0.62144045  0.12449712  0.08189053  1
  O  O59  1  0.12449712  0.50305667  0.58189053  1
  O  O60  1  0.62144045  0.12449712  0.41810947  1
  O  O61  1  0.37855955  0.87550288  0.58189053  1
