# generated using pymatgen
data_CaH16C4(N7O2)2
_symmetry_space_group_name_H-M   'P 1'
_cell_length_a   8.34901865
_cell_length_b   10.36628326
_cell_length_c   10.36628326
_cell_angle_alpha   80.28897134
_cell_angle_beta   77.00987318
_cell_angle_gamma   77.00987318
_symmetry_Int_Tables_number   1
_chemical_formula_structural   CaH16C4(N7O2)2
_chemical_formula_sum   'Ca2 H32 C8 N28 O8'
_cell_volume   845.23042785
_cell_formula_units_Z   2
loop_
 _symmetry_equiv_pos_site_id
 _symmetry_equiv_pos_as_xyz
  1  'x, y, z'
loop_
 _atom_site_type_symbol
 _atom_site_label
 _atom_site_symmetry_multiplicity
 _atom_site_fract_x
 _atom_site_fract_y
 _atom_site_fract_z
 _atom_site_occupancy
  Ca  Ca0  1  0.25000000  0.74828512  0.25171488  1
  Ca  Ca1  1  0.75000000  0.25171488  0.74828512  1
  H  H2  1  0.12713820  0.15607099  0.60708048  1
  H  H3  1  0.87286180  0.84392901  0.39291952  1
  H  H4  1  0.37286180  0.39291952  0.84392901  1
  H  H5  1  0.62713820  0.60708048  0.15607099  1
  H  H6  1  0.47025020  0.24985396  0.44876117  1
  H  H7  1  0.52974980  0.75014604  0.55123883  1
  H  H8  1  0.02974980  0.55123883  0.75014604  1
  H  H9  1  0.97025020  0.44876117  0.24985396  1
  H  H10  1  0.30938530  0.03485588  0.62961255  1
  H  H11  1  0.69061470  0.96514412  0.37038745  1
  H  H12  1  0.19061470  0.37038745  0.96514412  1
  H  H13  1  0.80938530  0.62961255  0.03485588  1
  H  H14  1  0.49170254  0.38522702  0.52256987  1
  H  H15  1  0.50829746  0.61477298  0.47743013  1
  H  H16  1  0.00829746  0.47743013  0.61477298  1
  H  H17  1  0.99170254  0.52256987  0.38522702  1
  H  H18  1  0.09253382  0.75428305  0.72102671  1
  H  H19  1  0.90746618  0.24571695  0.27897329  1
  H  H20  1  0.40746618  0.27897329  0.24571695  1
  H  H21  1  0.59253382  0.72102671  0.75428305  1
  H  H22  1  0.31885944  0.90779152  0.83107109  1
  H  H23  1  0.68114056  0.09220848  0.16892891  1
  H  H24  1  0.18114056  0.16892891  0.09220848  1
  H  H25  1  0.81885944  0.83107109  0.90779152  1
  H  H26  1  0.12973719  0.84354253  0.55984884  1
  H  H27  1  0.87026281  0.15645747  0.44015116  1
  H  H28  1  0.37026281  0.44015116  0.15645747  1
  H  H29  1  0.62973719  0.55984884  0.84354253  1
  H  H30  1  0.64331418  0.96170733  0.92151864  1
  H  H31  1  0.35668582  0.03829267  0.07848136  1
  H  H32  1  0.85668582  0.07848136  0.03829267  1
  H  H33  1  0.14331418  0.92151864  0.96170733  1
  C  C34  1  0.05849886  0.66713373  0.56893224  1
  C  C35  1  0.94150114  0.33286627  0.43106776  1
  C  C36  1  0.44150114  0.43106776  0.33286627  1
  C  C37  1  0.55849886  0.56893224  0.66713373  1
  C  C38  1  0.10991747  0.04200746  0.78890967  1
  C  C39  1  0.89008253  0.95799254  0.21109033  1
  C  C40  1  0.39008253  0.21109033  0.95799254  1
  C  C41  1  0.60991747  0.78890967  0.04200746  1
  N  N42  1  0.19400918  0.94018250  0.86278002  1
  N  N43  1  0.80599082  0.05981750  0.13721998  1
  N  N44  1  0.30599082  0.13721998  0.05981750  1
  N  N45  1  0.69400918  0.86278002  0.94018250  1
  N  N46  1  0.18874010  0.07971976  0.66411440  1
  N  N47  1  0.81125990  0.92028024  0.33588560  1
  N  N48  1  0.31125990  0.33588560  0.92028024  1
  N  N49  1  0.68874010  0.66411440  0.07971976  1
  N  N50  1  0.46622552  0.34932816  0.44497184  1
  N  N51  1  0.53377448  0.65067184  0.55502816  1
  N  N52  1  0.03377448  0.55502816  0.65067184  1
  N  N53  1  0.96622552  0.44497184  0.34932816  1
  N  N54  1  0.36793959  0.99739829  0.36670496  1
  N  N55  1  0.63206041  0.00260171  0.63329504  1
  N  N56  1  0.13206041  0.63329504  0.00260171  1
  N  N57  1  0.86793959  0.36670496  0.99739829  1
  N  N58  1  0.55339858  0.91795619  0.64517955  1
  N  N59  1  0.44660142  0.08204381  0.35482045  1
  N  N60  1  0.94660142  0.35482045  0.08204381  1
  N  N61  1  0.05339858  0.64517955  0.91795619  1
  N  N62  1  0.28990056  0.91188295  0.38053271  1
  N  N63  1  0.71009944  0.08811705  0.61946729  1
  N  N64  1  0.21009944  0.61946729  0.08811705  1
  N  N65  1  0.78990056  0.38053271  0.91188295  1
  N  N66  1  0.07923087  0.77024207  0.62365077  1
  N  N67  1  0.92076913  0.22975793  0.37634923  1
  N  N68  1  0.42076913  0.37634923  0.22975793  1
  N  N69  1  0.57923087  0.62365077  0.77024207  1
  O  O70  1  0.03974608  0.90283899  0.16482485  1
  O  O71  1  0.96025392  0.09716101  0.83517515  1
  O  O72  1  0.46025392  0.83517515  0.09716101  1
  O  O73  1  0.53974608  0.16482485  0.90283899  1
  O  O74  1  0.05899146  0.67706965  0.44377624  1
  O  O75  1  0.94100854  0.32293035  0.55622376  1
  O  O76  1  0.44100854  0.55622376  0.32293035  1
  O  O77  1  0.55899146  0.44377624  0.67706965  1
