# generated using pymatgen
data_Ba3Ho(BO2)9
_symmetry_space_group_name_H-M   'P 1'
_cell_length_a   7.27178972
_cell_length_b   7.27178973
_cell_length_c   17.47789493
_cell_angle_alpha   90.00000000
_cell_angle_beta   90.00000000
_cell_angle_gamma   120.00000535
_symmetry_Int_Tables_number   1
_chemical_formula_structural   Ba3Ho(BO2)9
_chemical_formula_sum   'Ba6 Ho2 B18 O36'
_cell_volume   800.39129577
_cell_formula_units_Z   2
loop_
 _symmetry_equiv_pos_site_id
 _symmetry_equiv_pos_as_xyz
  1  'x, y, z'
loop_
 _atom_site_type_symbol
 _atom_site_label
 _atom_site_symmetry_multiplicity
 _atom_site_fract_x
 _atom_site_fract_y
 _atom_site_fract_z
 _atom_site_occupancy
  Ba  Ba0  1  0.66666700  0.33333300  0.86777647  1
  Ba  Ba1  1  0.33333300  0.66666700  0.13222353  1
  Ba  Ba2  1  0.33333300  0.66666700  0.36777647  1
  Ba  Ba3  1  0.66666700  0.33333300  0.63222353  1
  Ba  Ba4  1  -0.00000000  -0.00000000  0.75000000  1
  Ba  Ba5  1  -0.00000000  -0.00000000  0.25000000  1
  Ho  Ho6  1  -0.00000000  -0.00000000  0.00000000  1
  Ho  Ho7  1  -0.00000000  -0.00000000  0.50000000  1
  B  B8  1  0.55037962  0.83483988  0.91834108  1
  B  B9  1  0.44962038  0.16516012  0.08165892  1
  B  B10  1  0.28446026  0.44962038  0.91834108  1
  B  B11  1  0.44962038  0.16516012  0.41834108  1
  B  B12  1  0.71553974  0.55037962  0.08165892  1
  B  B13  1  0.55037962  0.83483988  0.58165892  1
  B  B14  1  0.16516012  0.71553974  0.91834108  1
  B  B15  1  0.71553974  0.55037962  0.41834108  1
  B  B16  1  0.83483988  0.28446026  0.08165892  1
  B  B17  1  0.28446026  0.44962038  0.58165892  1
  B  B18  1  0.83483988  0.28446026  0.41834108  1
  B  B19  1  0.16516012  0.71553974  0.58165892  1
  B  B20  1  0.50480047  0.62220053  0.75000000  1
  B  B21  1  0.49519953  0.37779947  0.25000000  1
  B  B22  1  0.11740006  0.49519953  0.75000000  1
  B  B23  1  0.88259994  0.50480047  0.25000000  1
  B  B24  1  0.37779947  0.88259994  0.75000000  1
  B  B25  1  0.62220053  0.11740006  0.25000000  1
  O  O26  1  0.54198918  0.83302824  0.75000000  1
  O  O27  1  0.45801082  0.16697176  0.25000000  1
  O  O28  1  0.29103907  0.45801082  0.75000000  1
  O  O29  1  0.70896093  0.54198918  0.25000000  1
  O  O30  1  0.16697176  0.70896093  0.75000000  1
  O  O31  1  0.83302824  0.29103907  0.25000000  1
  O  O32  1  0.92004922  0.33292026  0.75000000  1
  O  O33  1  0.07995078  0.66707974  0.25000000  1
  O  O34  1  0.41287103  0.07995078  0.75000000  1
  O  O35  1  0.58712897  0.92004922  0.25000000  1
  O  O36  1  0.66707974  0.58712897  0.75000000  1
  O  O37  1  0.33292026  0.41287103  0.25000000  1
  O  O38  1  0.75021431  0.99464429  0.91942976  1
  O  O39  1  0.24978569  0.00535571  0.08057024  1
  O  O40  1  0.24442998  0.24978569  0.91942976  1
  O  O41  1  0.24978569  0.00535571  0.41942976  1
  O  O42  1  0.75557002  0.75021431  0.08057024  1
  O  O43  1  0.75021431  0.99464429  0.58057024  1
  O  O44  1  0.00535571  0.75557002  0.91942976  1
  O  O45  1  0.75557002  0.75021431  0.41942976  1
  O  O46  1  0.99464429  0.24442998  0.08057024  1
  O  O47  1  0.24442998  0.24978569  0.58057024  1
  O  O48  1  0.99464429  0.24442998  0.41942976  1
  O  O49  1  0.00535571  0.75557002  0.58057024  1
  O  O50  1  0.49647744  0.61955664  0.91803458  1
  O  O51  1  0.50352256  0.38044336  0.08196542  1
  O  O52  1  0.12307920  0.50352256  0.91803458  1
  O  O53  1  0.50352256  0.38044336  0.41803458  1
  O  O54  1  0.87692080  0.49647744  0.08196542  1
  O  O55  1  0.49647744  0.61955664  0.58196542  1
  O  O56  1  0.38044336  0.87692080  0.91803458  1
  O  O57  1  0.87692080  0.49647744  0.41803458  1
  O  O58  1  0.61955664  0.12307920  0.08196542  1
  O  O59  1  0.12307920  0.50352256  0.58196542  1
  O  O60  1  0.61955664  0.12307920  0.41803458  1
  O  O61  1  0.38044336  0.87692080  0.58196542  1
