# generated using pymatgen
data_K3Zr4Si12HO44
_symmetry_space_group_name_H-M   'P 1'
_cell_length_a   7.41540399
_cell_length_b   10.37634585
_cell_length_c   13.67456417
_cell_angle_alpha   89.94704278
_cell_angle_beta   92.69390112
_cell_angle_gamma   89.85576758
_symmetry_Int_Tables_number   1
_chemical_formula_structural   K3Zr4Si12HO44
_chemical_formula_sum   'K3 Zr4 Si12 H1 O44'
_cell_volume   1051.01986554
_cell_formula_units_Z   1
loop_
 _symmetry_equiv_pos_site_id
 _symmetry_equiv_pos_as_xyz
  1  'x, y, z'
loop_
 _atom_site_type_symbol
 _atom_site_label
 _atom_site_symmetry_multiplicity
 _atom_site_fract_x
 _atom_site_fract_y
 _atom_site_fract_z
 _atom_site_occupancy
  K  K0  1  0.27660924  0.30563427  0.88728273  1
  K  K1  1  0.27663939  0.19554771  0.38825297  1
  K  K2  1  0.73435233  0.69387310  0.10835224  1
  Zr  Zr3  1  0.29999061  0.77866655  0.70161004  1
  Zr  Zr4  1  0.73942196  0.28985197  0.78296143  1
  Zr  Zr5  1  0.75099824  0.20400500  0.29885241  1
  Zr  Zr6  1  0.25097735  0.70520239  0.19695305  1
  Si  Si7  1  0.70578159  0.20389341  0.55215885  1
  Si  Si8  1  0.27985010  0.69505281  0.94739190  1
  Si  Si9  1  0.28579114  0.78047380  0.44867650  1
  Si  Si10  1  0.72109988  0.28567160  0.05305775  1
  Si  Si11  1  0.59678277  0.59669321  0.84410395  1
  Si  Si12  1  0.41007230  0.10116494  0.66786775  1
  Si  Si13  1  0.42092904  0.39396983  0.16426709  1
  Si  Si14  1  0.57716212  0.89289793  0.32836777  1
  Si  Si15  1  0.99879028  0.07377425  0.66885683  1
  Si  Si16  1  0.99467355  0.56678325  0.83459057  1
  Si  Si17  1  0.98484239  0.91502366  0.32895443  1
  Si  Si18  1  0.01469864  0.41850620  0.17300967  1
  H  H19  1  0.93186491  0.86157742  0.69279308  1
  O  O20  1  0.42523796  0.94743306  0.68956467  1
  O  O21  1  0.57916560  0.44227182  0.83192376  1
  O  O22  1  0.56626091  0.04776316  0.31122449  1
  O  O23  1  0.43207021  0.54997663  0.17552229  1
  O  O24  1  0.66710711  0.05495276  0.02106092  1
  O  O25  1  0.42184938  0.51624012  0.40732055  1
  O  O26  1  0.23076302  0.06276895  0.98209892  1
  O  O27  1  0.66074990  0.57747233  0.51907175  1
  O  O28  1  0.03805226  0.91371778  0.68113575  1
  O  O29  1  0.95962019  0.41904184  0.80358488  1
  O  O30  1  0.95945703  0.07012033  0.32156276  1
  O  O31  1  0.04200350  0.57276560  0.18612843  1
  O  O32  1  0.19469834  0.13550017  0.64618764  1
  O  O33  1  0.80921645  0.63809573  0.86849922  1
  O  O34  1  0.78820243  0.84507404  0.34430415  1
  O  O35  1  0.20828761  0.34937081  0.14772589  1
  O  O36  1  0.86124129  0.09075859  0.57254913  1
  O  O37  1  0.14722766  0.56900752  0.92727964  1
  O  O38  1  0.11789517  0.88144898  0.42627096  1
  O  O39  1  0.87194098  0.39915418  0.07644758  1
  O  O40  1  0.94905738  0.00195755  0.95951344  1
  O  O41  1  0.94525287  0.52135695  0.53802116  1
  O  O42  1  0.08713813  0.01787914  0.01896158  1
  O  O43  1  0.80624518  0.53262823  0.48067495  1
  O  O44  1  0.28079289  0.72609496  0.55852128  1
  O  O45  1  0.73950229  0.22971625  0.94213728  1
  O  O46  1  0.71674783  0.25377064  0.44062022  1
  O  O47  1  0.25051810  0.75732124  0.05306659  1
  O  O48  1  0.51042776  0.67198215  0.74850329  1
  O  O49  1  0.49842715  0.18489507  0.75806059  1
  O  O50  1  0.51728516  0.31951738  0.25786452  1
  O  O51  1  0.48551246  0.81501947  0.23513395  1
  O  O52  1  0.50397364  0.13847790  0.56418275  1
  O  O53  1  0.49215945  0.64921871  0.94163752  1
  O  O54  1  0.47560336  0.85554429  0.42936474  1
  O  O55  1  0.51761095  0.34792487  0.06264943  1
  O  O56  1  0.22702398  0.79692312  0.85605084  1
  O  O57  1  0.73405518  0.31657941  0.63413323  1
  O  O58  1  0.75709589  0.17260389  0.13673924  1
  O  O59  1  0.26626919  0.66443423  0.36324637  1
  O  O60  1  0.08219641  0.65414347  0.74659090  1
  O  O61  1  0.91649575  0.13583990  0.76505804  1
  O  O62  1  0.93513063  0.34611370  0.26714982  1
  O  O63  1  0.07310353  0.84885982  0.23429383  1
