# generated using pymatgen
data_CaV2(PO4)3
_symmetry_space_group_name_H-M   'P 1'
_cell_length_a   6.44262532
_cell_length_b   6.54601383
_cell_length_c   20.16318484
_cell_angle_alpha   90.00000000
_cell_angle_beta   90.00000000
_cell_angle_gamma   92.18289219
_symmetry_Int_Tables_number   1
_chemical_formula_structural   CaV2(PO4)3
_chemical_formula_sum   'Ca4 V8 P12 O48'
_cell_volume   849.73529525
_cell_formula_units_Z   4
loop_
 _symmetry_equiv_pos_site_id
 _symmetry_equiv_pos_as_xyz
  1  'x, y, z'
loop_
 _atom_site_type_symbol
 _atom_site_label
 _atom_site_symmetry_multiplicity
 _atom_site_fract_x
 _atom_site_fract_y
 _atom_site_fract_z
 _atom_site_occupancy
  Ca  Ca0  1  0.63790855  0.93644666  0.07541069  1
  Ca  Ca1  1  0.36209145  0.06355334  0.92458931  1
  Ca  Ca2  1  0.86209145  0.56355334  0.57541069  1
  Ca  Ca3  1  0.13790855  0.43644666  0.42458931  1
  V  V4  1  0.06685465  0.90438040  0.21175804  1
  V  V5  1  0.93314535  0.09561960  0.78824196  1
  V  V6  1  0.43314535  0.59561960  0.71175804  1
  V  V7  1  0.56685465  0.40438040  0.28824196  1
  V  V8  1  0.59485420  0.77079823  0.40453725  1
  V  V9  1  0.40514580  0.22920177  0.59546275  1
  V  V10  1  0.90514580  0.72920177  0.90453725  1
  V  V11  1  0.09485420  0.27079823  0.09546275  1
  P  P12  1  0.56386864  0.91502791  0.24885748  1
  P  P13  1  0.43613136  0.08497209  0.75114252  1
  P  P14  1  0.93613136  0.58497209  0.74885748  1
  P  P15  1  0.06386864  0.41502791  0.25114252  1
  P  P16  1  0.12046790  0.77817312  0.05233247  1
  P  P17  1  0.87953210  0.22182688  0.94766753  1
  P  P18  1  0.37953210  0.72182688  0.55233247  1
  P  P19  1  0.62046790  0.27817312  0.44766753  1
  P  P20  1  0.09301755  0.89492928  0.37937939  1
  P  P21  1  0.90698245  0.10507072  0.62062061  1
  P  P22  1  0.40698245  0.60507072  0.87937939  1
  P  P23  1  0.59301755  0.39492928  0.12062061  1
  O  O24  1  0.03753616  0.61201812  0.21028588  1
  O  O25  1  0.96246384  0.38798188  0.78971412  1
  O  O26  1  0.46246384  0.88798188  0.71028588  1
  O  O27  1  0.53753616  0.11201812  0.28971412  1
  O  O28  1  0.13534490  0.56653507  0.08171208  1
  O  O29  1  0.86465510  0.43346493  0.91828792  1
  O  O30  1  0.36465510  0.93346493  0.58171208  1
  O  O31  1  0.63534490  0.06653507  0.41828792  1
  O  O32  1  0.61486523  0.60047949  0.09006105  1
  O  O33  1  0.38513477  0.39952051  0.90993895  1
  O  O34  1  0.88513477  0.89952051  0.59006105  1
  O  O35  1  0.11486523  0.10047949  0.40993895  1
  O  O36  1  0.93789590  0.79069246  0.00210811  1
  O  O37  1  0.06210410  0.20930754  0.99789189  1
  O  O38  1  0.56210410  0.70930754  0.50210811  1
  O  O39  1  0.43789590  0.29069246  0.49789189  1
  O  O40  1  0.28359606  0.76175177  0.38984666  1
  O  O41  1  0.71640394  0.23824823  0.61015334  1
  O  O42  1  0.21640394  0.73824823  0.88984666  1
  O  O43  1  0.78359606  0.26175177  0.11015334  1
  O  O44  1  0.91180731  0.76372652  0.80015301  1
  O  O45  1  0.08819269  0.23627348  0.19984699  1
  O  O46  1  0.58819269  0.73627348  0.30015301  1
  O  O47  1  0.41180731  0.26372652  0.69984699  1
  O  O48  1  0.32317859  0.86611908  0.02379326  1
  O  O49  1  0.67682141  0.13388092  0.97620674  1
  O  O50  1  0.17682141  0.63388092  0.52379326  1
  O  O51  1  0.82317859  0.36611908  0.47620674  1
  O  O52  1  0.74498331  0.57357877  0.70283079  1
  O  O53  1  0.25501669  0.42642123  0.29716921  1
  O  O54  1  0.75501669  0.92642123  0.20283079  1
  O  O55  1  0.24498331  0.07357877  0.79716921  1
  O  O56  1  0.05637975  0.93137826  0.11208580  1
  O  O57  1  0.94362025  0.06862174  0.88791420  1
  O  O58  1  0.44362025  0.56862174  0.61208580  1
  O  O59  1  0.55637975  0.43137826  0.38791420  1
  O  O60  1  0.37271800  0.88286884  0.20326527  1
  O  O61  1  0.62728200  0.11713116  0.79673473  1
  O  O62  1  0.12728200  0.61713116  0.70326527  1
  O  O63  1  0.87271800  0.38286884  0.29673473  1
  O  O64  1  0.06656683  0.92765536  0.30003426  1
  O  O65  1  0.93343317  0.07234464  0.69996574  1
  O  O66  1  0.43343317  0.57234464  0.80003426  1
  O  O67  1  0.56656683  0.42765536  0.19996574  1
  O  O68  1  0.90682235  0.75108507  0.39971073  1
  O  O69  1  0.09317765  0.24891493  0.60028927  1
  O  O70  1  0.59317765  0.74891493  0.89971073  1
  O  O71  1  0.40682235  0.25108507  0.10028927  1
