# generated using pymatgen
data_Ba5Y2ZrAl2O13
_symmetry_space_group_name_H-M   'P 1'
_cell_length_a   6.04825557
_cell_length_b   6.04825557
_cell_length_c   25.33382380
_cell_angle_alpha   90.00000000
_cell_angle_beta   90.00000000
_cell_angle_gamma   120.00000295
_symmetry_Int_Tables_number   1
_chemical_formula_structural   Ba5Y2ZrAl2O13
_chemical_formula_sum   'Ba10 Y4 Zr2 Al4 O26'
_cell_volume   802.58609746
_cell_formula_units_Z   2
loop_
 _symmetry_equiv_pos_site_id
 _symmetry_equiv_pos_as_xyz
  1  'x, y, z'
loop_
 _atom_site_type_symbol
 _atom_site_label
 _atom_site_symmetry_multiplicity
 _atom_site_fract_x
 _atom_site_fract_y
 _atom_site_fract_z
 _atom_site_occupancy
  Ba  Ba0  1  0.66666700  0.33333300  0.45860020  1
  Ba  Ba1  1  0.33333300  0.66666700  0.54139980  1
  Ba  Ba2  1  0.33333300  0.66666700  0.95860020  1
  Ba  Ba3  1  0.66666700  0.33333300  0.04139980  1
  Ba  Ba4  1  -0.00000000  0.00000000  0.86324033  1
  Ba  Ba5  1  -0.00000000  0.00000000  0.13675967  1
  Ba  Ba6  1  -0.00000000  0.00000000  0.36324033  1
  Ba  Ba7  1  -0.00000000  0.00000000  0.63675967  1
  Ba  Ba8  1  0.66666700  0.33333300  0.75000000  1
  Ba  Ba9  1  0.33333300  0.66666700  0.25000000  1
  Y  Y10  1  0.66666700  0.33333300  0.89579431  1
  Y  Y11  1  0.33333300  0.66666700  0.10420569  1
  Y  Y12  1  0.33333300  0.66666700  0.39579431  1
  Y  Y13  1  0.66666700  0.33333300  0.60420569  1
  Zr  Zr14  1  -0.00000000  0.00000000  0.00000000  1
  Zr  Zr15  1  -0.00000000  0.00000000  0.50000000  1
  Al  Al16  1  0.66666700  0.33333300  0.31869120  1
  Al  Al17  1  0.33333300  0.66666700  0.68130880  1
  Al  Al18  1  0.33333300  0.66666700  0.81869120  1
  Al  Al19  1  0.66666700  0.33333300  0.18130880  1
  O  O20  1  0.49424459  0.50575541  0.84130281  1
  O  O21  1  0.50575541  0.49424459  0.15869719  1
  O  O22  1  0.01151083  0.50575541  0.84130281  1
  O  O23  1  0.50575541  0.49424459  0.34130281  1
  O  O24  1  0.98848917  0.49424459  0.15869719  1
  O  O25  1  0.49424459  0.50575541  0.65869719  1
  O  O26  1  0.49424459  0.98848917  0.84130281  1
  O  O27  1  0.98848917  0.49424459  0.34130281  1
  O  O28  1  0.50575541  0.01151083  0.15869719  1
  O  O29  1  0.01151083  0.50575541  0.65869719  1
  O  O30  1  0.50575541  0.01151083  0.34130281  1
  O  O31  1  0.49424459  0.98848917  0.65869719  1
  O  O32  1  0.83778414  0.16221586  0.94992928  1
  O  O33  1  0.16221586  0.83778414  0.05007072  1
  O  O34  1  0.32443171  0.16221586  0.94992928  1
  O  O35  1  0.16221586  0.83778414  0.44992928  1
  O  O36  1  0.67556829  0.83778414  0.05007072  1
  O  O37  1  0.83778414  0.16221586  0.55007072  1
  O  O38  1  0.83778414  0.67556829  0.94992928  1
  O  O39  1  0.67556829  0.83778414  0.44992928  1
  O  O40  1  0.16221586  0.32443171  0.05007072  1
  O  O41  1  0.32443171  0.16221586  0.55007072  1
  O  O42  1  0.16221586  0.32443171  0.44992928  1
  O  O43  1  0.83778414  0.67556829  0.55007072  1
  O  O44  1  0.66666700  0.33333300  0.25000000  1
  O  O45  1  0.33333300  0.66666700  0.75000000  1
