# generated using pymatgen
data_Cs2ZrMn(PO4)3
_symmetry_space_group_name_H-M   'P 1'
_cell_length_a   10.40269355
_cell_length_b   10.40269355
_cell_length_c   10.40269355
_cell_angle_alpha   90.00000000
_cell_angle_beta   90.00000000
_cell_angle_gamma   90.00000000
_symmetry_Int_Tables_number   1
_chemical_formula_structural   Cs2ZrMn(PO4)3
_chemical_formula_sum   'Cs8 Zr4 Mn4 P12 O48'
_cell_volume   1125.73822949
_cell_formula_units_Z   4
loop_
 _symmetry_equiv_pos_site_id
 _symmetry_equiv_pos_as_xyz
  1  'x, y, z'
loop_
 _atom_site_type_symbol
 _atom_site_label
 _atom_site_symmetry_multiplicity
 _atom_site_fract_x
 _atom_site_fract_y
 _atom_site_fract_z
 _atom_site_occupancy
  Cs  Cs0  1  0.81829479  0.81829479  0.81829479  1
  Cs  Cs1  1  0.68170521  0.18170521  0.31829479  1
  Cs  Cs2  1  0.18170521  0.31829479  0.68170521  1
  Cs  Cs3  1  0.31829479  0.68170521  0.18170521  1
  Cs  Cs4  1  0.04088270  0.04088270  0.04088270  1
  Cs  Cs5  1  0.45911730  0.95911730  0.54088270  1
  Cs  Cs6  1  0.95911730  0.54088270  0.45911730  1
  Cs  Cs7  1  0.54088270  0.45911730  0.95911730  1
  Zr  Zr8  1  0.33752523  0.33752523  0.33752523  1
  Zr  Zr9  1  0.16247477  0.66247477  0.83752523  1
  Zr  Zr10  1  0.66247477  0.83752523  0.16247477  1
  Zr  Zr11  1  0.83752523  0.16247477  0.66247477  1
  Mn  Mn12  1  0.60424540  0.60424540  0.60424540  1
  Mn  Mn13  1  0.89575460  0.39575460  0.10424540  1
  Mn  Mn14  1  0.39575460  0.10424540  0.89575460  1
  Mn  Mn15  1  0.10424540  0.89575460  0.39575460  1
  P  P16  1  0.02099833  0.20593770  0.37198633  1
  P  P17  1  0.47900167  0.79406230  0.87198633  1
  P  P18  1  0.97900167  0.70593770  0.12801367  1
  P  P19  1  0.37198633  0.02099833  0.20593770  1
  P  P20  1  0.52099833  0.29406230  0.62801367  1
  P  P21  1  0.87198633  0.47900167  0.79406230  1
  P  P22  1  0.12801367  0.97900167  0.70593770  1
  P  P23  1  0.62801367  0.52099833  0.29406230  1
  P  P24  1  0.20593770  0.37198633  0.02099833  1
  P  P25  1  0.70593770  0.12801367  0.97900167  1
  P  P26  1  0.29406230  0.62801367  0.52099833  1
  P  P27  1  0.79406230  0.87198633  0.47900167  1
  O  O28  1  0.27600522  0.49685124  0.44904510  1
  O  O29  1  0.22399478  0.50314876  0.94904510  1
  O  O30  1  0.72399478  0.99685124  0.05095490  1
  O  O31  1  0.44904510  0.27600522  0.49685124  1
  O  O32  1  0.77600522  0.00314876  0.55095490  1
  O  O33  1  0.94904510  0.22399478  0.50314876  1
  O  O34  1  0.05095490  0.72399478  0.99685124  1
  O  O35  1  0.55095490  0.77600522  0.00314876  1
  O  O36  1  0.49685124  0.44904510  0.27600522  1
  O  O37  1  0.99685124  0.05095490  0.72399478  1
  O  O38  1  0.00314876  0.55095490  0.77600522  1
  O  O39  1  0.50314876  0.94904510  0.22399478  1
  O  O40  1  0.16008712  0.25768009  0.39157437  1
  O  O41  1  0.33991288  0.74231991  0.89157437  1
  O  O42  1  0.83991288  0.75768009  0.10842563  1
  O  O43  1  0.39157437  0.16008712  0.25768009  1
  O  O44  1  0.66008712  0.24231991  0.60842563  1
  O  O45  1  0.89157437  0.33991288  0.74231991  1
  O  O46  1  0.10842563  0.83991288  0.75768009  1
  O  O47  1  0.60842563  0.66008712  0.24231991  1
  O  O48  1  0.25768009  0.39157437  0.16008712  1
  O  O49  1  0.75768009  0.10842563  0.83991288  1
  O  O50  1  0.24231991  0.60842563  0.66008712  1
  O  O51  1  0.74231991  0.89157437  0.33991288  1
  O  O52  1  0.04998349  0.78300773  0.23194120  1
  O  O53  1  0.45001651  0.21699227  0.73194120  1
  O  O54  1  0.95001651  0.28300773  0.26805880  1
  O  O55  1  0.23194120  0.04998349  0.78300773  1
  O  O56  1  0.54998349  0.71699227  0.76805880  1
  O  O57  1  0.73194120  0.45001651  0.21699227  1
  O  O58  1  0.26805880  0.95001651  0.28300773  1
  O  O59  1  0.76805880  0.54998349  0.71699227  1
  O  O60  1  0.78300773  0.23194120  0.04998349  1
  O  O61  1  0.28300773  0.26805880  0.95001651  1
  O  O62  1  0.71699227  0.76805880  0.54998349  1
  O  O63  1  0.21699227  0.73194120  0.45001651  1
  O  O64  1  0.01963197  0.06246298  0.33260717  1
  O  O65  1  0.48036803  0.93753702  0.83260717  1
  O  O66  1  0.98036803  0.56246298  0.16739283  1
  O  O67  1  0.33260717  0.01963197  0.06246298  1
  O  O68  1  0.51963197  0.43753702  0.66739283  1
  O  O69  1  0.83260717  0.48036803  0.93753702  1
  O  O70  1  0.16739283  0.98036803  0.56246298  1
  O  O71  1  0.66739283  0.51963197  0.43753702  1
  O  O72  1  0.06246298  0.33260717  0.01963197  1
  O  O73  1  0.56246298  0.16739283  0.98036803  1
  O  O74  1  0.43753702  0.66739283  0.51963197  1
  O  O75  1  0.93753702  0.83260717  0.48036803  1
