# generated using pymatgen
data_Ba2MnAl2CoF14
_symmetry_space_group_name_H-M   'P 1'
_cell_length_a   5.26553754
_cell_length_b   7.40386928
_cell_length_c   14.61814739
_cell_angle_alpha   91.39806625
_cell_angle_beta   90.00000000
_cell_angle_gamma   110.82982803
_symmetry_Int_Tables_number   1
_chemical_formula_structural   Ba2MnAl2CoF14
_chemical_formula_sum   'Ba4 Mn2 Al4 Co2 F28'
_cell_volume   532.46424149
_cell_formula_units_Z   2
loop_
 _symmetry_equiv_pos_site_id
 _symmetry_equiv_pos_as_xyz
  1  'x, y, z'
loop_
 _atom_site_type_symbol
 _atom_site_label
 _atom_site_symmetry_multiplicity
 _atom_site_fract_x
 _atom_site_fract_y
 _atom_site_fract_z
 _atom_site_occupancy
  Ba  Ba0  1  0.64294552  0.37803650  0.62043720  1
  Ba  Ba1  1  0.35705448  0.62196350  0.37956280  1
  Ba  Ba2  1  0.26490901  0.62196350  0.87956280  1
  Ba  Ba3  1  0.73509099  0.37803650  0.12043720  1
  Mn  Mn4  1  0.94309158  1.00000000  0.75000000  1
  Mn  Mn5  1  0.05690842  0.00000000  0.25000000  1
  Al  Al6  1  0.61638044  0.23568901  0.87564327  1
  Al  Al7  1  0.38361956  0.76431099  0.12435673  1
  Al  Al8  1  0.38069143  0.76431099  0.62435673  1
  Al  Al9  1  0.61930857  0.23568901  0.37564327  1
  Co  Co10  1  -0.00000000  -0.00000000  0.00000000  1
  Co  Co11  1  -0.00000000  -0.00000000  0.50000000  1
  F  F12  1  0.34037304  0.23527536  0.79977992  1
  F  F13  1  0.65962696  0.76472464  0.20022008  1
  F  F14  1  0.10509768  0.76472464  0.70022008  1
  F  F15  1  0.89490232  0.23527536  0.29977992  1
  F  F16  1  0.65864249  0.75254895  0.54763506  1
  F  F17  1  0.34135751  0.24745105  0.45236494  1
  F  F18  1  0.90609355  0.24745105  0.95236494  1
  F  F19  1  0.09390645  0.75254895  0.04763506  1
  F  F20  1  0.39545519  0.16090665  0.97597105  1
  F  F21  1  0.60454481  0.83909335  0.02402895  1
  F  F22  1  0.23454854  0.83909335  0.52402895  1
  F  F23  1  0.76545146  0.16090665  0.47597105  1
  F  F24  1  0.54109959  0.67605535  0.71787519  1
  F  F25  1  0.45890041  0.32394465  0.28212481  1
  F  F26  1  0.86504424  0.32394465  0.78212481  1
  F  F27  1  0.13495576  0.67605535  0.21787519  1
  F  F28  1  0.58531037  0.99421571  0.84220838  1
  F  F29  1  0.41468963  0.00578429  0.15779162  1
  F  F30  1  0.59109466  0.00578429  0.65779162  1
  F  F31  1  0.40890534  0.99421571  0.34220838  1
  F  F32  1  0.88173432  0.88004238  0.37562193  1
  F  F33  1  0.11826568  0.11995762  0.62437807  1
  F  F34  1  0.00169194  0.11995762  0.12437807  1
  F  F35  1  0.99830806  0.88004238  0.87562193  1
  F  F36  1  0.68135880  0.48287635  0.91205172  1
  F  F37  1  0.31864120  0.51712365  0.08794828  1
  F  F38  1  0.19848245  0.51712365  0.58794828  1
  F  F39  1  0.80151755  0.48287635  0.41205172  1
