# generated using pymatgen
data_Cr8Fe3CuS16
_symmetry_space_group_name_H-M   'P 1'
_cell_length_a   6.88309760
_cell_length_b   6.88309760
_cell_length_c   11.94749470
_cell_angle_alpha   73.25838985
_cell_angle_beta   90.00000000
_cell_angle_gamma   120.00000000
_symmetry_Int_Tables_number   1
_chemical_formula_structural   Cr8Fe3CuS16
_chemical_formula_sum   'Cr8 Fe3 Cu1 S16'
_cell_volume   462.29089445
_cell_formula_units_Z   1
loop_
 _symmetry_equiv_pos_site_id
 _symmetry_equiv_pos_as_xyz
  1  'x, y, z'
loop_
 _atom_site_type_symbol
 _atom_site_label
 _atom_site_symmetry_multiplicity
 _atom_site_fract_x
 _atom_site_fract_y
 _atom_site_fract_z
 _atom_site_occupancy
  Cr  Cr0  1  0.43797895  0.37487482  0.18714624  1
  Cr  Cr1  1  0.93847631  0.37357375  0.68794994  1
  Cr  Cr2  1  0.43797895  0.87595789  0.18714624  1
  Cr  Cr3  1  0.93847631  0.87695262  0.68794994  1
  Cr  Cr4  1  0.18742161  0.37484322  0.43773517  1
  Cr  Cr5  1  0.68760062  0.37520123  0.93719815  1
  Cr  Cr6  1  0.93689587  0.37487482  0.18714624  1
  Cr  Cr7  1  0.43509744  0.37357375  0.68794994  1
  Fe  Fe8  1  0.37549495  0.75098990  0.87351515  1
  Fe  Fe9  1  0.99980685  0.99961370  0.00057945  1
  Fe  Fe10  1  0.50027369  0.00054737  0.49917894  1
  Cu  Cu11  1  0.87482021  0.74964042  0.37553937  1
  S  S12  1  0.80798909  0.12791144  0.06409947  1
  S  S13  1  0.30810074  0.12771588  0.56418339  1
  S  S14  1  0.80798909  0.61597818  0.06409947  1
  S  S15  1  0.30810074  0.61620147  0.56418339  1
  S  S16  1  0.56408380  0.12816761  0.30774859  1
  S  S17  1  0.06383385  0.12766770  0.80849844  1
  S  S18  1  0.31992235  0.12791144  0.06409947  1
  S  S19  1  0.81961514  0.12771588  0.56418339  1
  S  S20  1  0.07446618  0.61772208  0.30781174  1
  S  S21  1  0.56686467  0.62100323  0.81213211  1
  S  S22  1  0.07446618  0.14893235  0.30781174  1
  S  S23  1  0.56686467  0.13372933  0.81213211  1
  S  S24  1  0.31181088  0.62362177  0.06456735  1
  S  S25  1  0.80817641  0.61635283  0.57547076  1
  S  S26  1  0.54325591  0.61772208  0.30781174  1
  S  S27  1  0.05413856  0.62100323  0.81213211  1
