# generated using pymatgen
data_Ba2YbCl7
_symmetry_space_group_name_H-M   'P 1'
_cell_length_a   5.95635350
_cell_length_b   11.16966659
_cell_length_c   16.71914133
_cell_angle_alpha   90.00000000
_cell_angle_beta   90.00000000
_cell_angle_gamma   90.38200309
_symmetry_Int_Tables_number   1
_chemical_formula_structural   Ba2YbCl7
_chemical_formula_sum   'Ba8 Yb4 Cl28'
_cell_volume   1112.30781977
_cell_formula_units_Z   4
loop_
 _symmetry_equiv_pos_site_id
 _symmetry_equiv_pos_as_xyz
  1  'x, y, z'
loop_
 _atom_site_type_symbol
 _atom_site_label
 _atom_site_symmetry_multiplicity
 _atom_site_fract_x
 _atom_site_fract_y
 _atom_site_fract_z
 _atom_site_occupancy
  Ba  Ba0  1  0.24891282  0.94444589  0.78773030  1
  Ba  Ba1  1  0.75108718  0.05555411  0.21226970  1
  Ba  Ba2  1  0.75108718  0.55555411  0.28773030  1
  Ba  Ba3  1  0.24891282  0.44444589  0.71226970  1
  Ba  Ba4  1  0.74524644  0.68169955  0.93665986  1
  Ba  Ba5  1  0.25475356  0.31830045  0.06334014  1
  Ba  Ba6  1  0.25475356  0.81830045  0.43665986  1
  Ba  Ba7  1  0.74524644  0.18169955  0.56334014  1
  Yb  Yb8  1  0.72865964  0.69892774  0.61583217  1
  Yb  Yb9  1  0.27134036  0.30107226  0.38416783  1
  Yb  Yb10  1  0.27134036  0.80107226  0.11583217  1
  Yb  Yb11  1  0.72865964  0.19892774  0.88416783  1
  Cl  Cl12  1  0.28481287  0.63160098  0.57366610  1
  Cl  Cl13  1  0.71518713  0.36839902  0.42633390  1
  Cl  Cl14  1  0.71518713  0.86839902  0.07366610  1
  Cl  Cl15  1  0.28481287  0.13160098  0.92633390  1
  Cl  Cl16  1  0.99513130  0.91981616  0.60445275  1
  Cl  Cl17  1  0.00486870  0.08018384  0.39554725  1
  Cl  Cl18  1  0.00486870  0.58018384  0.10445275  1
  Cl  Cl19  1  0.99513130  0.41981616  0.89554725  1
  Cl  Cl20  1  0.75919264  0.72067155  0.45318696  1
  Cl  Cl21  1  0.24080736  0.27932845  0.54681304  1
  Cl  Cl22  1  0.24080736  0.77932845  0.95318696  1
  Cl  Cl23  1  0.75919264  0.22067155  0.04681304  1
  Cl  Cl24  1  0.75462115  0.95610801  0.85690931  1
  Cl  Cl25  1  0.24537885  0.04389199  0.14309069  1
  Cl  Cl26  1  0.24537885  0.54389199  0.35690931  1
  Cl  Cl27  1  0.75462115  0.45610801  0.64309069  1
  Cl  Cl28  1  0.99335659  0.69154151  0.75927502  1
  Cl  Cl29  1  0.00664341  0.30845849  0.24072498  1
  Cl  Cl30  1  0.00664341  0.80845849  0.25927502  1
  Cl  Cl31  1  0.99335659  0.19154151  0.74072498  1
  Cl  Cl32  1  0.49831782  0.69229739  0.76302346  1
  Cl  Cl33  1  0.50168218  0.30770261  0.23697654  1
  Cl  Cl34  1  0.50168218  0.80770261  0.26302346  1
  Cl  Cl35  1  0.49831782  0.19229739  0.73697654  1
  Cl  Cl36  1  0.49796420  0.92324476  0.60497393  1
  Cl  Cl37  1  0.50203580  0.07675524  0.39502607  1
  Cl  Cl38  1  0.50203580  0.57675524  0.10497393  1
  Cl  Cl39  1  0.49796420  0.42324476  0.89502607  1
