# generated using pymatgen
data_ZnCu4Sn2HgS8
_symmetry_space_group_name_H-M   'P 1'
_cell_length_a   6.77190606
_cell_length_b   6.77190606
_cell_length_c   7.84268017
_cell_angle_alpha   89.98025179
_cell_angle_beta   90.01974821
_cell_angle_gamma   70.68639497
_symmetry_Int_Tables_number   1
_chemical_formula_structural   ZnCu4Sn2HgS8
_chemical_formula_sum   'Zn1 Cu4 Sn2 Hg1 S8'
_cell_volume   339.41463192
_cell_formula_units_Z   1
loop_
 _symmetry_equiv_pos_site_id
 _symmetry_equiv_pos_as_xyz
  1  'x, y, z'
loop_
 _atom_site_type_symbol
 _atom_site_label
 _atom_site_symmetry_multiplicity
 _atom_site_fract_x
 _atom_site_fract_y
 _atom_site_fract_z
 _atom_site_occupancy
  Zn  Zn0  1  0.49972174  0.99972174  0.75000000  1
  Cu  Cu1  1  0.99782194  0.49782194  0.75000000  1
  Cu  Cu2  1  0.50205528  0.00205528  0.25000000  1
  Cu  Cu3  1  0.99804247  0.00203373  0.99666062  1
  Cu  Cu4  1  0.50203373  0.49804247  0.50333938  1
  Sn  Sn5  1  0.99976779  0.00039810  0.50375097  1
  Sn  Sn6  1  0.50039810  0.49976779  0.99624903  1
  Hg  Hg7  1  0.00050154  0.50050154  0.25000000  1
  S  S8  1  0.63201233  0.10933799  0.00365522  1
  S  S9  1  0.14087196  0.61569259  0.52278922  1
  S  S10  1  0.11569259  0.64087196  0.97721078  1
  S  S11  1  0.60933799  0.13201233  0.49634478  1
  S  S12  1  0.14038471  0.09837632  0.23761155  1
  S  S13  1  0.63730917  0.62567235  0.73875765  1
  S  S14  1  0.12567235  0.13730917  0.76124235  1
  S  S15  1  0.59837632  0.64038471  0.26238845  1
