# generated using pymatgen
data_YbYAl6(BO3)8
_symmetry_space_group_name_H-M   'P 1'
_cell_length_a   7.28299200
_cell_length_b   7.28299200
_cell_length_c   7.28299207
_cell_angle_alpha   100.09003242
_cell_angle_beta   100.09003242
_cell_angle_gamma   79.90996640
_symmetry_Int_Tables_number   1
_chemical_formula_structural   YbYAl6(BO3)8
_chemical_formula_sum   'Yb1 Y1 Al6 B8 O24'
_cell_volume   370.26298751
_cell_formula_units_Z   1
loop_
 _symmetry_equiv_pos_site_id
 _symmetry_equiv_pos_as_xyz
  1  'x, y, z'
loop_
 _atom_site_type_symbol
 _atom_site_label
 _atom_site_symmetry_multiplicity
 _atom_site_fract_x
 _atom_site_fract_y
 _atom_site_fract_z
 _atom_site_occupancy
  Yb  Yb0  1  0.50000000  0.50000000  0.50000000  1
  Y  Y1  1  0.00000000  0.00000000  0.00000000  1
  Al  Al2  1  1.00000000  0.55478031  0.55478031  1
  Al  Al3  1  0.50000000  0.05665763  0.05665763  1
  Al  Al4  1  0.55478031  0.44521969  0.00000000  1
  Al  Al5  1  0.05665763  0.94334237  0.50000000  1
  Al  Al6  1  0.44521969  0.00000000  0.44521969  1
  Al  Al7  1  0.94334237  0.50000000  0.94334237  1
  B  B8  1  0.25126451  0.69170253  0.19375698  1
  B  B9  1  0.74873549  0.19375698  0.69170253  1
  B  B10  1  0.69170253  0.80624302  0.74873549  1
  B  B11  1  0.19375698  0.30829747  0.25126451  1
  B  B12  1  0.80624302  0.25126451  0.30829747  1
  B  B13  1  0.30829747  0.74873549  0.80624302  1
  B  B14  1  0.25044518  0.25044518  0.74955482  1
  B  B15  1  0.74955482  0.74955482  0.25044518  1
  O  O16  1  0.24964777  0.10201117  0.60189292  1
  O  O17  1  0.75035223  0.60189292  0.10201117  1
  O  O18  1  0.10201117  0.39810708  0.75035223  1
  O  O19  1  0.60189292  0.89798883  0.24964777  1
  O  O20  1  0.39810708  0.24964777  0.89798883  1
  O  O21  1  0.89798883  0.75035223  0.39810708  1
  O  O22  1  0.08926224  0.68848011  0.06151598  1
  O  O23  1  0.59049487  0.18544303  0.56109551  1
  O  O24  1  0.68848011  0.93848402  0.91073776  1
  O  O25  1  0.18544303  0.43890449  0.40950513  1
  O  O26  1  0.93848402  0.08926224  0.31151989  1
  O  O27  1  0.43890449  0.59049487  0.81455697  1
  O  O28  1  0.40950513  0.56109551  0.18544303  1
  O  O29  1  0.91073776  0.06151598  0.68848011  1
  O  O30  1  0.81455697  0.40950513  0.43890449  1
  O  O31  1  0.31151989  0.91073776  0.93848402  1
  O  O32  1  0.56109551  0.81455697  0.59049487  1
  O  O33  1  0.06151598  0.31151989  0.08926224  1
  O  O34  1  0.24964404  0.84192273  0.34063224  1
  O  O35  1  0.75035596  0.34063224  0.84192273  1
  O  O36  1  0.84192273  0.65936776  0.75035596  1
  O  O37  1  0.34063224  0.15807727  0.24964404  1
  O  O38  1  0.65936776  0.24964404  0.15807727  1
  O  O39  1  0.15807727  0.75035596  0.65936776  1
