# generated using pymatgen
data_ZnCr4CdS8
_symmetry_space_group_name_H-M   'P 1'
_cell_length_a   7.21106474
_cell_length_b   7.21106474
_cell_length_c   7.21106474
_cell_angle_alpha   90.00000000
_cell_angle_beta   60.00000000
_cell_angle_gamma   120.00000000
_symmetry_Int_Tables_number   1
_chemical_formula_structural   ZnCr4CdS8
_chemical_formula_sum   'Zn1 Cr4 Cd1 S8'
_cell_volume   265.14484429
_cell_formula_units_Z   1
loop_
 _symmetry_equiv_pos_site_id
 _symmetry_equiv_pos_as_xyz
  1  'x, y, z'
loop_
 _atom_site_type_symbol
 _atom_site_label
 _atom_site_symmetry_multiplicity
 _atom_site_fract_x
 _atom_site_fract_y
 _atom_site_fract_z
 _atom_site_occupancy
  Zn  Zn0  1  0.25000000  0.62500000  0.62500000  1
  Cr  Cr1  1  0.50018540  0.50027809  -0.00009270  1
  Cr  Cr2  1  0.50018540  -0.00009270  -0.00009270  1
  Cr  Cr3  1  -0.00018540  -0.00009270  0.50027809  1
  Cr  Cr4  1  -0.00018540  -0.00009270  -0.00009270  1
  Cd  Cd5  1  0.75000000  0.37500000  0.37500000  1
  S  S6  1  0.03214370  0.79821555  0.23392815  1
  S  S7  1  0.03214370  0.23392815  0.23392815  1
  S  S8  1  0.46785630  0.23392815  0.79821555  1
  S  S9  1  0.46785630  0.23392815  0.23392815  1
  S  S10  1  0.97821367  0.21732051  0.76089316  1
  S  S11  1  0.97821367  0.76089316  0.76089316  1
  S  S12  1  0.52178633  0.76089316  0.21732051  1
  S  S13  1  0.52178633  0.76089316  0.76089316  1
