# generated using pymatgen
data_Al3Bi(BO3)4
_symmetry_space_group_name_H-M   'P 1'
_cell_length_a   5.96973565
_cell_length_b   5.96973565
_cell_length_c   5.96973510
_cell_angle_alpha   104.27298262
_cell_angle_beta   104.27298262
_cell_angle_gamma   104.27299231
_symmetry_Int_Tables_number   1
_chemical_formula_structural   Al3Bi(BO3)4
_chemical_formula_sum   'Al3 Bi1 B4 O12'
_cell_volume   188.81657733
_cell_formula_units_Z   1
loop_
 _symmetry_equiv_pos_site_id
 _symmetry_equiv_pos_as_xyz
  1  'x, y, z'
loop_
 _atom_site_type_symbol
 _atom_site_label
 _atom_site_symmetry_multiplicity
 _atom_site_fract_x
 _atom_site_fract_y
 _atom_site_fract_z
 _atom_site_occupancy
  Al  Al0  1  0.94409126  0.05590874  0.50000000  1
  Al  Al1  1  0.50000000  0.94409126  0.05590874  1
  Al  Al2  1  0.05590874  0.50000000  0.94409126  1
  Bi  Bi3  1  0.50000000  0.50000000  0.50000000  1
  B  B4  1  0.55652075  0.44347925  -0.00000000  1
  B  B5  1  0.00000000  0.55652075  0.44347925  1
  B  B6  1  0.44347925  1.00000000  0.55652075  1
  B  B7  1  0.00000000  -0.00000000  -0.00000000  1
  O  O8  1  0.40889074  0.59110926  0.00000000  1
  O  O9  1  0.00000000  0.40889074  0.59110926  1
  O  O10  1  0.59110926  1.00000000  0.40889074  1
  O  O11  1  0.52924189  0.27543120  0.12145165  1
  O  O12  1  0.12145165  0.52924189  0.27543120  1
  O  O13  1  0.87854835  0.72456880  0.47075811  1
  O  O14  1  0.27543120  0.12145165  0.52924189  1
  O  O15  1  0.72456880  0.47075811  0.87854835  1
  O  O16  1  0.47075811  0.87854835  0.72456880  1
  O  O17  1  0.14837568  0.85162432  0.00000000  1
  O  O18  1  1.00000000  0.14837568  0.85162432  1
  O  O19  1  0.85162432  0.00000000  0.14837568  1
