# generated using pymatgen
data_Zn(InAu4)3
_symmetry_space_group_name_H-M   'P 1'
_cell_length_a   4.76763218
_cell_length_b   5.34355609
_cell_length_c   11.73073919
_cell_angle_alpha   90.00000000
_cell_angle_beta   90.00000000
_cell_angle_gamma   90.00000000
_symmetry_Int_Tables_number   1
_chemical_formula_structural   Zn(InAu4)3
_chemical_formula_sum   'Zn1 In3 Au12'
_cell_volume   298.85360164
_cell_formula_units_Z   1
loop_
 _symmetry_equiv_pos_site_id
 _symmetry_equiv_pos_as_xyz
  1  'x, y, z'
loop_
 _atom_site_type_symbol
 _atom_site_label
 _atom_site_symmetry_multiplicity
 _atom_site_fract_x
 _atom_site_fract_y
 _atom_site_fract_z
 _atom_site_occupancy
  Zn  Zn0  1  0.75000000  0.33191446  0.37500000  1
  In  In1  1  0.75000000  0.33419845  0.87500000  1
  In  In2  1  0.25000000  0.66648408  0.12643486  1
  In  In3  1  0.25000000  0.66648408  0.62356514  1
  Au  Au4  1  0.25000000  0.65492700  0.37500000  1
  Au  Au5  1  0.25000000  0.66497925  0.87500000  1
  Au  Au6  1  0.75000000  0.33383958  0.13113977  1
  Au  Au7  1  0.75000000  0.33383958  0.61886023  1
  Au  Au8  1  0.75000000  0.83515021  0.49759760  1
  Au  Au9  1  0.75000000  0.83580991  0.00215767  1
  Au  Au10  1  0.75000000  0.83515021  0.25240240  1
  Au  Au11  1  0.75000000  0.83580991  0.74784233  1
  Au  Au12  1  0.25000000  0.17049526  0.49533547  1
  Au  Au13  1  0.25000000  0.16521138  0.00072026  1
  Au  Au14  1  0.25000000  0.17049526  0.25466453  1
  Au  Au15  1  0.25000000  0.16521138  0.74927974  1
