# generated using pymatgen
data_Zr4Sc(NiSn)5
_symmetry_space_group_name_H-M   'P 1'
_cell_length_a   4.38015917
_cell_length_b   4.38015917
_cell_length_c   18.03262224
_cell_angle_alpha   96.97584998
_cell_angle_beta   83.02415002
_cell_angle_gamma   120.00000000
_symmetry_Int_Tables_number   1
_chemical_formula_structural   Zr4Sc(NiSn)5
_chemical_formula_sum   'Zr4 Sc1 Ni5 Sn5'
_cell_volume   296.65801456
_cell_formula_units_Z   1
loop_
 _symmetry_equiv_pos_site_id
 _symmetry_equiv_pos_as_xyz
  1  'x, y, z'
loop_
 _atom_site_type_symbol
 _atom_site_label
 _atom_site_symmetry_multiplicity
 _atom_site_fract_x
 _atom_site_fract_y
 _atom_site_fract_z
 _atom_site_occupancy
  Zr  Zr0  1  0.65028709  0.34971291  0.04913872  1
  Zr  Zr1  1  0.25016111  0.74983889  0.24951667  1
  Zr  Zr2  1  0.85005761  0.14994239  0.44982716  1
  Zr  Zr3  1  0.45009845  0.54990155  0.64970465  1
  Sc  Sc4  1  0.04969656  0.95030344  0.85091031  1
  Ni  Ni5  1  0.99959583  0.00040417  0.00121252  1
  Ni  Ni6  1  0.59990682  0.40009318  0.20027955  1
  Ni  Ni7  1  0.20003328  0.79996672  0.39990015  1
  Ni  Ni8  1  0.80005185  0.19994815  0.59984445  1
  Ni  Ni9  1  0.40048147  0.59951853  0.79855560  1
  Sn  Sn10  1  0.35011520  0.64988480  0.94965440  1
  Sn  Sn11  1  0.14996267  0.85003733  0.55011200  1
  Sn  Sn12  1  0.74979029  0.25020971  0.75062913  1
  Sn  Sn13  1  0.94985386  0.05014614  0.15043843  1
  Sn  Sn14  1  0.54990791  0.45009209  0.35027627  1
