# generated using pymatgen
data_Ca10Al2Cu19
_symmetry_space_group_name_H-M   'P 1'
_cell_length_a   9.05952427
_cell_length_b   14.75989725
_cell_length_c   14.76116461
_cell_angle_alpha   120.00002804
_cell_angle_beta   90.00011638
_cell_angle_gamma   89.99998217
_symmetry_Int_Tables_number   1
_chemical_formula_structural   Ca10Al2Cu19
_chemical_formula_sum   'Ca30 Al6 Cu57'
_cell_volume   1709.38488498
_cell_formula_units_Z   3
loop_
 _symmetry_equiv_pos_site_id
 _symmetry_equiv_pos_as_xyz
  1  'x, y, z'
loop_
 _atom_site_type_symbol
 _atom_site_label
 _atom_site_symmetry_multiplicity
 _atom_site_fract_x
 _atom_site_fract_y
 _atom_site_fract_z
 _atom_site_occupancy
  Ca  Ca0  1  0.78166483  0.99999955  0.99999768  1
  Ca  Ca1  1  0.21833473  0.99999958  0.99999737  1
  Ca  Ca2  1  0.00000082  0.62074407  0.62074745  1
  Ca  Ca3  1  0.99999980  0.37925425  0.37924965  1
  Ca  Ca4  1  0.99999675  0.99999932  0.37925002  1
  Ca  Ca5  1  0.00000260  0.00000055  0.62074201  1
  Ca  Ca6  1  0.99999978  0.37925698  0.99999891  1
  Ca  Ca7  1  0.99999854  0.62074322  0.00000007  1
  Ca  Ca8  1  0.79179762  0.79212029  0.20788868  1
  Ca  Ca9  1  0.20819682  0.20787901  0.79210749  1
  Ca  Ca10  1  0.79180943  0.41577066  0.20788201  1
  Ca  Ca11  1  0.79180301  0.20787888  0.79210723  1
  Ca  Ca12  1  0.20818888  0.58422884  0.79211657  1
  Ca  Ca13  1  0.20819974  0.79211921  0.20788230  1
  Ca  Ca14  1  0.79180136  0.79210990  0.58422672  1
  Ca  Ca15  1  0.79180991  0.58422845  0.79211664  1
  Ca  Ca16  1  0.20820387  0.20789141  0.41577092  1
  Ca  Ca17  1  0.20819036  0.41577059  0.20788226  1
  Ca  Ca18  1  0.79179575  0.20789157  0.41577031  1
  Ca  Ca19  1  0.20820052  0.79211019  0.58422111  1
  Ca  Ca20  1  0.68510299  0.66666966  0.33333706  1
  Ca  Ca21  1  0.31489586  0.33333093  0.66666232  1
  Ca  Ca22  1  0.68510366  0.33333020  0.66666163  1
  Ca  Ca23  1  0.31489632  0.66666941  0.33333455  1
  Ca  Ca24  1  0.50000044  0.86759411  0.13243591  1
  Ca  Ca25  1  0.49999908  0.13239900  0.86753794  1
  Ca  Ca26  1  0.49999976  0.26485832  0.13239713  1
  Ca  Ca27  1  0.49999963  0.73514097  0.86757384  1
  Ca  Ca28  1  0.49999914  0.86754613  0.73512419  1
  Ca  Ca29  1  0.50000030  0.13246025  0.26485679  1
  Al  Al30  1  0.99999965  0.39636718  0.60363658  1
  Al  Al31  1  0.00000050  0.60363157  0.39636073  1
  Al  Al32  1  0.99999995  0.20726426  0.60362915  1
  Al  Al33  1  0.00000008  0.79273509  0.39636594  1
  Al  Al34  1  0.99999965  0.39636014  0.79272592  1
  Al  Al35  1  0.99999940  0.60363995  0.20727256  1
  Cu  Cu36  1  0.50000226  0.83786007  0.32859233  1
  Cu  Cu37  1  0.49999650  0.16214036  0.67139920  1
  Cu  Cu38  1  0.50000047  0.49070857  0.16212323  1
  Cu  Cu39  1  0.50000512  0.50927872  0.67140984  1
  Cu  Cu40  1  0.49999626  0.50929539  0.83787477  1
  Cu  Cu41  1  0.49999708  0.49072237  0.32858565  1
  Cu  Cu42  1  0.49999874  0.67140047  0.50926261  1
  Cu  Cu43  1  0.50000112  0.32857342  0.83787038  1
  Cu  Cu44  1  0.49999855  0.32860002  0.49073473  1
  Cu  Cu45  1  0.50000113  0.67142496  0.16212571  1
  Cu  Cu46  1  0.50000273  0.16214654  0.49073396  1
  Cu  Cu47  1  0.49999796  0.83785045  0.50925726  1
  Cu  Cu48  1  0.00000003  0.89353859  0.10646308  1
  Cu  Cu49  1  0.00000022  0.10645169  0.89353233  1
  Cu  Cu50  1  0.00000009  0.21291930  0.10645865  1
  Cu  Cu51  1  0.00000021  0.78707581  0.89353844  1
  Cu  Cu52  1  0.00000087  0.89353278  0.78707624  1
  Cu  Cu53  1  0.00000008  0.10647172  0.21292322  1
  Cu  Cu54  1  0.74825738  0.44923497  0.55077285  1
  Cu  Cu55  1  0.25174018  0.55076062  0.44922104  1
  Cu  Cu56  1  0.74823857  0.10154846  0.55077262  1
  Cu  Cu57  1  0.74826031  0.55076460  0.44922250  1
  Cu  Cu58  1  0.25176386  0.89845097  0.44920721  1
  Cu  Cu59  1  0.25173880  0.44923837  0.55077704  1
  Cu  Cu60  1  0.74825259  0.44923502  0.89845753  1
  Cu  Cu61  1  0.74823904  0.89845077  0.44922315  1
  Cu  Cu62  1  0.25174620  0.55076620  0.10154150  1
  Cu  Cu63  1  0.25176210  0.10154798  0.55077530  1
  Cu  Cu64  1  0.74825463  0.55076586  0.10154021  1
  Cu  Cu65  1  0.25174748  0.44923468  0.89845844  1
  Cu  Cu66  1  0.50000143  0.50000242  0.50000087  1
  Cu  Cu67  1  0.50000051  0.99999931  0.49999586  1
  Cu  Cu68  1  0.49999992  0.49999990  0.99999829  1
  Cu  Cu69  1  0.78394091  0.79052593  0.79053184  1
  Cu  Cu70  1  0.21606816  0.20947706  0.20946407  1
  Cu  Cu71  1  0.78393696  0.00000777  0.20946870  1
  Cu  Cu72  1  0.78393267  0.20947582  0.20946258  1
  Cu  Cu73  1  0.21606293  0.00001090  0.20946923  1
  Cu  Cu74  1  0.21606368  0.99999208  0.79052530  1
  Cu  Cu75  1  0.21605782  0.79052435  0.79052930  1
  Cu  Cu76  1  0.78393630  0.99999351  0.79052782  1
  Cu  Cu77  1  0.78396620  0.20947403  0.99999335  1
  Cu  Cu78  1  0.21604152  0.79052207  0.99999350  1
  Cu  Cu79  1  0.78395951  0.79052299  0.99999504  1
  Cu  Cu80  1  0.21603536  0.20947435  0.99999389  1
  Cu  Cu81  1  0.64793504  0.64434758  0.64434409  1
  Cu  Cu82  1  0.35208363  0.35565947  0.35565378  1
  Cu  Cu83  1  0.64791749  0.00000874  0.35565681  1
  Cu  Cu84  1  0.64791796  0.35565881  0.35565139  1
  Cu  Cu85  1  0.35208594  0.00001063  0.35565440  1
  Cu  Cu86  1  0.35207693  0.99998862  0.64433173  1
  Cu  Cu87  1  0.35206783  0.64434677  0.64434344  1
  Cu  Cu88  1  0.64791911  0.99999288  0.64433746  1
  Cu  Cu89  1  0.64794936  0.35562923  0.99999373  1
  Cu  Cu90  1  0.35205970  0.64437042  0.99999498  1
  Cu  Cu91  1  0.64794039  0.64437088  0.99999489  1
  Cu  Cu92  1  0.35205065  0.35563004  0.99999502  1
