# generated using pymatgen
data_ZrFeCo
_symmetry_space_group_name_H-M   'P 1'
_cell_length_a   4.93795657
_cell_length_b   4.93795657
_cell_length_c   4.93795657
_cell_angle_alpha   89.62701825
_cell_angle_beta   61.41216289
_cell_angle_gamma   120.99644031
_symmetry_Int_Tables_number   1
_chemical_formula_structural   ZrFeCo
_chemical_formula_sum   'Zr2 Fe2 Co2'
_cell_volume   85.35739547
_cell_formula_units_Z   2
loop_
 _symmetry_equiv_pos_site_id
 _symmetry_equiv_pos_as_xyz
  1  'x, y, z'
loop_
 _atom_site_type_symbol
 _atom_site_label
 _atom_site_symmetry_multiplicity
 _atom_site_fract_x
 _atom_site_fract_y
 _atom_site_fract_z
 _atom_site_occupancy
  Zr  Zr0  1  0.50000000  0.75378486  0.74621514  1
  Zr  Zr1  1  -0.00000000  0.99621514  0.00378486  1
  Fe  Fe2  1  0.25000000  0.87500000  0.37500000  1
  Fe  Fe3  1  0.75000000  0.37500000  0.37500000  1
  Co  Co4  1  0.75000000  0.37500000  0.87500000  1
  Co  Co5  1  0.25000000  0.37500000  0.37500000  1
