# generated using pymatgen
data_YFe11Mo
_symmetry_space_group_name_H-M   'P 1'
_cell_length_a   4.69396114
_cell_length_b   6.45070428
_cell_length_c   6.45070428
_cell_angle_alpha   97.89742065
_cell_angle_beta   111.33579116
_cell_angle_gamma   68.66420884
_symmetry_Int_Tables_number   1
_chemical_formula_structural   YFe11Mo
_chemical_formula_sum   'Y1 Fe11 Mo1'
_cell_volume   169.46450330
_cell_formula_units_Z   1
loop_
 _symmetry_equiv_pos_site_id
 _symmetry_equiv_pos_as_xyz
  1  'x, y, z'
loop_
 _atom_site_type_symbol
 _atom_site_label
 _atom_site_symmetry_multiplicity
 _atom_site_fract_x
 _atom_site_fract_y
 _atom_site_fract_z
 _atom_site_occupancy
  Y  Y0  1  0.00633190  0.99366810  0.00633190  1
  Fe  Fe1  1  0.50062789  0.99782153  0.49991271  1
  Fe  Fe2  1  0.00146329  0.99782153  0.49991271  1
  Fe  Fe3  1  0.50062789  0.50008729  0.00217847  1
  Fe  Fe4  1  0.00146329  0.50008729  0.00217847  1
  Fe  Fe5  1  0.72901733  0.77098267  0.22901733  1
  Fe  Fe6  1  0.27302226  0.22697774  0.77302226  1
  Fe  Fe7  1  0.49837630  0.77891604  0.77566864  1
  Fe  Fe8  1  0.49837630  0.22433136  0.22108396  1
  Fe  Fe9  1  0.35872266  0.64127734  0.35872266  1
  Fe  Fe10  1  0.99925295  0.35943718  0.35794308  1
  Fe  Fe11  1  0.99925295  0.64205692  0.64056282  1
  Mo  Mo12  1  0.63346499  0.36653501  0.63346499  1
