# generated using pymatgen
data_Er4Fe29Si5
_symmetry_space_group_name_H-M   'P 1'
_cell_length_a   6.33772163
_cell_length_b   6.32583699
_cell_length_c   12.64409848
_cell_angle_alpha   81.57619931
_cell_angle_beta   82.21674246
_cell_angle_gamma   82.15863962
_symmetry_Int_Tables_number   1
_chemical_formula_structural   Er4Fe29Si5
_chemical_formula_sum   'Er4 Fe29 Si5'
_cell_volume   493.30310753
_cell_formula_units_Z   1
loop_
 _symmetry_equiv_pos_site_id
 _symmetry_equiv_pos_as_xyz
  1  'x, y, z'
loop_
 _atom_site_type_symbol
 _atom_site_label
 _atom_site_symmetry_multiplicity
 _atom_site_fract_x
 _atom_site_fract_y
 _atom_site_fract_z
 _atom_site_occupancy
  Er  Er0  1  0.65785761  0.65189214  0.32684980  1
  Er  Er1  1  0.65358136  0.65492669  0.82609248  1
  Er  Er2  1  0.34641864  0.34507331  0.17390752  1
  Er  Er3  1  0.34214239  0.34810786  0.67315020  1
  Fe  Fe4  1  0.33823036  0.33688204  0.42487879  1
  Fe  Fe5  1  0.33996019  0.34017088  0.92186194  1
  Fe  Fe6  1  0.34140609  0.84518467  0.17003391  1
  Fe  Fe7  1  0.33741546  0.84907378  0.66846768  1
  Fe  Fe8  1  0.84468560  0.34044319  0.17088658  1
  Fe  Fe9  1  0.83803798  0.34446000  0.67145233  1
  Fe  Fe10  1  0.66003981  0.65982912  0.07813806  1
  Fe  Fe11  1  0.66176964  0.66311796  0.57512121  1
  Fe  Fe12  1  0.66258454  0.15092622  0.33153232  1
  Fe  Fe13  1  0.65859391  0.15481533  0.82996609  1
  Fe  Fe14  1  0.16196202  0.65554000  0.32854767  1
  Fe  Fe15  1  0.15531440  0.65955681  0.82911342  1
  Fe  Fe16  1  0.30864900  0.69374284  0.49956143  1
  Fe  Fe17  1  0.30282340  0.69733243  0.99983482  1
  Fe  Fe18  1  0.69844591  0.00002504  0.15172726  1
  Fe  Fe19  1  0.69108860  0.00166267  0.65228399  1
  Fe  Fe20  1  0.00074047  0.29570404  0.35233592  1
  Fe  Fe21  1  0.99902660  0.29946869  0.85005807  1
  Fe  Fe22  1  0.30891140  0.99833733  0.34771601  1
  Fe  Fe23  1  0.30155409  0.99997496  0.84827274  1
  Fe  Fe24  1  0.00097340  0.70053131  0.14994193  1
  Fe  Fe25  1  0.99925953  0.70429596  0.64766408  1
  Fe  Fe26  1  0.69717660  0.30266757  0.00016518  1
  Fe  Fe27  1  0.69135100  0.30625716  0.50043857  1
  Fe  Fe28  1  0.00162093  0.99917095  0.25005570  1
  Fe  Fe29  1  0.99837907  0.00082905  0.74994430  1
  Fe  Fe30  1  -0.00000000  0.50000000  0.50000000  1
  Fe  Fe31  1  -0.00000000  0.50000000  -0.00000000  1
  Fe  Fe32  1  0.50000000  0.00000000  -0.00000000  1
  Si  Si33  1  0.50000000  0.00000000  0.50000000  1
  Si  Si34  1  0.92033692  0.89130404  0.44532729  1
  Si  Si35  1  0.89911452  0.89859923  0.94945470  1
  Si  Si36  1  0.10088548  0.10140077  0.05054530  1
  Si  Si37  1  0.07966308  0.10869596  0.55467271  1
