# generated using pymatgen
data_VCrO3
_symmetry_space_group_name_H-M   'P 1'
_cell_length_a   5.11732176
_cell_length_b   5.11732260
_cell_length_c   5.50206047
_cell_angle_alpha   89.99999986
_cell_angle_beta   62.28739536
_cell_angle_gamma   119.99999564
_symmetry_Int_Tables_number   1
_chemical_formula_structural   VCrO3
_chemical_formula_sum   'V2 Cr2 O6'
_cell_volume   105.26308461
_cell_formula_units_Z   2
loop_
 _symmetry_equiv_pos_site_id
 _symmetry_equiv_pos_as_xyz
  1  'x, y, z'
loop_
 _atom_site_type_symbol
 _atom_site_label
 _atom_site_symmetry_multiplicity
 _atom_site_fract_x
 _atom_site_fract_y
 _atom_site_fract_z
 _atom_site_occupancy
  V  V0  1  0.29844879  0.14922440  0.55232681  1
  V  V1  1  0.29844879  0.64922440  0.05232681  1
  Cr  Cr2  1  0.69954215  0.84977107  0.45068678  1
  Cr  Cr3  1  0.69954215  0.34977107  0.95068678  1
  O  O4  1  0.50418643  0.05558125  0.74899547  1
  O  O5  1  0.80239935  0.74681810  0.74899547  1
  O  O6  1  0.19542328  0.44860518  0.74899547  1
  O  O7  1  0.19542328  0.24681810  0.24899547  1
  O  O8  1  0.80239935  0.55558125  0.24899547  1
  O  O9  1  0.50418643  0.94860518  0.24899547  1
