# generated using pymatgen
data_V9Te8
_symmetry_space_group_name_H-M   'P 1'
_cell_length_a   7.10134303
_cell_length_b   7.21015828
_cell_length_c   7.72877177
_cell_angle_alpha   105.61461795
_cell_angle_beta   74.15690602
_cell_angle_gamma   90.24554350
_symmetry_Int_Tables_number   1
_chemical_formula_structural   V9Te8
_chemical_formula_sum   'V9 Te8'
_cell_volume   365.62061259
_cell_formula_units_Z   1
loop_
 _symmetry_equiv_pos_site_id
 _symmetry_equiv_pos_as_xyz
  1  'x, y, z'
loop_
 _atom_site_type_symbol
 _atom_site_label
 _atom_site_symmetry_multiplicity
 _atom_site_fract_x
 _atom_site_fract_y
 _atom_site_fract_z
 _atom_site_occupancy
  V  V0  1  0.50434881  0.49802053  0.27446968  1
  V  V1  1  0.50023312  0.50193084  0.71973867  1
  V  V2  1  0.56161879  0.78322610  0.55517580  1
  V  V3  1  0.57494981  0.78352334  0.05349820  1
  V  V4  1  0.43000834  0.20597288  0.44259921  1
  V  V5  1  0.43819696  0.22433151  0.94892198  1
  V  V6  1  0.72339365  0.42809154  0.92475676  1
  V  V7  1  0.25193922  0.58524058  0.58012863  1
  V  V8  1  0.27865080  0.56183250  0.07692448  1
  Te  Te9  1  0.15427330  0.31336421  0.29124239  1
  Te  Te10  1  0.15556086  0.31089390  0.78925467  1
  Te  Te11  1  0.83711878  0.68974840  0.70897399  1
  Te  Te12  1  0.84209103  0.68239494  0.21323422  1
  Te  Te13  1  0.72050045  0.14611576  0.11127308  1
  Te  Te14  1  0.71419465  0.14915342  0.60235763  1
  Te  Te15  1  0.28023154  0.85515652  0.89920330  1
  Te  Te16  1  0.28198991  0.85630300  0.38974730  1
