# generated using pymatgen
data_Yb(TmSe2)2
_symmetry_space_group_name_H-M   'P 1'
_cell_length_a   4.08588443
_cell_length_b   7.18219778
_cell_length_c   6.96251787
_cell_angle_alpha   71.95462482
_cell_angle_beta   89.99999484
_cell_angle_gamma   89.99999594
_symmetry_Int_Tables_number   1
_chemical_formula_structural   Yb(TmSe2)2
_chemical_formula_sum   'Yb1 Tm2 Se4'
_cell_volume   194.26930392
_cell_formula_units_Z   1
loop_
 _symmetry_equiv_pos_site_id
 _symmetry_equiv_pos_as_xyz
  1  'x, y, z'
loop_
 _atom_site_type_symbol
 _atom_site_label
 _atom_site_symmetry_multiplicity
 _atom_site_fract_x
 _atom_site_fract_y
 _atom_site_fract_z
 _atom_site_occupancy
  Yb  Yb0  1  -0.00000000  0.50000000  0.50000000  1
  Tm  Tm1  1  -0.00000000  0.00000000  0.00000000  1
  Tm  Tm2  1  0.50000000  0.00000000  0.50000000  1
  Se  Se3  1  0.50000000  0.24097766  0.75731919  1
  Se  Se4  1  0.00000000  0.23236337  0.25750128  1
  Se  Se5  1  0.50000000  0.75902234  0.24268081  1
  Se  Se6  1  1.00000000  0.76763663  0.74249872  1
