# generated using pymatgen
data_Y3SOF5
_symmetry_space_group_name_H-M   'P 1'
_cell_length_a   3.68986820
_cell_length_b   9.52451510
_cell_length_c   9.42693827
_cell_angle_alpha   119.94337200
_cell_angle_beta   90.00000000
_cell_angle_gamma   90.00000000
_symmetry_Int_Tables_number   1
_chemical_formula_structural   Y3SOF5
_chemical_formula_sum   'Y6 S2 O2 F10'
_cell_volume   287.07974922
_cell_formula_units_Z   2
loop_
 _symmetry_equiv_pos_site_id
 _symmetry_equiv_pos_as_xyz
  1  'x, y, z'
loop_
 _atom_site_type_symbol
 _atom_site_label
 _atom_site_symmetry_multiplicity
 _atom_site_fract_x
 _atom_site_fract_y
 _atom_site_fract_z
 _atom_site_occupancy
  Y  Y0  1  0.75000000  0.13457126  0.71706014  1
  Y  Y1  1  0.75000000  0.27038095  0.40352162  1
  Y  Y2  1  0.75000000  0.58538861  0.88397965  1
  Y  Y3  1  0.25000000  0.89640980  0.30126377  1
  Y  Y4  1  0.25000000  0.71525690  0.59161030  1
  Y  Y5  1  0.25000000  0.40231107  0.10655023  1
  S  S6  1  0.75000000  0.66713398  0.33817996  1
  S  S7  1  0.25000000  0.33867879  0.66494778  1
  O  O8  1  0.75000000  0.38707113  0.95099106  1
  O  O9  1  0.75000000  0.05160387  0.43598278  1
  F  F10  1  0.75000000  0.88049890  0.72173892  1
  F  F11  1  0.75000000  0.27300826  0.16130363  1
  F  F12  1  0.75000000  0.83748043  0.11197187  1
  F  F13  1  0.25000000  0.11738983  0.26231088  1
  F  F14  1  0.25000000  0.71603458  0.83660353  1
  F  F15  1  0.25000000  0.14851129  0.87736050  1
  F  F16  1  0.75000000  0.56683395  0.61424821  1
  F  F17  1  0.25000000  0.62584051  0.05631729  1
  F  F18  1  0.25000000  0.95289498  0.57529529  1
  F  F19  1  0.25000000  0.43270090  0.38876259  1
