# generated using pymatgen
data_VMoAs2
_symmetry_space_group_name_H-M   'P 1'
_cell_length_a   3.38605107
_cell_length_b   5.92091801
_cell_length_c   6.36880731
_cell_angle_alpha   90.00000000
_cell_angle_beta   90.00000000
_cell_angle_gamma   90.00000000
_symmetry_Int_Tables_number   1
_chemical_formula_structural   VMoAs2
_chemical_formula_sum   'V2 Mo2 As4'
_cell_volume   127.68522928
_cell_formula_units_Z   2
loop_
 _symmetry_equiv_pos_site_id
 _symmetry_equiv_pos_as_xyz
  1  'x, y, z'
loop_
 _atom_site_type_symbol
 _atom_site_label
 _atom_site_symmetry_multiplicity
 _atom_site_fract_x
 _atom_site_fract_y
 _atom_site_fract_z
 _atom_site_occupancy
  V  V0  1  0.25000000  0.50969757  0.31647214  1
  V  V1  1  0.25000000  0.00969757  0.18352786  1
  Mo  Mo2  1  0.75000000  0.49145272  0.68445481  1
  Mo  Mo3  1  0.75000000  0.99145272  0.81554519  1
  As  As4  1  0.75000000  0.30853575  0.08016690  1
  As  As5  1  0.75000000  0.80853575  0.41983310  1
  As  As6  1  0.25000000  0.69031395  0.93783916  1
  As  As7  1  0.25000000  0.19031395  0.56216084  1
