# generated using pymatgen
data_CrGa3(NiS4)2
_symmetry_space_group_name_H-M   'P 1'
_cell_length_a   3.62086924
_cell_length_b   12.43081055
_cell_length_c   6.33293377
_cell_angle_alpha   75.34955606
_cell_angle_beta   89.97042370
_cell_angle_gamma   98.38446052
_symmetry_Int_Tables_number   1
_chemical_formula_structural   CrGa3(NiS4)2
_chemical_formula_sum   'Cr1 Ga3 Ni2 S8'
_cell_volume   272.62384116
_cell_formula_units_Z   1
loop_
 _symmetry_equiv_pos_site_id
 _symmetry_equiv_pos_as_xyz
  1  'x, y, z'
loop_
 _atom_site_type_symbol
 _atom_site_label
 _atom_site_symmetry_multiplicity
 _atom_site_fract_x
 _atom_site_fract_y
 _atom_site_fract_z
 _atom_site_occupancy
  Cr  Cr0  1  0.10741844  0.21390855  0.56352901  1
  Ga  Ga1  1  0.60643598  0.21279582  0.05821434  1
  Ga  Ga2  1  0.89226748  0.78489539  0.44188037  1
  Ga  Ga3  1  0.39200327  0.78444894  0.94106254  1
  Ni  Ni4  1  0.74966259  0.49918848  0.25173538  1
  Ni  Ni5  1  0.24939089  0.49952892  0.74926403  1
  S  S6  1  0.93576527  0.87243718  0.72946820  1
  S  S7  1  0.43595893  0.87204562  0.22995125  1
  S  S8  1  0.06630391  0.13222489  0.26792340  1
  S  S9  1  0.56761249  0.13412710  0.76530767  1
  S  S10  1  0.70161282  0.40477425  0.96500066  1
  S  S11  1  0.19964591  0.39980150  0.46593014  1
  S  S12  1  0.29888932  0.59594665  0.03468782  1
  S  S13  1  0.79703273  0.59387672  0.53604520  1
