# generated using pymatgen
data_TmGaAg
_symmetry_space_group_name_H-M   'P 1'
_cell_length_a   4.54446661
_cell_length_b   5.73967068
_cell_length_c   5.70838951
_cell_angle_alpha   94.34893353
_cell_angle_beta   113.45642316
_cell_angle_gamma   66.67900044
_symmetry_Int_Tables_number   1
_chemical_formula_structural   TmGaAg
_chemical_formula_sum   'Tm2 Ga2 Ag2'
_cell_volume   124.84044363
_cell_formula_units_Z   2
loop_
 _symmetry_equiv_pos_site_id
 _symmetry_equiv_pos_as_xyz
  1  'x, y, z'
loop_
 _atom_site_type_symbol
 _atom_site_label
 _atom_site_symmetry_multiplicity
 _atom_site_fract_x
 _atom_site_fract_y
 _atom_site_fract_z
 _atom_site_occupancy
  Tm  Tm0  1  0.75494901  0.70944073  0.21933876  1
  Tm  Tm1  1  0.24505099  0.29055927  0.78066124  1
  Ga  Ga2  1  0.04167572  0.11780531  0.20115674  1
  Ga  Ga3  1  0.95832428  0.88219469  0.79884326  1
  Ag  Ag4  1  0.54736522  0.27849319  0.37322363  1
  Ag  Ag5  1  0.45263478  0.72150681  0.62677637  1
