# generated using pymatgen
data_VCu12As3S16
_symmetry_space_group_name_H-M   'P 1'
_cell_length_a   10.58424311
_cell_length_b   10.58424311
_cell_length_c   10.58424311
_cell_angle_alpha   90.07787860
_cell_angle_beta   90.07787860
_cell_angle_gamma   90.07787860
_symmetry_Int_Tables_number   1
_chemical_formula_structural   VCu12As3S16
_chemical_formula_sum   'V2 Cu24 As6 S32'
_cell_volume   1185.70927063
_cell_formula_units_Z   2
loop_
 _symmetry_equiv_pos_site_id
 _symmetry_equiv_pos_as_xyz
  1  'x, y, z'
loop_
 _atom_site_type_symbol
 _atom_site_label
 _atom_site_symmetry_multiplicity
 _atom_site_fract_x
 _atom_site_fract_y
 _atom_site_fract_z
 _atom_site_occupancy
  V  V0  1  0.49978665  0.49978665  0.49978665  1
  V  V1  1  0.99978665  0.99978665  0.99978665  1
  Cu  Cu2  1  0.49923808  0.24113696  0.49898867  1
  Cu  Cu3  1  0.75703505  0.50060548  0.50041933  1
  Cu  Cu4  1  0.49898867  0.49923808  0.24113696  1
  Cu  Cu5  1  0.24113696  0.49898867  0.49923808  1
  Cu  Cu6  1  0.50060548  0.50041933  0.75703505  1
  Cu  Cu7  1  0.50041933  0.75703505  0.50060548  1
  Cu  Cu8  1  0.74113696  0.99923808  0.99898867  1
  Cu  Cu9  1  0.00060548  0.25703505  0.00041933  1
  Cu  Cu10  1  0.99923808  0.99898867  0.74113696  1
  Cu  Cu11  1  0.99898867  0.74113696  0.99923808  1
  Cu  Cu12  1  0.00041933  0.00060548  0.25703505  1
  Cu  Cu13  1  0.25703505  0.00041933  0.00060548  1
  Cu  Cu14  1  0.49923178  0.25145745  0.00120656  1
  Cu  Cu15  1  0.75145745  0.99923178  0.50120656  1
  Cu  Cu16  1  0.00120656  0.49923178  0.25145745  1
  Cu  Cu17  1  0.25145745  0.00120656  0.49923178  1
  Cu  Cu18  1  0.99923178  0.50120656  0.75145745  1
  Cu  Cu19  1  0.50120656  0.75145745  0.99923178  1
  Cu  Cu20  1  0.75050946  0.24932294  0.24939679  1
  Cu  Cu21  1  0.24932294  0.24939679  0.75050946  1
  Cu  Cu22  1  0.24939679  0.75050946  0.24932294  1
  Cu  Cu23  1  0.74932294  0.25050946  0.74939679  1
  Cu  Cu24  1  0.74939679  0.74932294  0.25050946  1
  Cu  Cu25  1  0.25050946  0.74939679  0.74932294  1
  As  As26  1  0.00189452  0.25390601  0.49814512  1
  As  As27  1  0.75390601  0.50189452  0.99814512  1
  As  As28  1  0.49814512  0.00189452  0.25390601  1
  As  As29  1  0.25390601  0.49814512  0.00189452  1
  As  As30  1  0.50189452  0.99814512  0.75390601  1
  As  As31  1  0.99814512  0.75390601  0.50189452  1
  S  S32  1  0.87237559  0.12816353  0.37753577  1
  S  S33  1  0.87235322  0.37658549  0.12833202  1
  S  S34  1  0.62223173  0.12752969  0.12837547  1
  S  S35  1  0.12752969  0.12837547  0.62223173  1
  S  S36  1  0.12816353  0.37753577  0.87237559  1
  S  S37  1  0.37658549  0.12833202  0.87235322  1
  S  S38  1  0.12833202  0.87235322  0.37658549  1
  S  S39  1  0.12837547  0.62223173  0.12752969  1
  S  S40  1  0.37753577  0.87237559  0.12816353  1
  S  S41  1  0.87292063  0.86825409  0.62325209  1
  S  S42  1  0.86825409  0.62325209  0.87292063  1
  S  S43  1  0.62325209  0.87292063  0.86825409  1
  S  S44  1  0.62816353  0.37237559  0.87753577  1
  S  S45  1  0.87658549  0.37235322  0.62833202  1
  S  S46  1  0.62752969  0.12223173  0.62837547  1
  S  S47  1  0.62837547  0.62752969  0.12223173  1
  S  S48  1  0.87753577  0.62816353  0.37237559  1
  S  S49  1  0.62833202  0.87658549  0.37235322  1
  S  S50  1  0.37235322  0.62833202  0.87658549  1
  S  S51  1  0.12223173  0.62837547  0.62752969  1
  S  S52  1  0.37237559  0.87753577  0.62816353  1
  S  S53  1  0.36825409  0.37292063  0.12325209  1
  S  S54  1  0.12325209  0.36825409  0.37292063  1
  S  S55  1  0.37292063  0.12325209  0.36825409  1
  S  S56  1  0.62095383  0.37887673  0.37857273  1
  S  S57  1  0.37887673  0.37857273  0.62095383  1
  S  S58  1  0.37857273  0.62095383  0.37887673  1
  S  S59  1  0.62010656  0.62010656  0.62010656  1
  S  S60  1  0.87887673  0.12095383  0.87857273  1
  S  S61  1  0.87857273  0.87887673  0.12095383  1
  S  S62  1  0.12095383  0.87857273  0.87887673  1
  S  S63  1  0.12010656  0.12010656  0.12010656  1
