# generated using pymatgen
data_V3Zn2GaO11
_symmetry_space_group_name_H-M   'P 1'
_cell_length_a   6.56933425
_cell_length_b   6.93187528
_cell_length_c   10.01944464
_cell_angle_alpha   97.76263362
_cell_angle_beta   102.02488347
_cell_angle_gamma   101.31878327
_symmetry_Int_Tables_number   1
_chemical_formula_structural   V3Zn2GaO11
_chemical_formula_sum   'V6 Zn4 Ga2 O22'
_cell_volume   430.14430765
_cell_formula_units_Z   2
loop_
 _symmetry_equiv_pos_site_id
 _symmetry_equiv_pos_as_xyz
  1  'x, y, z'
loop_
 _atom_site_type_symbol
 _atom_site_label
 _atom_site_symmetry_multiplicity
 _atom_site_fract_x
 _atom_site_fract_y
 _atom_site_fract_z
 _atom_site_occupancy
  V  V0  1  0.17313283  0.48598809  0.28953566  1
  V  V1  1  0.82686717  0.51401191  0.71046434  1
  V  V2  1  0.80256507  0.92555228  0.38377956  1
  V  V3  1  0.19743493  0.07444772  0.61622044  1
  V  V4  1  0.74521298  0.82307784  0.02452914  1
  V  V5  1  0.25478702  0.17692216  0.97547086  1
  Zn  Zn6  1  0.28309496  0.00413834  0.27889105  1
  Zn  Zn7  1  0.71690504  0.99586166  0.72110895  1
  Zn  Zn8  1  0.67454228  0.37639894  0.33538985  1
  Zn  Zn9  1  0.32545772  0.62360106  0.66461015  1
  Ga  Ga10  1  0.18976677  0.67538545  0.00434752  1
  Ga  Ga11  1  0.81023323  0.32461455  0.99565248  1
  O  O12  1  0.88640602  0.99407088  0.57803394  1
  O  O13  1  0.11359398  0.00592912  0.42196606  1
  O  O14  1  0.19456529  0.57044200  0.45727831  1
  O  O15  1  0.80543471  0.42955800  0.54272169  1
  O  O16  1  0.24296543  0.69970501  0.21379248  1
  O  O17  1  0.75703457  0.30029499  0.78620752  1
  O  O18  1  0.69054861  0.68256913  0.35723504  1
  O  O19  1  0.30945139  0.31743087  0.64276496  1
  O  O20  1  0.60731071  0.06438196  0.34938298  1
  O  O21  1  0.39268929  0.93561804  0.65061702  1
  O  O22  1  0.48135963  0.71355057  0.99695747  1
  O  O23  1  0.51864037  0.28644943  0.00304253  1
  O  O24  1  0.34515668  0.31782166  0.27855869  1
  O  O25  1  0.65484332  0.68217834  0.72144131  1
  O  O26  1  0.21594342  0.96934882  0.06051617  1
  O  O27  1  0.78405658  0.03065118  0.93948383  1
  O  O28  1  0.85096170  0.92474736  0.19512188  1
  O  O29  1  0.14903830  0.07525264  0.80487812  1
  O  O30  1  0.87610752  0.62293316  0.98678416  1
  O  O31  1  0.12389248  0.37706684  0.01321584  1
  O  O32  1  0.10898643  0.62776961  0.78882922  1
  O  O33  1  0.89101357  0.37223039  0.21117078  1
