# generated using pymatgen
data_VGa2FeCo4
_symmetry_space_group_name_H-M   'P 1'
_cell_length_a   4.06565648
_cell_length_b   4.06565648
_cell_length_c   7.02438817
_cell_angle_alpha   73.17821471
_cell_angle_beta   90.00000000
_cell_angle_gamma   120.00000000
_symmetry_Int_Tables_number   1
_chemical_formula_structural   VGa2FeCo4
_chemical_formula_sum   'V1 Ga2 Fe1 Co4'
_cell_volume   94.77384593
_cell_formula_units_Z   1
loop_
 _symmetry_equiv_pos_site_id
 _symmetry_equiv_pos_as_xyz
  1  'x, y, z'
loop_
 _atom_site_type_symbol
 _atom_site_label
 _atom_site_symmetry_multiplicity
 _atom_site_fract_x
 _atom_site_fract_y
 _atom_site_fract_z
 _atom_site_occupancy
  V  V0  1  0.50000000  0.00000000  0.50000000  1
  Ga  Ga1  1  0.25026163  0.50052326  0.24921510  1
  Ga  Ga2  1  0.74973837  0.49947674  0.75078490  1
  Fe  Fe3  1  0.00000000  0.00000000  -0.00000000  1
  Co  Co4  1  0.62438736  0.24877471  0.12683793  1
  Co  Co5  1  0.12586584  0.25173168  0.62240248  1
  Co  Co6  1  0.87413416  0.74826832  0.37759752  1
  Co  Co7  1  0.37561264  0.75122529  0.87316207  1
