# generated using pymatgen
data_V3NiP2
_symmetry_space_group_name_H-M   'P 1'
_cell_length_a   3.32482400
_cell_length_b   6.14102557
_cell_length_c   10.68292888
_cell_angle_alpha   89.71154275
_cell_angle_beta   90.00000000
_cell_angle_gamma   90.00000000
_symmetry_Int_Tables_number   1
_chemical_formula_structural   V3NiP2
_chemical_formula_sum   'V9 Ni3 P6'
_cell_volume   218.11945284
_cell_formula_units_Z   3
loop_
 _symmetry_equiv_pos_site_id
 _symmetry_equiv_pos_as_xyz
  1  'x, y, z'
loop_
 _atom_site_type_symbol
 _atom_site_label
 _atom_site_symmetry_multiplicity
 _atom_site_fract_x
 _atom_site_fract_y
 _atom_site_fract_z
 _atom_site_occupancy
  V  V0  1  -0.00000000  0.87146146  0.87344113  1
  V  V1  1  -0.00000000  0.87259092  0.12935000  1
  V  V2  1  -0.00000000  0.37450316  0.62193088  1
  V  V3  1  0.50000000  0.60202383  0.00290598  1
  V  V4  1  0.50000000  0.10457245  0.50155331  1
  V  V5  1  0.50000000  0.19265211  0.20757308  1
  V  V6  1  0.50000000  0.69519482  0.70721173  1
  V  V7  1  0.50000000  0.70476941  0.29344721  1
  V  V8  1  0.50000000  0.19679805  0.78745155  1
  Ni  Ni9  1  0.00000000  0.25730308  0.00125943  1
  Ni  Ni10  1  -0.00000000  0.75978905  0.50232551  1
  Ni  Ni11  1  0.00000000  0.36562306  0.37276450  1
  P  P12  1  -0.00000000  0.99834414  0.33957630  1
  P  P13  1  -0.00000000  0.49182939  0.83763578  1
  P  P14  1  0.00000000  0.48985405  0.16996351  1
  P  P15  1  -0.00000000  0.99290723  0.66268447  1
  P  P16  1  0.50000000  0.01729295  0.00113313  1
  P  P17  1  0.50000000  0.51229085  0.48779246  1
