# generated using pymatgen
data_TmAlFe
_symmetry_space_group_name_H-M   'P 1'
_cell_length_a   5.34470217
_cell_length_b   5.32762216
_cell_length_c   8.50855256
_cell_angle_alpha   90.00000000
_cell_angle_beta   90.00000000
_cell_angle_gamma   119.89389134
_symmetry_Int_Tables_number   1
_chemical_formula_structural   TmAlFe
_chemical_formula_sum   'Tm4 Al4 Fe4'
_cell_volume   210.04222402
_cell_formula_units_Z   4
loop_
 _symmetry_equiv_pos_site_id
 _symmetry_equiv_pos_as_xyz
  1  'x, y, z'
loop_
 _atom_site_type_symbol
 _atom_site_label
 _atom_site_symmetry_multiplicity
 _atom_site_fract_x
 _atom_site_fract_y
 _atom_site_fract_z
 _atom_site_occupancy
  Tm  Tm0  1  0.66657701  0.33328393  0.56512031  1
  Tm  Tm1  1  0.32706001  0.66354690  0.44808538  1
  Tm  Tm2  1  0.32706001  0.66354690  0.05191462  1
  Tm  Tm3  1  0.66657701  0.33328393  0.93487969  1
  Al  Al4  1  0.67065024  0.83531767  0.75000000  1
  Al  Al5  1  0.83579771  0.67249960  0.25000000  1
  Al  Al6  1  0.83580194  0.16331413  0.25000000  1
  Al  Al7  1  0.32898164  0.16449870  0.25000000  1
  Fe  Fe8  1  0.01153928  0.00576373  0.51057325  1
  Fe  Fe9  1  0.01153928  0.00576373  0.98942675  1
  Fe  Fe10  1  0.15919593  0.32817050  0.75000000  1
  Fe  Fe11  1  0.15921992  0.83101028  0.75000000  1
