# generated using pymatgen
data_U2AlFe3
_symmetry_space_group_name_H-M   'P 1'
_cell_length_a   5.24163268
_cell_length_b   5.24163268
_cell_length_c   4.77287937
_cell_angle_alpha   90.00000000
_cell_angle_beta   56.69430263
_cell_angle_gamma   120.00000000
_symmetry_Int_Tables_number   1
_chemical_formula_structural   U2AlFe3
_chemical_formula_sum   'U2 Al1 Fe3'
_cell_volume   87.81859059
_cell_formula_units_Z   1
loop_
 _symmetry_equiv_pos_site_id
 _symmetry_equiv_pos_as_xyz
  1  'x, y, z'
loop_
 _atom_site_type_symbol
 _atom_site_label
 _atom_site_symmetry_multiplicity
 _atom_site_fract_x
 _atom_site_fract_y
 _atom_site_fract_z
 _atom_site_occupancy
  U  U0  1  0.50354702  0.75177351  0.74467948  1
  U  U1  1  0.99645298  0.99822649  0.00532052  1
  Al  Al2  1  0.75000000  0.37500000  0.87500000  1
  Fe  Fe3  1  0.25000000  0.37500000  0.37500000  1
  Fe  Fe4  1  0.25000000  0.87500000  0.37500000  1
  Fe  Fe5  1  0.75000000  0.37500000  0.37500000  1
