# generated using pymatgen
data_Tl4Sn
_symmetry_space_group_name_H-M   'P 1'
_cell_length_a   3.43236676
_cell_length_b   3.43236676
_cell_length_c   15.17086495
_cell_angle_alpha   90.00000000
_cell_angle_beta   96.49541454
_cell_angle_gamma   119.99999993
_symmetry_Int_Tables_number   1
_chemical_formula_structural   Tl4Sn
_chemical_formula_sum   'Tl4 Sn1'
_cell_volume   153.45861469
_cell_formula_units_Z   1
loop_
 _symmetry_equiv_pos_site_id
 _symmetry_equiv_pos_as_xyz
  1  'x, y, z'
loop_
 _atom_site_type_symbol
 _atom_site_label
 _atom_site_symmetry_multiplicity
 _atom_site_fract_x
 _atom_site_fract_y
 _atom_site_fract_z
 _atom_site_occupancy
  Tl  Tl0  1  0.79374890  0.39687445  0.19062336  1
  Tl  Tl1  1  0.59868594  0.79934297  0.39802891  1
  Tl  Tl2  1  0.40131406  0.20065703  0.60197109  1
  Tl  Tl3  1  0.20625110  0.60312555  0.80937664  1
  Sn  Sn4  1  -0.00000000  -0.00000000  -0.00000000  1
