# generated using pymatgen
data_TmAl7Fe5
_symmetry_space_group_name_H-M   'P 1'
_cell_length_a   5.01854662
_cell_length_b   6.59324468
_cell_length_c   6.59324468
_cell_angle_alpha   98.18689812
_cell_angle_beta   112.36976653
_cell_angle_gamma   67.63023347
_symmetry_Int_Tables_number   1
_chemical_formula_structural   TmAl7Fe5
_chemical_formula_sum   'Tm1 Al7 Fe5'
_cell_volume   186.56081431
_cell_formula_units_Z   1
loop_
 _symmetry_equiv_pos_site_id
 _symmetry_equiv_pos_as_xyz
  1  'x, y, z'
loop_
 _atom_site_type_symbol
 _atom_site_label
 _atom_site_symmetry_multiplicity
 _atom_site_fract_x
 _atom_site_fract_y
 _atom_site_fract_z
 _atom_site_occupancy
  Tm  Tm0  1  0.00505743  0.99494257  0.00505743  1
  Al  Al1  1  0.66048455  0.33951545  0.66048455  1
  Al  Al2  1  0.33844529  0.66155471  0.33844529  1
  Al  Al3  1  0.99143490  0.35062839  0.33349820  1
  Al  Al4  1  0.99143490  0.66650180  0.64937161  1
  Al  Al5  1  0.27474796  0.22525204  0.77474796  1
  Al  Al6  1  0.50494085  0.78563902  0.79552073  1
  Al  Al7  1  0.50494085  0.20447927  0.21436098  1
  Fe  Fe8  1  0.49603991  0.00212536  0.49909824  1
  Fe  Fe9  1  0.00093297  0.00212536  0.49909824  1
  Fe  Fe10  1  0.49603991  0.50090176  0.99787464  1
  Fe  Fe11  1  0.00093297  0.50090176  0.99787464  1
  Fe  Fe12  1  0.73456749  0.76543251  0.23456749  1
