# generated using pymatgen
data_V11ReB8
_symmetry_space_group_name_H-M   'P 1'
_cell_length_a   3.03027627
_cell_length_b   5.75148491
_cell_length_c   11.50432084
_cell_angle_alpha   90.00808157
_cell_angle_beta   90.00000000
_cell_angle_gamma   90.00000000
_symmetry_Int_Tables_number   1
_chemical_formula_structural   V11ReB8
_chemical_formula_sum   'V11 Re1 B8'
_cell_volume   200.50406903
_cell_formula_units_Z   1
loop_
 _symmetry_equiv_pos_site_id
 _symmetry_equiv_pos_as_xyz
  1  'x, y, z'
loop_
 _atom_site_type_symbol
 _atom_site_label
 _atom_site_symmetry_multiplicity
 _atom_site_fract_x
 _atom_site_fract_y
 _atom_site_fract_z
 _atom_site_occupancy
  V  V0  1  0.50000000  0.17287095  0.34079131  1
  V  V1  1  0.50000000  0.17784572  0.83838419  1
  V  V2  1  0.50000000  0.82712905  0.15920869  1
  V  V3  1  0.50000000  0.82215428  0.66161581  1
  V  V4  1  0.50000000  0.31989259  0.08626138  1
  V  V5  1  0.50000000  0.32181432  0.58902027  1
  V  V6  1  0.50000000  0.68010741  0.41373862  1
  V  V7  1  0.50000000  0.67818568  0.91097973  1
  V  V8  1  -0.00000000  0.50000000  0.75000000  1
  V  V9  1  0.00000000  0.99974181  0.99880383  1
  V  V10  1  -0.00000000  0.00025819  0.50119617  1
  Re  Re11  1  0.00000000  0.50000000  0.25000000  1
  B  B12  1  0.00000000  0.61165060  0.05452618  1
  B  B13  1  -0.00000000  0.61155874  0.55671888  1
  B  B14  1  0.00000000  0.38834940  0.44547382  1
  B  B15  1  0.00000000  0.38844126  0.94328112  1
  B  B16  1  -0.00000000  0.88893609  0.30610573  1
  B  B17  1  0.00000000  0.88902344  0.80538923  1
  B  B18  1  -0.00000000  0.11106391  0.19389427  1
  B  B19  1  -0.00000000  0.11097656  0.69461077  1
