# generated using pymatgen
data_Cr2SbAs
_symmetry_space_group_name_H-M   'P 1'
_cell_length_a   3.78806522
_cell_length_b   5.82019369
_cell_length_c   6.59297364
_cell_angle_alpha   90.00000000
_cell_angle_beta   90.00000000
_cell_angle_gamma   90.00000000
_symmetry_Int_Tables_number   1
_chemical_formula_structural   Cr2SbAs
_chemical_formula_sum   'Cr4 Sb2 As2'
_cell_volume   145.35709164
_cell_formula_units_Z   2
loop_
 _symmetry_equiv_pos_site_id
 _symmetry_equiv_pos_as_xyz
  1  'x, y, z'
loop_
 _atom_site_type_symbol
 _atom_site_label
 _atom_site_symmetry_multiplicity
 _atom_site_fract_x
 _atom_site_fract_y
 _atom_site_fract_z
 _atom_site_occupancy
  Cr  Cr0  1  0.75000000  0.50342098  0.70810830  1
  Cr  Cr1  1  0.75000000  0.00342098  0.79189170  1
  Cr  Cr2  1  0.25000000  0.50627293  0.27944517  1
  Cr  Cr3  1  0.25000000  0.00627293  0.22055483  1
  Sb  Sb4  1  0.25000000  0.71128722  0.91703065  1
  Sb  Sb5  1  0.25000000  0.21128722  0.58296935  1
  As  As6  1  0.75000000  0.27901887  0.08437000  1
  As  As7  1  0.75000000  0.77901887  0.41563000  1
