# generated using pymatgen
data_Tm6Ga17Pd5
_symmetry_space_group_name_H-M   'P 1'
_cell_length_a   4.26087040
_cell_length_b   8.15761750
_cell_length_c   15.66989075
_cell_angle_alpha   76.05012125
_cell_angle_beta   90.00000000
_cell_angle_gamma   105.13884037
_symmetry_Int_Tables_number   1
_chemical_formula_structural   Tm6Ga17Pd5
_chemical_formula_sum   'Tm6 Ga17 Pd5'
_cell_volume   509.10080356
_cell_formula_units_Z   1
loop_
 _symmetry_equiv_pos_site_id
 _symmetry_equiv_pos_as_xyz
  1  'x, y, z'
loop_
 _atom_site_type_symbol
 _atom_site_label
 _atom_site_symmetry_multiplicity
 _atom_site_fract_x
 _atom_site_fract_y
 _atom_site_fract_z
 _atom_site_occupancy
  Tm  Tm0  1  0.25071267  0.50142534  0.24819997  1
  Tm  Tm1  1  0.74928733  0.49857466  0.75180003  1
  Tm  Tm2  1  0.39954583  0.79909167  0.40002488  1
  Tm  Tm3  1  0.90439436  0.80878873  0.90432866  1
  Tm  Tm4  1  0.09560564  0.19121127  0.09567134  1
  Tm  Tm5  1  0.60045417  0.20090833  0.59997512  1
  Ga  Ga6  1  0.17874712  0.35749423  0.45990089  1
  Ga  Ga7  1  0.67356423  0.34712846  0.95822643  1
  Ga  Ga8  1  0.32643577  0.65287154  0.04177357  1
  Ga  Ga9  1  0.82125288  0.64250577  0.54009911  1
  Ga  Ga10  1  0.45766877  0.91533755  0.17372910  1
  Ga  Ga11  1  0.95964517  0.91929035  0.67859592  1
  Ga  Ga12  1  0.04035483  0.08070965  0.32140408  1
  Ga  Ga13  1  0.54233123  0.08466245  0.82627090  1
  Ga  Ga14  1  0.73458051  0.46916102  0.10440553  1
  Ga  Ga15  1  0.23963513  0.47927026  0.60606979  1
  Ga  Ga16  1  0.76036487  0.52072974  0.39393021  1
  Ga  Ga17  1  0.26541949  0.53083898  0.89559447  1
  Ga  Ga18  1  0.60462596  0.20925192  0.23808182  1
  Ga  Ga19  1  0.10639849  0.21279698  0.73559713  1
  Ga  Ga20  1  0.89360151  0.78720302  0.26440287  1
  Ga  Ga21  1  0.39537404  0.79074808  0.76191818  1
  Ga  Ga22  1  0.00000000  0.00000000  0.50000000  1
  Pd  Pd23  1  0.89942139  0.79884279  0.10065525  1
  Pd  Pd24  1  0.41016449  0.82032897  0.59023976  1
  Pd  Pd25  1  0.58983551  0.17967103  0.40976024  1
  Pd  Pd26  1  0.10057861  0.20115721  0.89934475  1
  Pd  Pd27  1  0.50000000  0.00000000  0.00000000  1
