# generated using pymatgen
data_Ti3FeS6
_symmetry_space_group_name_H-M   'P 1'
_cell_length_a   5.83338808
_cell_length_b   5.83517121
_cell_length_c   6.51203984
_cell_angle_alpha   63.38515251
_cell_angle_beta   90.00144883
_cell_angle_gamma   60.01501163
_symmetry_Int_Tables_number   1
_chemical_formula_structural   Ti3FeS6
_chemical_formula_sum   'Ti3 Fe1 S6'
_cell_volume   164.31726408
_cell_formula_units_Z   1
loop_
 _symmetry_equiv_pos_site_id
 _symmetry_equiv_pos_as_xyz
  1  'x, y, z'
loop_
 _atom_site_type_symbol
 _atom_site_label
 _atom_site_symmetry_multiplicity
 _atom_site_fract_x
 _atom_site_fract_y
 _atom_site_fract_z
 _atom_site_occupancy
  Ti  Ti0  1  0.66666700  0.66666700  -0.00000000  1
  Ti  Ti1  1  0.33678078  0.32648899  0.01019751  1
  Ti  Ti2  1  0.99655222  0.00684401  0.98980249  1
  Fe  Fe3  1  0.16666700  0.66666700  0.50000000  1
  S  S4  1  0.41665477  0.49727261  0.26557971  1
  S  S5  1  0.76286760  0.82049119  0.26564293  1
  S  S6  1  0.08612839  0.15101799  0.26561456  1
  S  S7  1  0.24720461  0.18231501  0.73438544  1
  S  S8  1  0.57046540  0.51284181  0.73435707  1
  S  S9  1  0.91667923  0.83606139  0.73442029  1
