# generated using pymatgen
data_TiCr3(CuSe4)2
_symmetry_space_group_name_H-M   'P 1'
_cell_length_a   7.49610769
_cell_length_b   7.28674697
_cell_length_c   7.49610769
_cell_angle_alpha   90.00000000
_cell_angle_beta   60.00000000
_cell_angle_gamma   120.95507736
_symmetry_Int_Tables_number   1
_chemical_formula_structural   TiCr3(CuSe4)2
_chemical_formula_sum   'Ti1 Cr3 Cu2 Se8'
_cell_volume   285.27757222
_cell_formula_units_Z   1
loop_
 _symmetry_equiv_pos_site_id
 _symmetry_equiv_pos_as_xyz
  1  'x, y, z'
loop_
 _atom_site_type_symbol
 _atom_site_label
 _atom_site_symmetry_multiplicity
 _atom_site_fract_x
 _atom_site_fract_y
 _atom_site_fract_z
 _atom_site_occupancy
  Ti  Ti0  1  0.50000000  0.00000000  0.50000000  1
  Cr  Cr1  1  0.50000000  0.50000000  0.50000000  1
  Cr  Cr2  1  0.00000000  0.50000000  -0.00000000  1
  Cr  Cr3  1  0.00000000  0.50000000  0.50000000  1
  Cu  Cu4  1  0.25228437  0.12842656  0.12385781  1
  Cu  Cu5  1  0.74771563  0.87157344  0.87614219  1
  Se  Se6  1  0.51428102  0.25996365  0.25431738  1
  Se  Se7  1  0.51428102  0.25996365  0.73140160  1
  Se  Se8  1  0.99136525  0.25996365  0.25431738  1
  Se  Se9  1  0.98174044  0.72261066  0.25912978  1
  Se  Se10  1  0.48571898  0.74003635  0.74568262  1
  Se  Se11  1  0.48571898  0.74003635  0.26859840  1
  Se  Se12  1  0.00863475  0.74003635  0.74568262  1
  Se  Se13  1  0.01825956  0.27738934  0.74087022  1
