# generated using pymatgen
data_Ti20(Sb3Se)3
_symmetry_space_group_name_H-M   'P 1'
_cell_length_a   6.98265111
_cell_length_b   8.28716656
_cell_length_c   10.19435345
_cell_angle_alpha   90.00000000
_cell_angle_beta   89.90872674
_cell_angle_gamma   90.00000000
_symmetry_Int_Tables_number   1
_chemical_formula_structural   Ti20(Sb3Se)3
_chemical_formula_sum   'Ti20 Sb9 Se3'
_cell_volume   589.90971279
_cell_formula_units_Z   1
loop_
 _symmetry_equiv_pos_site_id
 _symmetry_equiv_pos_as_xyz
  1  'x, y, z'
loop_
 _atom_site_type_symbol
 _atom_site_label
 _atom_site_symmetry_multiplicity
 _atom_site_fract_x
 _atom_site_fract_y
 _atom_site_fract_z
 _atom_site_occupancy
  Ti  Ti0  1  0.83355972  0.75000000  0.22616496  1
  Ti  Ti1  1  0.65285070  0.75000000  0.71162715  1
  Ti  Ti2  1  0.14976969  0.25000000  0.78784550  1
  Ti  Ti3  1  0.34837540  0.25000000  0.29104381  1
  Ti  Ti4  1  0.32812124  0.75000000  0.27339367  1
  Ti  Ti5  1  0.18191256  0.75000000  0.76009123  1
  Ti  Ti6  1  0.66802983  0.25000000  0.72389184  1
  Ti  Ti7  1  0.83298144  0.25000000  0.22637891  1
  Ti  Ti8  1  0.69006754  0.94847695  0.44419746  1
  Ti  Ti9  1  0.80182542  0.54144588  0.94301363  1
  Ti  Ti10  1  0.30812968  0.44776391  0.55405437  1
  Ti  Ti11  1  0.19561275  0.06680824  0.05663846  1
  Ti  Ti12  1  0.30812968  0.05223609  0.55405437  1
  Ti  Ti13  1  0.19561275  0.43319176  0.05663846  1
  Ti  Ti14  1  0.69006754  0.55152305  0.44419746  1
  Ti  Ti15  1  0.80182542  0.95855412  0.94301363  1
  Ti  Ti16  1  0.03040832  0.75000000  0.49582776  1
  Ti  Ti17  1  0.48526622  0.75000000  0.99372314  1
  Ti  Ti18  1  0.96954321  0.25000000  0.50401561  1
  Ti  Ti19  1  0.53238300  0.25000000  0.00135850  1
  Sb  Sb20  1  0.56984004  0.50709695  0.17696867  1
  Sb  Sb21  1  0.92835632  0.99059425  0.67591425  1
  Sb  Sb22  1  0.42710514  0.01104741  0.82252923  1
  Sb  Sb23  1  0.07148262  0.48969103  0.32486625  1
  Sb  Sb24  1  0.42710514  0.48895259  0.82252923  1
  Sb  Sb25  1  0.07148262  0.01030897  0.32486625  1
  Sb  Sb26  1  0.56984004  0.99290305  0.17696867  1
  Sb  Sb27  1  0.92835632  0.50940575  0.67591425  1
  Sb  Sb28  1  0.08685071  0.75000000  0.02378076  1
  Se  Se29  1  0.41656791  0.75000000  0.52082345  1
  Se  Se30  1  0.91601899  0.25000000  0.98146172  1
  Se  Se31  1  0.58252203  0.25000000  0.48220733  1
