# generated using pymatgen
data_TiCrSbO6
_symmetry_space_group_name_H-M   'P 1'
_cell_length_a   4.67809858
_cell_length_b   4.67809858
_cell_length_c   9.18967250
_cell_angle_alpha   90.00000000
_cell_angle_beta   90.00000000
_cell_angle_gamma   90.00000000
_symmetry_Int_Tables_number   1
_chemical_formula_structural   TiCrSbO6
_chemical_formula_sum   'Ti2 Cr2 Sb2 O12'
_cell_volume   201.11236491
_cell_formula_units_Z   2
loop_
 _symmetry_equiv_pos_site_id
 _symmetry_equiv_pos_as_xyz
  1  'x, y, z'
loop_
 _atom_site_type_symbol
 _atom_site_label
 _atom_site_symmetry_multiplicity
 _atom_site_fract_x
 _atom_site_fract_y
 _atom_site_fract_z
 _atom_site_occupancy
  Ti  Ti0  1  0.50000000  0.50000000  0.49592298  1
  Ti  Ti1  1  -0.00000000  -0.00000000  0.99592298  1
  Cr  Cr2  1  0.50000000  0.50000000  0.16694182  1
  Cr  Cr3  1  -0.00000000  0.00000000  0.66694182  1
  Sb  Sb4  1  0.50000000  0.50000000  0.83333175  1
  Sb  Sb5  1  -0.00000000  -0.00000000  0.33333175  1
  O  O6  1  0.19218641  0.80781359  0.16487556  1
  O  O7  1  0.19651803  0.80348197  0.49900226  1
  O  O8  1  0.19393446  0.80606554  0.83802391  1
  O  O9  1  0.80781359  0.19218641  0.16487556  1
  O  O10  1  0.80348197  0.19651803  0.49900226  1
  O  O11  1  0.80606554  0.19393446  0.83802391  1
  O  O12  1  0.30606554  0.30606554  0.33802391  1
  O  O13  1  0.30781359  0.30781359  0.66487556  1
  O  O14  1  0.30348197  0.30348197  0.99900226  1
  O  O15  1  0.69651803  0.69651803  0.99900226  1
  O  O16  1  0.69393446  0.69393446  0.33802391  1
  O  O17  1  0.69218641  0.69218641  0.66487556  1
