# generated using pymatgen
data_Th2Si3Ni
_symmetry_space_group_name_H-M   'P 1'
_cell_length_a   4.09468591
_cell_length_b   4.09472928
_cell_length_c   8.16196502
_cell_angle_alpha   90.00000000
_cell_angle_beta   90.00000000
_cell_angle_gamma   59.99882866
_symmetry_Int_Tables_number   1
_chemical_formula_structural   Th2Si3Ni
_chemical_formula_sum   'Th2 Si3 Ni1'
_cell_volume   118.51300834
_cell_formula_units_Z   1
loop_
 _symmetry_equiv_pos_site_id
 _symmetry_equiv_pos_as_xyz
  1  'x, y, z'
loop_
 _atom_site_type_symbol
 _atom_site_label
 _atom_site_symmetry_multiplicity
 _atom_site_fract_x
 _atom_site_fract_y
 _atom_site_fract_z
 _atom_site_occupancy
  Th  Th0  1  0.99998277  0.00000147  0.00540901  1
  Th  Th1  1  0.99998277  0.00000147  0.49459099  1
  Si  Si2  1  0.66663481  0.66667964  0.75000000  1
  Si  Si3  1  0.33329923  0.33333017  0.25000000  1
  Si  Si4  1  0.33329830  0.33330972  0.75000000  1
  Ni  Ni5  1  0.66660212  0.66667753  0.25000000  1
