# generated using pymatgen
data_V2Co9Mo
_symmetry_space_group_name_H-M   'P 1'
_cell_length_a   5.03440910
_cell_length_b   5.03440969
_cell_length_c   6.75760032
_cell_angle_alpha   90.00000000
_cell_angle_beta   68.13013447
_cell_angle_gamma   120.00000379
_symmetry_Int_Tables_number   1
_chemical_formula_structural   V2Co9Mo
_chemical_formula_sum   'V2 Co9 Mo1'
_cell_volume   133.90500959
_cell_formula_units_Z   1
loop_
 _symmetry_equiv_pos_site_id
 _symmetry_equiv_pos_as_xyz
  1  'x, y, z'
loop_
 _atom_site_type_symbol
 _atom_site_label
 _atom_site_symmetry_multiplicity
 _atom_site_fract_x
 _atom_site_fract_y
 _atom_site_fract_z
 _atom_site_occupancy
  V  V0  1  0.56293570  0.78146785  0.65559645  1
  V  V1  1  0.99915464  0.99957732  0.00126804  1
  Co  Co2  1  0.04784951  0.28168837  0.67046213  1
  Co  Co3  1  0.56337673  0.28168837  0.67046213  1
  Co  Co4  1  0.04784951  0.76616114  0.67046213  1
  Co  Co5  1  0.94943639  0.71806061  0.33250300  1
  Co  Co6  1  0.43612121  0.71806061  0.33250300  1
  Co  Co7  1  0.94943639  0.23137578  0.33250300  1
  Co  Co8  1  0.00489539  0.50244769  0.99743496  1
  Co  Co9  1  0.50011734  0.99766965  0.99743496  1
  Co  Co10  1  0.50011734  0.50244769  0.99743496  1
  Mo  Mo11  1  0.43870984  0.21935492  0.34193524  1
