# generated using pymatgen
data_Th2B15
_symmetry_space_group_name_H-M   'P 1'
_cell_length_a   4.11765737
_cell_length_b   4.11765737
_cell_length_c   20.58367834
_cell_angle_alpha   90.00000000
_cell_angle_beta   90.00000000
_cell_angle_gamma   90.00000000
_symmetry_Int_Tables_number   1
_chemical_formula_structural   Th2B15
_chemical_formula_sum   'Th4 B30'
_cell_volume   348.99837025
_cell_formula_units_Z   2
loop_
 _symmetry_equiv_pos_site_id
 _symmetry_equiv_pos_as_xyz
  1  'x, y, z'
loop_
 _atom_site_type_symbol
 _atom_site_label
 _atom_site_symmetry_multiplicity
 _atom_site_fract_x
 _atom_site_fract_y
 _atom_site_fract_z
 _atom_site_occupancy
  Th  Th0  1  -0.00000000  0.00000000  0.19584630  1
  Th  Th1  1  -0.00000000  -0.00000000  0.39923409  1
  Th  Th2  1  -0.00000000  0.00000000  0.60076591  1
  Th  Th3  1  -0.00000000  -0.00000000  0.80415370  1
  B  B4  1  0.50000000  0.50000000  0.16125093  1
  B  B5  1  0.50000000  0.50000000  0.36066305  1
  B  B6  1  0.50000000  0.50000000  0.56044736  1
  B  B7  1  0.50000000  0.50000000  0.75977195  1
  B  B8  1  0.50000000  0.50000000  0.95971009  1
  B  B9  1  0.50000000  0.20109235  0.10087805  1
  B  B10  1  0.50000000  0.19791829  0.30013668  1
  B  B11  1  0.50000000  0.19770738  0.50000000  1
  B  B12  1  0.50000000  0.19791829  0.69986332  1
  B  B13  1  0.50000000  0.20109235  0.89912195  1
  B  B14  1  0.20109235  0.50000000  0.10087805  1
  B  B15  1  0.19791829  0.50000000  0.30013668  1
  B  B16  1  0.19770738  0.50000000  0.50000000  1
  B  B17  1  0.19791829  0.50000000  0.69986332  1
  B  B18  1  0.20109235  0.50000000  0.89912195  1
  B  B19  1  0.50000000  0.50000000  0.04028991  1
  B  B20  1  0.50000000  0.50000000  0.24022805  1
  B  B21  1  0.50000000  0.50000000  0.43955264  1
  B  B22  1  0.50000000  0.50000000  0.63933695  1
  B  B23  1  0.50000000  0.50000000  0.83874907  1
  B  B24  1  0.50000000  0.79890765  0.10087805  1
  B  B25  1  0.50000000  0.80208171  0.30013668  1
  B  B26  1  0.50000000  0.80229262  0.50000000  1
  B  B27  1  0.50000000  0.80208171  0.69986332  1
  B  B28  1  0.50000000  0.79890765  0.89912195  1
  B  B29  1  0.79890765  0.50000000  0.10087805  1
  B  B30  1  0.80208171  0.50000000  0.30013668  1
  B  B31  1  0.80229262  0.50000000  0.50000000  1
  B  B32  1  0.80208171  0.50000000  0.69986332  1
  B  B33  1  0.79890765  0.50000000  0.89912195  1
