# generated using pymatgen
data_SrCa(RuO3)2
_symmetry_space_group_name_H-M   'P 1'
_cell_length_a   5.53011255
_cell_length_b   5.60653957
_cell_length_c   7.85578786
_cell_angle_alpha   90.00000000
_cell_angle_beta   90.00000000
_cell_angle_gamma   90.00000000
_symmetry_Int_Tables_number   1
_chemical_formula_structural   SrCa(RuO3)2
_chemical_formula_sum   'Sr2 Ca2 Ru4 O12'
_cell_volume   243.56709089
_cell_formula_units_Z   2
loop_
 _symmetry_equiv_pos_site_id
 _symmetry_equiv_pos_as_xyz
  1  'x, y, z'
loop_
 _atom_site_type_symbol
 _atom_site_label
 _atom_site_symmetry_multiplicity
 _atom_site_fract_x
 _atom_site_fract_y
 _atom_site_fract_z
 _atom_site_occupancy
  Sr  Sr0  1  0.50864835  0.53865290  0.25000000  1
  Sr  Sr1  1  0.99135165  0.03865290  0.25000000  1
  Ca  Ca2  1  0.49207626  0.44971630  0.75000000  1
  Ca  Ca3  1  0.00792374  0.94971630  0.75000000  1
  Ru  Ru4  1  0.99888498  0.49904332  0.99549166  1
  Ru  Ru5  1  0.50111502  0.99904332  0.50450834  1
  Ru  Ru6  1  0.99888498  0.49904332  0.50450834  1
  Ru  Ru7  1  0.50111502  0.99904332  0.99549166  1
  O  O8  1  0.79543907  0.79325978  0.03091425  1
  O  O9  1  0.70456093  0.29325978  0.46908575  1
  O  O10  1  0.20402824  0.20526288  0.54879204  1
  O  O11  1  0.29597176  0.70526288  0.95120796  1
  O  O12  1  0.20402824  0.20526288  0.95120796  1
  O  O13  1  0.29597176  0.70526288  0.54879204  1
  O  O14  1  0.79543907  0.79325978  0.46908575  1
  O  O15  1  0.70456093  0.29325978  0.03091425  1
  O  O16  1  0.43329302  0.99185901  0.25000000  1
  O  O17  1  0.06670698  0.49185901  0.25000000  1
  O  O18  1  0.58856779  0.02463983  0.75000000  1
  O  O19  1  0.91143221  0.52463983  0.75000000  1
