# generated using pymatgen
data_Ta19(Ni9Mo)2
_symmetry_space_group_name_H-M   'P 1'
_cell_length_a   4.91702116
_cell_length_b   4.91702116
_cell_length_c   27.07050918
_cell_angle_alpha   90.00000000
_cell_angle_beta   90.00000000
_cell_angle_gamma   59.99999599
_symmetry_Int_Tables_number   1
_chemical_formula_structural   Ta19(Ni9Mo)2
_chemical_formula_sum   'Ta19 Ni18 Mo2'
_cell_volume   566.80176372
_cell_formula_units_Z   1
loop_
 _symmetry_equiv_pos_site_id
 _symmetry_equiv_pos_as_xyz
  1  'x, y, z'
loop_
 _atom_site_type_symbol
 _atom_site_label
 _atom_site_symmetry_multiplicity
 _atom_site_fract_x
 _atom_site_fract_y
 _atom_site_fract_z
 _atom_site_occupancy
  Ta  Ta0  1  0.66666700  0.66666700  0.32094806  1
  Ta  Ta1  1  0.00000000  -0.00000000  0.65431125  1
  Ta  Ta2  1  0.33333300  0.33333300  0.98762905  1
  Ta  Ta3  1  0.66666700  0.66666700  0.01237095  1
  Ta  Ta4  1  0.00000000  -0.00000000  0.34568875  1
  Ta  Ta5  1  0.33333300  0.33333300  0.67905194  1
  Ta  Ta6  1  0.66666700  0.66666700  0.21591363  1
  Ta  Ta7  1  0.00000000  -0.00000000  0.54904958  1
  Ta  Ta8  1  0.33333300  0.33333300  0.88225407  1
  Ta  Ta9  1  0.66666700  0.66666700  0.11774593  1
  Ta  Ta10  1  0.00000000  -0.00000000  0.45095042  1
  Ta  Ta11  1  0.33333300  0.33333300  0.78408637  1
  Ta  Ta12  1  0.33333300  0.33333300  0.16912020  1
  Ta  Ta13  1  0.66666700  0.66666700  0.50276948  1
  Ta  Ta14  1  0.00000000  -0.00000000  0.83552364  1
  Ta  Ta15  1  0.00000000  -0.00000000  0.16447636  1
  Ta  Ta16  1  0.33333300  0.33333300  0.49723052  1
  Ta  Ta17  1  0.66666700  0.66666700  0.83087980  1
  Ta  Ta18  1  0.00000000  -0.00000000  -0.00000000  1
  Ni  Ni19  1  0.66111751  0.16944174  0.07820525  1
  Ni  Ni20  1  0.99693615  0.50153193  0.41125160  1
  Ni  Ni21  1  0.33033529  0.83483185  0.74446746  1
  Ni  Ni22  1  0.16944174  0.16944174  0.07820525  1
  Ni  Ni23  1  0.50153193  0.50153193  0.41125160  1
  Ni  Ni24  1  0.83483185  0.83483185  0.74446746  1
  Ni  Ni25  1  0.16944174  0.66111751  0.07820525  1
  Ni  Ni26  1  0.50153193  0.99693615  0.41125160  1
  Ni  Ni27  1  0.83483185  0.33033529  0.74446746  1
  Ni  Ni28  1  0.66966471  0.16516815  0.25553254  1
  Ni  Ni29  1  0.00306385  0.49846807  0.58874840  1
  Ni  Ni30  1  0.33888249  0.83055826  0.92179475  1
  Ni  Ni31  1  0.16516815  0.16516815  0.25553254  1
  Ni  Ni32  1  0.49846807  0.49846807  0.58874840  1
  Ni  Ni33  1  0.83055826  0.83055826  0.92179475  1
  Ni  Ni34  1  0.16516815  0.66966471  0.25553254  1
  Ni  Ni35  1  0.49846807  0.00306385  0.58874840  1
  Ni  Ni36  1  0.83055826  0.33888249  0.92179475  1
  Mo  Mo37  1  0.33333300  0.33333300  0.33338400  1
  Mo  Mo38  1  0.66666700  0.66666700  0.66661600  1
