# generated using pymatgen
data_Ta12Ga3(TeSe2)8
_symmetry_space_group_name_H-M   'P 1'
_cell_length_a   7.71515238
_cell_length_b   7.62784246
_cell_length_c   18.78830011
_cell_angle_alpha   90.00924409
_cell_angle_beta   89.37701433
_cell_angle_gamma   119.56678224
_symmetry_Int_Tables_number   1
_chemical_formula_structural   Ta12Ga3(TeSe2)8
_chemical_formula_sum   'Ta12 Ga3 Te8 Se16'
_cell_volume   961.63498869
_cell_formula_units_Z   1
loop_
 _symmetry_equiv_pos_site_id
 _symmetry_equiv_pos_as_xyz
  1  'x, y, z'
loop_
 _atom_site_type_symbol
 _atom_site_label
 _atom_site_symmetry_multiplicity
 _atom_site_fract_x
 _atom_site_fract_y
 _atom_site_fract_z
 _atom_site_occupancy
  Ta  Ta0  1  0.79824128  0.20857363  0.80298577  1
  Ta  Ta1  1  0.47117212  0.54412275  0.13302052  1
  Ta  Ta2  1  0.13121270  0.87380284  0.46792685  1
  Ta  Ta3  1  0.80571660  0.59327362  0.80171224  1
  Ta  Ta4  1  0.47203965  0.92626386  0.13360905  1
  Ta  Ta5  1  0.13867047  0.25907413  0.46746696  1
  Ta  Ta6  1  0.68146180  0.34042264  0.93406083  1
  Ta  Ta7  1  0.34537058  0.66903707  0.26290971  1
  Ta  Ta8  1  0.01186433  0.00149449  0.59851252  1
  Ta  Ta9  1  0.39693863  0.19110387  0.79748737  1
  Ta  Ta10  1  0.05903552  0.52804585  0.12778764  1
  Ta  Ta11  1  0.72924006  0.85652058  0.46280672  1
  Ga  Ga12  1  0.32781907  0.68106208  0.66991264  1
  Ga  Ga13  1  0.98354959  0.99039656  0.00640402  1
  Ga  Ga14  1  0.66152835  0.34853221  0.33599727  1
  Te  Te15  1  0.48291254  0.97183907  0.37781220  1
  Te  Te16  1  0.14918718  0.30476256  0.71280221  1
  Te  Te17  1  0.66384555  0.33380305  0.19670487  1
  Te  Te18  1  0.33025694  0.66623393  0.53066924  1
  Te  Te19  1  0.99572196  0.99766641  0.86615551  1
  Te  Te20  1  0.36074540  0.18011516  0.04587499  1
  Te  Te21  1  0.03117257  0.51560487  0.37819441  1
  Te  Te22  1  0.69695918  0.84966595  0.71318790  1
  Se  Se23  1  0.49073400  0.49792984  0.87594991  1
  Se  Se24  1  0.15619232  0.83183116  0.20758532  1
  Se  Se25  1  0.82330392  0.16268629  0.54167288  1
  Se  Se26  1  0.48927899  0.98642166  0.87980519  1
  Se  Se27  1  0.15493087  0.31860431  0.20670882  1
  Se  Se28  1  0.82026811  0.64807891  0.54406798  1
  Se  Se29  1  0.66445921  0.33260782  0.70099778  1
  Se  Se30  1  0.33126170  0.66616954  0.03282198  1
  Se  Se31  1  0.99762437  0.99948338  0.36656140  1
  Se  Se32  1  0.03082489  0.51550781  0.87934084  1
  Se  Se33  1  0.69873695  0.84777739  0.21067765  1
  Se  Se34  1  0.36280397  0.17970944  0.54492638  1
  Se  Se35  1  0.81383888  0.18072441  0.04635571  1
  Se  Se36  1  0.48006257  0.51782564  0.37887053  1
  Se  Se37  1  0.14753085  0.85149330  0.71341191  1
  Se  Se38  1  0.81348634  0.63173195  0.04624430  1
