# generated using pymatgen
data_TbAl7Fe5
_symmetry_space_group_name_H-M   'P 1'
_cell_length_a   5.01790752
_cell_length_b   6.61740402
_cell_length_c   6.61740402
_cell_angle_alpha   98.01185248
_cell_angle_beta   112.28070961
_cell_angle_gamma   67.71929039
_symmetry_Int_Tables_number   1
_chemical_formula_structural   TbAl7Fe5
_chemical_formula_sum   'Tb1 Al7 Fe5'
_cell_volume   188.14494033
_cell_formula_units_Z   1
loop_
 _symmetry_equiv_pos_site_id
 _symmetry_equiv_pos_as_xyz
  1  'x, y, z'
loop_
 _atom_site_type_symbol
 _atom_site_label
 _atom_site_symmetry_multiplicity
 _atom_site_fract_x
 _atom_site_fract_y
 _atom_site_fract_z
 _atom_site_occupancy
  Tb  Tb0  1  0.00488983  0.99511017  0.00488983  1
  Al  Al1  1  0.65947221  0.34052779  0.65947221  1
  Al  Al2  1  0.33976374  0.66023626  0.33976374  1
  Al  Al3  1  0.99151132  0.35113935  0.33416198  1
  Al  Al4  1  0.99151132  0.66583802  0.64886065  1
  Al  Al5  1  0.27363389  0.22636611  0.77363389  1
  Al  Al6  1  0.50430807  0.78439651  0.79301265  1
  Al  Al7  1  0.50430807  0.20698735  0.21560349  1
  Fe  Fe8  1  0.49665275  0.00157047  0.49899959  1
  Fe  Fe9  1  0.00077637  0.00157047  0.49899959  1
  Fe  Fe10  1  0.49665275  0.50100041  0.99842953  1
  Fe  Fe11  1  0.00077637  0.50100041  0.99842953  1
  Fe  Fe12  1  0.73574334  0.76425666  0.23574334  1
