# generated using pymatgen
data_SrNd2BeO5
_symmetry_space_group_name_H-M   'P 1'
_cell_length_a   6.61643133
_cell_length_b   7.28705469
_cell_length_c   9.64161939
_cell_angle_alpha   90.00000000
_cell_angle_beta   90.00000000
_cell_angle_gamma   90.00000000
_symmetry_Int_Tables_number   1
_chemical_formula_structural   SrNd2BeO5
_chemical_formula_sum   'Sr4 Nd8 Be4 O20'
_cell_volume   464.86390039
_cell_formula_units_Z   4
loop_
 _symmetry_equiv_pos_site_id
 _symmetry_equiv_pos_as_xyz
  1  'x, y, z'
loop_
 _atom_site_type_symbol
 _atom_site_label
 _atom_site_symmetry_multiplicity
 _atom_site_fract_x
 _atom_site_fract_y
 _atom_site_fract_z
 _atom_site_occupancy
  Sr  Sr0  1  0.58289358  0.98126926  0.67507955  1
  Sr  Sr1  1  0.41710642  0.48126926  0.32492045  1
  Sr  Sr2  1  0.08289358  0.48126926  0.82492045  1
  Sr  Sr3  1  0.91710642  0.98126926  0.17507955  1
  Nd  Nd4  1  0.09552083  0.74611106  0.52305782  1
  Nd  Nd5  1  0.40447917  0.74611106  0.02305782  1
  Nd  Nd6  1  0.90447917  0.24611106  0.47694218  1
  Nd  Nd7  1  0.59552083  0.24611106  0.97694218  1
  Nd  Nd8  1  0.92591654  0.52680120  0.17209991  1
  Nd  Nd9  1  0.07408346  0.02680120  0.82790009  1
  Nd  Nd10  1  0.42591654  0.02680120  0.32790009  1
  Nd  Nd11  1  0.57408346  0.52680120  0.67209991  1
  Be  Be12  1  0.69228502  0.74902365  0.39901500  1
  Be  Be13  1  0.80771498  0.74902365  0.89901500  1
  Be  Be14  1  0.30771498  0.24902365  0.60098500  1
  Be  Be15  1  0.19228502  0.24902365  0.10098500  1
  O  O16  1  0.01952182  0.75043225  0.98953488  1
  O  O17  1  0.48047818  0.75043225  0.48953488  1
  O  O18  1  0.98047818  0.25043225  0.01046512  1
  O  O19  1  0.51952182  0.25043225  0.51046512  1
  O  O20  1  0.31354313  0.05840147  0.06931814  1
  O  O21  1  0.19555213  0.44115144  0.56798344  1
  O  O22  1  0.68645687  0.55840147  0.93068186  1
  O  O23  1  0.80444787  0.94115144  0.43201656  1
  O  O24  1  0.69555213  0.94115144  0.93201656  1
  O  O25  1  0.81354313  0.55840147  0.43068186  1
  O  O26  1  0.30444787  0.44115144  0.06798344  1
  O  O27  1  0.18645687  0.05840147  0.56931814  1
  O  O28  1  0.63568223  0.74959883  0.22632226  1
  O  O29  1  0.86431777  0.74959883  0.72632226  1
  O  O30  1  0.36431777  0.24959883  0.77367774  1
  O  O31  1  0.13568223  0.24959883  0.27367774  1
  O  O32  1  0.16342669  0.74721082  0.27765114  1
  O  O33  1  0.33657331  0.74721082  0.77765114  1
  O  O34  1  0.83657331  0.24721082  0.72234886  1
  O  O35  1  0.66342669  0.24721082  0.22234886  1
