# generated using pymatgen
data_Cr2FeSe3S
_symmetry_space_group_name_H-M   'P 1'
_cell_length_a   3.54532837
_cell_length_b   6.23684813
_cell_length_c   6.43559121
_cell_angle_alpha   116.85411250
_cell_angle_beta   74.01134674
_cell_angle_gamma   90.00000000
_symmetry_Int_Tables_number   1
_chemical_formula_structural   Cr2FeSe3S
_chemical_formula_sum   'Cr2 Fe1 Se3 S1'
_cell_volume   120.75351054
_cell_formula_units_Z   1
loop_
 _symmetry_equiv_pos_site_id
 _symmetry_equiv_pos_as_xyz
  1  'x, y, z'
loop_
 _atom_site_type_symbol
 _atom_site_label
 _atom_site_symmetry_multiplicity
 _atom_site_fract_x
 _atom_site_fract_y
 _atom_site_fract_z
 _atom_site_occupancy
  Cr  Cr0  1  0.26442157  0.72839750  0.47115686  1
  Cr  Cr1  1  0.74609973  0.27006470  0.50780053  1
  Fe  Fe2  1  0.98391995  0.00025011  0.03216009  1
  Se  Se3  1  0.62470933  0.02921835  0.75058135  1
  Se  Se4  1  0.11630430  0.55624764  0.76739140  1
  Se  Se5  1  0.88988119  0.44292010  0.22023761  1
  S  S6  1  0.37466392  0.97290160  0.25067216  1
