# generated using pymatgen
data_TbGaAg
_symmetry_space_group_name_H-M   'P 1'
_cell_length_a   4.60488352
_cell_length_b   5.84631770
_cell_length_c   5.72594981
_cell_angle_alpha   95.67841516
_cell_angle_beta   113.70992894
_cell_angle_gamma   66.80712499
_symmetry_Int_Tables_number   1
_chemical_formula_structural   TbGaAg
_chemical_formula_sum   'Tb2 Ga2 Ag2'
_cell_volume   129.41023586
_cell_formula_units_Z   2
loop_
 _symmetry_equiv_pos_site_id
 _symmetry_equiv_pos_as_xyz
  1  'x, y, z'
loop_
 _atom_site_type_symbol
 _atom_site_label
 _atom_site_symmetry_multiplicity
 _atom_site_fract_x
 _atom_site_fract_y
 _atom_site_fract_z
 _atom_site_occupancy
  Tb  Tb0  1  0.75576806  0.70845978  0.21999590  1
  Tb  Tb1  1  0.24423194  0.29154022  0.78000410  1
  Ga  Ga2  1  0.04473970  0.11462238  0.20410178  1
  Ga  Ga3  1  0.95526030  0.88537762  0.79589822  1
  Ag  Ag4  1  0.54946894  0.27733711  0.37627499  1
  Ag  Ag5  1  0.45053106  0.72266289  0.62372501  1
