# generated using pymatgen
data_SrCaZnSi2O7
_symmetry_space_group_name_H-M   'P 1'
_cell_length_a   5.13329833
_cell_length_b   8.00587868
_cell_length_c   8.01373002
_cell_angle_alpha   90.00000000
_cell_angle_beta   90.00000000
_cell_angle_gamma   89.10582587
_symmetry_Int_Tables_number   1
_chemical_formula_structural   SrCaZnSi2O7
_chemical_formula_sum   'Sr2 Ca2 Zn2 Si4 O14'
_cell_volume   329.29666078
_cell_formula_units_Z   2
loop_
 _symmetry_equiv_pos_site_id
 _symmetry_equiv_pos_as_xyz
  1  'x, y, z'
loop_
 _atom_site_type_symbol
 _atom_site_label
 _atom_site_symmetry_multiplicity
 _atom_site_fract_x
 _atom_site_fract_y
 _atom_site_fract_z
 _atom_site_occupancy
  Sr  Sr0  1  0.50776141  0.66449066  0.83619660  1
  Sr  Sr1  1  0.49223859  0.83550934  0.33619660  1
  Ca  Ca2  1  0.50299731  0.32999941  0.17271337  1
  Ca  Ca3  1  0.49700269  0.17000059  0.67271337  1
  Zn  Zn4  1  0.00027203  0.49799870  0.49925836  1
  Zn  Zn5  1  0.99972797  0.00200130  0.99925836  1
  Si  Si6  1  0.93973981  0.14538480  0.36009315  1
  Si  Si7  1  0.06026019  0.35461520  0.86009315  1
  Si  Si8  1  0.94438996  0.86622894  0.63949242  1
  Si  Si9  1  0.05561004  0.63377106  0.13949242  1
  O  O10  1  0.25402257  0.14719281  0.35704107  1
  O  O11  1  0.74597743  0.35280719  0.85704107  1
  O  O12  1  0.25797380  0.86598783  0.63918016  1
  O  O13  1  0.74202620  0.63401217  0.13918016  1
  O  O14  1  0.78083118  0.31673420  0.41640377  1
  O  O15  1  0.21916882  0.18326580  0.91640377  1
  O  O16  1  0.80087924  0.69345187  0.57986601  1
  O  O17  1  0.19912076  0.80654813  0.07986601  1
  O  O18  1  0.20996859  0.57515385  0.31035411  1
  O  O19  1  0.79003141  0.92484615  0.81035411  1
  O  O20  1  0.20966696  0.41209200  0.68748603  1
  O  O21  1  0.79033304  0.08790800  0.18748603  1
  O  O22  1  0.17082065  0.49166175  0.00191496  1
  O  O23  1  0.82917935  0.00833825  0.50191496  1
