# generated using pymatgen
data_SrCa2(FeAs)6
_symmetry_space_group_name_H-M   'P 1'
_cell_length_a   5.65299396
_cell_length_b   6.06030467
_cell_length_c   8.30695222
_cell_angle_alpha   75.12477867
_cell_angle_beta   70.10747953
_cell_angle_gamma   90.00000000
_symmetry_Int_Tables_number   1
_chemical_formula_structural   SrCa2(FeAs)6
_chemical_formula_sum   'Sr1 Ca2 Fe6 As6'
_cell_volume   257.44058735
_cell_formula_units_Z   1
loop_
 _symmetry_equiv_pos_site_id
 _symmetry_equiv_pos_as_xyz
  1  'x, y, z'
loop_
 _atom_site_type_symbol
 _atom_site_label
 _atom_site_symmetry_multiplicity
 _atom_site_fract_x
 _atom_site_fract_y
 _atom_site_fract_z
 _atom_site_occupancy
  Sr  Sr0  1  0.00000000  0.00000000  -0.00000000  1
  Ca  Ca1  1  0.33261826  0.66438171  0.33476248  1
  Ca  Ca2  1  0.66738174  0.33561829  0.66523752  1
  Fe  Fe3  1  0.41835539  0.83381327  0.66450742  1
  Fe  Fe4  1  0.75002704  0.50000000  0.00000000  1
  Fe  Fe5  1  0.08286181  0.16618673  0.33549258  1
  Fe  Fe6  1  0.24997296  0.50000000  -0.00000000  1
  Fe  Fe7  1  0.58164461  0.16618673  0.33549258  1
  Fe  Fe8  1  0.91713819  0.83381327  0.66450742  1
  As  As9  1  0.12009526  0.52343465  0.75980947  1
  As  As10  1  0.45195024  0.18895377  0.09609853  1
  As  As11  1  0.78648146  0.85222738  0.42703807  1
  As  As12  1  0.54804976  0.81104623  0.90390147  1
  As  As13  1  0.87990474  0.47656535  0.24019053  1
  As  As14  1  0.21351854  0.14777262  0.57296193  1
