# generated using pymatgen
data_SnGeSe2
_symmetry_space_group_name_H-M   'P 1'
_cell_length_a   4.03801511
_cell_length_b   4.57280888
_cell_length_c   11.44638406
_cell_angle_alpha   90.00000000
_cell_angle_beta   90.00000000
_cell_angle_gamma   90.00000000
_symmetry_Int_Tables_number   1
_chemical_formula_structural   SnGeSe2
_chemical_formula_sum   'Sn2 Ge2 Se4'
_cell_volume   211.35829840
_cell_formula_units_Z   2
loop_
 _symmetry_equiv_pos_site_id
 _symmetry_equiv_pos_as_xyz
  1  'x, y, z'
loop_
 _atom_site_type_symbol
 _atom_site_label
 _atom_site_symmetry_multiplicity
 _atom_site_fract_x
 _atom_site_fract_y
 _atom_site_fract_z
 _atom_site_occupancy
  Sn  Sn0  1  0.75000000  0.60314220  0.38558911  1
  Sn  Sn1  1  0.75000000  0.89685780  0.88558911  1
  Ge  Ge2  1  0.25000000  0.37651871  0.62560916  1
  Ge  Ge3  1  0.25000000  0.12348129  0.12560916  1
  Se  Se4  1  0.25000000  0.48449967  0.84554715  1
  Se  Se5  1  0.25000000  0.01550033  0.34554715  1
  Se  Se6  1  0.75000000  0.48951767  0.14325457  1
  Se  Se7  1  0.75000000  0.01048233  0.64325457  1
