# generated using pymatgen
data_Sn2SeS
_symmetry_space_group_name_H-M   'P 1'
_cell_length_a   4.12421877
_cell_length_b   4.48564963
_cell_length_c   11.61257001
_cell_angle_alpha   90.00000000
_cell_angle_beta   90.00000000
_cell_angle_gamma   90.00000000
_symmetry_Int_Tables_number   1
_chemical_formula_structural   Sn2SeS
_chemical_formula_sum   'Sn4 Se2 S2'
_cell_volume   214.83022731
_cell_formula_units_Z   2
loop_
 _symmetry_equiv_pos_site_id
 _symmetry_equiv_pos_as_xyz
  1  'x, y, z'
loop_
 _atom_site_type_symbol
 _atom_site_label
 _atom_site_symmetry_multiplicity
 _atom_site_fract_x
 _atom_site_fract_y
 _atom_site_fract_z
 _atom_site_occupancy
  Sn  Sn0  1  0.25000000  0.37133913  0.61782481  1
  Sn  Sn1  1  0.25000000  0.12866087  0.11782481  1
  Sn  Sn2  1  0.75000000  0.60254367  0.37645375  1
  Sn  Sn3  1  0.75000000  0.89745633  0.87645375  1
  Se  Se4  1  0.25000000  0.02416294  0.35539186  1
  Se  Se5  1  0.25000000  0.47583706  0.85539186  1
  S  S6  1  0.75000000  0.98737011  0.65032958  1
  S  S7  1  0.75000000  0.51262989  0.15032958  1
