# generated using pymatgen
data_Sr3CaNi2(WO6)2
_symmetry_space_group_name_H-M   'P 1'
_cell_length_a   5.62434689
_cell_length_b   5.63525819
_cell_length_c   7.94808047
_cell_angle_alpha   90.07511073
_cell_angle_beta   90.06407754
_cell_angle_gamma   90.30181870
_symmetry_Int_Tables_number   1
_chemical_formula_structural   Sr3CaNi2(WO6)2
_chemical_formula_sum   'Sr3 Ca1 Ni2 W2 O12'
_cell_volume   251.90773291
_cell_formula_units_Z   1
loop_
 _symmetry_equiv_pos_site_id
 _symmetry_equiv_pos_as_xyz
  1  'x, y, z'
loop_
 _atom_site_type_symbol
 _atom_site_label
 _atom_site_symmetry_multiplicity
 _atom_site_fract_x
 _atom_site_fract_y
 _atom_site_fract_z
 _atom_site_occupancy
  Sr  Sr0  1  0.49414961  0.97427998  0.74841701  1
  Sr  Sr1  1  0.00380984  0.47886079  0.75042031  1
  Sr  Sr2  1  0.50345889  0.02263242  0.25113178  1
  Ca  Ca3  1  0.99738694  0.53339047  0.24888133  1
  Ni  Ni4  1  0.50009539  0.49906948  0.49823388  1
  Ni  Ni5  1  0.99985038  0.00134994  0.00110897  1
  W  W6  1  0.49872398  0.49966335  0.00332673  1
  W  W7  1  0.00133088  0.00015316  0.49683207  1
  O  O8  1  0.05724102  0.97611945  0.25682597  1
  O  O9  1  0.55701165  0.50271253  0.76066473  1
  O  O10  1  0.94099801  0.01299670  0.73945267  1
  O  O11  1  0.42112527  0.49371213  0.24234965  1
  O  O12  1  0.21072934  0.72853171  0.52952126  1
  O  O13  1  0.71249386  0.76951280  0.03323232  1
  O  O14  1  0.79914726  0.27707739  0.45863552  1
  O  O15  1  0.29261068  0.22541884  0.97039148  1
  O  O16  1  0.27435397  0.20874826  0.52711787  1
  O  O17  1  0.77469281  0.29609148  0.04307920  1
  O  O18  1  0.72986210  0.78683945  0.47059648  1
  O  O19  1  0.23092812  0.71283968  0.96978076  1
