# generated using pymatgen
data_Sr3La2FeCo4O15
_symmetry_space_group_name_H-M   'P 1'
_cell_length_a   5.48502178
_cell_length_b   5.48502179
_cell_length_c   11.58242184
_cell_angle_alpha   90.00000000
_cell_angle_beta   103.69669411
_cell_angle_gamma   119.99999996
_symmetry_Int_Tables_number   1
_chemical_formula_structural   Sr3La2FeCo4O15
_chemical_formula_sum   'Sr3 La2 Fe1 Co4 O15'
_cell_volume   290.27875456
_cell_formula_units_Z   1
loop_
 _symmetry_equiv_pos_site_id
 _symmetry_equiv_pos_as_xyz
  1  'x, y, z'
loop_
 _atom_site_type_symbol
 _atom_site_label
 _atom_site_symmetry_multiplicity
 _atom_site_fract_x
 _atom_site_fract_y
 _atom_site_fract_z
 _atom_site_occupancy
  Sr  Sr0  1  0.60218540  0.30109270  0.90327810  1
  Sr  Sr1  1  0.40020433  0.70010216  0.10030649  1
  Sr  Sr2  1  0.99905661  0.49952831  0.49858492  1
  La  La3  1  0.19858268  0.09929134  0.29787402  1
  La  La4  1  0.80086488  0.90043244  0.70129732  1
  Fe  Fe5  1  0.20095540  0.60047770  0.80143310  1
  Co  Co6  1  -0.00014619  -0.00007310  -0.00021929  1
  Co  Co7  1  0.79688125  0.39844063  0.19532188  1
  Co  Co8  1  0.60194525  0.80097262  0.40291787  1
  Co  Co9  1  0.39976345  0.19988173  0.59964518  1
  O  O10  1  0.61060494  0.80530247  0.89779690  1
  O  O11  1  0.79259388  0.39629694  0.69707835  1
  O  O12  1  0.00350875  0.00175438  0.49874630  1
  O  O13  1  0.39336763  0.19668382  0.10567744  1
  O  O14  1  0.20093760  0.60046880  0.30055447  1
  O  O15  1  0.30078141  0.90448447  0.69707835  1
  O  O16  1  0.49699192  0.49523755  0.49874630  1
  O  O17  1  0.70008567  0.09961687  0.30055447  1
  O  O18  1  0.09249443  0.28719196  0.89779690  1
  O  O19  1  0.90899362  0.71230981  0.10567744  1
  O  O20  1  0.30078141  0.39629694  0.69707835  1
  O  O21  1  0.49699192  0.00175438  0.49874630  1
  O  O22  1  0.70008567  0.60046880  0.30055447  1
  O  O23  1  0.09249443  0.80530247  0.89779690  1
  O  O24  1  0.90899362  0.19668382  0.10567744  1
