# generated using pymatgen
data_Sr10P6ClO24F
_symmetry_space_group_name_H-M   'P 1'
_cell_length_a   7.33367907
_cell_length_b   9.94110005
_cell_length_c   9.94115614
_cell_angle_alpha   120.00023230
_cell_angle_beta   89.99995103
_cell_angle_gamma   90.00004827
_symmetry_Int_Tables_number   1
_chemical_formula_structural   Sr10P6ClO24F
_chemical_formula_sum   'Sr10 P6 Cl1 O24 F1'
_cell_volume   627.65769233
_cell_formula_units_Z   1
loop_
 _symmetry_equiv_pos_site_id
 _symmetry_equiv_pos_as_xyz
  1  'x, y, z'
loop_
 _atom_site_type_symbol
 _atom_site_label
 _atom_site_symmetry_multiplicity
 _atom_site_fract_x
 _atom_site_fract_y
 _atom_site_fract_z
 _atom_site_occupancy
  Sr  Sr0  1  0.49759238  0.66665907  0.33332822  1
  Sr  Sr1  1  0.99900021  0.33334244  0.66667269  1
  Sr  Sr2  1  0.49890789  0.33334314  0.66667112  1
  Sr  Sr3  1  0.00345872  0.66665781  0.33332803  1
  Sr  Sr4  1  0.74875860  0.74411183  0.73660413  1
  Sr  Sr5  1  0.74875570  0.26338864  0.00749217  1
  Sr  Sr6  1  0.74876076  0.99249961  0.25590320  1
  Sr  Sr7  1  0.24819924  0.23915527  0.24515970  1
  Sr  Sr8  1  0.24820217  0.75484595  0.99400919  1
  Sr  Sr9  1  0.24820114  0.00599564  0.76082932  1
  P  P10  1  0.75048713  0.02824907  0.62908687  1
  P  P11  1  0.75048603  0.37091158  0.39916187  1
  P  P12  1  0.75048729  0.60083698  0.97175010  1
  P  P13  1  0.25086638  0.97234400  0.37365329  1
  P  P14  1  0.25086733  0.62635055  0.59869276  1
  P  P15  1  0.25086694  0.40130868  0.02765655  1
  Cl  Cl16  1  0.91641213  0.99999862  0.00000509  1
  O  O17  1  0.75030298  0.84991705  0.51316109  1
  O  O18  1  0.75030306  0.48682740  0.33674308  1
  O  O19  1  0.75030411  0.66325264  0.15008142  1
  O  O20  1  0.25067547  0.15060896  0.48679058  1
  O  O21  1  0.25067656  0.51322072  0.66383241  1
  O  O22  1  0.25067575  0.33617257  0.84939247  1
  O  O23  1  0.58130106  0.07628440  0.73850598  1
  O  O24  1  0.58130144  0.26149388  0.33778494  1
  O  O25  1  0.58129976  0.66221471  0.92370870  1
  O  O26  1  0.07919316  0.92148477  0.26724191  1
  O  O27  1  0.07919222  0.73275800  0.65423682  1
  O  O28  1  0.07919108  0.34576223  0.07852164  1
  O  O29  1  0.42147053  0.92203622  0.26590382  1
  O  O30  1  0.42147042  0.73409568  0.65612556  1
  O  O31  1  0.42147301  0.34387328  0.07796924  1
  O  O32  1  0.92450056  0.08131179  0.73111783  1
  O  O33  1  0.92450114  0.26888333  0.35019992  1
  O  O34  1  0.92450356  0.64980007  0.91868270  1
  O  O35  1  0.74467563  0.11955474  0.53846292  1
  O  O36  1  0.74467654  0.46154941  0.58108999  1
  O  O37  1  0.74467802  0.41890738  0.88045205  1
  O  O38  1  0.25194848  0.88196778  0.46502702  1
  O  O39  1  0.25194838  0.53496074  0.41694074  1
  O  O40  1  0.25194842  0.58306134  0.11802736  1
  F  F41  1  0.33047864  0.00000201  0.99999550  1
