# generated using pymatgen
data_SrCaNbCrO6
_symmetry_space_group_name_H-M   'P 1'
_cell_length_a   5.61802759
_cell_length_b   5.59176908
_cell_length_c   7.92308203
_cell_angle_alpha   90.00266807
_cell_angle_beta   90.00000000
_cell_angle_gamma   90.00000000
_symmetry_Int_Tables_number   1
_chemical_formula_structural   SrCaNbCrO6
_chemical_formula_sum   'Sr2 Ca2 Nb2 Cr2 O12'
_cell_volume   248.90134766
_cell_formula_units_Z   2
loop_
 _symmetry_equiv_pos_site_id
 _symmetry_equiv_pos_as_xyz
  1  'x, y, z'
loop_
 _atom_site_type_symbol
 _atom_site_label
 _atom_site_symmetry_multiplicity
 _atom_site_fract_x
 _atom_site_fract_y
 _atom_site_fract_z
 _atom_site_occupancy
  Sr  Sr0  1  0.97605585  0.50393582  0.24962154  1
  Sr  Sr1  1  0.52394415  0.00393582  0.74962154  1
  Ca  Ca2  1  0.02834358  0.49656403  0.75172714  1
  Ca  Ca3  1  0.47165642  0.99656403  0.25172714  1
  Nb  Nb4  1  0.49924906  0.50006749  0.50012801  1
  Nb  Nb5  1  0.00075094  0.00006749  0.00012801  1
  Cr  Cr6  1  0.50174020  0.50007751  0.00016069  1
  Cr  Cr7  1  0.99825980  0.00007751  0.50016069  1
  O  O8  1  0.70940120  0.78923286  0.46160638  1
  O  O9  1  0.79059880  0.28923286  0.96160638  1
  O  O10  1  0.28016621  0.21961261  0.52857576  1
  O  O11  1  0.21983379  0.71961261  0.02857576  1
  O  O12  1  0.22066327  0.72026600  0.46873723  1
  O  O13  1  0.27933673  0.22026600  0.96873723  1
  O  O14  1  0.78921530  0.29193736  0.53941493  1
  O  O15  1  0.71078470  0.79193736  0.03941493  1
  O  O16  1  0.48306760  0.55572946  0.74958864  1
  O  O17  1  0.01693240  0.05572946  0.24958864  1
  O  O18  1  0.51216474  0.42257685  0.25043968  1
  O  O19  1  0.98783526  0.92257685  0.75043968  1
