# generated using pymatgen
data_Sr2NdMn2O7
_symmetry_space_group_name_H-M   'P 1'
_cell_length_a   3.91507305
_cell_length_b   3.91507305
_cell_length_c   10.42498174
_cell_angle_alpha   79.17711975
_cell_angle_beta   79.17711975
_cell_angle_gamma   90.00000000
_symmetry_Int_Tables_number   1
_chemical_formula_structural   Sr2NdMn2O7
_chemical_formula_sum   'Sr2 Nd1 Mn2 O7'
_cell_volume   154.05492118
_cell_formula_units_Z   1
loop_
 _symmetry_equiv_pos_site_id
 _symmetry_equiv_pos_as_xyz
  1  'x, y, z'
loop_
 _atom_site_type_symbol
 _atom_site_label
 _atom_site_symmetry_multiplicity
 _atom_site_fract_x
 _atom_site_fract_y
 _atom_site_fract_z
 _atom_site_occupancy
  Sr  Sr0  1  0.68287231  0.68287231  0.63425538  1
  Sr  Sr1  1  0.31712769  0.31712769  0.36574462  1
  Nd  Nd2  1  0.50000000  0.50000000  0.00000000  1
  Mn  Mn3  1  0.09739485  0.09739485  0.80521030  1
  Mn  Mn4  1  0.90260515  0.90260515  0.19478970  1
  O  O5  1  0.19370908  0.19370908  0.61258185  1
  O  O6  1  0.80629092  0.80629092  0.38741815  1
  O  O7  1  0.59011453  0.09011453  0.81977094  1
  O  O8  1  0.09011453  0.59011453  0.81977094  1
  O  O9  1  0.40988547  0.90988547  0.18022906  1
  O  O10  1  0.90988547  0.40988547  0.18022906  1
  O  O11  1  -0.00000000  -0.00000000  0.00000000  1
