# generated using pymatgen
data_CuSiH18C7S3I
_symmetry_space_group_name_H-M   'P 1'
_cell_length_a   9.79123875
_cell_length_b   13.38048860
_cell_length_c   13.76759135
_cell_angle_alpha   90.00000000
_cell_angle_beta   101.56318029
_cell_angle_gamma   90.00000000
_symmetry_Int_Tables_number   1
_chemical_formula_structural   CuSiH18C7S3I
_chemical_formula_sum   'Cu4 Si4 H72 C28 S12 I4'
_cell_volume   1767.10590619
_cell_formula_units_Z   4
loop_
 _symmetry_equiv_pos_site_id
 _symmetry_equiv_pos_as_xyz
  1  'x, y, z'
loop_
 _atom_site_type_symbol
 _atom_site_label
 _atom_site_symmetry_multiplicity
 _atom_site_fract_x
 _atom_site_fract_y
 _atom_site_fract_z
 _atom_site_occupancy
  Cu  Cu0  1  0.44490750  0.98062138  0.09377890  1
  Cu  Cu1  1  0.55509250  0.48062138  0.40622110  1
  Cu  Cu2  1  0.55509250  0.01937862  0.90622110  1
  Cu  Cu3  1  0.44490750  0.51937862  0.59377890  1
  Si  Si4  1  0.18499063  0.86780872  0.23242892  1
  Si  Si5  1  0.81500937  0.36780872  0.26757108  1
  Si  Si6  1  0.81500937  0.13219128  0.76757108  1
  Si  Si7  1  0.18499063  0.63219128  0.73242892  1
  H  H8  1  0.94313813  0.83831059  0.25540807  1
  H  H9  1  0.05686187  0.33831059  0.24459193  1
  H  H10  1  0.05686187  0.16168941  0.74459193  1
  H  H11  1  0.94313813  0.66168941  0.75540807  1
  H  H12  1  0.97408420  0.77376813  0.14892706  1
  H  H13  1  0.02591580  0.27376813  0.35107294  1
  H  H14  1  0.02591580  0.22623187  0.85107294  1
  H  H15  1  0.97408420  0.72623187  0.64892706  1
  H  H16  1  0.65719006  0.77980808  0.10408741  1
  H  H17  1  0.34280994  0.27980808  0.39591259  1
  H  H18  1  0.34280994  0.22019192  0.89591259  1
  H  H19  1  0.65719006  0.72019192  0.60408741  1
  H  H20  1  0.05329448  0.02212698  0.17690081  1
  H  H21  1  0.94670552  0.52212698  0.32309919  1
  H  H22  1  0.94670552  0.97787302  0.82309919  1
  H  H23  1  0.05329448  0.47787302  0.67690081  1
  H  H24  1  0.15632147  0.13516865  0.00406561  1
  H  H25  1  0.84367853  0.63516865  0.49593439  1
  H  H26  1  0.84367853  0.86483135  0.99593439  1
  H  H27  1  0.15632147  0.36483135  0.50406561  1
  H  H28  1  0.04215590  0.72495624  0.26851425  1
  H  H29  1  0.95784410  0.22495624  0.23148575  1
  H  H30  1  0.95784410  0.27504376  0.73148575  1
  H  H31  1  0.04215590  0.77504376  0.76851425  1
  H  H32  1  0.30290435  0.83709866  0.40617392  1
  H  H33  1  0.69709565  0.33709866  0.09382608  1
  H  H34  1  0.69709565  0.16290134  0.59382608  1
  H  H35  1  0.30290435  0.66290134  0.90617392  1
  H  H36  1  0.31057269  0.94652664  0.58344180  1
  H  H37  1  0.68942731  0.44652664  0.91655820  1
  H  H38  1  0.68942731  0.05347336  0.41655820  1
  H  H39  1  0.31057269  0.55347336  0.08344180  1
  H  H40  1  0.19229215  0.04768861  0.58374090  1
  H  H41  1  0.80770785  0.54768861  0.91625910  1
  H  H42  1  0.80770785  0.95231139  0.41625910  1
  H  H43  1  0.19229215  0.45231139  0.08374090  1
  H  H44  1  0.36102552  0.95086653  0.35937653  1
  H  H45  1  0.63897448  0.45086653  0.14062347  1
  H  H46  1  0.63897448  0.04913347  0.64062347  1
  H  H47  1  0.36102552  0.54913347  0.85937653  1
  H  H48  1  0.29176040  0.21618462  0.06647568  1
  H  H49  1  0.70823960  0.71618462  0.43352432  1
  H  H50  1  0.70823960  0.78381538  0.93352432  1
  H  H51  1  0.29176040  0.28381538  0.56647568  1
  H  H52  1  0.49121682  0.73477691  0.04019894  1
  H  H53  1  0.50878318  0.23477691  0.45980106  1
  H  H54  1  0.50878318  0.26522309  0.95980106  1
  H  H55  1  0.49121682  0.76522309  0.54019894  1
  H  H56  1  0.10547542  0.95929808  0.07524296  1
  H  H57  1  0.89452458  0.45929808  0.42475704  1
  H  H58  1  0.89452458  0.04070192  0.92475704  1
  H  H59  1  0.10547542  0.54070192  0.57524296  1
  H  H60  1  0.25861999  0.77670164  0.09747417  1
  H  H61  1  0.74138001  0.27670164  0.40252583  1
  H  H62  1  0.74138001  0.22329836  0.90252583  1
  H  H63  1  0.25861999  0.72329836  0.59747417  1
  H  H64  1  0.34422727  0.06523337  0.53223573  1
  H  H65  1  0.65577273  0.56523337  0.96776427  1
  H  H66  1  0.65577273  0.93476663  0.46776427  1
  H  H67  1  0.34422727  0.43476663  0.03223573  1
  H  H68  1  0.31491192  0.71173199  0.21278902  1
  H  H69  1  0.68508808  0.21173199  0.28721098  1
  H  H70  1  0.68508808  0.28826801  0.78721098  1
  H  H71  1  0.31491192  0.78826801  0.71278902  1
  H  H72  1  0.57981521  0.67529601  0.15377322  1
  H  H73  1  0.42018479  0.17529601  0.34622678  1
  H  H74  1  0.42018479  0.32470399  0.84622678  1
  H  H75  1  0.57981521  0.82470399  0.65377322  1
  H  H76  1  0.13002402  0.20916138  0.10834397  1
  H  H77  1  0.86997598  0.70916138  0.39165603  1
  H  H78  1  0.86997598  0.79083862  0.89165603  1
  H  H79  1  0.13002402  0.29083862  0.60834397  1
  C  C80  1  0.02035466  0.79447995  0.22564802  1
  C  C81  1  0.97964534  0.29447995  0.27435198  1
  C  C82  1  0.97964534  0.20552005  0.77435198  1
  C  C83  1  0.02035466  0.70552005  0.72564802  1
  C  C84  1  0.14008900  0.98350489  0.15283331  1
  C  C85  1  0.85991100  0.48350489  0.34716669  1
  C  C86  1  0.85991100  0.01649511  0.84716669  1
  C  C87  1  0.14008900  0.51649511  0.65283331  1
  C  C88  1  0.26855492  0.90591205  0.36373463  1
  C  C89  1  0.73144508  0.40591205  0.13626537  1
  C  C90  1  0.73144508  0.09408795  0.63626537  1
  C  C91  1  0.26855492  0.59408795  0.86373463  1
  C  C92  1  0.20588572  0.16690660  0.07594619  1
  C  C93  1  0.79411428  0.66690660  0.42405381  1
  C  C94  1  0.79411428  0.83309340  0.92405381  1
  C  C95  1  0.20588572  0.33309340  0.57594619  1
  C  C96  1  0.26295160  0.01171515  0.54144257  1
  C  C97  1  0.73704840  0.51171515  0.95855743  1
  C  C98  1  0.73704840  0.98828485  0.45855743  1
  C  C99  1  0.26295160  0.48828485  0.04144257  1
  C  C100  1  0.30761087  0.78540681  0.17652556  1
  C  C101  1  0.69238913  0.28540681  0.32347444  1
  C  C102  1  0.69238913  0.21459319  0.82347444  1
  C  C103  1  0.30761087  0.71459319  0.67652556  1
  C  C104  1  0.55842183  0.74601501  0.11333153  1
  C  C105  1  0.44157817  0.24601501  0.38666847  1
  C  C106  1  0.44157817  0.25398499  0.88666847  1
  C  C107  1  0.55842183  0.75398499  0.61333153  1
  S  S108  1  0.28448736  0.06893752  0.15947963  1
  S  S109  1  0.71551264  0.56893752  0.34052037  1
  S  S110  1  0.71551264  0.93106248  0.84052037  1
  S  S111  1  0.28448736  0.43106248  0.65947963  1
  S  S112  1  0.48064212  0.83595383  0.18437364  1
  S  S113  1  0.51935788  0.33595383  0.31562636  1
  S  S114  1  0.51935788  0.16404617  0.81562636  1
  S  S115  1  0.48064212  0.66404617  0.68437364  1
  S  S116  1  0.15231336  0.97674916  0.42445977  1
  S  S117  1  0.84768664  0.47674916  0.07554023  1
  S  S118  1  0.84768664  0.02325084  0.57554023  1
  S  S119  1  0.15231336  0.52325084  0.92445977  1
  I  I120  1  0.68519324  0.06646685  0.09357771  1
  I  I121  1  0.31480676  0.56646685  0.40642229  1
  I  I122  1  0.31480676  0.93353315  0.90642229  1
  I  I123  1  0.68519324  0.43353315  0.59357771  1
