# generated using pymatgen
data_SmFe11Mo
_symmetry_space_group_name_H-M   'P 1'
_cell_length_a   4.69509967
_cell_length_b   6.48228989
_cell_length_c   6.48228989
_cell_angle_alpha   97.81470263
_cell_angle_beta   111.29993123
_cell_angle_gamma   68.70006877
_symmetry_Int_Tables_number   1
_chemical_formula_structural   SmFe11Mo
_chemical_formula_sum   'Sm1 Fe11 Mo1'
_cell_volume   171.25429724
_cell_formula_units_Z   1
loop_
 _symmetry_equiv_pos_site_id
 _symmetry_equiv_pos_as_xyz
  1  'x, y, z'
loop_
 _atom_site_type_symbol
 _atom_site_label
 _atom_site_symmetry_multiplicity
 _atom_site_fract_x
 _atom_site_fract_y
 _atom_site_fract_z
 _atom_site_occupancy
  Sm  Sm0  1  0.00631711  0.99367367  0.00632633  1
  Fe  Fe1  1  0.73180531  0.76838458  0.23161542  1
  Fe  Fe2  1  0.27048446  0.22934237  0.77065763  1
  Fe  Fe3  1  0.49814211  0.77651539  0.77302689  1
  Fe  Fe4  1  0.49814211  0.22697311  0.22348461  1
  Fe  Fe5  1  0.50052793  0.99821409  0.50004884  1
  Fe  Fe6  1  0.00146261  0.99812892  0.50008597  1
  Fe  Fe7  1  0.50052793  0.49995116  0.00178591  1
  Fe  Fe8  1  0.00146261  0.49991403  0.00187108  1
  Fe  Fe9  1  0.35922011  0.64047665  0.35952335  1
  Fe  Fe10  1  0.99920060  0.36009588  0.35847744  1
  Fe  Fe11  1  0.99920060  0.64152256  0.63990412  1
  Mo  Mo12  1  0.63350651  0.36680759  0.63319241  1
