# generated using pymatgen
data_Sm2Fe17C2
_symmetry_space_group_name_H-M   'P 1'
_cell_length_a   6.49203992
_cell_length_b   6.49203992
_cell_length_c   6.50137890
_cell_angle_alpha   83.72628739
_cell_angle_beta   83.72628739
_cell_angle_gamma   83.67700147
_symmetry_Int_Tables_number   1
_chemical_formula_structural   Sm2Fe17C2
_chemical_formula_sum   'Sm2 Fe17 C2'
_cell_volume   269.39850317
_cell_formula_units_Z   1
loop_
 _symmetry_equiv_pos_site_id
 _symmetry_equiv_pos_as_xyz
  1  'x, y, z'
loop_
 _atom_site_type_symbol
 _atom_site_label
 _atom_site_symmetry_multiplicity
 _atom_site_fract_x
 _atom_site_fract_y
 _atom_site_fract_z
 _atom_site_occupancy
  Sm  Sm0  1  0.65265678  0.65265678  0.66655543  1
  Sm  Sm1  1  0.34734322  0.34734322  0.33344457  1
  Fe  Fe2  1  0.34195464  0.34195464  0.85255701  1
  Fe  Fe3  1  0.34367705  0.85419265  0.34143406  1
  Fe  Fe4  1  0.85419265  0.34367705  0.34143406  1
  Fe  Fe5  1  0.65804536  0.65804536  0.14744299  1
  Fe  Fe6  1  0.65632295  0.14580735  0.65856594  1
  Fe  Fe7  1  0.14580735  0.65632295  0.65856594  1
  Fe  Fe8  1  0.90437248  0.90437248  0.90435197  1
  Fe  Fe9  1  0.09562752  0.09562752  0.09564803  1
  Fe  Fe10  1  -0.00000000  -0.00000000  0.50000000  1
  Fe  Fe11  1  -0.00000000  0.50000000  0.00000000  1
  Fe  Fe12  1  0.50000000  -0.00000000  0.00000000  1
  Fe  Fe13  1  0.28597633  0.71402367  0.00000000  1
  Fe  Fe14  1  0.71444870  0.99913545  0.28609573  1
  Fe  Fe15  1  0.00086455  0.28555130  0.71390427  1
  Fe  Fe16  1  0.28555130  0.00086455  0.71390427  1
  Fe  Fe17  1  0.99913545  0.71444870  0.28609573  1
  Fe  Fe18  1  0.71402367  0.28597633  0.00000000  1
  C  C19  1  0.50000000  -0.00000000  0.50000000  1
  C  C20  1  -0.00000000  0.50000000  0.50000000  1
