# generated using pymatgen
data_Rb5Gd(MoO4)4
_symmetry_space_group_name_H-M   'P 1'
_cell_length_a   6.27476452
_cell_length_b   10.24837241
_cell_length_c   8.20993340
_cell_angle_alpha   73.24546960
_cell_angle_beta   90.00000015
_cell_angle_gamma   89.99999825
_symmetry_Int_Tables_number   1
_chemical_formula_structural   Rb5Gd(MoO4)4
_chemical_formula_sum   'Rb5 Gd1 Mo4 O16'
_cell_volume   505.53680176
_cell_formula_units_Z   1
loop_
 _symmetry_equiv_pos_site_id
 _symmetry_equiv_pos_as_xyz
  1  'x, y, z'
loop_
 _atom_site_type_symbol
 _atom_site_label
 _atom_site_symmetry_multiplicity
 _atom_site_fract_x
 _atom_site_fract_y
 _atom_site_fract_z
 _atom_site_occupancy
  Rb  Rb0  1  0.50000000  0.29378415  0.13263049  1
  Rb  Rb1  1  0.00000000  0.81654029  0.60935933  1
  Rb  Rb2  1  0.50000000  0.70621585  0.86736951  1
  Rb  Rb3  1  1.00000000  0.18345971  0.39064067  1
  Rb  Rb4  1  -0.00000000  0.00000000  -0.00000000  1
  Gd  Gd5  1  0.50000000  0.50000000  0.50000000  1
  Mo  Mo6  1  1.00000000  0.60144764  0.22309418  1
  Mo  Mo7  1  0.50000000  0.11168073  0.69998094  1
  Mo  Mo8  1  0.00000000  0.39855236  0.77690582  1
  Mo  Mo9  1  0.50000000  0.88831927  0.30001906  1
  O  O10  1  0.50000000  0.16015765  0.89147878  1
  O  O11  1  1.00000000  0.72775293  0.32792019  1
  O  O12  1  0.50000000  0.83984235  0.10852122  1
  O  O13  1  0.00000000  0.27224707  0.67207981  1
  O  O14  1  0.24326552  0.50047394  0.28900083  1
  O  O15  1  0.72834542  0.00928413  0.69517939  1
  O  O16  1  0.75673448  0.50047394  0.28900083  1
  O  O17  1  0.27165458  0.00928413  0.69517939  1
  O  O18  1  1.00000000  0.68242797  -0.00071477  1
  O  O19  1  0.50000000  0.26986145  0.51847401  1
  O  O20  1  0.75673448  0.49952606  0.71099917  1
  O  O21  1  0.27165458  0.99071587  0.30482061  1
  O  O22  1  0.24326552  0.49952606  0.71099917  1
  O  O23  1  0.72834542  0.99071587  0.30482061  1
  O  O24  1  0.00000000  0.31757203  0.00071477  1
  O  O25  1  0.50000000  0.73013855  0.48152599  1
