# generated using pymatgen
data_ScAlCo
_symmetry_space_group_name_H-M   'P 1'
_cell_length_a   5.11724991
_cell_length_b   5.11732068
_cell_length_c   8.14449775
_cell_angle_alpha   90.00000000
_cell_angle_beta   90.00000000
_cell_angle_gamma   61.02707772
_symmetry_Int_Tables_number   1
_chemical_formula_structural   ScAlCo
_chemical_formula_sum   'Sc4 Al4 Co4'
_cell_volume   186.58491635
_cell_formula_units_Z   4
loop_
 _symmetry_equiv_pos_site_id
 _symmetry_equiv_pos_as_xyz
  1  'x, y, z'
loop_
 _atom_site_type_symbol
 _atom_site_label
 _atom_site_symmetry_multiplicity
 _atom_site_fract_x
 _atom_site_fract_y
 _atom_site_fract_z
 _atom_site_occupancy
  Sc  Sc0  1  0.33339912  0.33337785  0.54502086  1
  Sc  Sc1  1  0.67075121  0.67076791  0.42337080  1
  Sc  Sc2  1  0.67075121  0.67076791  0.07662920  1
  Sc  Sc3  1  0.33339912  0.33337785  0.95497914  1
  Al  Al4  1  0.99379326  0.99381047  0.48053618  1
  Al  Al5  1  0.99379326  0.99381047  0.01946382  1
  Al  Al6  1  0.83401758  0.34325015  0.75000000  1
  Al  Al7  1  0.34324279  0.83401042  0.75000000  1
  Co  Co8  1  0.83430469  0.83431449  0.75000000  1
  Co  Co9  1  0.17666253  0.64187031  0.25000000  1
  Co  Co10  1  0.64189568  0.17665297  0.25000000  1
  Co  Co11  1  0.17398957  0.17398921  0.25000000  1
