# generated using pymatgen
data_Si3Ag10S11
_symmetry_space_group_name_H-M   'P 1'
_cell_length_a   6.50302815
_cell_length_b   12.50924182
_cell_length_c   13.57506818
_cell_angle_alpha   69.15109008
_cell_angle_beta   79.74344930
_cell_angle_gamma   78.21334280
_symmetry_Int_Tables_number   1
_chemical_formula_structural   Si3Ag10S11
_chemical_formula_sum   'Si6 Ag20 S22'
_cell_volume   1003.51506034
_cell_formula_units_Z   2
loop_
 _symmetry_equiv_pos_site_id
 _symmetry_equiv_pos_as_xyz
  1  'x, y, z'
loop_
 _atom_site_type_symbol
 _atom_site_label
 _atom_site_symmetry_multiplicity
 _atom_site_fract_x
 _atom_site_fract_y
 _atom_site_fract_z
 _atom_site_occupancy
  Si  Si0  1  0.30329095  0.82483352  0.93731481  1
  Si  Si1  1  0.69670905  0.17516648  0.06268519  1
  Si  Si2  1  0.01240390  0.78908445  0.53933319  1
  Si  Si3  1  0.98759610  0.21091555  0.46066681  1
  Si  Si4  1  0.20213709  0.48776923  0.69943101  1
  Si  Si5  1  0.79786291  0.51223077  0.30056899  1
  Ag  Ag6  1  0.55377267  0.68851582  0.47088359  1
  Ag  Ag7  1  0.44622733  0.31148418  0.52911641  1
  Ag  Ag8  1  0.80696036  0.02759529  0.88273746  1
  Ag  Ag9  1  0.19303964  0.97240471  0.11726254  1
  Ag  Ag10  1  0.48276580  0.73524635  0.68512525  1
  Ag  Ag11  1  0.51723420  0.26475365  0.31487475  1
  Ag  Ag12  1  0.85784151  0.72227690  0.82176643  1
  Ag  Ag13  1  0.14215849  0.27772310  0.17823357  1
  Ag  Ag14  1  0.20397565  0.63706727  0.36835783  1
  Ag  Ag15  1  0.79602435  0.36293273  0.63164217  1
  Ag  Ag16  1  0.77259298  0.82733378  0.12102953  1
  Ag  Ag17  1  0.22740702  0.17266622  0.87897047  1
  Ag  Ag18  1  0.64484140  0.96240728  0.65866679  1
  Ag  Ag19  1  0.35515860  0.03759272  0.34133321  1
  Ag  Ag20  1  0.25106222  0.59817599  0.16384477  1
  Ag  Ag21  1  0.74893778  0.40182401  0.83615523  1
  Ag  Ag22  1  0.85324735  0.97220352  0.31214420  1
  Ag  Ag23  1  0.14675265  0.02779648  0.68785580  1
  Ag  Ag24  1  0.67540638  0.53400561  0.03824925  1
  Ag  Ag25  1  0.32459362  0.46599439  0.96175075  1
  S  S26  1  0.51916819  0.52665904  0.66538470  1
  S  S27  1  0.48083181  0.47334096  0.33461530  1
  S  S28  1  0.03962313  0.50284048  0.84746433  1
  S  S29  1  0.96037687  0.49715952  0.15253567  1
  S  S30  1  0.69021936  0.86304438  0.51704896  1
  S  S31  1  0.30978064  0.13695562  0.48295104  1
  S  S32  1  0.97004564  0.82434256  0.94227367  1
  S  S33  1  0.02995436  0.17565744  0.05772633  1
  S  S34  1  0.38426668  0.79148687  0.09292929  1
  S  S35  1  0.61573332  0.20851313  0.90707071  1
  S  S36  1  0.20742089  0.83931828  0.38939469  1
  S  S37  1  0.79257911  0.16068172  0.61060531  1
  S  S38  1  0.09698275  0.82989811  0.66304898  1
  S  S39  1  0.90301725  0.17010189  0.33695102  1
  S  S40  1  0.39652057  0.98435777  0.82517836  1
  S  S41  1  0.60347943  0.01564223  0.17482164  1
  S  S42  1  0.18235702  0.32298506  0.69200320  1
  S  S43  1  0.81764298  0.67701494  0.30799680  1
  S  S44  1  0.01747538  0.60279896  0.57289360  1
  S  S45  1  0.98252462  0.39720104  0.42710640  1
  S  S46  1  0.47691704  0.67995229  0.88836815  1
  S  S47  1  0.52308296  0.32004771  0.11163185  1
