# generated using pymatgen
data_PuU4N5
_symmetry_space_group_name_H-M   'P 1'
_cell_length_a   3.44009029
_cell_length_b   12.43266727
_cell_length_c   3.44009029
_cell_angle_alpha   97.95231221
_cell_angle_beta   90.00000000
_cell_angle_gamma   97.95231221
_symmetry_Int_Tables_number   1
_chemical_formula_structural   PuU4N5
_chemical_formula_sum   'Pu1 U4 N5'
_cell_volume   144.28730949
_cell_formula_units_Z   1
loop_
 _symmetry_equiv_pos_site_id
 _symmetry_equiv_pos_as_xyz
  1  'x, y, z'
loop_
 _atom_site_type_symbol
 _atom_site_label
 _atom_site_symmetry_multiplicity
 _atom_site_fract_x
 _atom_site_fract_y
 _atom_site_fract_z
 _atom_site_occupancy
  Pu  Pu0  1  0.10000000  0.20000000  0.10000000  1
  U  U1  1  0.69928512  0.39857023  0.69928512  1
  U  U2  1  0.30004679  0.60009359  0.30004679  1
  U  U3  1  0.89995321  0.79990641  0.89995321  1
  U  U4  1  0.50071488  0.00142977  0.50071488  1
  N  N5  1  0.40022977  0.80045955  0.40022977  1
  N  N6  1  0.20074011  0.40148021  0.20074011  1
  N  N7  1  0.79977023  0.59954045  0.79977023  1
  N  N8  1  0.99925989  0.99851979  0.99925989  1
  N  N9  1  0.60000000  0.20000000  0.60000000  1
