# generated using pymatgen
data_Na4FeNi(PO4)3
_symmetry_space_group_name_H-M   'P 1'
_cell_length_a   8.96135050
_cell_length_b   8.96135061
_cell_length_c   8.86880848
_cell_angle_alpha   59.65422294
_cell_angle_beta   120.34577464
_cell_angle_gamma   120.00000044
_symmetry_Int_Tables_number   1
_chemical_formula_structural   Na4FeNi(PO4)3
_chemical_formula_sum   'Na8 Fe2 Ni2 P6 O24'
_cell_volume   500.96516860
_cell_formula_units_Z   2
loop_
 _symmetry_equiv_pos_site_id
 _symmetry_equiv_pos_as_xyz
  1  'x, y, z'
loop_
 _atom_site_type_symbol
 _atom_site_label
 _atom_site_symmetry_multiplicity
 _atom_site_fract_x
 _atom_site_fract_y
 _atom_site_fract_z
 _atom_site_occupancy
  Na  Na0  1  0.49801298  0.50198702  0.49403894  1
  Na  Na1  1  0.99801298  0.00198702  0.99403894  1
  Na  Na2  1  0.38612377  0.25592663  0.24680415  1
  Na  Na3  1  0.11660801  0.61387623  0.24680415  1
  Na  Na4  1  0.74407337  0.88339199  0.24680415  1
  Na  Na5  1  0.24407337  0.11387623  0.74680415  1
  Na  Na6  1  0.61660801  0.75592663  0.74680415  1
  Na  Na7  1  0.88612377  0.38339199  0.74680415  1
  Fe  Fe8  1  0.64913594  0.35086406  0.94740782  1
  Fe  Fe9  1  0.14913594  0.85086406  0.44740782  1
  Ni  Ni10  1  0.35151363  0.64848637  0.05454088  1
  Ni  Ni11  1  0.85151363  0.14848637  0.55454088  1
  P  P12  1  0.04577491  0.24824598  0.25291501  1
  P  P13  1  0.45538708  0.95422509  0.25291501  1
  P  P14  1  0.75175402  0.54461292  0.25291501  1
  P  P15  1  0.25175402  0.45422509  0.75291501  1
  P  P16  1  0.95538708  0.74824598  0.75291501  1
  P  P17  1  0.54577491  0.04461292  0.75291501  1
  O  O18  1  0.51832465  0.88026412  0.92685596  1
  O  O19  1  0.28879542  0.48167535  0.92685596  1
  O  O20  1  0.11973588  0.71120458  0.92685596  1
  O  O21  1  0.61973588  0.98167535  0.42685596  1
  O  O22  1  0.78879542  0.38026412  0.42685596  1
  O  O23  1  0.01832465  0.21120458  0.42685596  1
  O  O24  1  0.48412317  0.12412793  0.07602645  1
  O  O25  1  0.71603120  0.51587683  0.07602645  1
  O  O26  1  0.87587207  0.28396880  0.07602645  1
  O  O27  1  0.37587207  0.01587683  0.57602645  1
  O  O28  1  0.21603120  0.62412793  0.57602645  1
  O  O29  1  0.98412317  0.78396880  0.57602645  1
  O  O30  1  0.43024914  0.77588059  0.24167980  1
  O  O31  1  0.58731125  0.56975086  0.24167980  1
  O  O32  1  0.22411941  0.41268875  0.24167980  1
  O  O33  1  0.72411941  0.06975086  0.74167980  1
  O  O34  1  0.08731125  0.27588059  0.74167980  1
  O  O35  1  0.93024914  0.91268875  0.74167980  1
  O  O36  1  0.56363793  0.22615620  0.75712210  1
  O  O37  1  0.41964037  0.43636207  0.75712210  1
  O  O38  1  0.77384380  0.58035963  0.75712210  1
  O  O39  1  0.27384380  0.93636207  0.25712210  1
  O  O40  1  0.91964037  0.72615620  0.25712210  1
  O  O41  1  0.06363793  0.08035963  0.25712210  1
