# generated using pymatgen
data_NdTiNbBi2O9
_symmetry_space_group_name_H-M   'P 1'
_cell_length_a   5.51266297
_cell_length_b   5.47848719
_cell_length_c   13.00467520
_cell_angle_alpha   77.46207261
_cell_angle_beta   90.00000000
_cell_angle_gamma   90.00000000
_symmetry_Int_Tables_number   1
_chemical_formula_structural   NdTiNbBi2O9
_chemical_formula_sum   'Nd2 Ti2 Nb2 Bi4 O18'
_cell_volume   383.38867651
_cell_formula_units_Z   2
loop_
 _symmetry_equiv_pos_site_id
 _symmetry_equiv_pos_as_xyz
  1  'x, y, z'
loop_
 _atom_site_type_symbol
 _atom_site_label
 _atom_site_symmetry_multiplicity
 _atom_site_fract_x
 _atom_site_fract_y
 _atom_site_fract_z
 _atom_site_occupancy
  Nd  Nd0  1  0.49824031  0.75499994  0.00019838  1
  Nd  Nd1  1  0.99824031  0.24500006  0.99980162  1
  Ti  Ti2  1  0.52787242  0.16095693  0.17117115  1
  Ti  Ti3  1  0.02787242  0.83904307  0.82882885  1
  Nb  Nb4  1  0.53199275  0.34513760  0.82901339  1
  Nb  Nb5  1  0.03199275  0.65486240  0.17098661  1
  Bi  Bi6  1  0.47411819  0.58289657  0.39881654  1
  Bi  Bi7  1  0.46768396  0.97548223  0.60137631  1
  Bi  Bi8  1  0.97411819  0.41710343  0.60118346  1
  Bi  Bi9  1  0.96768396  0.02451777  0.39862369  1
  O  O10  1  0.56524881  0.32695385  0.99888706  1
  O  O11  1  0.06524881  0.67304615  0.00111294  1
  O  O12  1  0.84139376  0.36140135  0.17205479  1
  O  O13  1  0.84691621  0.54140574  0.82814731  1
  O  O14  1  0.34139376  0.63859865  0.82794521  1
  O  O15  1  0.34691621  0.45859426  0.17185269  1
  O  O16  1  0.54847016  0.01355537  0.30904289  1
  O  O17  1  0.54235220  0.33154287  0.68552430  1
  O  O18  1  0.04847016  0.98644463  0.69095711  1
  O  O19  1  0.04235220  0.66845713  0.31447570  1
  O  O20  1  0.76776121  0.90458326  0.12362729  1
  O  O21  1  0.76971587  0.02844144  0.87572447  1
  O  O22  1  0.26776121  0.09541674  0.87637271  1
  O  O23  1  0.26971587  0.97155856  0.12427553  1
  O  O24  1  0.74001950  0.24348095  0.49768316  1
  O  O25  1  0.73891465  0.74246905  0.50245712  1
  O  O26  1  0.24001950  0.75651905  0.50231684  1
  O  O27  1  0.23891465  0.25753095  0.49754288  1
