# generated using pymatgen
data_NaP2H5O6
_symmetry_space_group_name_H-M   'P 1'
_cell_length_a   5.96643164
_cell_length_b   6.02374131
_cell_length_c   9.88887941
_cell_angle_alpha   90.73316191
_cell_angle_beta   90.00230512
_cell_angle_gamma   119.68559571
_symmetry_Int_Tables_number   1
_chemical_formula_structural   NaP2H5O6
_chemical_formula_sum   'Na2 P4 H10 O12'
_cell_volume   308.72986544
_cell_formula_units_Z   2
loop_
 _symmetry_equiv_pos_site_id
 _symmetry_equiv_pos_as_xyz
  1  'x, y, z'
loop_
 _atom_site_type_symbol
 _atom_site_label
 _atom_site_symmetry_multiplicity
 _atom_site_fract_x
 _atom_site_fract_y
 _atom_site_fract_z
 _atom_site_occupancy
  Na  Na0  1  0.02012000  0.00503246  0.49018424  1
  Na  Na1  1  0.98490804  0.00504064  0.99018076  1
  P  P2  1  0.66848722  0.32523694  0.09706192  1
  P  P3  1  0.65673530  0.32524800  0.59705901  1
  P  P4  1  0.33212878  0.65328050  0.89899726  1
  P  P5  1  0.32118277  0.65328181  0.39899603  1
  H  H6  1  0.66377876  0.33186610  0.95593387  1
  H  H7  1  0.66801768  0.33186157  0.45593399  1
  H  H8  1  0.33412886  0.66293543  0.04072100  1
  H  H9  1  0.32887584  0.66293815  0.54072112  1
  H  H10  1  0.97841045  0.64734212  0.23158550  1
  H  H11  1  0.35055836  0.32646000  0.22990980  1
  H  H12  1  0.97589325  0.32645409  0.72990061  1
  H  H13  1  0.66892793  0.64734373  0.73158961  1
  H  H14  1  0.32601139  0.96659617  0.77593687  1
  H  H15  1  0.64059194  0.96659976  0.27592953  1
  O  O16  1  0.86877909  0.60743534  0.13904194  1
  O  O17  1  0.38796347  0.26230725  0.13596604  1
  O  O18  1  0.73650401  0.12752135  0.14335952  1
  O  O19  1  0.87432580  0.26230703  0.63595952  1
  O  O20  1  0.73864511  0.60743504  0.63904389  1
  O  O21  1  0.39099208  0.12751955  0.64336650  1
  O  O22  1  0.11809368  0.38961542  0.85410080  1
  O  O23  1  0.60393884  0.72790348  0.85197985  1
  O  O24  1  0.26223101  0.87045518  0.86523066  1
  O  O25  1  0.12398175  0.72790386  0.35198290  1
  O  O26  1  0.27154292  0.38962097  0.35410210  1
  O  O27  1  0.60824566  0.87045806  0.36522515  1
