# generated using pymatgen
data_P3Pb5O12F
_symmetry_space_group_name_H-M   'P 1'
_cell_length_a   7.36210477
_cell_length_b   9.90559151
_cell_length_c   9.90561788
_cell_angle_alpha   59.99971542
_cell_angle_beta   90.00000000
_cell_angle_gamma   90.00000000
_symmetry_Int_Tables_number   1
_chemical_formula_structural   P3Pb5O12F
_chemical_formula_sum   'P6 Pb10 O24 F2'
_cell_volume   625.59513783
_cell_formula_units_Z   2
loop_
 _symmetry_equiv_pos_site_id
 _symmetry_equiv_pos_as_xyz
  1  'x, y, z'
loop_
 _atom_site_type_symbol
 _atom_site_label
 _atom_site_symmetry_multiplicity
 _atom_site_fract_x
 _atom_site_fract_y
 _atom_site_fract_z
 _atom_site_occupancy
  P  P0  1  0.74980575  0.97619506  0.61898056  1
  P  P1  1  0.74980408  0.40482197  0.97619611  1
  P  P2  1  0.74980503  0.61898406  0.40482166  1
  P  P3  1  0.24980575  0.02380494  0.38101944  1
  P  P4  1  0.24980408  0.59517803  0.02380389  1
  P  P5  1  0.24980503  0.38101594  0.59517834  1
  Pb  Pb6  1  0.75188836  0.76951150  0.99425796  1
  Pb  Pb7  1  0.75189043  0.23621531  0.76949523  1
  Pb  Pb8  1  0.75188767  0.99427928  0.23623837  1
  Pb  Pb9  1  0.25188836  0.23048850  0.00574204  1
  Pb  Pb10  1  0.25189043  0.76378469  0.23050477  1
  Pb  Pb11  1  0.25188767  0.00572072  0.76376163  1
  Pb  Pb12  1  0.50188379  0.33334685  0.33332795  1
  Pb  Pb13  1  0.00188379  0.66665315  0.66667205  1
  Pb  Pb14  1  0.49779125  0.66665549  0.66667219  1
  Pb  Pb15  1  0.99779125  0.33334451  0.33332781  1
  O  O16  1  0.57930558  0.91733429  0.72756836  1
  O  O17  1  0.57930296  0.35509939  0.91733362  1
  O  O18  1  0.57930216  0.72756699  0.35509936  1
  O  O19  1  0.07930558  0.08266571  0.27243164  1
  O  O20  1  0.07930296  0.64490061  0.08266638  1
  O  O21  1  0.07930216  0.27243301  0.64490064  1
  O  O22  1  0.41957682  0.08370526  0.27212596  1
  O  O23  1  0.41958062  0.64416579  0.08370692  1
  O  O24  1  0.41958091  0.27212768  0.64416637  1
  O  O25  1  0.91957682  0.91629474  0.72787404  1
  O  O26  1  0.91958062  0.35583421  0.91629308  1
  O  O27  1  0.91958091  0.72787232  0.35583363  1
  O  O28  1  0.74984448  0.89885142  0.51406168  1
  O  O29  1  0.74984416  0.58709010  0.89885250  1
  O  O30  1  0.74984410  0.51405488  0.58708963  1
  O  O31  1  0.24984448  0.10114858  0.48593832  1
  O  O32  1  0.24984416  0.41290990  0.10114750  1
  O  O33  1  0.24984410  0.48594512  0.41291037  1
  O  O34  1  0.75008646  0.15677549  0.51687682  1
  O  O35  1  0.75008695  0.32634652  0.15677580  1
  O  O36  1  0.75008569  0.51687821  0.32634359  1
  O  O37  1  0.25008646  0.84322451  0.48312318  1
  O  O38  1  0.25008695  0.67365348  0.84322420  1
  O  O39  1  0.25008569  0.48312179  0.67365641  1
  F  F40  1  0.95980277  0.00000079  0.99999888  1
  F  F41  1  0.45980277  0.99999921  0.00000112  1
