# generated using pymatgen
data_CeMn5Co7
_symmetry_space_group_name_H-M   'P 1'
_cell_length_a   4.59334401
_cell_length_b   6.34044594
_cell_length_c   6.34044594
_cell_angle_alpha   97.92693522
_cell_angle_beta   111.23693822
_cell_angle_gamma   68.76306178
_symmetry_Int_Tables_number   1
_chemical_formula_structural   CeMn5Co7
_chemical_formula_sum   'Ce1 Mn5 Co7'
_cell_volume   160.42490473
_cell_formula_units_Z   1
loop_
 _symmetry_equiv_pos_site_id
 _symmetry_equiv_pos_as_xyz
  1  'x, y, z'
loop_
 _atom_site_type_symbol
 _atom_site_label
 _atom_site_symmetry_multiplicity
 _atom_site_fract_x
 _atom_site_fract_y
 _atom_site_fract_z
 _atom_site_occupancy
  Ce  Ce0  1  0.99674824  0.00325176  0.99674824  1
  Mn  Mn1  1  0.49869617  0.99794870  0.49711839  1
  Mn  Mn2  1  0.00047353  0.99794870  0.49711839  1
  Mn  Mn3  1  0.49869617  0.50288161  0.00205130  1
  Mn  Mn4  1  0.00047353  0.50288161  0.00205130  1
  Mn  Mn5  1  0.73067490  0.76932510  0.23067490  1
  Co  Co6  1  0.64136711  0.35863289  0.64136711  1
  Co  Co7  1  0.35781017  0.64218983  0.35781017  1
  Co  Co8  1  0.00051919  0.35674087  0.35777924  1
  Co  Co9  1  0.00051919  0.64222076  0.64325913  1
  Co  Co10  1  0.27215566  0.22784434  0.77215566  1
  Co  Co11  1  0.50093308  0.77247414  0.77434030  1
  Co  Co12  1  0.50093308  0.22565970  0.22752586  1
