# generated using pymatgen
data_NbTe7Cl5O
_symmetry_space_group_name_H-M   'P 1'
_cell_length_a   8.21021320
_cell_length_b   8.23891498
_cell_length_c   26.56597637
_cell_angle_alpha   90.00000000
_cell_angle_beta   90.00000000
_cell_angle_gamma   90.00000000
_symmetry_Int_Tables_number   1
_chemical_formula_structural   NbTe7Cl5O
_chemical_formula_sum   'Nb4 Te28 Cl20 O4'
_cell_volume   1797.00894184
_cell_formula_units_Z   4
loop_
 _symmetry_equiv_pos_site_id
 _symmetry_equiv_pos_as_xyz
  1  'x, y, z'
loop_
 _atom_site_type_symbol
 _atom_site_label
 _atom_site_symmetry_multiplicity
 _atom_site_fract_x
 _atom_site_fract_y
 _atom_site_fract_z
 _atom_site_occupancy
  Nb  Nb0  1  0.29105894  0.50000000  0.75000000  1
  Nb  Nb1  1  0.20894106  0.50000000  0.25000000  1
  Nb  Nb2  1  0.70894106  0.50000000  0.25000000  1
  Nb  Nb3  1  0.79105894  0.50000000  0.75000000  1
  Te  Te4  1  0.55959762  0.26113028  0.07439207  1
  Te  Te5  1  0.55959762  0.73886972  0.42560793  1
  Te  Te6  1  0.94040238  0.73886972  0.57439207  1
  Te  Te7  1  0.94040238  0.26113028  0.92560793  1
  Te  Te8  1  0.44040238  0.73886972  0.92560793  1
  Te  Te9  1  0.44040238  0.26113028  0.57439207  1
  Te  Te10  1  0.05959762  0.26113028  0.42560793  1
  Te  Te11  1  0.05959762  0.73886972  0.07439207  1
  Te  Te12  1  0.45961622  0.02708287  0.14391120  1
  Te  Te13  1  0.45961622  0.97291713  0.35608880  1
  Te  Te14  1  0.04038378  0.97291713  0.64391120  1
  Te  Te15  1  0.04038378  0.02708287  0.85608880  1
  Te  Te16  1  0.54038378  0.97291713  0.85608880  1
  Te  Te17  1  0.54038378  0.02708287  0.64391120  1
  Te  Te18  1  0.95961622  0.02708287  0.35608880  1
  Te  Te19  1  0.95961622  0.97291713  0.14391120  1
  Te  Te20  1  0.41405533  0.76303772  0.08070179  1
  Te  Te21  1  0.41405533  0.23696228  0.41929821  1
  Te  Te22  1  0.08594467  0.23696228  0.58070179  1
  Te  Te23  1  0.08594467  0.76303772  0.91929821  1
  Te  Te24  1  0.58594467  0.23696228  0.91929821  1
  Te  Te25  1  0.58594467  0.76303772  0.58070179  1
  Te  Te26  1  0.91405533  0.76303772  0.41929821  1
  Te  Te27  1  0.91405533  0.23696228  0.08070179  1
  Te  Te28  1  0.50000000  0.00000000  0.00000000  1
  Te  Te29  1  0.50000000  0.00000000  0.50000000  1
  Te  Te30  1  0.00000000  0.00000000  0.50000000  1
  Te  Te31  1  0.00000000  0.00000000  0.00000000  1
  Cl  Cl32  1  0.25637462  0.43570596  0.83798272  1
  Cl  Cl33  1  0.25637462  0.56429404  0.66201728  1
  Cl  Cl34  1  0.24362538  0.56429404  0.33798272  1
  Cl  Cl35  1  0.24362538  0.43570596  0.16201728  1
  Cl  Cl36  1  0.74362538  0.56429404  0.16201728  1
  Cl  Cl37  1  0.74362538  0.43570596  0.33798272  1
  Cl  Cl38  1  0.75637462  0.43570596  0.66201728  1
  Cl  Cl39  1  0.75637462  0.56429404  0.83798272  1
  Cl  Cl40  1  0.25381581  0.21587616  0.73035196  1
  Cl  Cl41  1  0.25381581  0.78412384  0.76964804  1
  Cl  Cl42  1  0.24618419  0.78412384  0.23035196  1
  Cl  Cl43  1  0.24618419  0.21587616  0.26964804  1
  Cl  Cl44  1  0.74618419  0.78412384  0.26964804  1
  Cl  Cl45  1  0.74618419  0.21587616  0.23035196  1
  Cl  Cl46  1  0.75381581  0.21587616  0.76964804  1
  Cl  Cl47  1  0.75381581  0.78412384  0.73035196  1
  Cl  Cl48  1  0.25000000  0.47968900  0.00000000  1
  Cl  Cl49  1  0.25000000  0.52031100  0.50000000  1
  Cl  Cl50  1  0.75000000  0.52031100  0.00000000  1
  Cl  Cl51  1  0.75000000  0.47968900  0.50000000  1
  O  O52  1  0.00844843  0.50000000  0.75000000  1
  O  O53  1  0.49155157  0.50000000  0.25000000  1
  O  O54  1  0.99155157  0.50000000  0.25000000  1
  O  O55  1  0.50844843  0.50000000  0.75000000  1
