# generated using pymatgen
data_Pr2FeGe4
_symmetry_space_group_name_H-M   'P 1'
_cell_length_a   4.28299520
_cell_length_b   4.33194862
_cell_length_c   8.43957574
_cell_angle_alpha   75.12892607
_cell_angle_beta   90.00000000
_cell_angle_gamma   90.00000000
_symmetry_Int_Tables_number   1
_chemical_formula_structural   Pr2FeGe4
_chemical_formula_sum   'Pr2 Fe1 Ge4'
_cell_volume   151.34077421
_cell_formula_units_Z   1
loop_
 _symmetry_equiv_pos_site_id
 _symmetry_equiv_pos_as_xyz
  1  'x, y, z'
loop_
 _atom_site_type_symbol
 _atom_site_label
 _atom_site_symmetry_multiplicity
 _atom_site_fract_x
 _atom_site_fract_y
 _atom_site_fract_z
 _atom_site_occupancy
  Pr  Pr0  1  0.25000000  0.89538888  0.20922225  1
  Pr  Pr1  1  0.75000000  0.10205381  0.79589238  1
  Fe  Fe2  1  0.25000000  0.69485574  0.61028852  1
  Ge  Ge3  1  0.25000000  0.54980799  0.90038403  1
  Ge  Ge4  1  0.75000000  0.45005952  0.09988096  1
  Ge  Ge5  1  0.25000000  0.25266710  0.49466579  1
  Ge  Ge6  1  0.75000000  0.75016697  0.49966607  1
