# generated using pymatgen
data_Nd12Si5Se28
_symmetry_space_group_name_H-M   'P 1'
_cell_length_a   10.61353354
_cell_length_b   12.13300273
_cell_length_c   12.21833394
_cell_angle_alpha   60.19630777
_cell_angle_beta   115.73925622
_cell_angle_gamma   89.99361986
_symmetry_Int_Tables_number   1
_chemical_formula_structural   Nd12Si5Se28
_chemical_formula_sum   'Nd12 Si5 Se28'
_cell_volume   1181.95774302
_cell_formula_units_Z   1
loop_
 _symmetry_equiv_pos_site_id
 _symmetry_equiv_pos_as_xyz
  1  'x, y, z'
loop_
 _atom_site_type_symbol
 _atom_site_label
 _atom_site_symmetry_multiplicity
 _atom_site_fract_x
 _atom_site_fract_y
 _atom_site_fract_z
 _atom_site_occupancy
  Nd  Nd0  1  0.13162893  0.41615107  0.36566061  1
  Nd  Nd1  1  0.12708835  0.94518176  0.34776170  1
  Nd  Nd2  1  0.65219639  0.22796178  0.78094175  1
  Nd  Nd3  1  0.63547958  0.71756242  0.76349540  1
  Nd  Nd4  1  0.22283785  0.18189595  0.87375527  1
  Nd  Nd5  1  0.23090115  0.66608102  0.86773300  1
  Nd  Nd6  1  0.87754284  0.52393823  0.65424359  1
  Nd  Nd7  1  0.86220446  0.04958068  0.63249117  1
  Nd  Nd8  1  0.36544523  0.74991869  0.22954418  1
  Nd  Nd9  1  0.34723435  0.24121110  0.22298132  1
  Nd  Nd10  1  0.76823119  0.79786003  0.13477139  1
  Nd  Nd11  1  0.77827707  0.28966857  0.12399939  1
  Si  Si12  1  0.33744514  0.06507760  0.66991597  1
  Si  Si13  1  0.32941590  0.56787059  0.66397117  1
  Si  Si14  1  0.66715582  0.98642836  0.33387401  1
  Si  Si15  1  0.66649747  0.48531868  0.33318800  1
  Si  Si16  1  0.99948287  0.71914596  0.00031904  1
  Se  Se17  1  0.33387719  0.87924776  0.66730326  1
  Se  Se18  1  0.33346113  0.37987975  0.66643570  1
  Se  Se19  1  0.65963505  0.30479944  0.32054587  1
  Se  Se20  1  0.67388405  0.79268369  0.34635094  1
  Se  Se21  1  0.25941625  0.01665206  0.16431833  1
  Se  Se22  1  0.23700052  0.53153174  0.15340324  1
  Se  Se23  1  0.83632558  0.05112227  0.09503806  1
  Se  Se24  1  0.84678551  0.56721328  0.08333360  1
  Se  Se25  1  0.91552788  0.72736186  0.76280807  1
  Se  Se26  1  0.90572988  0.22823782  0.74096132  1
  Se  Se27  1  0.77018398  0.90222599  0.85641192  1
  Se  Se28  1  0.74098443  0.43598383  0.83227605  1
  Se  Se29  1  0.14130396  0.87332277  0.91337744  1
  Se  Se30  1  0.16722065  0.39927902  0.90692480  1
  Se  Se31  1  0.09438632  0.22255139  0.26201041  1
  Se  Se32  1  0.08539296  0.71532407  0.22808235  1
  Se  Se33  1  0.47846197  0.02777933  0.89665381  1
  Se  Se34  1  0.48057092  0.52638366  0.89354307  1
  Se  Se35  1  0.11098935  0.17542845  0.59775805  1
  Se  Se36  1  0.10013603  0.68811792  0.57295876  1
  Se  Se37  1  0.42800999  0.20903754  0.53052936  1
  Se  Se38  1  0.40195631  0.71921080  0.51067809  1
  Se  Se39  1  0.52273171  0.17437007  0.10607923  1
  Se  Se40  1  0.52022778  0.67429487  0.10379087  1
  Se  Se41  1  0.89567483  0.01747177  0.41918082  1
  Se  Se42  1  0.89473051  0.51898008  0.41395874  1
  Se  Se43  1  0.58455500  0.98746034  0.48003927  1
  Se  Se44  1  0.58177568  0.48719597  0.47660159  1
