# generated using pymatgen
data_NdTa7O19
_symmetry_space_group_name_H-M   'P 1'
_cell_length_a   6.31080809
_cell_length_b   6.31078465
_cell_length_c   20.21671890
_cell_angle_alpha   90.00000000
_cell_angle_beta   90.00000000
_cell_angle_gamma   120.00007737
_symmetry_Int_Tables_number   1
_chemical_formula_structural   NdTa7O19
_chemical_formula_sum   'Nd2 Ta14 O38'
_cell_volume   697.28335755
_cell_formula_units_Z   2
loop_
 _symmetry_equiv_pos_site_id
 _symmetry_equiv_pos_as_xyz
  1  'x, y, z'
loop_
 _atom_site_type_symbol
 _atom_site_label
 _atom_site_symmetry_multiplicity
 _atom_site_fract_x
 _atom_site_fract_y
 _atom_site_fract_z
 _atom_site_occupancy
  Nd  Nd0  1  0.66667631  0.33333717  0.50000003  1
  Nd  Nd1  1  0.33332369  0.66666283  0.00000003  1
  Ta  Ta2  1  0.64148919  0.99640574  0.65559471  1
  Ta  Ta3  1  0.35493840  0.35851991  0.65559407  1
  Ta  Ta4  1  0.00360108  0.64506832  0.65559494  1
  Ta  Ta5  1  0.35491972  0.99640817  0.34440568  1
  Ta  Ta6  1  0.64147005  0.64506987  0.34440434  1
  Ta  Ta7  1  0.00358530  0.35852306  0.34440561  1
  Ta  Ta8  1  0.35851081  0.00359426  0.15559471  1
  Ta  Ta9  1  0.64506160  0.64148009  0.15559407  1
  Ta  Ta10  1  0.99639892  0.35493168  0.15559494  1
  Ta  Ta11  1  0.64508028  0.00359183  0.84440568  1
  Ta  Ta12  1  0.35852995  0.35493013  0.84440434  1
  Ta  Ta13  1  0.99641470  0.64147694  0.84440561  1
  Ta  Ta14  1  0.33334168  0.66667164  0.50000018  1
  Ta  Ta15  1  0.66665832  0.33332836  0.00000018  1
  O  O16  1  0.66667456  0.33333205  0.63673807  1
  O  O17  1  0.33334311  0.66666686  0.66061115  1
  O  O18  1  0.33332818  0.66666872  0.33938887  1
  O  O19  1  0.66666030  0.33333231  0.36326186  1
  O  O20  1  0.33332544  0.66666795  0.13673807  1
  O  O21  1  0.66665689  0.33333314  0.16061115  1
  O  O22  1  0.66667182  0.33333128  0.83938887  1
  O  O23  1  0.33333970  0.66666769  0.86326186  1
  O  O24  1  0.61733308  0.04904675  0.94356252  1
  O  O25  1  0.43171702  0.38266470  0.94356175  1
  O  O26  1  0.95094963  0.56828249  0.94356155  1
  O  O27  1  0.43170625  0.04904814  0.05643740  1
  O  O28  1  0.61732646  0.56828228  0.05643732  1
  O  O29  1  0.95094190  0.38266661  0.05643909  1
  O  O30  1  0.38266692  0.95095325  0.44356252  1
  O  O31  1  0.56828298  0.61733530  0.44356175  1
  O  O32  1  0.04905037  0.43171751  0.44356155  1
  O  O33  1  0.56829375  0.95095186  0.55643740  1
  O  O34  1  0.38267354  0.43171772  0.55643732  1
  O  O35  1  0.04905810  0.61733339  0.55643909  1
  O  O36  1  0.99751914  0.24118374  0.65290598  1
  O  O37  1  0.24368240  0.00249020  0.65290545  1
  O  O38  1  0.75882517  0.75632472  0.65290637  1
  O  O39  1  0.99750264  0.75632467  0.34709444  1
  O  O40  1  0.75881413  0.00249103  0.34709397  1
  O  O41  1  0.24367045  0.24118667  0.34709413  1
  O  O42  1  0.00248086  0.75881626  0.15290598  1
  O  O43  1  0.75631760  0.99750980  0.15290545  1
  O  O44  1  0.24117483  0.24367528  0.15290637  1
  O  O45  1  0.00249736  0.24367533  0.84709444  1
  O  O46  1  0.24118587  0.99750897  0.84709397  1
  O  O47  1  0.75632955  0.75881333  0.84709413  1
  O  O48  1  0.60623726  0.99999950  0.75000029  1
  O  O49  1  0.39378077  0.39377214  0.74999964  1
  O  O50  1  0.00000775  0.60622560  0.75000058  1
  O  O51  1  0.39376274  0.00000050  0.25000029  1
  O  O52  1  0.60621923  0.60622786  0.24999964  1
  O  O53  1  0.99999225  0.39377440  0.25000058  1
