# generated using pymatgen
data_Na2(NbSe2)3
_symmetry_space_group_name_H-M   'P 1'
_cell_length_a   3.55843958
_cell_length_b   3.55843958
_cell_length_c   45.44959717
_cell_angle_alpha   90.00024039
_cell_angle_beta   89.99975961
_cell_angle_gamma   120.00065033
_symmetry_Int_Tables_number   1
_chemical_formula_structural   Na2(NbSe2)3
_chemical_formula_sum   'Na4 Nb6 Se12'
_cell_volume   498.39883210
_cell_formula_units_Z   2
loop_
 _symmetry_equiv_pos_site_id
 _symmetry_equiv_pos_as_xyz
  1  'x, y, z'
loop_
 _atom_site_type_symbol
 _atom_site_label
 _atom_site_symmetry_multiplicity
 _atom_site_fract_x
 _atom_site_fract_y
 _atom_site_fract_z
 _atom_site_occupancy
  Na  Na0  1  0.66669611  0.33330389  0.08320917  1
  Na  Na1  1  0.66669238  0.33330762  0.41680790  1
  Na  Na2  1  0.66669666  0.33330334  0.75000766  1
  Na  Na3  1  0.66669651  0.33330349  0.24998906  1
  Nb  Nb4  1  0.66667768  0.33332232  0.33333661  1
  Nb  Nb5  1  0.66667804  0.33332196  0.66622817  1
  Nb  Nb6  1  0.66667812  0.33332188  0.99960483  1
  Nb  Nb7  1  0.33332376  0.66667624  0.16668150  1
  Nb  Nb8  1  0.33332363  0.66667637  0.50038139  1
  Nb  Nb9  1  0.33332252  0.66667748  0.83378567  1
  Se  Se10  1  0.00001032  0.99998968  0.03644360  1
  Se  Se11  1  0.00000917  0.99999083  0.36978242  1
  Se  Se12  1  0.00000997  0.99999003  0.70312379  1
  Se  Se13  1  0.00001245  0.99998755  0.29686286  1
  Se  Se14  1  0.00000886  0.99999114  0.63036014  1
  Se  Se15  1  0.00000917  0.99999083  0.96367427  1
  Se  Se16  1  0.99999282  0.00000718  0.13022297  1
  Se  Se17  1  0.99999433  0.00000567  0.46351102  1
  Se  Se18  1  0.99999280  0.00000720  0.79688140  1
  Se  Se19  1  0.99999317  0.00000683  0.20317261  1
  Se  Se20  1  0.99999105  0.00000895  0.53629151  1
  Se  Se21  1  0.99999047  0.00000953  0.86964147  1
