# generated using pymatgen
data_Mn3FeAs4
_symmetry_space_group_name_H-M   'P 1'
_cell_length_a   3.47291002
_cell_length_b   5.42667551
_cell_length_c   6.02083981
_cell_angle_alpha   90.18690503
_cell_angle_beta   90.00000000
_cell_angle_gamma   90.00000000
_symmetry_Int_Tables_number   1
_chemical_formula_structural   Mn3FeAs4
_chemical_formula_sum   'Mn3 Fe1 As4'
_cell_volume   113.47028529
_cell_formula_units_Z   1
loop_
 _symmetry_equiv_pos_site_id
 _symmetry_equiv_pos_as_xyz
  1  'x, y, z'
loop_
 _atom_site_type_symbol
 _atom_site_label
 _atom_site_symmetry_multiplicity
 _atom_site_fract_x
 _atom_site_fract_y
 _atom_site_fract_z
 _atom_site_occupancy
  Mn  Mn0  1  0.75000000  0.99221646  0.80574751  1
  Mn  Mn1  1  0.25000000  0.50213167  0.30282604  1
  Mn  Mn2  1  0.25000000  0.00145538  0.19346363  1
  Fe  Fe3  1  0.75000000  0.49794195  0.69530656  1
  As  As4  1  0.75000000  0.30293701  0.07782170  1
  As  As5  1  0.75000000  0.80428775  0.42203020  1
  As  As6  1  0.25000000  0.69077396  0.91170260  1
  As  As7  1  0.25000000  0.20825581  0.59110176  1
