# generated using pymatgen
data_Cd3FeSe4
_symmetry_space_group_name_H-M   'P 1'
_cell_length_a   4.30908569
_cell_length_b   4.29880308
_cell_length_c   14.12132244
_cell_angle_alpha   90.00000000
_cell_angle_beta   90.20360929
_cell_angle_gamma   60.07891279
_symmetry_Int_Tables_number   1
_chemical_formula_structural   Cd3FeSe4
_chemical_formula_sum   'Cd3 Fe1 Se4'
_cell_volume   226.71477530
_cell_formula_units_Z   1
loop_
 _symmetry_equiv_pos_site_id
 _symmetry_equiv_pos_as_xyz
  1  'x, y, z'
loop_
 _atom_site_type_symbol
 _atom_site_label
 _atom_site_symmetry_multiplicity
 _atom_site_fract_x
 _atom_site_fract_y
 _atom_site_fract_z
 _atom_site_occupancy
  Cd  Cd0  1  0.66560079  0.66719960  0.23722554  1
  Cd  Cd1  1  0.66791649  0.66604176  0.75768711  1
  Cd  Cd2  1  0.33110563  0.33444719  0.49885863  1
  Fe  Fe3  1  0.33085131  0.33457435  0.00413528  1
  Se  Se4  1  0.66930682  0.66534659  0.04664048  1
  Se  Se5  1  0.66840899  0.66579550  0.56821594  1
  Se  Se6  1  0.33296428  0.33351786  0.30836458  1
  Se  Se7  1  0.33384569  0.33307716  0.82887245  1
