# generated using pymatgen
data_Mn4Cr(Co2Si)5
_symmetry_space_group_name_H-M   'P 1'
_cell_length_a   3.98851804
_cell_length_b   3.98851804
_cell_length_c   16.45000019
_cell_angle_alpha   96.96318414
_cell_angle_beta   83.03681586
_cell_angle_gamma   120.00000000
_symmetry_Int_Tables_number   1
_chemical_formula_structural   Mn4Cr(Co2Si)5
_chemical_formula_sum   'Mn4 Cr1 Co10 Si5'
_cell_volume   224.39964760
_cell_formula_units_Z   1
loop_
 _symmetry_equiv_pos_site_id
 _symmetry_equiv_pos_as_xyz
  1  'x, y, z'
loop_
 _atom_site_type_symbol
 _atom_site_label
 _atom_site_symmetry_multiplicity
 _atom_site_fract_x
 _atom_site_fract_y
 _atom_site_fract_z
 _atom_site_occupancy
  Mn  Mn0  1  0.59998860  0.40001140  0.20003421  1
  Mn  Mn1  1  0.19998318  0.80001682  0.40005045  1
  Mn  Mn2  1  0.80001682  0.19998318  0.59994955  1
  Mn  Mn3  1  0.40001140  0.59998860  0.79996579  1
  Cr  Cr4  1  0.00000000  -0.00000000  -0.00000000  1
  Co  Co5  1  0.05003907  0.94996093  0.84988278  1
  Co  Co6  1  0.85001937  0.14998063  0.44994190  1
  Co  Co7  1  0.44999318  0.55000682  0.65002047  1
  Co  Co8  1  0.64999578  0.35000422  0.05001265  1
  Co  Co9  1  0.25001969  0.74998031  0.24994092  1
  Co  Co10  1  0.35000422  0.64999578  0.94998735  1
  Co  Co11  1  0.14998063  0.85001937  0.55005810  1
  Co  Co12  1  0.74998031  0.25001969  0.75005908  1
  Co  Co13  1  0.94996093  0.05003907  0.15011722  1
  Co  Co14  1  0.55000682  0.44999318  0.34997953  1
  Si  Si15  1  0.69994136  0.30005864  0.90017591  1
  Si  Si16  1  0.50000000  0.50000000  0.50000000  1
  Si  Si17  1  0.10003935  0.89996065  0.69988194  1
  Si  Si18  1  0.30005864  0.69994136  0.09982409  1
  Si  Si19  1  0.89996065  0.10003935  0.30011806  1
