# generated using pymatgen
data_Na2Al3As9O28
_symmetry_space_group_name_H-M   'P 1'
_cell_length_a   7.63168166
_cell_length_b   9.05199290
_cell_length_c   9.60497116
_cell_angle_alpha   63.72228755
_cell_angle_beta   75.82440046
_cell_angle_gamma   100.84282429
_symmetry_Int_Tables_number   1
_chemical_formula_structural   Na2Al3As9O28
_chemical_formula_sum   'Na2 Al3 As9 O28'
_cell_volume   542.24851283
_cell_formula_units_Z   1
loop_
 _symmetry_equiv_pos_site_id
 _symmetry_equiv_pos_as_xyz
  1  'x, y, z'
loop_
 _atom_site_type_symbol
 _atom_site_label
 _atom_site_symmetry_multiplicity
 _atom_site_fract_x
 _atom_site_fract_y
 _atom_site_fract_z
 _atom_site_occupancy
  Na  Na0  1  0.51111143  0.98851938  0.03212644  1
  Na  Na1  1  0.48888857  0.51148062  0.46787356  1
  Al  Al2  1  0.00377360  0.99726758  0.00272319  1
  Al  Al3  1  0.99622640  0.50273242  0.49727681  1
  Al  Al4  1  0.50000000  0.25000000  0.25000000  1
  As  As5  1  0.73144707  0.46267495  0.84148800  1
  As  As6  1  0.73733781  0.97231477  0.34000445  1
  As  As7  1  0.26855293  0.03732505  0.65851200  1
  As  As8  1  0.26266219  0.52768523  0.15999555  1
  As  As9  1  0.13049881  0.92361050  0.32225914  1
  As  As10  1  0.12424765  0.42445851  0.81969061  1
  As  As11  1  0.86950119  0.57638950  0.17774086  1
  As  As12  1  0.87575235  0.07554149  0.68030939  1
  As  As13  1  0.50000000  0.75000000  0.75000000  1
  O  O14  1  0.68995255  0.15619428  0.29684770  1
  O  O15  1  0.69326755  0.66207832  0.79251552  1
  O  O16  1  0.31004745  0.34380572  0.20315230  1
  O  O17  1  0.30673245  0.83792168  0.70748448  1
  O  O18  1  0.04631911  0.71642332  0.48520605  1
  O  O19  1  0.04907354  0.21961077  0.98337460  1
  O  O20  1  0.95368089  0.78357668  0.01479395  1
  O  O21  1  0.95092646  0.28038923  0.51662540  1
  O  O22  1  0.95895154  0.52919311  0.85872299  1
  O  O23  1  0.95939059  0.02343900  0.36423837  1
  O  O24  1  0.04104846  0.97080689  0.64127701  1
  O  O25  1  0.04060941  0.47656100  0.13576163  1
  O  O26  1  0.34104932  0.02498792  0.32113115  1
  O  O27  1  0.34106088  0.52544261  0.82576846  1
  O  O28  1  0.65895068  0.47501208  0.17886885  1
  O  O29  1  0.65893912  0.97455739  0.67423154  1
  O  O30  1  0.76433839  0.40989442  0.69092351  1
  O  O31  1  0.75761881  0.90652753  0.19698571  1
  O  O32  1  0.23566161  0.09010558  0.80907649  1
  O  O33  1  0.24238119  0.59347247  0.30301429  1
  O  O34  1  0.58128267  0.28264946  0.02460829  1
  O  O35  1  0.58082377  0.78036751  0.53165327  1
  O  O36  1  0.41871733  0.21735054  0.47539171  1
  O  O37  1  0.41917623  0.71963249  0.96834673  1
  O  O38  1  0.16203125  0.94467773  0.13149049  1
  O  O39  1  0.16353807  0.44711492  0.62848327  1
  O  O40  1  0.83796875  0.55532227  0.36850951  1
  O  O41  1  0.83646193  0.05288508  0.87151673  1
