# generated using pymatgen
data_Na4Eu2GeAs4
_symmetry_space_group_name_H-M   'P 1'
_cell_length_a   7.35238840
_cell_length_b   9.61636742
_cell_length_c   9.68532615
_cell_angle_alpha   59.77237635
_cell_angle_beta   90.65986307
_cell_angle_gamma   90.33352721
_symmetry_Int_Tables_number   1
_chemical_formula_structural   Na4Eu2GeAs4
_chemical_formula_sum   'Na8 Eu4 Ge2 As8'
_cell_volume   591.63635995
_cell_formula_units_Z   2
loop_
 _symmetry_equiv_pos_site_id
 _symmetry_equiv_pos_as_xyz
  1  'x, y, z'
loop_
 _atom_site_type_symbol
 _atom_site_label
 _atom_site_symmetry_multiplicity
 _atom_site_fract_x
 _atom_site_fract_y
 _atom_site_fract_z
 _atom_site_occupancy
  Na  Na0  1  0.37981521  0.52365653  0.52311156  1
  Na  Na1  1  0.87982177  0.47634388  0.04677052  1
  Na  Na2  1  0.19905010  0.14498029  0.14257647  1
  Na  Na3  1  0.20456061  0.14834740  0.71078503  1
  Na  Na4  1  0.20298355  0.71013554  0.14747664  1
  Na  Na5  1  0.70457383  0.85164641  0.85913676  1
  Na  Na6  1  0.69904931  0.85502715  0.28754169  1
  Na  Na7  1  0.70299087  0.28987359  0.85761510  1
  Eu  Eu8  1  0.37977193  0.52149585  0.95409658  1
  Eu  Eu9  1  0.38001622  0.95296653  0.52118190  1
  Eu  Eu10  1  0.87979248  0.47846873  0.47560315  1
  Eu  Eu11  1  0.88001781  0.04703460  0.47415555  1
  Ge  Ge12  1  0.50203458  0.33513036  0.33459012  1
  Ge  Ge13  1  0.00203654  0.66487205  0.66968955  1
  As  As14  1  0.15719587  0.32900504  0.33534136  1
  As  As15  1  0.65720297  0.67100605  0.66422499  1
  As  As16  1  0.10827235  0.81201239  0.80635765  1
  As  As17  1  0.10052247  0.81034562  0.38212202  1
  As  As18  1  0.10374241  0.38220339  0.80726959  1
  As  As19  1  0.60050742  0.18967255  0.19248279  1
  As  As20  1  0.60830836  0.18798541  0.61839130  1
  As  As21  1  0.60373334  0.61779064  0.18947967  1
