# generated using pymatgen
data_Mn3CoP4
_symmetry_space_group_name_H-M   'P 1'
_cell_length_a   3.11820139
_cell_length_b   5.15599327
_cell_length_c   5.83878392
_cell_angle_alpha   90.24887040
_cell_angle_beta   90.00000000
_cell_angle_gamma   90.00000000
_symmetry_Int_Tables_number   1
_chemical_formula_structural   Mn3CoP4
_chemical_formula_sum   'Mn3 Co1 P4'
_cell_volume   93.87172722
_cell_formula_units_Z   1
loop_
 _symmetry_equiv_pos_site_id
 _symmetry_equiv_pos_as_xyz
  1  'x, y, z'
loop_
 _atom_site_type_symbol
 _atom_site_label
 _atom_site_symmetry_multiplicity
 _atom_site_fract_x
 _atom_site_fract_y
 _atom_site_fract_z
 _atom_site_occupancy
  Mn  Mn0  1  0.75000000  0.99644378  0.80575216  1
  Mn  Mn1  1  0.25000000  0.50186804  0.29277366  1
  Mn  Mn2  1  0.25000000  0.00074416  0.20300834  1
  Co  Co3  1  0.75000000  0.49756100  0.69812382  1
  P  P4  1  0.75000000  0.31158223  0.06592756  1
  P  P5  1  0.75000000  0.81490719  0.43744786  1
  P  P6  1  0.25000000  0.68636338  0.92593334  1
  P  P7  1  0.25000000  0.19053022  0.57103326  1
