# generated using pymatgen
data_Na2Zn11(MoO4)12
_symmetry_space_group_name_H-M   'P 1'
_cell_length_a   9.84545932
_cell_length_b   11.00642437
_cell_length_c   11.44089651
_cell_angle_alpha   66.14943927
_cell_angle_beta   98.93502793
_cell_angle_gamma   86.41763676
_symmetry_Int_Tables_number   1
_chemical_formula_structural   Na2Zn11(MoO4)12
_chemical_formula_sum   'Na2 Zn11 Mo12 O48'
_cell_volume   1109.31949564
_cell_formula_units_Z   1
loop_
 _symmetry_equiv_pos_site_id
 _symmetry_equiv_pos_as_xyz
  1  'x, y, z'
loop_
 _atom_site_type_symbol
 _atom_site_label
 _atom_site_symmetry_multiplicity
 _atom_site_fract_x
 _atom_site_fract_y
 _atom_site_fract_z
 _atom_site_occupancy
  Na  Na0  1  0.25094990  0.75397069  0.25058841  1
  Na  Na1  1  0.75053741  0.24931345  0.75187684  1
  Zn  Zn2  1  0.38601554  0.26360820  0.84921490  1
  Zn  Zn3  1  0.88659676  0.76813628  0.33826326  1
  Zn  Zn4  1  0.10838745  0.23623719  0.66209292  1
  Zn  Zn5  1  0.60660493  0.73666543  0.16387827  1
  Zn  Zn6  1  0.86614713  0.31712890  0.16136398  1
  Zn  Zn7  1  0.36127691  0.82505622  0.65569216  1
  Zn  Zn8  1  0.63085819  0.18058892  0.33084059  1
  Zn  Zn9  1  0.14127643  0.67387584  0.84265640  1
  Zn  Zn10  1  0.87284319  0.65097558  0.64948038  1
  Zn  Zn11  1  0.13019886  0.34504397  0.34840485  1
  Zn  Zn12  1  0.62703361  0.84923866  0.85032900  1
  Mo  Mo13  1  0.61888873  0.52844142  0.84710155  1
  Mo  Mo14  1  0.11687077  0.02479706  0.34927123  1
  Mo  Mo15  1  0.88049837  0.97217451  0.65270522  1
  Mo  Mo16  1  0.38130621  0.47388251  0.15382093  1
  Mo  Mo17  1  0.56421167  0.84119206  0.39776025  1
  Mo  Mo18  1  0.06164882  0.34339212  0.89407339  1
  Mo  Mo19  1  0.93587218  0.65843524  0.10277390  1
  Mo  Mo20  1  0.43640380  0.15798509  0.60394637  1
  Mo  Mo21  1  0.81671990  0.42734756  0.40414409  1
  Mo  Mo22  1  0.31570447  0.92771601  0.90368951  1
  Mo  Mo23  1  0.68307294  0.07260932  0.09469331  1
  Mo  Mo24  1  0.18429185  0.57249998  0.59609130  1
  O  O25  1  0.55724182  0.01873872  0.31390958  1
  O  O26  1  0.04335243  0.52923411  0.80018030  1
  O  O27  1  0.95163083  0.47543082  0.19402404  1
  O  O28  1  0.45566189  0.97349455  0.69708603  1
  O  O29  1  0.74507817  0.53259712  0.74650208  1
  O  O30  1  0.23789830  0.01432895  0.25693730  1
  O  O31  1  0.75418082  0.96676648  0.75393599  1
  O  O32  1  0.25291162  0.46716521  0.25519714  1
  O  O33  1  0.50537113  0.12926939  0.01596818  1
  O  O34  1  0.99805807  0.62957799  0.52474420  1
  O  O35  1  0.00331705  0.36849692  0.47423196  1
  O  O36  1  0.50200423  0.86842563  0.97394172  1
  O  O37  1  0.46709962  0.31048118  0.19772200  1
  O  O38  1  0.95544392  0.79882893  0.69400385  1
  O  O39  1  0.04502442  0.20437081  0.30394683  1
  O  O40  1  0.54445389  0.70228995  0.80565979  1
  O  O41  1  0.49397073  0.42505518  0.82470421  1
  O  O42  1  0.98804727  0.92193141  0.32934788  1
  O  O43  1  0.00588248  0.07562816  0.67399722  1
  O  O44  1  0.50539778  0.58049084  0.17345245  1
  O  O45  1  0.48957150  0.77151529  0.28815491  1
  O  O46  1  0.98922691  0.27162262  0.78506961  1
  O  O47  1  0.00954512  0.72864905  0.21064754  1
  O  O48  1  0.50893697  0.22950100  0.71042545  1
  O  O49  1  0.70688309  0.45648721  0.01140511  1
  O  O50  1  0.20506087  0.95523770  0.51593134  1
  O  O51  1  0.79338763  0.04629343  0.48832046  1
  O  O52  1  0.29544271  0.54219359  0.98655171  1
  O  O53  1  0.74595052  0.16855647  0.18631867  1
  O  O54  1  0.25110640  0.66509079  0.68746219  1
  O  O55  1  0.75157897  0.33345499  0.31509923  1
  O  O56  1  0.24960669  0.83446490  0.81318719  1
  O  O57  1  0.96992502  0.30741480  0.02273110  1
  O  O58  1  0.47031429  0.80599858  0.52490811  1
  O  O59  1  0.53187354  0.19190706  0.47908139  1
  O  O60  1  0.03053170  0.69312510  0.97671236  1
  O  O61  1  0.71584603  0.88680074  0.19200750  1
  O  O62  1  0.22126578  0.38967549  0.69074774  1
  O  O63  1  0.78275811  0.61050085  0.30627235  1
  O  O64  1  0.28037485  0.11075350  0.80513241  1
  O  O65  1  0.74510627  0.76400710  0.47552839  1
  O  O66  1  0.23834597  0.27575410  0.96054984  1
  O  O67  1  0.75675223  0.73339829  0.02498517  1
  O  O68  1  0.25671117  0.23261302  0.52757584  1
  O  O69  1  0.77287400  0.11035445  0.96797461  1
  O  O70  1  0.26728669  0.61172649  0.46525830  1
  O  O71  1  0.73323622  0.38857534  0.53502216  1
  O  O72  1  0.23145830  0.88751346  0.03349359  1
