# generated using pymatgen
data_MnFeSiO4
_symmetry_space_group_name_H-M   'P 1'
_cell_length_a   4.93289298
_cell_length_b   6.27828115
_cell_length_c   10.58583846
_cell_angle_alpha   90.00000000
_cell_angle_beta   90.00000000
_cell_angle_gamma   90.00000000
_symmetry_Int_Tables_number   1
_chemical_formula_structural   MnFeSiO4
_chemical_formula_sum   'Mn4 Fe4 Si4 O16'
_cell_volume   327.84435937
_cell_formula_units_Z   4
loop_
 _symmetry_equiv_pos_site_id
 _symmetry_equiv_pos_as_xyz
  1  'x, y, z'
loop_
 _atom_site_type_symbol
 _atom_site_label
 _atom_site_symmetry_multiplicity
 _atom_site_fract_x
 _atom_site_fract_y
 _atom_site_fract_z
 _atom_site_occupancy
  Mn  Mn0  1  0.50000000  -0.00000000  0.50000000  1
  Mn  Mn1  1  0.00000000  0.50000000  0.00000000  1
  Mn  Mn2  1  0.50000000  0.50000000  0.50000000  1
  Mn  Mn3  1  -0.00000000  0.00000000  0.00000000  1
  Fe  Fe4  1  0.48234431  0.75000000  0.21988530  1
  Fe  Fe5  1  0.01765569  0.75000000  0.71988530  1
  Fe  Fe6  1  0.51765569  0.25000000  0.78011470  1
  Fe  Fe7  1  0.98234431  0.25000000  0.28011470  1
  Si  Si8  1  0.92935291  0.75000000  0.40153381  1
  Si  Si9  1  0.57064709  0.75000000  0.90153381  1
  Si  Si10  1  0.07064709  0.25000000  0.59846619  1
  Si  Si11  1  0.42935291  0.25000000  0.09846619  1
  O  O12  1  0.78784028  0.96049225  0.33347388  1
  O  O13  1  0.71215972  0.53950775  0.83347388  1
  O  O14  1  0.21215972  0.46049225  0.66652612  1
  O  O15  1  0.28784028  0.03950775  0.16652612  1
  O  O16  1  0.21215972  0.03950775  0.66652612  1
  O  O17  1  0.28784028  0.46049225  0.16652612  1
  O  O18  1  0.78784028  0.53950775  0.33347388  1
  O  O19  1  0.71215972  0.96049225  0.83347388  1
  O  O20  1  0.70565949  0.75000000  0.04644903  1
  O  O21  1  0.79434051  0.75000000  0.54644903  1
  O  O22  1  0.29434051  0.25000000  0.95355097  1
  O  O23  1  0.20565949  0.25000000  0.45355097  1
  O  O24  1  0.26063266  0.75000000  0.40420640  1
  O  O25  1  0.23936734  0.75000000  0.90420640  1
  O  O26  1  0.73936734  0.25000000  0.59579360  1
  O  O27  1  0.76063266  0.25000000  0.09579360  1
