# generated using pymatgen
data_LiZnBO3
_symmetry_space_group_name_H-M   'P 1'
_cell_length_a   5.15353379
_cell_length_b   5.15353379
_cell_length_c   6.17651020
_cell_angle_alpha   65.40046286
_cell_angle_beta   90.26476707
_cell_angle_gamma   120.43992062
_symmetry_Int_Tables_number   1
_chemical_formula_structural   LiZnBO3
_chemical_formula_sum   'Li2 Zn2 B2 O6'
_cell_volume   124.06188364
_cell_formula_units_Z   2
loop_
 _symmetry_equiv_pos_site_id
 _symmetry_equiv_pos_as_xyz
  1  'x, y, z'
loop_
 _atom_site_type_symbol
 _atom_site_label
 _atom_site_symmetry_multiplicity
 _atom_site_fract_x
 _atom_site_fract_y
 _atom_site_fract_z
 _atom_site_occupancy
  Li  Li0  1  0.22911243  0.62330073  0.31125846  1
  Li  Li1  1  0.06544080  0.95962911  0.81125846  1
  Zn  Zn2  1  0.89035003  0.94735920  0.32967745  1
  Zn  Zn3  1  0.72296334  0.27997252  0.82967745  1
  B  B4  1  0.40873230  0.66541093  0.74869332  1
  B  B5  1  0.58589575  0.34257438  0.24869332  1
  O  O6  1  0.14684259  0.40532053  0.73088358  1
  O  O7  1  0.86379589  0.62227383  0.23088358  1
  O  O8  1  0.40158916  0.90504266  0.78568380  1
  O  O9  1  0.69514575  0.69153819  0.70880338  1
  O  O10  1  0.59965842  0.09605087  0.20880338  1
  O  O11  1  0.30927354  0.31272704  0.28568380  1
