# generated using pymatgen
data_Mn3V2O8
_symmetry_space_group_name_H-M   'P 1'
_cell_length_a   7.13048534
_cell_length_b   7.13048534
_cell_length_c   11.13356097
_cell_angle_alpha   71.32347522
_cell_angle_beta   71.32347522
_cell_angle_gamma   90.00000000
_symmetry_Int_Tables_number   1
_chemical_formula_structural   Mn3V2O8
_chemical_formula_sum   'Mn9 V6 O24'
_cell_volume   504.69827204
_cell_formula_units_Z   3
loop_
 _symmetry_equiv_pos_site_id
 _symmetry_equiv_pos_as_xyz
  1  'x, y, z'
loop_
 _atom_site_type_symbol
 _atom_site_label
 _atom_site_symmetry_multiplicity
 _atom_site_fract_x
 _atom_site_fract_y
 _atom_site_fract_z
 _atom_site_occupancy
  Mn  Mn0  1  0.52245101  0.02245101  0.95509797  1
  Mn  Mn1  1  0.22604913  0.22604913  0.54790174  1
  Mn  Mn2  1  0.97754899  0.47754899  0.04490203  1
  Mn  Mn3  1  0.77395087  0.77395087  0.45209826  1
  Mn  Mn4  1  0.25000000  0.75000000  0.50000000  1
  Mn  Mn5  1  0.37733882  0.88252661  0.75324736  1
  Mn  Mn6  1  0.86941382  0.36422603  0.75324736  1
  Mn  Mn7  1  0.11747339  0.13058618  0.24675264  1
  Mn  Mn8  1  0.63577397  0.62266118  0.24675264  1
  V  V9  1  0.37336906  0.47296533  0.74868303  1
  V  V10  1  0.87794791  0.77835163  0.74868303  1
  V  V11  1  0.52703467  0.12205209  0.25131697  1
  V  V12  1  0.22164837  0.62663094  0.25131697  1
  V  V13  1  0.75000000  0.25000000  0.50000000  1
  V  V14  1  -0.00000000  -0.00000000  0.00000000  1
  O  O15  1  0.49961917  0.15122230  0.58834701  1
  O  O16  1  0.25101517  0.99535922  0.91102402  1
  O  O17  1  0.91203382  0.26043069  0.58834701  1
  O  O18  1  0.83796081  0.09361676  0.91102402  1
  O  O19  1  0.84877770  0.08796618  0.41165299  1
  O  O20  1  0.90638324  0.74898483  0.08897598  1
  O  O21  1  0.73956931  0.50038083  0.41165299  1
  O  O22  1  0.00464078  0.16203919  0.08897598  1
  O  O23  1  0.47207847  0.70033575  0.60594112  1
  O  O24  1  0.25898073  0.56252053  0.87783632  1
  O  O25  1  0.92198041  0.69372313  0.60594112  1
  O  O26  1  0.86318295  0.55964315  0.87783632  1
  O  O27  1  0.29966425  0.07801959  0.39405888  1
  O  O28  1  0.44035685  0.74101927  0.12216368  1
  O  O29  1  0.30627687  0.52792153  0.39405888  1
  O  O30  1  0.43747947  0.13681705  0.12216368  1
  O  O31  1  0.07717765  0.80819117  0.29939047  1
  O  O32  1  0.67189270  0.34567469  0.20871396  1
  O  O33  1  0.62343188  0.89241835  0.29939047  1
  O  O34  1  0.11939334  0.44561135  0.20871396  1
  O  O35  1  0.19180883  0.37656812  0.70060953  1
  O  O36  1  0.55438865  0.32810730  0.79128604  1
  O  O37  1  0.10758165  0.92282235  0.70060953  1
  O  O38  1  0.65432531  0.88060666  0.79128604  1
