# generated using pymatgen
data_LaAlCuNi3
_symmetry_space_group_name_H-M   'P 1'
_cell_length_a   4.07132467
_cell_length_b   5.18175215
_cell_length_c   5.02814602
_cell_angle_alpha   60.05989447
_cell_angle_beta   90.00000000
_cell_angle_gamma   90.00000000
_symmetry_Int_Tables_number   1
_chemical_formula_structural   LaAlCuNi3
_chemical_formula_sum   'La1 Al1 Cu1 Ni3'
_cell_volume   91.92056454
_cell_formula_units_Z   1
loop_
 _symmetry_equiv_pos_site_id
 _symmetry_equiv_pos_as_xyz
  1  'x, y, z'
loop_
 _atom_site_type_symbol
 _atom_site_label
 _atom_site_symmetry_multiplicity
 _atom_site_fract_x
 _atom_site_fract_y
 _atom_site_fract_z
 _atom_site_occupancy
  La  La0  1  -0.00000000  0.00000714  0.00001015  1
  Al  Al1  1  0.50000000  0.49999876  -0.00000026  1
  Cu  Cu2  1  0.50000000  0.99997304  0.50001592  1
  Ni  Ni3  1  -0.00000000  0.33729610  0.33042686  1
  Ni  Ni4  1  -0.00000000  0.66263099  0.66964541  1
  Ni  Ni5  1  0.50000000  0.49999398  0.50000192  1
