# generated using pymatgen
data_MgCoNi
_symmetry_space_group_name_H-M   'P 1'
_cell_length_a   4.88011892
_cell_length_b   4.79394253
_cell_length_c   7.75223634
_cell_angle_alpha   90.00000000
_cell_angle_beta   90.00000000
_cell_angle_gamma   119.52643943
_symmetry_Int_Tables_number   1
_chemical_formula_structural   MgCoNi
_chemical_formula_sum   'Mg4 Co4 Ni4'
_cell_volume   157.80965200
_cell_formula_units_Z   4
loop_
 _symmetry_equiv_pos_site_id
 _symmetry_equiv_pos_as_xyz
  1  'x, y, z'
loop_
 _atom_site_type_symbol
 _atom_site_label
 _atom_site_symmetry_multiplicity
 _atom_site_fract_x
 _atom_site_fract_y
 _atom_site_fract_z
 _atom_site_occupancy
  Mg  Mg0  1  0.66698761  0.33356351  0.56242628  1
  Mg  Mg1  1  0.33352978  0.66676381  0.43516739  1
  Mg  Mg2  1  0.33352978  0.66676381  0.06483261  1
  Mg  Mg3  1  0.66698761  0.33356351  0.93757372  1
  Co  Co4  1  0.01056597  0.00535400  0.50491497  1
  Co  Co5  1  0.01056597  0.00535400  0.99508503  1
  Co  Co6  1  0.16274975  0.34096152  0.75000000  1
  Co  Co7  1  0.16274771  0.82180887  0.75000000  1
  Ni  Ni8  1  0.65411988  0.82707325  0.75000000  1
  Ni  Ni9  1  0.83014745  0.66094717  0.25000000  1
  Ni  Ni10  1  0.83019056  0.16899655  0.25000000  1
  Ni  Ni11  1  0.33787794  0.16884999  0.25000000  1
