# generated using pymatgen
data_Cd4CoS5
_symmetry_space_group_name_H-M   'P 1'
_cell_length_a   4.08792543
_cell_length_b   7.87854230
_cell_length_c   15.74198551
_cell_angle_alpha   92.44759471
_cell_angle_beta   90.00362029
_cell_angle_gamma   105.04164868
_symmetry_Int_Tables_number   1
_chemical_formula_structural   Cd4CoS5
_chemical_formula_sum   'Cd8 Co2 S10'
_cell_volume   489.14998186
_cell_formula_units_Z   2
loop_
 _symmetry_equiv_pos_site_id
 _symmetry_equiv_pos_as_xyz
  1  'x, y, z'
loop_
 _atom_site_type_symbol
 _atom_site_label
 _atom_site_symmetry_multiplicity
 _atom_site_fract_x
 _atom_site_fract_y
 _atom_site_fract_z
 _atom_site_occupancy
  Cd  Cd0  1  0.26351067  0.52674270  0.96076676  1
  Cd  Cd1  1  0.66639494  0.33283434  0.16680288  1
  Cd  Cd2  1  0.07039621  0.14088872  0.37355885  1
  Cd  Cd3  1  0.46577195  0.93154385  0.56916613  1
  Cd  Cd4  1  0.86080728  0.72169178  0.75888440  1
  Cd  Cd5  1  0.53730511  0.07470877  0.92305816  1
  Cd  Cd6  1  0.93283311  0.86563458  0.13469294  1
  Cd  Cd7  1  0.33066490  0.66158328  0.34651643  1
  Co  Co8  1  0.73013349  0.46016955  0.54304367  1
  Co  Co9  1  0.13603030  0.27209300  0.72347207  1
  S  S10  1  0.12058688  0.24119122  0.86905139  1
  S  S11  1  0.51805130  0.03603982  0.08510032  1
  S  S12  1  0.91790266  0.83596034  0.29820107  1
  S  S13  1  0.30392593  0.60780057  0.50861461  1
  S  S14  1  0.70558693  0.41117100  0.68588700  1
  S  S15  1  0.78224087  0.56417587  0.05610345  1
  S  S16  1  0.18430687  0.36864012  0.26111519  1
  S  S17  1  0.59570193  0.19143528  0.46895272  1
  S  S18  1  0.99518543  0.99029644  0.66368564  1
  S  S19  1  0.38266321  0.76539877  0.85332634  1
