# generated using pymatgen
data_LiNdO2
_symmetry_space_group_name_H-M   'P 1'
_cell_length_a   5.80147786
_cell_length_b   5.81288654
_cell_length_c   6.12945684
_cell_angle_alpha   90.00000000
_cell_angle_beta   90.00000000
_cell_angle_gamma   102.60418883
_symmetry_Int_Tables_number   1
_chemical_formula_structural   LiNdO2
_chemical_formula_sum   'Li4 Nd4 O8'
_cell_volume   201.72427145
_cell_formula_units_Z   4
loop_
 _symmetry_equiv_pos_site_id
 _symmetry_equiv_pos_as_xyz
  1  'x, y, z'
loop_
 _atom_site_type_symbol
 _atom_site_label
 _atom_site_symmetry_multiplicity
 _atom_site_fract_x
 _atom_site_fract_y
 _atom_site_fract_z
 _atom_site_occupancy
  Li  Li0  1  0.81690937  0.33425043  0.35954534  1
  Li  Li1  1  0.68309063  0.66574957  0.85954534  1
  Li  Li2  1  0.18309063  0.66574957  0.64045466  1
  Li  Li3  1  0.31690937  0.33425043  0.14045466  1
  Nd  Nd4  1  0.80317095  0.20244508  0.92888804  1
  Nd  Nd5  1  0.69682905  0.79755492  0.42888804  1
  Nd  Nd6  1  0.19682905  0.79755492  0.07111196  1
  Nd  Nd7  1  0.30317095  0.20244508  0.57111196  1
  O  O8  1  0.51499267  0.08604860  0.23951184  1
  O  O9  1  0.98500733  0.91395140  0.73951184  1
  O  O10  1  0.48500733  0.91395140  0.76048816  1
  O  O11  1  0.01499267  0.08604860  0.26048816  1
  O  O12  1  0.79586874  0.57086275  0.13278255  1
  O  O13  1  0.70413126  0.42913725  0.63278255  1
  O  O14  1  0.20413126  0.42913725  0.86721745  1
  O  O15  1  0.29586874  0.57086275  0.36721745  1
