# generated using pymatgen
data_La2CuRhO6
_symmetry_space_group_name_H-M   'P 1'
_cell_length_a   5.61447479
_cell_length_b   5.84734149
_cell_length_c   7.80675271
_cell_angle_alpha   90.00000000
_cell_angle_beta   89.77677400
_cell_angle_gamma   90.00000000
_symmetry_Int_Tables_number   1
_chemical_formula_structural   La2CuRhO6
_chemical_formula_sum   'La4 Cu2 Rh2 O12'
_cell_volume   256.29180532
_cell_formula_units_Z   2
loop_
 _symmetry_equiv_pos_site_id
 _symmetry_equiv_pos_as_xyz
  1  'x, y, z'
loop_
 _atom_site_type_symbol
 _atom_site_label
 _atom_site_symmetry_multiplicity
 _atom_site_fract_x
 _atom_site_fract_y
 _atom_site_fract_z
 _atom_site_occupancy
  La  La0  1  0.98616324  0.56190494  0.25033869  1
  La  La1  1  0.51383676  0.06190494  0.24966131  1
  La  La2  1  0.01383676  0.43809506  0.74966131  1
  La  La3  1  0.48616324  0.93809506  0.75033869  1
  Cu  Cu4  1  0.50000000  0.50000000  0.00000000  1
  Cu  Cu5  1  -0.00000000  0.00000000  0.50000000  1
  Rh  Rh6  1  0.50000000  0.50000000  0.50000000  1
  Rh  Rh7  1  -0.00000000  0.00000000  0.00000000  1
  O  O8  1  0.19072098  0.70950137  0.94954090  1
  O  O9  1  0.30927902  0.20950137  0.55045910  1
  O  O10  1  0.79603518  0.30497375  0.45137105  1
  O  O11  1  0.70396482  0.80497375  0.04862895  1
  O  O12  1  0.80927902  0.29049863  0.05045910  1
  O  O13  1  0.69072098  0.79049863  0.44954090  1
  O  O14  1  0.20396482  0.69502625  0.54862895  1
  O  O15  1  0.29603518  0.19502625  0.95137105  1
  O  O16  1  0.09578459  0.97133205  0.25217772  1
  O  O17  1  0.40421541  0.47133205  0.24782228  1
  O  O18  1  0.90421541  0.02866795  0.74782228  1
  O  O19  1  0.59578459  0.52866795  0.75217772  1
