# generated using pymatgen
data_KMgH5(SeO5)2
_symmetry_space_group_name_H-M   'P 1'
_cell_length_a   4.78319536
_cell_length_b   6.05796618
_cell_length_c   8.74319274
_cell_angle_alpha   103.58895965
_cell_angle_beta   97.65803653
_cell_angle_gamma   98.26683931
_symmetry_Int_Tables_number   1
_chemical_formula_structural   KMgH5(SeO5)2
_chemical_formula_sum   'K1 Mg1 H5 Se2 O10'
_cell_volume   239.99294776
_cell_formula_units_Z   1
loop_
 _symmetry_equiv_pos_site_id
 _symmetry_equiv_pos_as_xyz
  1  'x, y, z'
loop_
 _atom_site_type_symbol
 _atom_site_label
 _atom_site_symmetry_multiplicity
 _atom_site_fract_x
 _atom_site_fract_y
 _atom_site_fract_z
 _atom_site_occupancy
  K  K0  1  -0.00037685  0.00362512  0.49385276  1
  Mg  Mg1  1  0.00126347  0.00612363  0.00457518  1
  H  H2  1  0.91670012  0.32299481  0.84127168  1
  H  H3  1  0.07374477  0.67175334  0.15929696  1
  H  H4  1  0.62197254  0.26089898  0.90270925  1
  H  H5  1  0.37973592  0.74221033  0.11049572  1
  H  H6  1  0.48491213  0.52880191  0.51167127  1
  Se  Se7  1  0.36660423  0.67911962  0.76290077  1
  Se  Se8  1  0.62239674  0.32244243  0.24449453  1
  O  O9  1  0.47472244  0.69863734  0.58304429  1
  O  O10  1  0.50449802  0.30719016  0.41625183  1
  O  O11  1  0.79660691  0.20472209  0.87726990  1
  O  O12  1  0.19462890  0.78876226  0.12153031  1
  O  O13  1  0.17998765  0.41617176  0.73208723  1
  O  O14  1  0.81804678  0.58246432  0.26972078  1
  O  O15  1  0.17930291  0.89115337  0.79596062  1
  O  O16  1  0.81309607  0.11075636  0.20608507  1
  O  O17  1  0.65127758  0.71915151  0.90430090  1
  O  O18  1  0.35187967  0.27902064  0.09148095  1
