# generated using pymatgen
data_KNaSr8(BO3)6
_symmetry_space_group_name_H-M   'P 1'
_cell_length_a   6.93547099
_cell_length_b   6.93615106
_cell_length_c   11.16210070
_cell_angle_alpha   90.00000000
_cell_angle_beta   90.00000000
_cell_angle_gamma   60.06011918
_symmetry_Int_Tables_number   1
_chemical_formula_structural   KNaSr8(BO3)6
_chemical_formula_sum   'K1 Na1 Sr8 B6 O18'
_cell_volume   465.30085178
_cell_formula_units_Z   1
loop_
 _symmetry_equiv_pos_site_id
 _symmetry_equiv_pos_as_xyz
  1  'x, y, z'
loop_
 _atom_site_type_symbol
 _atom_site_label
 _atom_site_symmetry_multiplicity
 _atom_site_fract_x
 _atom_site_fract_y
 _atom_site_fract_z
 _atom_site_occupancy
  K  K0  1  0.08840473  0.16721626  0.25000000  1
  Na  Na1  1  0.23036885  0.82892648  0.75000000  1
  Sr  Sr2  1  0.86125468  0.43110462  0.53134112  1
  Sr  Sr3  1  0.29176930  0.57050376  0.47012453  1
  Sr  Sr4  1  0.86125468  0.43110462  0.96865888  1
  Sr  Sr5  1  0.29176930  0.57050376  0.02987547  1
  Sr  Sr6  1  0.72329331  0.00048735  0.49968791  1
  Sr  Sr7  1  0.72329331  0.00048735  0.00031209  1
  Sr  Sr8  1  0.58698983  0.71270645  0.25000000  1
  Sr  Sr9  1  0.30048576  0.28372043  0.75000000  1
  B  B10  1  0.29339581  0.99918730  0.50207217  1
  B  B11  1  0.29339581  0.99918730  0.99792783  1
  B  B12  1  0.03345543  0.65997613  0.25000000  1
  B  B13  1  0.69314071  0.34092114  0.75000000  1
  B  B14  1  0.61938334  0.25161149  0.25000000  1
  B  B15  1  0.87193958  0.75010227  0.75000000  1
  O  O16  1  0.20226539  0.71089710  0.25000000  1
  O  O17  1  0.91550447  0.28302074  0.75000000  1
  O  O18  1  0.55076316  0.09795071  0.25000000  1
  O  O19  1  0.64789816  0.89780153  0.75000000  1
  O  O20  1  0.57547827  0.37577995  0.64259270  1
  O  O21  1  0.94899772  0.62760485  0.35767856  1
  O  O22  1  0.57547827  0.37577995  0.85740730  1
  O  O23  1  0.94899772  0.62760485  0.14232144  1
  O  O24  1  0.09451106  0.99807270  0.50427494  1
  O  O25  1  0.09451106  0.99807270  0.99572506  1
  O  O26  1  0.49065523  0.80467382  0.47405966  1
  O  O27  1  0.29454497  0.19621402  0.52598869  1
  O  O28  1  0.49065523  0.80467382  0.02594034  1
  O  O29  1  0.29454497  0.19621402  0.97401131  1
  O  O30  1  0.66177464  0.33160591  0.35763416  1
  O  O31  1  0.99612531  0.67234036  0.64294550  1
  O  O32  1  0.66177464  0.33160591  0.14236584  1
  O  O33  1  0.99612531  0.67234036  0.85705450  1
