# generated using pymatgen
data_KBa2(BiO3)3
_symmetry_space_group_name_H-M   'P 1'
_cell_length_a   6.18756397
_cell_length_b   6.18756397
_cell_length_c   7.58140066
_cell_angle_alpha   90.00000000
_cell_angle_beta   90.00000000
_cell_angle_gamma   120.00000000
_symmetry_Int_Tables_number   1
_chemical_formula_structural   KBa2(BiO3)3
_chemical_formula_sum   'K1 Ba2 Bi3 O9'
_cell_volume   251.37349510
_cell_formula_units_Z   1
loop_
 _symmetry_equiv_pos_site_id
 _symmetry_equiv_pos_as_xyz
  1  'x, y, z'
loop_
 _atom_site_type_symbol
 _atom_site_label
 _atom_site_symmetry_multiplicity
 _atom_site_fract_x
 _atom_site_fract_y
 _atom_site_fract_z
 _atom_site_occupancy
  K  K0  1  -0.00000000  -0.00000000  -0.00000000  1
  Ba  Ba1  1  0.66666700  0.33333300  0.33160480  1
  Ba  Ba2  1  0.33333300  0.66666700  0.66839520  1
  Bi  Bi3  1  -0.00000000  -0.00000000  0.50000000  1
  Bi  Bi4  1  0.66666700  0.33333300  0.83629004  1
  Bi  Bi5  1  0.33333300  0.66666700  0.16370996  1
  O  O6  1  0.82896615  0.17103385  0.65484932  1
  O  O7  1  0.50000000  0.50000000  -0.00000000  1
  O  O8  1  0.17103385  0.82896615  0.34515068  1
  O  O9  1  0.65793331  0.82896615  0.34515068  1
  O  O10  1  0.34206669  0.17103385  0.65484932  1
  O  O11  1  -0.00000000  0.50000000  -0.00000000  1
  O  O12  1  0.82896615  0.65793331  0.65484932  1
  O  O13  1  0.50000000  -0.00000000  -0.00000000  1
  O  O14  1  0.17103385  0.34206669  0.34515068  1
