# generated using pymatgen
data_KP4(WO4)8
_symmetry_space_group_name_H-M   'P 1'
_cell_length_a   8.75092936
_cell_length_b   10.32985712
_cell_length_c   8.75092936
_cell_angle_alpha   113.04837154
_cell_angle_beta   76.84741140
_cell_angle_gamma   113.04837154
_symmetry_Int_Tables_number   1
_chemical_formula_structural   KP4(WO4)8
_chemical_formula_sum   'K1 P4 W8 O32'
_cell_volume   667.21560225
_cell_formula_units_Z   1
loop_
 _symmetry_equiv_pos_site_id
 _symmetry_equiv_pos_as_xyz
  1  'x, y, z'
loop_
 _atom_site_type_symbol
 _atom_site_label
 _atom_site_symmetry_multiplicity
 _atom_site_fract_x
 _atom_site_fract_y
 _atom_site_fract_z
 _atom_site_occupancy
  K  K0  1  0.94352884  0.00065384  0.19352884  1
  P  P1  1  0.16610783  0.86987960  0.41610783  1
  P  P2  1  0.66399330  0.87093451  0.91399330  1
  P  P3  1  0.33726390  0.13005421  0.08374300  1
  P  P4  1  0.83374300  0.13005421  0.58726390  1
  W  W5  1  0.74052825  0.59272518  0.99052825  1
  W  W6  1  0.23863976  0.58983069  0.48863976  1
  W  W7  1  0.76205143  0.40911677  0.51266122  1
  W  W8  1  0.26266122  0.40911677  0.01205143  1
  W  W9  1  0.78138385  0.25052644  0.03138385  1
  W  W10  1  0.28114128  0.24752728  0.53114128  1
  W  W11  1  0.71866292  0.75027813  0.47147027  1
  W  W12  1  0.22147027  0.75027813  0.96866292  1
  O  O13  1  0.75747595  0.03904891  0.00747595  1
  O  O14  1  0.25799958  0.03807413  0.50799958  1
  O  O15  1  0.74477252  0.96219021  0.49123061  1
  O  O16  1  0.24123061  0.96219021  0.99477252  1
  O  O17  1  0.52458625  0.16221041  0.03914802  1
  O  O18  1  0.02305195  0.16242495  0.53570225  1
  O  O19  1  0.21115643  0.83800536  0.22777043  1
  O  O20  1  0.71048928  0.83838785  0.72579662  1
  O  O21  1  0.97777043  0.83800536  0.46115643  1
  O  O22  1  0.47579662  0.83838785  0.96048928  1
  O  O23  1  0.28570225  0.16242495  0.27305195  1
  O  O24  1  0.78914802  0.16221041  0.77458625  1
  O  O25  1  0.73734865  0.69541433  0.24130462  1
  O  O26  1  0.23543155  0.69162177  0.73999452  1
  O  O27  1  0.01330335  0.30771537  0.01520447  1
  O  O28  1  0.50794352  0.30795863  0.51198656  1
  O  O29  1  0.76520447  0.30771537  0.26330335  1
  O  O30  1  0.26198656  0.30795863  0.75794352  1
  O  O31  1  0.48999452  0.69162177  0.48543155  1
  O  O32  1  0.99130462  0.69541433  0.98734865  1
  O  O33  1  0.76980411  0.41713362  0.01980411  1
  O  O34  1  0.26832074  0.42384717  0.51832074  1
  O  O35  1  0.73218036  0.57961632  0.48023336  1
  O  O36  1  0.23023336  0.57961632  0.98218036  1
  O  O37  1  0.00221778  0.49999194  0.49772144  1
  O  O38  1  0.49363105  0.49559066  0.99711548  1
  O  O39  1  0.74711548  0.49559066  0.74363105  1
  O  O40  1  0.24772144  0.49999194  0.25221778  1
  O  O41  1  0.22768203  0.77870815  0.47768203  1
  O  O42  1  0.72854082  0.78663038  0.97854082  1
  O  O43  1  0.27050804  0.21671313  0.02322179  1
  O  O44  1  0.77322179  0.21671313  0.52050804  1
