# generated using pymatgen
data_KNa7Al8(SiO4)8
_symmetry_space_group_name_H-M   'P 1'
_cell_length_a   8.50072122
_cell_length_b   10.08902139
_cell_length_c   10.09941992
_cell_angle_alpha   60.09325347
_cell_angle_beta   90.02244514
_cell_angle_gamma   90.06011537
_symmetry_Int_Tables_number   1
_chemical_formula_structural   KNa7Al8(SiO4)8
_chemical_formula_sum   'K1 Na7 Al8 Si8 O32'
_cell_volume   750.82541849
_cell_formula_units_Z   1
loop_
 _symmetry_equiv_pos_site_id
 _symmetry_equiv_pos_as_xyz
  1  'x, y, z'
loop_
 _atom_site_type_symbol
 _atom_site_label
 _atom_site_symmetry_multiplicity
 _atom_site_fract_x
 _atom_site_fract_y
 _atom_site_fract_z
 _atom_site_occupancy
  K  K0  1  0.25865046  0.00055090  0.99912237  1
  Na  Na1  1  0.75563422  0.99935721  0.00102888  1
  Na  Na2  1  0.24936309  0.99621450  0.55579945  1
  Na  Na3  1  0.24964149  0.44482984  0.00195450  1
  Na  Na4  1  0.24860111  0.55255414  0.44245593  1
  Na  Na5  1  0.74885780  0.99386403  0.44772964  1
  Na  Na6  1  0.74948654  0.55493348  0.00182310  1
  Na  Na7  1  0.74963558  0.44778743  0.55149852  1
  Al  Al8  1  0.06715359  0.90918524  0.32978688  1
  Al  Al9  1  0.06424319  0.76147416  0.90611839  1
  Al  Al10  1  0.06483035  0.33319771  0.76080742  1
  Al  Al11  1  0.56467889  0.09345665  0.66814012  1
  Al  Al12  1  0.56491097  0.23878955  0.09326886  1
  Al  Al13  1  0.56691717  0.67149215  0.23793033  1
  Al  Al14  1  0.55954812  0.67025010  0.66303482  1
  Al  Al15  1  0.05910864  0.33650293  0.33372180  1
  Si  Si16  1  0.95262977  0.67059067  0.66309895  1
  Si  Si17  1  0.45271766  0.33697863  0.33368575  1
  Si  Si18  1  0.43647068  0.90731420  0.33098015  1
  Si  Si19  1  0.43899887  0.76202687  0.90381802  1
  Si  Si20  1  0.43872555  0.33375385  0.76228268  1
  Si  Si21  1  0.93863167  0.09522298  0.66678508  1
  Si  Si22  1  0.93797035  0.23808150  0.09478826  1
  Si  Si23  1  0.93644608  0.67027621  0.23718451  1
  O  O24  1  0.02838323  0.82884041  0.52513528  1
  O  O25  1  0.00604509  0.64833144  0.82814006  1
  O  O26  1  0.01064289  0.52451487  0.64696833  1
  O  O27  1  0.50686014  0.17245762  0.47742838  1
  O  O28  1  0.51105359  0.35186887  0.17254379  1
  O  O29  1  0.52892878  0.47579120  0.35295185  1
  O  O30  1  0.25993146  0.98201806  0.30551716  1
  O  O31  1  0.25982732  0.71000309  0.96970396  1
  O  O32  1  0.25992842  0.31860598  0.70972023  1
  O  O33  1  0.75944225  0.02843140  0.68133169  1
  O  O34  1  0.75943117  0.28993002  0.02677882  1
  O  O35  1  0.75955428  0.69773520  0.28370723  1
  O  O36  1  0.56193259  0.03933239  0.21746254  1
  O  O37  1  0.55933042  0.74248530  0.03977785  1
  O  O38  1  0.55989263  0.21738721  0.74336740  1
  O  O39  1  0.05955586  0.95942517  0.77969827  1
  O  O40  1  0.05982920  0.26082732  0.95901312  1
  O  O41  1  0.06225231  0.78058897  0.26009862  1
  O  O42  1  0.48798390  0.84143325  0.50866594  1
  O  O43  1  0.50229290  0.65295215  0.83791470  1
  O  O44  1  0.50025666  0.50886646  0.65296484  1
  O  O45  1  0.00079454  0.16265899  0.49170942  1
  O  O46  1  0.99908522  0.34615709  0.16280294  1
  O  O47  1  0.98665695  0.49174227  0.34875101  1
  O  O48  1  0.93130418  0.05673065  0.22595733  1
  O  O49  1  0.93312853  0.71636797  0.05750396  1
  O  O50  1  0.93295346  0.22640588  0.71694996  1
  O  O51  1  0.43339810  0.94197142  0.77149319  1
  O  O52  1  0.43264942  0.28627053  0.94233500  1
  O  O53  1  0.43119496  0.77197971  0.28606089  1
  O  O54  1  0.76277787  0.68316645  0.64842956  1
  O  O55  1  0.26284981  0.35153775  0.33137230  1
