# generated using pymatgen
data_KFeH5(SO5)2
_symmetry_space_group_name_H-M   'P 1'
_cell_length_a   4.72092234
_cell_length_b   5.92857264
_cell_length_c   8.37739344
_cell_angle_alpha   103.57633805
_cell_angle_beta   99.44633733
_cell_angle_gamma   95.99102527
_symmetry_Int_Tables_number   1
_chemical_formula_structural   KFeH5(SO5)2
_chemical_formula_sum   'K1 Fe1 H5 S2 O10'
_cell_volume   222.31646498
_cell_formula_units_Z   1
loop_
 _symmetry_equiv_pos_site_id
 _symmetry_equiv_pos_as_xyz
  1  'x, y, z'
loop_
 _atom_site_type_symbol
 _atom_site_label
 _atom_site_symmetry_multiplicity
 _atom_site_fract_x
 _atom_site_fract_y
 _atom_site_fract_z
 _atom_site_occupancy
  K  K0  1  0.00011928  0.00376916  0.49540671  1
  Fe  Fe1  1  0.00251561  0.00607156  0.00620841  1
  H  H2  1  0.94480387  0.34138005  0.83410905  1
  H  H3  1  0.05240538  0.65588180  0.16820221  1
  H  H4  1  0.62944759  0.27391389  0.86755055  1
  H  H5  1  0.37329506  0.72621557  0.14155822  1
  H  H6  1  0.49589036  0.53033984  0.51407156  1
  S  S7  1  0.38602480  0.68154157  0.76048160  1
  S  S8  1  0.61130446  0.32333357  0.24683814  1
  O  O9  1  0.80983822  0.21348097  0.85019216  1
  O  O10  1  0.18750968  0.78234687  0.14920775  1
  O  O11  1  0.47474658  0.69874971  0.59166843  1
  O  O12  1  0.52140287  0.31400482  0.40970838  1
  O  O13  1  0.65143860  0.72046390  0.89074559  1
  O  O14  1  0.35110720  0.28382084  0.10952546  1
  O  O15  1  0.22597420  0.44613350  0.73493010  1
  O  O16  1  0.77588114  0.55699317  0.26416633  1
  O  O17  1  0.20978971  0.87272762  0.79460831  1
  O  O18  1  0.78950539  0.13083157  0.20882103  1
