# generated using pymatgen
data_La6Al3Fe11
_symmetry_space_group_name_H-M   'P 1'
_cell_length_a   8.15030561
_cell_length_b   8.15030561
_cell_length_c   13.25678281
_cell_angle_alpha   72.09730720
_cell_angle_beta   72.09730720
_cell_angle_gamma   90.00000000
_symmetry_Int_Tables_number   1
_chemical_formula_structural   La6Al3Fe11
_chemical_formula_sum   'La12 Al6 Fe22'
_cell_volume   793.04662330
_cell_formula_units_Z   2
loop_
 _symmetry_equiv_pos_site_id
 _symmetry_equiv_pos_as_xyz
  1  'x, y, z'
loop_
 _atom_site_type_symbol
 _atom_site_label
 _atom_site_symmetry_multiplicity
 _atom_site_fract_x
 _atom_site_fract_y
 _atom_site_fract_z
 _atom_site_occupancy
  La  La0  1  0.35852786  0.85852786  0.62194094  1
  La  La1  1  0.01953120  0.51953120  0.62194094  1
  La  La2  1  0.51953120  0.35852786  0.62194094  1
  La  La3  1  0.85852786  0.01953120  0.62194094  1
  La  La4  1  0.64737077  0.14737077  0.36955153  1
  La  La5  1  0.98307771  0.48307771  0.36955153  1
  La  La6  1  0.48307771  0.64737077  0.36955153  1
  La  La7  1  0.14737077  0.98307771  0.36955153  1
  La  La8  1  0.39465648  0.39465648  0.21068703  1
  La  La9  1  0.89465648  0.89465648  0.21068703  1
  La  La10  1  0.60584363  0.60584363  0.78831273  1
  La  La11  1  0.10584363  0.10584363  0.78831273  1
  Al  Al12  1  0.74976305  0.74976305  0.50047390  1
  Al  Al13  1  0.24976305  0.24976305  0.50047390  1
  Al  Al14  1  0.47320175  0.97320175  0.81744151  1
  Al  Al15  1  0.70935674  0.20935674  0.81744151  1
  Al  Al16  1  0.20935674  0.47320175  0.81744151  1
  Al  Al17  1  0.97320175  0.70935674  0.81744151  1
  Fe  Fe18  1  0.23088612  0.73088612  0.88977932  1
  Fe  Fe19  1  0.87933455  0.37933455  0.88977932  1
  Fe  Fe20  1  0.37933455  0.23088612  0.88977932  1
  Fe  Fe21  1  0.73088612  0.87933455  0.88977932  1
  Fe  Fe22  1  0.76388402  0.26388402  0.11518418  1
  Fe  Fe23  1  0.12093180  0.62093180  0.11518418  1
  Fe  Fe24  1  0.62093180  0.76388402  0.11518418  1
  Fe  Fe25  1  0.26388402  0.12093180  0.11518418  1
  Fe  Fe26  1  0.70994357  0.56823496  0.00119968  1
  Fe  Fe27  1  0.28885675  0.43056536  0.00119968  1
  Fe  Fe28  1  0.78885675  0.06823496  0.00119968  1
  Fe  Fe29  1  0.20994357  0.93056536  0.00119968  1
  Fe  Fe30  1  0.56823496  0.28885675  0.00119968  1
  Fe  Fe31  1  0.43056536  0.70994357  0.00119968  1
  Fe  Fe32  1  0.06823496  0.20994357  0.00119968  1
  Fe  Fe33  1  0.93056536  0.78885675  0.00119968  1
  Fe  Fe34  1  0.99906923  0.49906923  0.00186154  1
  Fe  Fe35  1  0.49906923  0.99906923  0.00186154  1
  Fe  Fe36  1  0.52167951  0.02167951  0.18303557  1
  Fe  Fe37  1  0.29528493  0.79528493  0.18303557  1
  Fe  Fe38  1  0.79528493  0.52167951  0.18303557  1
  Fe  Fe39  1  0.02167951  0.29528493  0.18303557  1
