# generated using pymatgen
data_KU2SbSe8
_symmetry_space_group_name_H-M   'P 1'
_cell_length_a   7.12023890
_cell_length_b   7.11839082
_cell_length_c   15.50533702
_cell_angle_alpha   81.36605186
_cell_angle_beta   81.05533865
_cell_angle_gamma   109.52763066
_symmetry_Int_Tables_number   1
_chemical_formula_structural   KU2SbSe8
_chemical_formula_sum   'K2 U4 Sb2 Se16'
_cell_volume   714.22617015
_cell_formula_units_Z   2
loop_
 _symmetry_equiv_pos_site_id
 _symmetry_equiv_pos_as_xyz
  1  'x, y, z'
loop_
 _atom_site_type_symbol
 _atom_site_label
 _atom_site_symmetry_multiplicity
 _atom_site_fract_x
 _atom_site_fract_y
 _atom_site_fract_z
 _atom_site_occupancy
  K  K0  1  0.88462059  0.38460848  0.23254646  1
  K  K1  1  0.38321835  0.88548182  0.73196645  1
  U  U2  1  0.49961128  0.50075738  -0.00006345  1
  U  U3  1  0.00100645  0.00051908  0.99940184  1
  U  U4  1  0.49961240  0.50056582  0.50080565  1
  U  U5  1  0.99935705  0.00073445  0.50050114  1
  Sb  Sb6  1  0.92162243  0.42407285  0.65265634  1
  Sb  Sb7  1  0.42292157  0.92378607  0.15220104  1
  Se  Se8  1  0.69295534  0.91286492  0.38691958  1
  Se  Se9  1  0.41119159  0.19673022  0.38533511  1
  Se  Se10  1  0.22685153  0.72834320  0.54602459  1
  Se  Se11  1  0.72605607  0.22781485  0.54481168  1
  Se  Se12  1  0.19618228  0.41247042  0.88508375  1
  Se  Se13  1  0.71196090  0.91071162  0.88373774  1
  Se  Se14  1  0.90867790  0.71530032  0.38340796  1
  Se  Se15  1  0.22542177  0.72574619  0.04534658  1
  Se  Se16  1  0.17537988  0.19100156  0.63370257  1
  Se  Se17  1  0.72804693  0.22938880  0.04631752  1
  Se  Se18  1  0.91112811  0.69627144  0.88461318  1
  Se  Se19  1  0.41118227  0.21419882  0.88263902  1
  Se  Se20  1  0.21234267  0.41127913  0.38466196  1
  Se  Se21  1  0.67729944  0.69200770  0.13278252  1
  Se  Se22  1  0.18997454  0.17667377  0.13262528  1
  Se  Se23  1  0.68977865  0.67757106  0.63367551  1
