# generated using pymatgen
data_Ce2Mg5Au
_symmetry_space_group_name_H-M   'P 1'
_cell_length_a   5.11497678
_cell_length_b   5.11497678
_cell_length_c   8.89464172
_cell_angle_alpha   73.28978539
_cell_angle_beta   90.00000000
_cell_angle_gamma   120.00000000
_symmetry_Int_Tables_number   1
_chemical_formula_structural   Ce2Mg5Au
_chemical_formula_sum   'Ce2 Mg5 Au1'
_cell_volume   190.10114826
_cell_formula_units_Z   1
loop_
 _symmetry_equiv_pos_site_id
 _symmetry_equiv_pos_as_xyz
  1  'x, y, z'
loop_
 _atom_site_type_symbol
 _atom_site_label
 _atom_site_symmetry_multiplicity
 _atom_site_fract_x
 _atom_site_fract_y
 _atom_site_fract_z
 _atom_site_occupancy
  Ce  Ce0  1  0.00221403  0.00442805  0.99335792  1
  Ce  Ce1  1  0.49778597  0.99557195  0.50664208  1
  Mg  Mg2  1  0.62147725  0.24295450  0.13556826  1
  Mg  Mg3  1  0.12868542  0.25737084  0.61394374  1
  Mg  Mg4  1  0.87852275  0.75704550  0.36443174  1
  Mg  Mg5  1  0.37131458  0.74262916  0.88605626  1
  Mg  Mg6  1  0.75000000  0.50000000  0.75000000  1
  Au  Au7  1  0.25000000  0.50000000  0.25000000  1
