# generated using pymatgen
data_KNb4Bi5O18
_symmetry_space_group_name_H-M   'P 1'
_cell_length_a   5.60767738
_cell_length_b   5.61566544
_cell_length_c   12.94587473
_cell_angle_alpha   90.22092287
_cell_angle_beta   77.49166518
_cell_angle_gamma   91.02009559
_symmetry_Int_Tables_number   1
_chemical_formula_structural   KNb4Bi5O18
_chemical_formula_sum   'K1 Nb4 Bi5 O18'
_cell_volume   397.93699297
_cell_formula_units_Z   1
loop_
 _symmetry_equiv_pos_site_id
 _symmetry_equiv_pos_as_xyz
  1  'x, y, z'
loop_
 _atom_site_type_symbol
 _atom_site_label
 _atom_site_symmetry_multiplicity
 _atom_site_fract_x
 _atom_site_fract_y
 _atom_site_fract_z
 _atom_site_occupancy
  K  K0  1  0.73826196  0.46996981  -0.00000000  1
  Nb  Nb1  1  0.65019132  0.96023589  0.17352209  1
  Nb  Nb2  1  0.82371340  0.96023589  0.82647791  1
  Nb  Nb3  1  0.33057984  0.46542261  0.82546895  1
  Nb  Nb4  1  0.15604879  0.46542261  0.17453105  1
  Bi  Bi5  1  0.20341253  0.01303127  0.00000000  1
  Bi  Bi6  1  0.48409190  0.00294635  0.59790762  1
  Bi  Bi7  1  0.08199952  0.00294635  0.40209238  1
  Bi  Bi8  1  0.51702693  0.50405591  0.40110263  1
  Bi  Bi9  1  0.91812956  0.50405591  0.59889737  1
  O  O10  1  0.53193417  0.93060799  0.32171611  1
  O  O11  1  0.85365028  0.93060799  0.67828389  1
  O  O12  1  0.47465524  0.42956579  0.67951637  1
  O  O13  1  0.15417161  0.42956579  0.32048363  1
  O  O14  1  0.13544143  0.14062564  0.83209936  1
  O  O15  1  0.96754078  0.14062564  0.16790064  1
  O  O16  1  0.87621953  0.65074118  0.18049235  1
  O  O17  1  0.05671189  0.65074118  0.81950765  1
  O  O18  1  0.25909348  0.22705351  0.50523451  1
  O  O19  1  0.76432800  0.22705351  0.49476549  1
  O  O20  1  0.74370684  0.72736538  0.49651610  1
  O  O21  1  0.24022294  0.72736538  0.50348390  1
  O  O22  1  0.61043650  0.21558971  0.84891418  1
  O  O23  1  0.45935068  0.21558971  0.15108582  1
  O  O24  1  0.39739818  0.72251893  0.14120400  1
  O  O25  1  0.53860218  0.72251893  0.85879600  1
  O  O26  1  0.81543356  0.94459539  -0.00000000  1
  O  O27  1  0.21764697  0.40494573  -0.00000000  1
