# generated using pymatgen
data_KMnH5(SO5)2
_symmetry_space_group_name_H-M   'P 1'
_cell_length_a   4.80085988
_cell_length_b   5.94038513
_cell_length_c   8.43026116
_cell_angle_alpha   103.71274676
_cell_angle_beta   99.05392721
_cell_angle_gamma   96.63146223
_symmetry_Int_Tables_number   1
_chemical_formula_structural   KMnH5(SO5)2
_chemical_formula_sum   'K1 Mn1 H5 S2 O10'
_cell_volume   227.71550410
_cell_formula_units_Z   1
loop_
 _symmetry_equiv_pos_site_id
 _symmetry_equiv_pos_as_xyz
  1  'x, y, z'
loop_
 _atom_site_type_symbol
 _atom_site_label
 _atom_site_symmetry_multiplicity
 _atom_site_fract_x
 _atom_site_fract_y
 _atom_site_fract_z
 _atom_site_occupancy
  K  K0  1  0.99920252  0.00303118  0.49543221  1
  Mn  Mn1  1  0.00343578  0.00712379  0.00650425  1
  H  H2  1  0.63490007  0.28333278  0.87083093  1
  H  H3  1  0.36649179  0.71490782  0.13667509  1
  H  H4  1  0.93808562  0.34339233  0.82611082  1
  H  H5  1  0.05678394  0.65330283  0.17445259  1
  H  H6  1  0.49515501  0.52922351  0.51388859  1
  S  S7  1  0.37882128  0.67886704  0.75765250  1
  S  S8  1  0.61872178  0.32521981  0.24956995  1
  O  O9  1  0.80696136  0.21876891  0.84866281  1
  O  O10  1  0.18935905  0.77612747  0.14955674  1
  O  O11  1  0.20527521  0.86803556  0.79049462  1
  O  O12  1  0.79440025  0.13455524  0.21259284  1
  O  O13  1  0.47318189  0.69697443  0.59143815  1
  O  O14  1  0.52181303  0.31487904  0.40978676  1
  O  O15  1  0.21777940  0.44273166  0.72993535  1
  O  O16  1  0.78562916  0.55907176  0.27051910  1
  O  O17  1  0.63544455  0.71837279  0.88851159  1
  O  O18  1  0.36855831  0.28408205  0.11138511  1
