# generated using pymatgen
data_KNb5Pb2O15
_symmetry_space_group_name_H-M   'P 1'
_cell_length_a   3.96758924
_cell_length_b   13.03218783
_cell_length_c   13.03218783
_cell_angle_alpha   92.45202871
_cell_angle_beta   90.00000000
_cell_angle_gamma   90.00000000
_symmetry_Int_Tables_number   1
_chemical_formula_structural   KNb5Pb2O15
_chemical_formula_sum   'K2 Nb10 Pb4 O30'
_cell_volume   673.23012258
_cell_formula_units_Z   2
loop_
 _symmetry_equiv_pos_site_id
 _symmetry_equiv_pos_as_xyz
  1  'x, y, z'
loop_
 _atom_site_type_symbol
 _atom_site_label
 _atom_site_symmetry_multiplicity
 _atom_site_fract_x
 _atom_site_fract_y
 _atom_site_fract_z
 _atom_site_occupancy
  K  K0  1  0.50000000  0.82998670  0.17001330  1
  K  K1  1  0.50000000  0.17597152  0.82402848  1
  Nb  Nb2  1  -0.00000000  0.49965969  0.50034031  1
  Nb  Nb3  1  -0.00000000  0.78228766  0.42365489  1
  Nb  Nb4  1  0.00000000  0.57634511  0.21771234  1
  Nb  Nb5  1  -0.00000000  0.91670941  0.71390520  1
  Nb  Nb6  1  -0.00000000  0.28609480  0.08329059  1
  Nb  Nb7  1  0.00000000  0.21162551  0.57381056  1
  Nb  Nb8  1  -0.00000000  0.42618944  0.78837449  1
  Nb  Nb9  1  0.00000000  0.00908343  0.99091657  1
  Nb  Nb10  1  -0.00000000  0.06665638  0.28458917  1
  Nb  Nb11  1  0.00000000  0.71541083  0.93334362  1
  Pb  Pb12  1  0.50000000  0.98564404  0.50767027  1
  Pb  Pb13  1  0.50000000  0.49232973  0.01435596  1
  Pb  Pb14  1  0.50000000  0.28248119  0.36842104  1
  Pb  Pb15  1  0.50000000  0.63157896  0.71751881  1
  O  O16  1  -0.00000000  0.01038439  0.14453451  1
  O  O17  1  0.00000000  0.85546549  0.98961561  1
  O  O18  1  0.50000000  0.01231731  0.98768269  1
  O  O19  1  0.50000000  0.50824923  0.49175077  1
  O  O20  1  -0.00000000  0.35329019  0.48382314  1
  O  O21  1  -0.00000000  0.51617686  0.64670981  1
  O  O22  1  0.00000000  0.71786923  0.28213077  1
  O  O23  1  -0.00000000  0.22944619  0.21082482  1
  O  O24  1  -0.00000000  0.78917518  0.77055381  1
  O  O25  1  0.50000000  0.09307053  0.29059316  1
  O  O26  1  0.50000000  0.70940684  0.90692947  1
  O  O27  1  -0.00000000  0.08271835  0.62990091  1
  O  O28  1  0.00000000  0.37009909  0.91728165  1
  O  O29  1  -0.00000000  0.94203777  0.34732273  1
  O  O30  1  0.00000000  0.65267727  0.05796223  1
  O  O31  1  0.50000000  0.22146330  0.55621622  1
  O  O32  1  0.50000000  0.44378378  0.77853670  1
  O  O33  1  -0.00000000  0.00762121  0.83345033  1
  O  O34  1  0.00000000  0.16654967  0.99237879  1
  O  O35  1  0.50000000  0.93158555  0.68922700  1
  O  O36  1  0.50000000  0.31077300  0.06841445  1
  O  O37  1  0.50000000  0.80991409  0.41651023  1
  O  O38  1  0.50000000  0.58348977  0.19008591  1
  O  O39  1  -0.00000000  0.66426352  0.49441611  1
  O  O40  1  0.00000000  0.50558389  0.33573648  1
  O  O41  1  0.00000000  0.88048967  0.55303326  1
  O  O42  1  -0.00000000  0.44696674  0.11951033  1
  O  O43  1  0.00000000  0.29585761  0.70414239  1
  O  O44  1  -0.00000000  0.16096245  0.41897259  1
  O  O45  1  0.00000000  0.58102741  0.83903755  1
