# generated using pymatgen
data_KMgFe(PO4)2
_symmetry_space_group_name_H-M   'P 1'
_cell_length_a   5.49388016
_cell_length_b   9.55619236
_cell_length_c   9.87271686
_cell_angle_alpha   119.23423023
_cell_angle_beta   73.84508207
_cell_angle_gamma   90.00000000
_symmetry_Int_Tables_number   1
_chemical_formula_structural   KMgFe(PO4)2
_chemical_formula_sum   'K2 Mg2 Fe2 P4 O16'
_cell_volume   428.69724311
_cell_formula_units_Z   2
loop_
 _symmetry_equiv_pos_site_id
 _symmetry_equiv_pos_as_xyz
  1  'x, y, z'
loop_
 _atom_site_type_symbol
 _atom_site_label
 _atom_site_symmetry_multiplicity
 _atom_site_fract_x
 _atom_site_fract_y
 _atom_site_fract_z
 _atom_site_occupancy
  K  K0  1  0.73631241  0.25968359  0.01957847  1
  K  K1  1  0.24410911  0.75968359  0.01957847  1
  Mg  Mg2  1  0.05241994  0.56409176  0.29847388  1
  Mg  Mg3  1  0.64910618  0.06409176  0.29847388  1
  Fe  Fe4  1  0.36075660  0.93181734  0.69261870  1
  Fe  Fe5  1  0.94662469  0.43181734  0.69261870  1
  P  P6  1  0.56664114  0.71926175  0.27299892  1
  P  P7  1  0.84978859  0.77544588  0.71674393  1
  P  P8  1  0.43346748  0.27544588  0.71674393  1
  P  P9  1  0.16035994  0.21926175  0.27299892  1
  O  O10  1  0.47582131  0.82029058  0.46761145  1
  O  O11  1  0.94574395  0.68050080  0.53258370  1
  O  O12  1  0.52167235  0.18050080  0.53258370  1
  O  O13  1  0.05656724  0.32029058  0.46761145  1
  O  O14  1  0.13096200  0.33321724  0.20847071  1
  O  O15  1  0.35178442  0.16256314  0.78932819  1
  O  O16  1  0.85888738  0.66256314  0.78932819  1
  O  O17  1  0.66056729  0.83321724  0.20847071  1
  O  O18  1  0.01549556  0.91116466  0.78661387  1
  O  O19  1  0.78337217  0.58125941  0.21366952  1
  O  O20  1  0.00295830  0.08125941  0.21366952  1
  O  O21  1  0.19789057  0.41116466  0.78661387  1
  O  O22  1  0.65048218  0.36133573  0.78483604  1
  O  O23  1  0.44526502  0.14936814  0.21647260  1
  O  O24  1  0.33826238  0.64936814  0.21647260  1
  O  O25  1  0.56468178  0.86133573  0.78483604  1
