# generated using pymatgen
data_K3ReMoO8
_symmetry_space_group_name_H-M   'P 1'
_cell_length_a   6.22427539
_cell_length_b   6.22427539
_cell_length_c   8.00151253
_cell_angle_alpha   67.44310229
_cell_angle_beta   67.44310229
_cell_angle_gamma   60.04309387
_symmetry_Int_Tables_number   1
_chemical_formula_structural   K3ReMoO8
_chemical_formula_sum   'K3 Re1 Mo1 O8'
_cell_volume   240.77971431
_cell_formula_units_Z   1
loop_
 _symmetry_equiv_pos_site_id
 _symmetry_equiv_pos_as_xyz
  1  'x, y, z'
loop_
 _atom_site_type_symbol
 _atom_site_label
 _atom_site_symmetry_multiplicity
 _atom_site_fract_x
 _atom_site_fract_y
 _atom_site_fract_z
 _atom_site_occupancy
  K  K0  1  0.30139407  0.30139407  0.09595528  1
  K  K1  1  0.69329557  0.69329557  0.92024795  1
  K  K2  1  0.50495334  0.50495334  0.48472712  1
  Re  Re3  1  0.09512121  0.09512121  0.71236545  1
  Mo  Mo4  1  0.90405767  0.90405767  0.28994531  1
  O  O5  1  0.82293503  0.82293503  0.54078778  1
  O  O6  1  0.17408655  0.17408655  0.46910469  1
  O  O7  1  0.77521662  0.24644800  0.20244218  1
  O  O8  1  0.24644800  0.77521662  0.20244218  1
  O  O9  1  0.22353849  0.76031433  0.79314887  1
  O  O10  1  0.76031433  0.22353849  0.79314887  1
  O  O11  1  0.77464854  0.77464854  0.20480676  1
  O  O12  1  0.22399057  0.22399057  0.79087755  1
