# generated using pymatgen
data_HoTiFe11
_symmetry_space_group_name_H-M   'P 1'
_cell_length_a   4.70739566
_cell_length_b   6.44814876
_cell_length_c   6.44814876
_cell_angle_alpha   97.57657024
_cell_angle_beta   111.40875721
_cell_angle_gamma   68.59124279
_symmetry_Int_Tables_number   1
_chemical_formula_structural   HoTiFe11
_chemical_formula_sum   'Ho1 Ti1 Fe11'
_cell_volume   169.64834948
_cell_formula_units_Z   1
loop_
 _symmetry_equiv_pos_site_id
 _symmetry_equiv_pos_as_xyz
  1  'x, y, z'
loop_
 _atom_site_type_symbol
 _atom_site_label
 _atom_site_symmetry_multiplicity
 _atom_site_fract_x
 _atom_site_fract_y
 _atom_site_fract_z
 _atom_site_occupancy
  Ho  Ho0  1  0.00637899  0.99362101  0.00637899  1
  Ti  Ti1  1  0.63329861  0.36670139  0.63329861  1
  Fe  Fe2  1  0.50032353  0.99753838  0.49968471  1
  Fe  Fe3  1  0.00182279  0.99753838  0.49968471  1
  Fe  Fe4  1  0.50032353  0.50031529  0.00246162  1
  Fe  Fe5  1  0.00182279  0.50031529  0.00246162  1
  Fe  Fe6  1  0.72723807  0.77276193  0.22723807  1
  Fe  Fe7  1  0.27617947  0.22382053  0.77617947  1
  Fe  Fe8  1  0.49926246  0.77901152  0.77753644  1
  Fe  Fe9  1  0.49926246  0.22246356  0.22098848  1
  Fe  Fe10  1  0.35454413  0.64545587  0.35454413  1
  Fe  Fe11  1  0.99977158  0.35716832  0.35671148  1
  Fe  Fe12  1  0.99977158  0.64328852  0.64283168  1
