# generated using pymatgen
data_K4NaNb5O15
_symmetry_space_group_name_H-M   'P 1'
_cell_length_a   4.01148132
_cell_length_b   5.78992641
_cell_length_c   29.13265534
_cell_angle_alpha   90.75042422
_cell_angle_beta   90.00000000
_cell_angle_gamma   90.00000000
_symmetry_Int_Tables_number   1
_chemical_formula_structural   K4NaNb5O15
_chemical_formula_sum   'K8 Na2 Nb10 O30'
_cell_volume   676.58230937
_cell_formula_units_Z   2
loop_
 _symmetry_equiv_pos_site_id
 _symmetry_equiv_pos_as_xyz
  1  'x, y, z'
loop_
 _atom_site_type_symbol
 _atom_site_label
 _atom_site_symmetry_multiplicity
 _atom_site_fract_x
 _atom_site_fract_y
 _atom_site_fract_z
 _atom_site_occupancy
  K  K0  1  0.00000000  0.49331775  0.40413643  1
  K  K1  1  -0.00000000  0.49353486  0.60460285  1
  K  K2  1  0.00000000  0.49353205  0.80501409  1
  K  K3  1  0.00000000  0.00481477  0.10425659  1
  K  K4  1  0.00000000  0.00292089  0.30392536  1
  K  K5  1  0.00000000  0.00335767  0.50442967  1
  K  K6  1  -0.00000000  0.00337021  0.70474253  1
  K  K7  1  -0.00000000  0.00505843  0.90486847  1
  Na  Na8  1  -0.00000000  0.48382265  0.00887105  1
  Na  Na9  1  0.00000000  0.48338965  0.20850519  1
  Nb  Nb10  1  0.50000000  0.99209038  0.00728689  1
  Nb  Nb11  1  0.50000000  0.99107488  0.20619920  1
  Nb  Nb12  1  0.50000000  0.99325937  0.40681673  1
  Nb  Nb13  1  0.50000000  0.99357087  0.60740436  1
  Nb  Nb14  1  0.50000000  0.99419070  0.80791127  1
  Nb  Nb15  1  0.50000000  0.50054500  0.10714984  1
  Nb  Nb16  1  0.50000000  0.49794393  0.30581535  1
  Nb  Nb17  1  0.50000000  0.49911408  0.50723903  1
  Nb  Nb18  1  0.50000000  0.49955123  0.70759000  1
  Nb  Nb19  1  0.50000000  0.50190640  0.90878290  1
  O  O20  1  0.00000000  0.50111197  0.09773638  1
  O  O21  1  -0.00000000  0.50127700  0.29660197  1
  O  O22  1  0.00000000  0.50109437  0.49918582  1
  O  O23  1  0.00000000  0.50119815  0.69938237  1
  O  O24  1  -0.00000000  0.50089506  0.90048020  1
  O  O25  1  -0.00000000  0.00279345  0.99985198  1
  O  O26  1  0.00000000  0.00205373  0.19912913  1
  O  O27  1  -0.00000000  0.99739605  0.39887822  1
  O  O28  1  0.00000000  0.99759128  0.59928055  1
  O  O29  1  -0.00000000  0.99808985  0.79963782  1
  O  O30  1  0.50000000  0.73041730  0.04532889  1
  O  O31  1  0.50000000  0.73040021  0.24462747  1
  O  O32  1  0.50000000  0.74373718  0.44747510  1
  O  O33  1  0.50000000  0.74356329  0.64790541  1
  O  O34  1  0.50000000  0.74363155  0.84821441  1
  O  O35  1  0.50000000  0.76762722  0.14608207  1
  O  O36  1  0.50000000  0.75772419  0.34675459  1
  O  O37  1  0.50000000  0.75835967  0.54782854  1
  O  O38  1  0.50000000  0.75864101  0.74818609  1
  O  O39  1  0.50000000  0.76821839  0.94737502  1
  O  O40  1  0.50000000  0.23059865  0.05328527  1
  O  O41  1  0.50000000  0.23053434  0.25188313  1
  O  O42  1  0.50000000  0.23561912  0.45146236  1
  O  O43  1  0.50000000  0.23611608  0.65189477  1
  O  O44  1  0.50000000  0.23581844  0.85291498  1
  O  O45  1  0.50000000  0.27805983  0.15372022  1
  O  O46  1  0.50000000  0.26726560  0.35092023  1
  O  O47  1  0.50000000  0.26612138  0.55164324  1
  O  O48  1  0.50000000  0.26634060  0.75201275  1
  O  O49  1  0.50000000  0.27733927  0.95477324  1
