# generated using pymatgen
data_Ho2Fe17C2
_symmetry_space_group_name_H-M   'P 1'
_cell_length_a   6.45865159
_cell_length_b   6.45865159
_cell_length_c   6.48066237
_cell_angle_alpha   83.57206922
_cell_angle_beta   83.57206922
_cell_angle_gamma   83.36748932
_symmetry_Int_Tables_number   1
_chemical_formula_structural   Ho2Fe17C2
_chemical_formula_sum   'Ho2 Fe17 C2'
_cell_volume   265.49201492
_cell_formula_units_Z   1
loop_
 _symmetry_equiv_pos_site_id
 _symmetry_equiv_pos_as_xyz
  1  'x, y, z'
loop_
 _atom_site_type_symbol
 _atom_site_label
 _atom_site_symmetry_multiplicity
 _atom_site_fract_x
 _atom_site_fract_y
 _atom_site_fract_z
 _atom_site_occupancy
  Ho  Ho0  1  0.65393658  0.65393658  0.66199542  1
  Ho  Ho1  1  0.34606342  0.34606342  0.33800458  1
  Fe  Fe2  1  0.90319787  0.90319787  0.90333334  1
  Fe  Fe3  1  0.09680213  0.09680213  0.09666666  1
  Fe  Fe4  1  0.34512780  0.34512780  0.85503838  1
  Fe  Fe5  1  0.34345565  0.85261009  0.34218710  1
  Fe  Fe6  1  0.85261009  0.34345565  0.34218710  1
  Fe  Fe7  1  0.65487220  0.65487220  0.14496162  1
  Fe  Fe8  1  0.65654435  0.14738991  0.65781290  1
  Fe  Fe9  1  0.14738991  0.65654435  0.65781290  1
  Fe  Fe10  1  0.28556854  0.71443146  0.00000000  1
  Fe  Fe11  1  0.71559657  0.99915072  0.28446806  1
  Fe  Fe12  1  0.00084928  0.28440343  0.71553194  1
  Fe  Fe13  1  0.28440343  0.00084928  0.71553194  1
  Fe  Fe14  1  0.99915072  0.71559657  0.28446806  1
  Fe  Fe15  1  0.71443146  0.28556854  -0.00000000  1
  Fe  Fe16  1  0.00000000  -0.00000000  0.50000000  1
  Fe  Fe17  1  0.00000000  0.50000000  -0.00000000  1
  Fe  Fe18  1  0.50000000  -0.00000000  -0.00000000  1
  C  C19  1  0.50000000  -0.00000000  0.50000000  1
  C  C20  1  0.00000000  0.50000000  0.50000000  1
