# generated using pymatgen
data_In(CoSb3)16
_symmetry_space_group_name_H-M   'P 1'
_cell_length_a   7.94406577
_cell_length_b   7.94406577
_cell_length_c   25.91609966
_cell_angle_alpha   89.97866443
_cell_angle_beta   90.02133557
_cell_angle_gamma   109.50897684
_symmetry_Int_Tables_number   1
_chemical_formula_structural   In(CoSb3)16
_chemical_formula_sum   'In1 Co16 Sb48'
_cell_volume   1541.62132141
_cell_formula_units_Z   1
loop_
 _symmetry_equiv_pos_site_id
 _symmetry_equiv_pos_as_xyz
  1  'x, y, z'
loop_
 _atom_site_type_symbol
 _atom_site_label
 _atom_site_symmetry_multiplicity
 _atom_site_fract_x
 _atom_site_fract_y
 _atom_site_fract_z
 _atom_site_occupancy
  In  In0  1  -0.00000000  0.00000000  0.00000000  1
  Co  Co1  1  0.74969087  0.74982402  0.12493337  1
  Co  Co2  1  0.25009052  0.25000525  0.37490520  1
  Co  Co3  1  0.74990948  0.74999475  0.62509480  1
  Co  Co4  1  0.25030913  0.25017598  0.87506663  1
  Co  Co5  1  0.99990446  0.50008926  0.24984735  1
  Co  Co6  1  0.50000000  0.00000000  0.50000000  1
  Co  Co7  1  0.00009554  0.49991074  0.75015265  1
  Co  Co8  1  0.50000000  0.00000000  0.00000000  1
  Co  Co9  1  0.49991074  0.00009554  0.24984735  1
  Co  Co10  1  -0.00000000  0.50000000  0.50000000  1
  Co  Co11  1  0.50008926  0.99990446  0.75015265  1
  Co  Co12  1  -0.00000000  0.50000000  0.00000000  1
  Co  Co13  1  0.25017598  0.25030913  0.12493337  1
  Co  Co14  1  0.74999475  0.74990948  0.37490520  1
  Co  Co15  1  0.25000525  0.25009052  0.62509480  1
  Co  Co16  1  0.74982402  0.74969087  0.87506663  1
  Sb  Sb17  1  0.82522600  0.49364858  0.16714580  1
  Sb  Sb18  1  0.32617664  0.99305355  0.41664926  1
  Sb  Sb19  1  0.82643409  0.49298864  0.66651683  1
  Sb  Sb20  1  0.32878228  0.99282849  0.91582721  1
  Sb  Sb21  1  0.67121772  0.00717151  0.08417279  1
  Sb  Sb22  1  0.17356591  0.50701136  0.33348317  1
  Sb  Sb23  1  0.67382336  0.00694645  0.58335074  1
  Sb  Sb24  1  0.17477400  0.50635142  0.83285420  1
  Sb  Sb25  1  0.50635142  0.17477400  0.16714580  1
  Sb  Sb26  1  0.00694645  0.67382336  0.41664926  1
  Sb  Sb27  1  0.50701136  0.17356591  0.66651683  1
  Sb  Sb28  1  0.00717151  0.67121772  0.91582721  1
  Sb  Sb29  1  0.99282849  0.32878228  0.08417279  1
  Sb  Sb30  1  0.49298864  0.82643409  0.33348317  1
  Sb  Sb31  1  0.99305355  0.32617664  0.58335074  1
  Sb  Sb32  1  0.49364858  0.82522600  0.83285420  1
  Sb  Sb33  1  0.74554755  0.58462826  0.04027256  1
  Sb  Sb34  1  0.24670808  0.08669461  0.29000009  1
  Sb  Sb35  1  0.74648159  0.58671245  0.53990584  1
  Sb  Sb36  1  0.24636041  0.08654426  0.78969694  1
  Sb  Sb37  1  0.75363959  0.91345574  0.21030306  1
  Sb  Sb38  1  0.25351841  0.41328755  0.46009416  1
  Sb  Sb39  1  0.75329192  0.91330539  0.70999991  1
  Sb  Sb40  1  0.25445245  0.41537174  0.95972744  1
  Sb  Sb41  1  0.08654426  0.24636041  0.21030306  1
  Sb  Sb42  1  0.58671245  0.74648159  0.46009416  1
  Sb  Sb43  1  0.08669461  0.24670808  0.70999991  1
  Sb  Sb44  1  0.58462826  0.74554755  0.95972744  1
  Sb  Sb45  1  0.41537174  0.25445245  0.04027256  1
  Sb  Sb46  1  0.91330539  0.75329192  0.29000009  1
  Sb  Sb47  1  0.41328755  0.25351841  0.53990584  1
  Sb  Sb48  1  0.91345574  0.75363959  0.78969694  1
  Sb  Sb49  1  0.25465820  0.74534180  0.20716679  1
  Sb  Sb50  1  0.75371729  0.24628271  0.45658087  1
  Sb  Sb51  1  0.25357918  0.74642082  0.70643728  1
  Sb  Sb52  1  0.75149494  0.24850506  0.95597914  1
  Sb  Sb53  1  0.24850506  0.75149494  0.04402086  1
  Sb  Sb54  1  0.74642082  0.25357918  0.29356272  1
  Sb  Sb55  1  0.24628271  0.75371729  0.54341913  1
  Sb  Sb56  1  0.74534180  0.25465820  0.79283321  1
  Sb  Sb57  1  0.41372058  0.58627942  0.12734236  1
  Sb  Sb58  1  0.91307748  0.08692252  0.37677576  1
  Sb  Sb59  1  0.41319184  0.58680816  0.62668592  1
  Sb  Sb60  1  0.91254431  0.08745569  0.87555286  1
  Sb  Sb61  1  0.08745569  0.91254431  0.12444714  1
  Sb  Sb62  1  0.58680816  0.41319184  0.37331408  1
  Sb  Sb63  1  0.08692252  0.91307748  0.62322424  1
  Sb  Sb64  1  0.58627942  0.41372058  0.87265764  1
