# generated using pymatgen
data_K2AlSn(PO4)3
_symmetry_space_group_name_H-M   'P 1'
_cell_length_a   9.94269481
_cell_length_b   9.94269481
_cell_length_c   9.94269481
_cell_angle_alpha   90.00000000
_cell_angle_beta   90.00000000
_cell_angle_gamma   90.00000000
_symmetry_Int_Tables_number   1
_chemical_formula_structural   K2AlSn(PO4)3
_chemical_formula_sum   'K8 Al4 Sn4 P12 O48'
_cell_volume   982.90677136
_cell_formula_units_Z   4
loop_
 _symmetry_equiv_pos_site_id
 _symmetry_equiv_pos_as_xyz
  1  'x, y, z'
loop_
 _atom_site_type_symbol
 _atom_site_label
 _atom_site_symmetry_multiplicity
 _atom_site_fract_x
 _atom_site_fract_y
 _atom_site_fract_z
 _atom_site_occupancy
  K  K0  1  0.45564513  0.45564513  0.45564513  1
  K  K1  1  0.95564513  0.04435487  0.54435487  1
  K  K2  1  0.04435487  0.54435487  0.95564513  1
  K  K3  1  0.54435487  0.95564513  0.04435487  1
  K  K4  1  0.81592383  0.31592383  0.18407617  1
  K  K5  1  0.68407617  0.68407617  0.68407617  1
  K  K6  1  0.18407617  0.81592383  0.31592383  1
  K  K7  1  0.31592383  0.18407617  0.81592383  1
  Al  Al8  1  0.60482460  0.10482460  0.39517540  1
  Al  Al9  1  0.89517540  0.89517540  0.89517540  1
  Al  Al10  1  0.39517540  0.60482460  0.10482460  1
  Al  Al11  1  0.10482460  0.39517540  0.60482460  1
  Sn  Sn12  1  0.83692182  0.66307818  0.33692182  1
  Sn  Sn13  1  0.66307818  0.33692182  0.83692182  1
  Sn  Sn14  1  0.33692182  0.83692182  0.66307818  1
  Sn  Sn15  1  0.16307818  0.16307818  0.16307818  1
  P  P16  1  0.51906645  0.79498846  0.36820011  1
  P  P17  1  0.86820011  0.98093355  0.20501154  1
  P  P18  1  0.70501154  0.63179989  0.01906645  1
  P  P19  1  0.98093355  0.20501154  0.86820011  1
  P  P20  1  0.63179989  0.01906645  0.70501154  1
  P  P21  1  0.79498846  0.36820011  0.51906645  1
  P  P22  1  0.01906645  0.70501154  0.63179989  1
  P  P23  1  0.36820011  0.51906645  0.79498846  1
  P  P24  1  0.20501154  0.86820011  0.98093355  1
  P  P25  1  0.48093355  0.29498846  0.13179989  1
  P  P26  1  0.13179989  0.48093355  0.29498846  1
  P  P27  1  0.29498846  0.13179989  0.48093355  1
  O  O28  1  0.45556063  0.70935175  0.25709721  1
  O  O29  1  0.75709721  0.04443937  0.29064825  1
  O  O30  1  0.79064825  0.74290279  0.95556063  1
  O  O31  1  0.04443937  0.29064825  0.75709721  1
  O  O32  1  0.74290279  0.95556063  0.79064825  1
  O  O33  1  0.70935175  0.25709721  0.45556063  1
  O  O34  1  0.95556063  0.79064825  0.74290279  1
  O  O35  1  0.25709721  0.45556063  0.70935175  1
  O  O36  1  0.29064825  0.75709721  0.04443937  1
  O  O37  1  0.54443937  0.20935175  0.24290279  1
  O  O38  1  0.24290279  0.54443937  0.20935175  1
  O  O39  1  0.20935175  0.24290279  0.54443937  1
  O  O40  1  0.66462916  0.75088449  0.40471496  1
  O  O41  1  0.90471496  0.83537084  0.24911551  1
  O  O42  1  0.74911551  0.59528504  0.16462916  1
  O  O43  1  0.83537084  0.24911551  0.90471496  1
  O  O44  1  0.59528504  0.16462916  0.74911551  1
  O  O45  1  0.75088449  0.40471496  0.66462916  1
  O  O46  1  0.16462916  0.74911551  0.59528504  1
  O  O47  1  0.40471496  0.66462916  0.75088449  1
  O  O48  1  0.24911551  0.90471496  0.83537084  1
  O  O49  1  0.33537084  0.25088449  0.09528504  1
  O  O50  1  0.09528504  0.33537084  0.25088449  1
  O  O51  1  0.25088449  0.09528504  0.33537084  1
  O  O52  1  0.43632227  0.76192729  0.49838594  1
  O  O53  1  0.99838594  0.06367773  0.23807271  1
  O  O54  1  0.73807271  0.50161406  0.93632227  1
  O  O55  1  0.06367773  0.23807271  0.99838594  1
  O  O56  1  0.50161406  0.93632227  0.73807271  1
  O  O57  1  0.76192729  0.49838594  0.43632227  1
  O  O58  1  0.93632227  0.73807271  0.50161406  1
  O  O59  1  0.49838594  0.43632227  0.76192729  1
  O  O60  1  0.23807271  0.99838594  0.06367773  1
  O  O61  1  0.56367773  0.26192729  0.00161406  1
  O  O62  1  0.00161406  0.56367773  0.26192729  1
  O  O63  1  0.26192729  0.00161406  0.56367773  1
  O  O64  1  0.51462551  0.94503903  0.33255153  1
  O  O65  1  0.83255153  0.98537449  0.05496097  1
  O  O66  1  0.55496097  0.66744847  0.01462551  1
  O  O67  1  0.98537449  0.05496097  0.83255153  1
  O  O68  1  0.66744847  0.01462551  0.55496097  1
  O  O69  1  0.94503903  0.33255153  0.51462551  1
  O  O70  1  0.01462551  0.55496097  0.66744847  1
  O  O71  1  0.33255153  0.51462551  0.94503903  1
  O  O72  1  0.05496097  0.83255153  0.98537449  1
  O  O73  1  0.48537449  0.44503903  0.16744847  1
  O  O74  1  0.16744847  0.48537449  0.44503903  1
  O  O75  1  0.44503903  0.16744847  0.48537449  1
