# generated using pymatgen
data_K3Rb5(Mo3O10)4
_symmetry_space_group_name_H-M   'P 1'
_cell_length_a   8.42291953
_cell_length_b   11.18530233
_cell_length_c   11.54105144
_cell_angle_alpha   95.05812543
_cell_angle_beta   82.30469234
_cell_angle_gamma   101.69663189
_symmetry_Int_Tables_number   1
_chemical_formula_structural   K3Rb5(Mo3O10)4
_chemical_formula_sum   'K3 Rb5 Mo12 O40'
_cell_volume   1053.06064543
_cell_formula_units_Z   1
loop_
 _symmetry_equiv_pos_site_id
 _symmetry_equiv_pos_as_xyz
  1  'x, y, z'
loop_
 _atom_site_type_symbol
 _atom_site_label
 _atom_site_symmetry_multiplicity
 _atom_site_fract_x
 _atom_site_fract_y
 _atom_site_fract_z
 _atom_site_occupancy
  K  K0  1  0.33328932  0.31053207  0.46355826  1
  K  K1  1  0.16674146  0.18949796  0.03644631  1
  K  K2  1  0.66670957  0.68946923  0.53643679  1
  Rb  Rb3  1  0.68139740  0.44698281  0.13999898  1
  Rb  Rb4  1  0.18145038  0.94702602  0.63994758  1
  Rb  Rb5  1  0.31856881  0.55297071  0.86001496  1
  Rb  Rb6  1  0.81858074  0.05298877  0.36003302  1
  Rb  Rb7  1  0.83320492  0.81024373  0.96320833  1
  Mo  Mo8  1  0.34838136  0.91039426  0.94159895  1
  Mo  Mo9  1  0.84779660  0.41031235  0.44152942  1
  Mo  Mo10  1  0.65203411  0.08993823  0.05855587  1
  Mo  Mo11  1  0.15220877  0.58968552  0.55847365  1
  Mo  Mo12  1  0.12925049  0.46316089  0.22747490  1
  Mo  Mo13  1  0.62916371  0.96323532  0.72737884  1
  Mo  Mo14  1  0.87073489  0.53655339  0.77235492  1
  Mo  Mo15  1  0.37071889  0.03681832  0.27252295  1
  Mo  Mo16  1  0.54250715  0.24418074  0.79033761  1
  Mo  Mo17  1  0.04277302  0.74410997  0.29075093  1
  Mo  Mo18  1  0.45718432  0.75580363  0.20986691  1
  Mo  Mo19  1  0.95743855  0.25578282  0.70965200  1
  O  O20  1  0.23859316  0.63856175  0.23332530  1
  O  O21  1  0.73869446  0.13861932  0.73328336  1
  O  O22  1  0.76130720  0.36131297  0.76668746  1
  O  O23  1  0.26136584  0.86142772  0.26673777  1
  O  O24  1  0.44385420  0.32867707  0.90306261  1
  O  O25  1  0.94382061  0.82871872  0.40316328  1
  O  O26  1  0.55514808  0.67076949  0.09740428  1
  O  O27  1  0.05614281  0.17132584  0.59694542  1
  O  O28  1  0.29798855  0.39269229  0.22308210  1
  O  O29  1  0.79796598  0.89284243  0.72272139  1
  O  O30  1  0.70197655  0.60700735  0.77672367  1
  O  O31  1  0.20200222  0.10729759  0.27692382  1
  O  O32  1  0.09046948  0.44529474  0.08196031  1
  O  O33  1  0.59039109  0.94530737  0.58190047  1
  O  O34  1  0.90960754  0.55424956  0.91784994  1
  O  O35  1  0.40952956  0.05470636  0.41803624  1
  O  O36  1  0.94364980  0.57911036  0.31133818  1
  O  O37  1  0.44367115  0.07927662  0.81124593  1
  O  O38  1  0.05632684  0.42078986  0.68867946  1
  O  O39  1  0.55638809  0.92075432  0.18862236  1
  O  O40  1  0.96436554  0.77083724  0.16641353  1
  O  O41  1  0.46397856  0.27093758  0.66585611  1
  O  O42  1  0.03601073  0.22906032  0.83413323  1
  O  O43  1  0.53603543  0.72907922  0.33419753  1
  O  O44  1  0.11876043  0.46622891  0.43525792  1
  O  O45  1  0.61803220  0.96691352  0.93507935  1
  O  O46  1  0.88125379  0.53376829  0.56474321  1
  O  O47  1  0.38121253  0.03384740  0.06489617  1
  O  O48  1  0.31561363  0.77857190  0.02036040  1
  O  O49  1  0.81568761  0.27862894  0.52035018  1
  O  O50  1  0.68435316  0.22148892  0.97962967  1
  O  O51  1  0.18432512  0.72138407  0.47964368  1
  O  O52  1  0.65399592  0.42249822  0.40875605  1
  O  O53  1  0.15538728  0.92322190  0.90834827  1
  O  O54  1  0.34599980  0.57749911  0.59124326  1
  O  O55  1  0.84587578  0.07763808  0.09125988  1
  O  O56  1  0.94140399  0.34451017  0.28754902  1
  O  O57  1  0.44152461  0.84447467  0.78750491  1
  O  O58  1  0.05858553  0.65545825  0.71244243  1
  O  O59  1  0.55857069  0.15552483  0.21250069  1
