# generated using pymatgen
data_Ca4Mg4V3AsO20
_symmetry_space_group_name_H-M   'P 1'
_cell_length_a   6.06044670
_cell_length_b   7.43056367
_cell_length_c   9.15359585
_cell_angle_alpha   90.37598789
_cell_angle_beta   89.83219901
_cell_angle_gamma   90.04459434
_symmetry_Int_Tables_number   1
_chemical_formula_structural   Ca4Mg4V3AsO20
_chemical_formula_sum   'Ca4 Mg4 V3 As1 O20'
_cell_volume   412.19886365
_cell_formula_units_Z   1
loop_
 _symmetry_equiv_pos_site_id
 _symmetry_equiv_pos_as_xyz
  1  'x, y, z'
loop_
 _atom_site_type_symbol
 _atom_site_label
 _atom_site_symmetry_multiplicity
 _atom_site_fract_x
 _atom_site_fract_y
 _atom_site_fract_z
 _atom_site_occupancy
  Ca  Ca0  1  0.97450440  0.86698790  0.83676583  1
  Ca  Ca1  1  0.47396716  0.63035365  0.16333012  1
  Ca  Ca2  1  0.02895674  0.37251032  0.66067217  1
  Ca  Ca3  1  0.52539093  0.13362732  0.33727627  1
  Mg  Mg4  1  0.74480802  0.25709151  0.99450556  1
  Mg  Mg5  1  0.24747923  0.24154083  0.00425820  1
  Mg  Mg6  1  0.25475519  0.75975739  0.50525187  1
  Mg  Mg7  1  0.75533712  0.74326545  0.49644686  1
  V  V8  1  0.98489824  0.38097472  0.31639323  1
  V  V9  1  0.51444171  0.61930068  0.81714580  1
  V  V10  1  0.01504551  0.88130733  0.18254605  1
  As  As11  1  0.48466015  0.12023645  0.68310679  1
  O  O12  1  0.25991756  0.10493901  0.80023567  1
  O  O13  1  0.75474553  0.39195578  0.20084210  1
  O  O14  1  0.74643800  0.60920249  0.70194435  1
  O  O15  1  0.24520533  0.89199648  0.29838913  1
  O  O16  1  0.41555842  0.29099820  0.56576914  1
  O  O17  1  0.92104041  0.20835629  0.43256548  1
  O  O18  1  0.57688312  0.79133992  0.93559649  1
  O  O19  1  0.07675416  0.70687831  0.06580427  1
  O  O20  1  0.00640314  0.38361794  0.91069561  1
  O  O21  1  0.50538849  0.11320259  0.08826083  1
  O  O22  1  0.99530206  0.88755093  0.58857775  1
  O  O23  1  0.49583885  0.61586006  0.41256689  1
  O  O24  1  0.51057457  0.93717121  0.56380407  1
  O  O25  1  0.01213974  0.56419724  0.44005751  1
  O  O26  1  0.48911941  0.43613428  0.93926323  1
  O  O27  1  0.98882264  0.06303697  0.05837165  1
  O  O28  1  0.73144547  0.14679875  0.77602694  1
  O  O29  1  0.23655199  0.34835819  0.22222362  1
  O  O30  1  0.26304380  0.65274173  0.72363642  1
  O  O31  1  0.76458290  0.84871009  0.27767011  1
