# generated using pymatgen
data_La2Al7Ni
_symmetry_space_group_name_H-M   'P 1'
_cell_length_a   6.13546970
_cell_length_b   6.14323759
_cell_length_c   11.57395100
_cell_angle_alpha   74.60983132
_cell_angle_beta   74.62977256
_cell_angle_gamma   90.00000000
_symmetry_Int_Tables_number   1
_chemical_formula_structural   La2Al7Ni
_chemical_formula_sum   'La4 Al14 Ni2'
_cell_volume   404.39204414
_cell_formula_units_Z   2
loop_
 _symmetry_equiv_pos_site_id
 _symmetry_equiv_pos_as_xyz
  1  'x, y, z'
loop_
 _atom_site_type_symbol
 _atom_site_label
 _atom_site_symmetry_multiplicity
 _atom_site_fract_x
 _atom_site_fract_y
 _atom_site_fract_z
 _atom_site_occupancy
  La  La0  1  0.99633796  0.99633796  0.00732409  1
  La  La1  1  0.49952528  0.49952528  0.00094944  1
  La  La2  1  0.74865470  0.24865470  0.50269059  1
  La  La3  1  0.24689369  0.74689369  0.50621261  1
  Al  Al4  1  0.20435156  0.20435156  0.59129688  1
  Al  Al5  1  0.81063086  0.81063086  0.37873829  1
  Al  Al6  1  0.60251410  0.13140838  0.25511845  1
  Al  Al7  1  0.14236745  0.61347317  0.25511845  1
  Al  Al8  1  0.60251410  0.61347317  0.25511845  1
  Al  Al9  1  0.14236745  0.13140838  0.25511845  1
  Al  Al10  1  0.86453810  0.34974236  0.75493935  1
  Al  Al11  1  0.38052255  0.89531829  0.75493935  1
  Al  Al12  1  0.86453810  0.89531829  0.75493935  1
  Al  Al13  1  0.38052255  0.34974236  0.75493935  1
  Al  Al14  1  0.69211988  0.69211988  0.61576024  1
  Al  Al15  1  0.06176678  0.56176678  0.87646643  1
  Al  Al16  1  0.45380635  0.95380635  0.09238730  1
  Al  Al17  1  0.94300206  0.44300206  0.11399588  1
  Ni  Ni18  1  0.31434097  0.31434097  0.37131807  1
  Ni  Ni19  1  0.56351552  0.06351552  0.87296896  1
