# generated using pymatgen
data_GdB2HO5
_symmetry_space_group_name_H-M   'P 1'
_cell_length_a   5.59737197
_cell_length_b   5.68354274
_cell_length_c   11.86717760
_cell_angle_alpha   90.00000000
_cell_angle_beta   90.00000000
_cell_angle_gamma   101.83637062
_symmetry_Int_Tables_number   1
_chemical_formula_structural   GdB2HO5
_chemical_formula_sum   'Gd4 B8 H4 O20'
_cell_volume   369.50210421
_cell_formula_units_Z   4
loop_
 _symmetry_equiv_pos_site_id
 _symmetry_equiv_pos_as_xyz
  1  'x, y, z'
loop_
 _atom_site_type_symbol
 _atom_site_label
 _atom_site_symmetry_multiplicity
 _atom_site_fract_x
 _atom_site_fract_y
 _atom_site_fract_z
 _atom_site_occupancy
  Gd  Gd0  1  0.31170210  0.20712903  0.57654761  1
  Gd  Gd1  1  0.18829790  0.29287097  0.07654761  1
  Gd  Gd2  1  0.65216450  0.76681062  0.45034998  1
  Gd  Gd3  1  0.84783550  0.73318938  0.95034998  1
  B  B4  1  0.39770929  0.11327398  0.86896969  1
  B  B5  1  0.10229071  0.38672602  0.36896969  1
  B  B6  1  0.62831114  0.90423865  0.14800106  1
  B  B7  1  0.87168886  0.59576135  0.64800106  1
  B  B8  1  0.38741499  0.13410184  0.28921688  1
  B  B9  1  0.11258501  0.36589816  0.78921688  1
  B  B10  1  0.64296625  0.89297323  0.72771847  1
  B  B11  1  0.85703375  0.60702677  0.22771847  1
  H  H12  1  0.42313904  0.46133348  0.90049896  1
  H  H13  1  0.07686096  0.03866652  0.40049896  1
  H  H14  1  0.37246457  0.81809447  0.02221154  1
  H  H15  1  0.12753543  0.68190553  0.52221154  1
  O  O16  1  0.47297245  0.07351534  0.18628603  1
  O  O17  1  0.02702755  0.42648466  0.68628603  1
  O  O18  1  0.57993388  0.97668580  0.83238756  1
  O  O19  1  0.92006612  0.52331420  0.33238756  1
  O  O20  1  0.47233671  0.72169960  0.06832790  1
  O  O21  1  0.02766329  0.77830040  0.56832790  1
  O  O22  1  0.52946729  0.35175278  0.92496845  1
  O  O23  1  0.97053271  0.14824722  0.42496845  1
  O  O24  1  0.41344839  0.04193196  0.39259542  1
  O  O25  1  0.08655161  0.45806804  0.89259542  1
  O  O26  1  0.56701574  0.94825845  0.62489950  1
  O  O27  1  0.93298426  0.55174155  0.12489950  1
  O  O28  1  0.26087954  0.19389236  0.77282417  1
  O  O29  1  0.23912046  0.30610764  0.27282417  1
  O  O30  1  0.69693199  0.76468089  0.24495383  1
  O  O31  1  0.80306801  0.73531911  0.74495383  1
  O  O32  1  0.27114956  0.51642128  0.45010136  1
  O  O33  1  0.22885044  0.98357872  0.95010136  1
  O  O34  1  0.66056776  0.47829531  0.58614158  1
  O  O35  1  0.83943224  0.02170469  0.08614158  1
