# generated using pymatgen
data_Cu12Sb3AsS16
_symmetry_space_group_name_H-M   'P 1'
_cell_length_a   6.57436826
_cell_length_b   6.57436826
_cell_length_c   15.27552190
_cell_angle_alpha   90.00000000
_cell_angle_beta   90.00000000
_cell_angle_gamma   70.88279326
_symmetry_Int_Tables_number   1
_chemical_formula_structural   Cu12Sb3AsS16
_chemical_formula_sum   'Cu12 Sb3 As1 S16'
_cell_volume   623.83143605
_cell_formula_units_Z   1
loop_
 _symmetry_equiv_pos_site_id
 _symmetry_equiv_pos_as_xyz
  1  'x, y, z'
loop_
 _atom_site_type_symbol
 _atom_site_label
 _atom_site_symmetry_multiplicity
 _atom_site_fract_x
 _atom_site_fract_y
 _atom_site_fract_z
 _atom_site_occupancy
  Cu  Cu0  1  0.99949193  0.99949193  0.25000000  1
  Cu  Cu1  1  0.50038450  0.50038450  0.50167785  1
  Cu  Cu2  1  0.99688504  0.99688504  0.75000000  1
  Cu  Cu3  1  0.50038450  0.50038450  0.99832215  1
  Cu  Cu4  1  0.00011066  0.50022482  0.37502291  1
  Cu  Cu5  1  0.50274615  0.99741760  0.62663094  1
  Cu  Cu6  1  0.99741760  0.50274615  0.87336906  1
  Cu  Cu7  1  0.50022482  0.00011066  0.12497709  1
  Cu  Cu8  1  0.50022482  0.00011066  0.37502291  1
  Cu  Cu9  1  0.99741760  0.50274615  0.62663094  1
  Cu  Cu10  1  0.50274615  0.99741760  0.87336906  1
  Cu  Cu11  1  0.00011066  0.50022482  0.12497709  1
  Sb  Sb12  1  0.00000803  0.00000803  0.99965797  1
  Sb  Sb13  1  0.49985852  0.49985852  0.25000000  1
  Sb  Sb14  1  0.00000803  0.00000803  0.50034203  1
  As  As15  1  0.49996613  0.49996613  0.75000000  1
  S  S16  1  0.13339111  0.13339111  0.63190122  1
  S  S17  1  0.62718202  0.62718202  0.87398711  1
  S  S18  1  0.13338327  0.13338327  0.13214432  1
  S  S19  1  0.63353777  0.63353777  0.38291425  1
  S  S20  1  0.13339111  0.13339111  0.86809878  1
  S  S21  1  0.63353777  0.63353777  0.11708575  1
  S  S22  1  0.13338327  0.13338327  0.36785568  1
  S  S23  1  0.62718202  0.62718202  0.62601289  1
  S  S24  1  0.13079371  0.60172134  0.99947953  1
  S  S25  1  0.63179589  0.10114311  0.25000000  1
  S  S26  1  0.13079371  0.60172134  0.50052047  1
  S  S27  1  0.62510080  0.12395661  0.75000000  1
  S  S28  1  0.60172134  0.13079371  0.99947953  1
  S  S29  1  0.10114311  0.63179589  0.25000000  1
  S  S30  1  0.60172134  0.13079371  0.50052047  1
  S  S31  1  0.12395661  0.62510080  0.75000000  1
