# generated using pymatgen
data_DyTiFe11
_symmetry_space_group_name_H-M   'P 1'
_cell_length_a   4.71998129
_cell_length_b   6.43946040
_cell_length_c   6.43946040
_cell_angle_alpha   97.39503026
_cell_angle_beta   111.49923610
_cell_angle_gamma   68.50076390
_symmetry_Int_Tables_number   1
_chemical_formula_structural   DyTiFe11
_chemical_formula_sum   'Dy1 Ti1 Fe11'
_cell_volume   169.43007190
_cell_formula_units_Z   1
loop_
 _symmetry_equiv_pos_site_id
 _symmetry_equiv_pos_as_xyz
  1  'x, y, z'
loop_
 _atom_site_type_symbol
 _atom_site_label
 _atom_site_symmetry_multiplicity
 _atom_site_fract_x
 _atom_site_fract_y
 _atom_site_fract_z
 _atom_site_occupancy
  Dy  Dy0  1  0.00615694  0.99384306  0.00615694  1
  Ti  Ti1  1  0.63188735  0.36811265  0.63188735  1
  Fe  Fe2  1  0.72864749  0.77135251  0.22864749  1
  Fe  Fe3  1  0.27575668  0.22424332  0.77575668  1
  Fe  Fe4  1  0.49919475  0.77891083  0.77730033  1
  Fe  Fe5  1  0.49919475  0.22269967  0.22108917  1
  Fe  Fe6  1  0.50021944  0.99791492  0.50013051  1
  Fe  Fe7  1  0.00199615  0.99791492  0.50013051  1
  Fe  Fe8  1  0.50021944  0.49986949  0.00208508  1
  Fe  Fe9  1  0.00199615  0.49986949  0.00208508  1
  Fe  Fe10  1  0.35431528  0.64568472  0.35431528  1
  Fe  Fe11  1  0.00020779  0.35652578  0.35694136  1
  Fe  Fe12  1  0.00020779  0.64305864  0.64347422  1
