# generated using pymatgen
data_La6NbGa11O28
_symmetry_space_group_name_H-M   'P 1'
_cell_length_a   8.26841438
_cell_length_b   9.80353345
_cell_length_c   9.81258393
_cell_angle_alpha   63.95109280
_cell_angle_beta   64.98772731
_cell_angle_gamma   64.65855066
_symmetry_Int_Tables_number   1
_chemical_formula_structural   La6NbGa11O28
_chemical_formula_sum   'La6 Nb1 Ga11 O28'
_cell_volume   618.23673776
_cell_formula_units_Z   1
loop_
 _symmetry_equiv_pos_site_id
 _symmetry_equiv_pos_as_xyz
  1  'x, y, z'
loop_
 _atom_site_type_symbol
 _atom_site_label
 _atom_site_symmetry_multiplicity
 _atom_site_fract_x
 _atom_site_fract_y
 _atom_site_fract_z
 _atom_site_occupancy
  La  La0  1  0.00028022  0.28890635  0.28575572  1
  La  La1  1  0.99924993  0.78578668  0.79054521  1
  La  La2  1  0.41746256  0.00210829  0.99981700  1
  La  La3  1  0.43408799  0.50583610  0.49941423  1
  La  La4  1  0.57589468  0.71137555  0.71960195  1
  La  La5  1  0.57439893  0.21268586  0.21220801  1
  Nb  Nb6  1  0.00224054  0.49976452  0.49974087  1
  Ga  Ga7  1  0.33148754  0.93676730  0.40495843  1
  Ga  Ga8  1  0.34324307  0.42503019  0.89803101  1
  Ga  Ga9  1  0.66341226  0.06877497  0.59673332  1
  Ga  Ga10  1  0.66184393  0.57253539  0.10358690  1
  Ga  Ga11  1  0.99844672  0.87586499  0.37082660  1
  Ga  Ga12  1  0.00029895  0.36953460  0.87757460  1
  Ga  Ga13  1  0.99846662  0.99711046  0.99748556  1
  Ga  Ga14  1  0.76109582  0.76979301  0.24616845  1
  Ga  Ga15  1  0.77296992  0.22998833  0.75664038  1
  Ga  Ga16  1  0.23557395  0.12925380  0.64356026  1
  Ga  Ga17  1  0.23518822  0.63831730  0.11985873  1
  O  O18  1  0.53666323  0.93033261  0.22382808  1
  O  O19  1  0.55445794  0.41363298  0.72399187  1
  O  O20  1  0.45702953  0.99111043  0.69478109  1
  O  O21  1  0.45135103  0.50226900  0.19430302  1
  O  O22  1  0.22997187  0.34642390  0.57018494  1
  O  O23  1  0.22840614  0.84736941  0.06300024  1
  O  O24  1  0.77270337  0.68181607  0.46054910  1
  O  O25  1  0.77039462  0.18062210  0.96347991  1
  O  O26  1  0.14420340  0.00805634  0.30629783  1
  O  O27  1  0.14926322  0.50277153  0.80750829  1
  O  O28  1  0.85416877  0.88016371  0.57822964  1
  O  O29  1  0.85023246  0.38026085  0.08117155  1
  O  O30  1  0.85290658  0.96645634  0.23546439  1
  O  O31  1  0.86354833  0.49189482  0.72920352  1
  O  O32  1  0.14095687  0.66026757  0.42194039  1
  O  O33  1  0.14374866  0.16089545  0.89826356  1
  O  O34  1  0.67392855  0.24126086  0.41850125  1
  O  O35  1  0.67500473  0.74086803  0.92134842  1
  O  O36  1  0.32968858  0.75813756  0.57765213  1
  O  O37  1  0.32221528  0.25668455  0.07924621  1
  O  O38  1  0.91872800  0.31513567  0.54484338  1
  O  O39  1  0.94197955  0.79280930  0.04933667  1
  O  O40  1  0.05089296  0.02656166  0.76207444  1
  O  O41  1  0.08445707  0.50421264  0.27329144  1
  O  O42  1  0.31273200  0.12087376  0.43055087  1
  O  O43  1  0.32529628  0.61089024  0.92020875  1
  O  O44  1  0.67427889  0.08021376  0.77625274  1
  O  O45  1  0.68515027  0.59177518  0.27518905  1
