# generated using pymatgen
data_Cu3Bi2S4Br
_symmetry_space_group_name_H-M   'P 1'
_cell_length_a   4.04041756
_cell_length_b   10.46239536
_cell_length_c   21.06216054
_cell_angle_alpha   90.00000000
_cell_angle_beta   90.00000000
_cell_angle_gamma   90.00000000
_symmetry_Int_Tables_number   1
_chemical_formula_structural   Cu3Bi2S4Br
_chemical_formula_sum   'Cu12 Bi8 S16 Br4'
_cell_volume   890.34904264
_cell_formula_units_Z   4
loop_
 _symmetry_equiv_pos_site_id
 _symmetry_equiv_pos_as_xyz
  1  'x, y, z'
loop_
 _atom_site_type_symbol
 _atom_site_label
 _atom_site_symmetry_multiplicity
 _atom_site_fract_x
 _atom_site_fract_y
 _atom_site_fract_z
 _atom_site_occupancy
  Cu  Cu0  1  0.34051039  0.37699178  0.12547125  1
  Cu  Cu1  1  0.84051039  0.62300822  0.37452875  1
  Cu  Cu2  1  0.65948961  0.12300822  0.62547125  1
  Cu  Cu3  1  0.15948961  0.87699178  0.87452875  1
  Cu  Cu4  1  0.27812373  0.77085830  0.03401173  1
  Cu  Cu5  1  0.77812373  0.22914170  0.46598827  1
  Cu  Cu6  1  0.72187627  0.72914170  0.53401173  1
  Cu  Cu7  1  0.22187627  0.27085830  0.96598827  1
  Cu  Cu8  1  0.93966730  0.48226521  0.03935200  1
  Cu  Cu9  1  0.43966730  0.51773479  0.46064800  1
  Cu  Cu10  1  0.06033270  0.01773479  0.53935200  1
  Cu  Cu11  1  0.56033270  0.98226521  0.96064800  1
  Bi  Bi12  1  0.76177767  0.06398678  0.12521479  1
  Bi  Bi13  1  0.26177767  0.93601322  0.37478521  1
  Bi  Bi14  1  0.23822233  0.43601322  0.62521479  1
  Bi  Bi15  1  0.73822233  0.56398678  0.87478521  1
  Bi  Bi16  1  0.83739548  0.63901223  0.19783901  1
  Bi  Bi17  1  0.33739548  0.36098777  0.30216099  1
  Bi  Bi18  1  0.16260452  0.86098777  0.69783901  1
  Bi  Bi19  1  0.66260452  0.13901223  0.80216099  1
  S  S20  1  0.26199061  0.19773510  0.07109837  1
  S  S21  1  0.76199061  0.80226490  0.42890163  1
  S  S22  1  0.73800939  0.30226490  0.57109837  1
  S  S23  1  0.23800939  0.69773510  0.92890163  1
  S  S24  1  0.25342126  0.59198002  0.10283111  1
  S  S25  1  0.75342126  0.40801998  0.39716889  1
  S  S26  1  0.74657874  0.90801998  0.60283111  1
  S  S27  1  0.24657874  0.09198002  0.89716889  1
  S  S28  1  0.75315542  0.38682703  0.20349501  1
  S  S29  1  0.25315542  0.61317297  0.29650499  1
  S  S30  1  0.24684458  0.11317297  0.70349501  1
  S  S31  1  0.74684458  0.88682703  0.79650499  1
  S  S32  1  0.77401774  0.88257761  0.04054804  1
  S  S33  1  0.27401774  0.11742239  0.45945196  1
  S  S34  1  0.22598226  0.61742239  0.54054804  1
  S  S35  1  0.72598226  0.38257761  0.95945196  1
  Br  Br36  1  0.26062285  0.88987822  0.19890280  1
  Br  Br37  1  0.76062285  0.11012178  0.30109720  1
  Br  Br38  1  0.73937715  0.61012178  0.69890280  1
  Br  Br39  1  0.23937715  0.38987822  0.80109720  1
