# generated using pymatgen
data_Er9Al5S21
_symmetry_space_group_name_H-M   'P 1'
_cell_length_a   11.33435954
_cell_length_b   11.33440650
_cell_length_c   11.33439452
_cell_angle_alpha   94.65611081
_cell_angle_beta   85.34413767
_cell_angle_gamma   85.34404408
_symmetry_Int_Tables_number   1
_chemical_formula_structural   Er9Al5S21
_chemical_formula_sum   'Er18 Al10 S42'
_cell_volume   1440.85956171
_cell_formula_units_Z   2
loop_
 _symmetry_equiv_pos_site_id
 _symmetry_equiv_pos_as_xyz
  1  'x, y, z'
loop_
 _atom_site_type_symbol
 _atom_site_label
 _atom_site_symmetry_multiplicity
 _atom_site_fract_x
 _atom_site_fract_y
 _atom_site_fract_z
 _atom_site_occupancy
  Er  Er0  1  0.25828757  0.11619094  0.88146739  1
  Er  Er1  1  0.92520585  0.45485464  0.22043535  1
  Er  Er2  1  0.59700320  0.77494927  0.54723599  1
  Er  Er3  1  0.45278232  0.40299800  0.77495623  1
  Er  Er4  1  0.11854732  0.74169805  0.11616512  1
  Er  Er5  1  0.77955317  0.07477872  0.45483535  1
  Er  Er6  1  0.54517139  0.22044150  0.07479101  1
  Er  Er7  1  0.22503440  0.54723832  0.40299953  1
  Er  Er8  1  0.88382882  0.88148177  0.74168608  1
  Er  Er9  1  0.41544638  0.21017234  0.44190506  1
  Er  Er10  1  0.07422218  0.54525629  0.77999171  1
  Er  Er11  1  0.75315132  0.87524653  0.10513217  1
  Er  Er12  1  0.21997093  0.92577720  0.54530123  1
  Er  Er13  1  0.89487328  0.24683696  0.87523951  1
  Er  Er14  1  0.55810472  0.58456935  0.21018360  1
  Er  Er15  1  0.12475350  0.10514267  0.24685095  1
  Er  Er16  1  0.78983069  0.44190311  0.58455788  1
  Er  Er17  1  0.45469057  0.78001115  0.92580653  1
  Al  Al18  1  0.94680482  0.72129654  0.38867601  1
  Al  Al19  1  0.61132305  0.05319056  0.72129246  1
  Al  Al20  1  0.27870865  0.38868383  0.05319302  1
  Al  Al21  1  0.44670568  0.88684438  0.22308903  1
  Al  Al22  1  0.11314963  0.22308707  0.55329662  1
  Al  Al23  1  0.77691227  0.55329164  0.88684755  1
  Al  Al24  1  0.14454960  0.85545578  0.85545092  1
  Al  Al25  1  0.82877645  0.17122576  0.17122533  1
  Al  Al26  1  0.32895887  0.67103544  0.67103971  1
  Al  Al27  1  0.64452071  0.35547644  0.35547943  1
  S  S28  1  0.82275545  0.84404411  0.51304009  1
  S  S29  1  0.48696491  0.17723949  0.84404487  1
  S  S30  1  0.15595603  0.51304751  0.17723544  1
  S  S31  1  0.65606894  0.67749436  0.01288645  1
  S  S32  1  0.32250307  0.01287976  0.34393253  1
  S  S33  1  0.98711315  0.34393290  0.67750067  1
  S  S34  1  0.98458029  0.53814396  0.44678734  1
  S  S35  1  0.64412357  0.87047825  0.78024997  1
  S  S36  1  0.30738436  0.20276153  0.10798602  1
  S  S37  1  0.89200926  0.69261252  0.20275328  1
  S  S38  1  0.55320756  0.01541193  0.53814177  1
  S  S39  1  0.21975796  0.35588099  0.87047785  1
  S  S40  1  0.12952006  0.78024961  0.35587248  1
  S  S41  1  0.79724377  0.10798454  0.69261035  1
  S  S42  1  0.46186653  0.44679423  0.01541960  1
  S  S43  1  0.52380229  0.96585824  0.06203138  1
  S  S44  1  0.18686515  0.29848950  0.38875711  1
  S  S45  1  0.84691210  0.63147209  0.72148103  1
  S  S46  1  0.61124944  0.81313765  0.29849359  1
  S  S47  1  0.27851914  0.15308459  0.63147284  1
  S  S48  1  0.93797243  0.47619071  0.96585565  1
  S  S49  1  0.36852637  0.72147931  0.15308626  1
  S  S50  1  0.03414154  0.06202903  0.47619701  1
  S  S51  1  0.70151705  0.38874661  0.81313152  1
  S  S52  1  0.68890453  0.55614542  0.40635772  1
  S  S53  1  0.33762411  0.89188179  0.75455639  1
  S  S54  1  0.00512504  0.23638647  0.09474494  1
  S  S55  1  0.90525273  0.99487614  0.23638969  1
  S  S56  1  0.59364701  0.31109689  0.55614697  1
  S  S57  1  0.24544532  0.66237685  0.89188239  1
  S  S58  1  0.10811663  0.75455630  0.66237176  1
  S  S59  1  0.76360288  0.09474837  0.99487967  1
  S  S60  1  0.44385580  0.40635247  0.31109747  1
  S  S61  1  0.62358295  0.14730830  0.28491151  1
  S  S62  1  0.27729503  0.48077304  0.62226761  1
  S  S63  1  0.96210797  0.79292239  0.94314063  1
  S  S64  1  0.37773070  0.72270087  0.48077147  1
  S  S65  1  0.05685618  0.03789274  0.79291940  1
  S  S66  1  0.71509191  0.37641437  0.14731121  1
  S  S67  1  0.20707739  0.94314866  0.03789010  1
  S  S68  1  0.85269232  0.28490686  0.37641376  1
  S  S69  1  0.51922971  0.62226841  0.72270547  1
