# generated using pymatgen
data_Ca4TiSi4Sn3O20
_symmetry_space_group_name_H-M   'P 1'
_cell_length_a   6.74979645
_cell_length_b   8.01493782
_cell_length_c   8.00434291
_cell_angle_alpha   67.86580649
_cell_angle_beta   93.32086987
_cell_angle_gamma   93.35938927
_symmetry_Int_Tables_number   1
_chemical_formula_structural   Ca4TiSi4Sn3O20
_chemical_formula_sum   'Ca4 Ti1 Si4 Sn3 O20'
_cell_volume   400.12574740
_cell_formula_units_Z   1
loop_
 _symmetry_equiv_pos_site_id
 _symmetry_equiv_pos_as_xyz
  1  'x, y, z'
loop_
 _atom_site_type_symbol
 _atom_site_label
 _atom_site_symmetry_multiplicity
 _atom_site_fract_x
 _atom_site_fract_y
 _atom_site_fract_z
 _atom_site_occupancy
  Ca  Ca0  1  0.62265805  0.78987760  0.45548846  1
  Ca  Ca1  1  0.13050560  0.28665846  0.96215972  1
  Ca  Ca2  1  0.86949440  0.71334154  0.03784028  1
  Ca  Ca3  1  0.37734195  0.21012240  0.54451154  1
  Ti  Ti4  1  0.50000000  -0.00000000  0.00000000  1
  Si  Si5  1  0.87126169  0.05577196  0.69633116  1
  Si  Si6  1  0.37543231  0.55833068  0.19322833  1
  Si  Si7  1  0.62456769  0.44166932  0.80677167  1
  Si  Si8  1  0.12873831  0.94422804  0.30366884  1
  Sn  Sn9  1  0.00000000  0.50000000  0.50000000  1
  Sn  Sn10  1  0.74904604  0.24922044  0.24808885  1
  Sn  Sn11  1  0.25095396  0.75077956  0.75191115  1
  O  O12  1  0.87391371  0.46291161  0.28659831  1
  O  O13  1  0.37952717  0.95896684  0.80068174  1
  O  O14  1  0.62047283  0.04103316  0.19931826  1
  O  O15  1  0.12608629  0.53708839  0.71340169  1
  O  O16  1  0.46056460  0.26938342  0.85537478  1
  O  O17  1  0.95520579  0.77968074  0.34697799  1
  O  O18  1  0.70210907  0.09784618  0.52768907  1
  O  O19  1  0.20284964  0.59873844  0.02836490  1
  O  O20  1  0.04479421  0.22031926  0.65302201  1
  O  O21  1  0.53943540  0.73061658  0.14462522  1
  O  O22  1  0.79715036  0.40126156  0.97163510  1
  O  O23  1  0.29789093  0.90215382  0.47231093  1
  O  O24  1  0.46843030  0.36058506  0.22842800  1
  O  O25  1  0.96879373  0.86056747  0.73104622  1
  O  O26  1  0.23034448  0.97772782  0.11010943  1
  O  O27  1  0.71641934  0.47764626  0.60850741  1
  O  O28  1  0.03120627  0.13943253  0.26895378  1
  O  O29  1  0.53156970  0.63941494  0.77157200  1
  O  O30  1  0.28358066  0.52235374  0.39149259  1
  O  O31  1  0.76965552  0.02227218  0.88989057  1
