# generated using pymatgen
data_Ce2NiPt
_symmetry_space_group_name_H-M   'P 1'
_cell_length_a   3.75251503
_cell_length_b   4.31313268
_cell_length_c   5.76112683
_cell_angle_alpha   90.00000000
_cell_angle_beta   70.99349331
_cell_angle_gamma   90.00000000
_symmetry_Int_Tables_number   1
_chemical_formula_structural   Ce2NiPt
_chemical_formula_sum   'Ce2 Ni1 Pt1'
_cell_volume   88.16085121
_cell_formula_units_Z   1
loop_
 _symmetry_equiv_pos_site_id
 _symmetry_equiv_pos_as_xyz
  1  'x, y, z'
loop_
 _atom_site_type_symbol
 _atom_site_label
 _atom_site_symmetry_multiplicity
 _atom_site_fract_x
 _atom_site_fract_y
 _atom_site_fract_z
 _atom_site_occupancy
  Ce  Ce0  1  0.13764979  0.75000000  0.72470042  1
  Ce  Ce1  1  0.86571287  0.25000000  0.26857426  1
  Ni  Ni2  1  0.41090054  0.75000000  0.17819892  1
  Pt  Pt3  1  0.58573680  0.25000000  0.82852639  1
