# generated using pymatgen
data_Ca4ZrTi3(SiO5)4
_symmetry_space_group_name_H-M   'P 1'
_cell_length_a   5.53044774
_cell_length_b   5.56689802
_cell_length_c   13.23126464
_cell_angle_alpha   87.64648082
_cell_angle_beta   87.83239023
_cell_angle_gamma   105.70931507
_symmetry_Int_Tables_number   1
_chemical_formula_structural   Ca4ZrTi3(SiO5)4
_chemical_formula_sum   'Ca4 Zr1 Ti3 Si4 O20'
_cell_volume   391.30271800
_cell_formula_units_Z   1
loop_
 _symmetry_equiv_pos_site_id
 _symmetry_equiv_pos_as_xyz
  1  'x, y, z'
loop_
 _atom_site_type_symbol
 _atom_site_label
 _atom_site_symmetry_multiplicity
 _atom_site_fract_x
 _atom_site_fract_y
 _atom_site_fract_z
 _atom_site_occupancy
  Ca  Ca0  1  0.04685678  0.71054972  0.13217080  1
  Ca  Ca1  1  0.54601224  0.20352660  0.62398163  1
  Ca  Ca2  1  0.45398776  0.79647340  0.37601837  1
  Ca  Ca3  1  0.95314322  0.28945028  0.86782920  1
  Zr  Zr4  1  0.50000000  0.50000000  -0.00000000  1
  Ti  Ti5  1  0.00000000  0.00000000  0.50000000  1
  Ti  Ti6  1  0.25002342  0.25170401  0.25371773  1
  Ti  Ti7  1  0.74997658  0.74829599  0.74628227  1
  Si  Si8  1  0.80534405  0.44392872  0.37707263  1
  Si  Si9  1  0.29721966  0.93917348  0.87046321  1
  Si  Si10  1  0.70278034  0.06082652  0.12953679  1
  Si  Si11  1  0.19465595  0.55607128  0.62292737  1
  O  O12  1  0.58184133  0.45129233  0.29854602  1
  O  O13  1  0.08239761  0.95857013  0.78966374  1
  O  O14  1  0.71548850  0.84548964  0.04960061  1
  O  O15  1  0.20398649  0.33083149  0.54665161  1
  O  O16  1  0.91760239  0.04142987  0.21033626  1
  O  O17  1  0.41815867  0.54870767  0.70145398  1
  O  O18  1  0.79601351  0.66916851  0.45334839  1
  O  O19  1  0.28451150  0.15451036  0.95039939  1
  O  O20  1  0.19586644  0.05489946  0.37717467  1
  O  O21  1  0.70861511  0.55276632  0.86644574  1
  O  O22  1  0.29138489  0.44723368  0.13355426  1
  O  O23  1  0.80413356  0.94510054  0.62282533  1
  O  O24  1  0.76915866  0.33132401  0.06368802  1
  O  O25  1  0.25401201  0.82823625  0.55755421  1
  O  O26  1  0.07875702  0.50374075  0.31224766  1
  O  O27  1  0.57466473  0.99793201  0.80796499  1
  O  O28  1  0.74598799  0.17176375  0.44244579  1
  O  O29  1  0.23084134  0.66867599  0.93631198  1
  O  O30  1  0.42533527  0.00206799  0.19203501  1
  O  O31  1  0.92124298  0.49625925  0.68775234  1
