# generated using pymatgen
data_CaNdAlO4
_symmetry_space_group_name_H-M   'P 1'
_cell_length_a   3.70891524
_cell_length_b   3.70891524
_cell_length_c   6.64862005
_cell_angle_alpha   73.80402697
_cell_angle_beta   73.80402697
_cell_angle_gamma   90.00000000
_symmetry_Int_Tables_number   1
_chemical_formula_structural   CaNdAlO4
_chemical_formula_sum   'Ca1 Nd1 Al1 O4'
_cell_volume   84.04275423
_cell_formula_units_Z   1
loop_
 _symmetry_equiv_pos_site_id
 _symmetry_equiv_pos_as_xyz
  1  'x, y, z'
loop_
 _atom_site_type_symbol
 _atom_site_label
 _atom_site_symmetry_multiplicity
 _atom_site_fract_x
 _atom_site_fract_y
 _atom_site_fract_z
 _atom_site_occupancy
  Ca  Ca0  1  0.35718555  0.35718555  0.28562889  1
  Nd  Nd1  1  0.64230714  0.64230714  0.71538571  1
  Al  Al2  1  0.99100398  0.99100398  0.01799203  1
  O  O3  1  0.16861643  0.16861643  0.66276714  1
  O  O4  1  0.83436835  0.83436835  0.33126329  1
  O  O5  1  0.00325927  0.50325927  0.99348147  1
  O  O6  1  0.50325927  0.00325927  0.99348147  1
