# generated using pymatgen
data_CaNd3Cr4O16
_symmetry_space_group_name_H-M   'P 1'
_cell_length_a   6.40470265
_cell_length_b   7.42306977
_cell_length_c   7.42306977
_cell_angle_alpha   90.00000000
_cell_angle_beta   90.00000000
_cell_angle_gamma   90.00000000
_symmetry_Int_Tables_number   1
_chemical_formula_structural   CaNd3Cr4O16
_chemical_formula_sum   'Ca1 Nd3 Cr4 O16'
_cell_volume   352.91170004
_cell_formula_units_Z   1
loop_
 _symmetry_equiv_pos_site_id
 _symmetry_equiv_pos_as_xyz
  1  'x, y, z'
loop_
 _atom_site_type_symbol
 _atom_site_label
 _atom_site_symmetry_multiplicity
 _atom_site_fract_x
 _atom_site_fract_y
 _atom_site_fract_z
 _atom_site_occupancy
  Ca  Ca0  1  0.62500000  0.50000000  0.75000000  1
  Nd  Nd1  1  0.12500000  -0.00000000  0.25000000  1
  Nd  Nd2  1  0.87331466  -0.00000000  0.75000000  1
  Nd  Nd3  1  0.37668534  0.50000000  0.25000000  1
  Cr  Cr4  1  0.87150890  0.50000000  0.25000000  1
  Cr  Cr5  1  0.37849110  -0.00000000  0.75000000  1
  Cr  Cr6  1  0.62500000  -0.00000000  0.25000000  1
  Cr  Cr7  1  0.12500000  0.50000000  0.75000000  1
  O  O8  1  0.04666173  0.32077647  0.25000000  1
  O  O9  1  0.54413695  0.81836103  0.75000000  1
  O  O10  1  0.79362524  -0.00000000  0.06911029  1
  O  O11  1  0.28452384  0.50000000  0.57316609  1
  O  O12  1  0.79362524  -0.00000000  0.43088971  1
  O  O13  1  0.28452384  0.50000000  0.92683391  1
  O  O14  1  0.04666173  0.67922353  0.25000000  1
  O  O15  1  0.54413695  0.18163897  0.75000000  1
  O  O16  1  0.45637476  0.18088971  0.25000000  1
  O  O17  1  0.96547616  0.67683391  0.75000000  1
  O  O18  1  0.70586305  0.50000000  0.43163897  1
  O  O19  1  0.20333827  0.00000000  0.92922353  1
  O  O20  1  0.70586305  0.50000000  0.06836103  1
  O  O21  1  0.20333827  0.00000000  0.57077647  1
  O  O22  1  0.45637476  0.81911029  0.25000000  1
  O  O23  1  0.96547616  0.32316609  0.75000000  1
