# generated using pymatgen
data_Cs5CoAgCl8
_symmetry_space_group_name_H-M   'P 1'
_cell_length_a   9.43765320
_cell_length_b   9.43765320
_cell_length_c   13.76869074
_cell_angle_alpha   69.98353352
_cell_angle_beta   69.98353352
_cell_angle_gamma   90.07210343
_symmetry_Int_Tables_number   1
_chemical_formula_structural   Cs5CoAgCl8
_chemical_formula_sum   'Cs10 Co2 Ag2 Cl16'
_cell_volume   1072.89882547
_cell_formula_units_Z   2
loop_
 _symmetry_equiv_pos_site_id
 _symmetry_equiv_pos_as_xyz
  1  'x, y, z'
loop_
 _atom_site_type_symbol
 _atom_site_label
 _atom_site_symmetry_multiplicity
 _atom_site_fract_x
 _atom_site_fract_y
 _atom_site_fract_z
 _atom_site_occupancy
  Cs  Cs0  1  0.75069151  0.75069151  0.50000000  1
  Cs  Cs1  1  0.25069151  0.25069151  0.50000000  1
  Cs  Cs2  1  0.94028281  0.75555818  0.81242547  1
  Cs  Cs3  1  0.25555818  0.44028281  0.81242547  1
  Cs  Cs4  1  0.75225154  0.25225154  0.81352766  1
  Cs  Cs5  1  0.43394597  0.93394597  0.81269373  1
  Cs  Cs6  1  0.06798365  0.25270828  0.18757453  1
  Cs  Cs7  1  0.75270828  0.56798365  0.18757453  1
  Cs  Cs8  1  0.24663970  0.74663970  0.18730627  1
  Cs  Cs9  1  0.56577921  0.06577921  0.18647234  1
  Co  Co10  1  0.75007678  0.25007678  0.49989696  1
  Co  Co11  1  0.24997374  0.74997374  0.50010304  1
  Ag  Ag12  1  0.53046189  0.53243961  1.00000000  1
  Ag  Ag13  1  0.03243961  0.03046189  1.00000000  1
  Cl  Cl14  1  0.83048718  0.05818079  0.61229777  1
  Cl  Cl15  1  0.55818079  0.33048718  0.61229777  1
  Cl  Cl16  1  0.05767642  0.55767642  0.61226239  1
  Cl  Cl17  1  0.33057998  0.83057998  0.61204605  1
  Cl  Cl18  1  0.17047856  0.94278495  0.38770223  1
  Cl  Cl19  1  0.44278495  0.67047856  0.38770223  1
  Cl  Cl20  1  0.94262603  0.44262603  0.38795395  1
  Cl  Cl21  1  0.66993881  0.16993881  0.38773761  1
  Cl  Cl22  1  0.63849769  0.84164923  1.00000000  1
  Cl  Cl23  1  0.34164923  0.13849769  1.00000000  1
  Cl  Cl24  1  0.85353632  0.35353632  1.00000000  1
  Cl  Cl25  1  0.14567740  0.64567740  0.00000000  1
  Cl  Cl26  1  0.60529877  0.60266775  0.80023461  1
  Cl  Cl27  1  0.10266775  0.10529877  0.80023461  1
  Cl  Cl28  1  0.40553338  0.40290236  0.19976539  1
  Cl  Cl29  1  0.90290236  0.90553338  0.19976539  1
