# generated using pymatgen
data_Cs12Sn2As6O
_symmetry_space_group_name_H-M   'P 1'
_cell_length_a   6.28130740
_cell_length_b   12.73054903
_cell_length_c   12.73378053
_cell_angle_alpha   60.00839674
_cell_angle_beta   90.00085277
_cell_angle_gamma   90.00000000
_symmetry_Int_Tables_number   1
_chemical_formula_structural   Cs12Sn2As6O
_chemical_formula_sum   'Cs12 Sn2 As6 O1'
_cell_volume   881.90522099
_cell_formula_units_Z   1
loop_
 _symmetry_equiv_pos_site_id
 _symmetry_equiv_pos_as_xyz
  1  'x, y, z'
loop_
 _atom_site_type_symbol
 _atom_site_label
 _atom_site_symmetry_multiplicity
 _atom_site_fract_x
 _atom_site_fract_y
 _atom_site_fract_z
 _atom_site_occupancy
  Cs  Cs0  1  0.72653768  0.88126817  0.88127811  1
  Cs  Cs1  1  0.72653844  0.88128234  0.23743531  1
  Cs  Cs2  1  0.72653768  0.23745372  0.88127811  1
  Cs  Cs3  1  0.27346232  0.11873183  0.11872189  1
  Cs  Cs4  1  0.27346156  0.11871766  0.76256469  1
  Cs  Cs5  1  0.27346232  0.76254628  0.11872189  1
  Cs  Cs6  1  0.75092935  0.54652398  0.54653687  1
  Cs  Cs7  1  0.75093747  0.54653145  0.90693711  1
  Cs  Cs8  1  0.75092935  0.90693915  0.54653687  1
  Cs  Cs9  1  0.24907065  0.45347602  0.45346313  1
  Cs  Cs10  1  0.24906253  0.45346855  0.09306289  1
  Cs  Cs11  1  0.24907065  0.09306085  0.45346313  1
  Sn  Sn12  1  0.25043877  0.66674469  0.66651062  1
  Sn  Sn13  1  0.74956123  0.33325531  0.33348938  1
  As  As14  1  0.74886031  0.21588109  0.21589826  1
  As  As15  1  0.74885232  0.21579436  0.56841129  1
  As  As16  1  0.74886031  0.56822065  0.21589826  1
  As  As17  1  0.25113969  0.78411891  0.78410174  1
  As  As18  1  0.25114768  0.78420564  0.43158871  1
  As  As19  1  0.25113969  0.43177935  0.78410174  1
  O  O20  1  0.50000000  0.00000000  -0.00000000  1
