# generated using pymatgen
data_AlSi3O8
_symmetry_space_group_name_H-M   'P 1'
_cell_length_a   7.71853684
_cell_length_b   7.84443328
_cell_length_c   7.78202728
_cell_angle_alpha   119.30836463
_cell_angle_beta   106.30360806
_cell_angle_gamma   106.63058892
_symmetry_Int_Tables_number   1
_chemical_formula_structural   AlSi3O8
_chemical_formula_sum   'Al2 Si6 O16'
_cell_volume   340.10237867
_cell_formula_units_Z   2
loop_
 _symmetry_equiv_pos_site_id
 _symmetry_equiv_pos_as_xyz
  1  'x, y, z'
loop_
 _atom_site_type_symbol
 _atom_site_label
 _atom_site_symmetry_multiplicity
 _atom_site_fract_x
 _atom_site_fract_y
 _atom_site_fract_z
 _atom_site_occupancy
  Al  Al0  1  0.31963633  0.76719560  0.54783060  1
  Al  Al1  1  0.68036367  0.23280440  0.45216940  1
  Si  Si2  1  0.21739801  0.38113379  0.03860124  1
  Si  Si3  1  0.21342283  0.04510003  0.38798502  1
  Si  Si4  1  0.78260199  0.61886621  0.96139876  1
  Si  Si5  1  0.78657717  0.95489997  0.61201498  1
  Si  Si6  1  0.32363806  0.54109292  0.77298941  1
  Si  Si7  1  0.67636194  0.45890708  0.22701059  1
  O  O8  1  0.59284450  0.91095600  0.65951640  1
  O  O9  1  0.57763788  0.64907660  0.90733477  1
  O  O10  1  0.40715550  0.08904400  0.34048360  1
  O  O11  1  0.42236212  0.35092340  0.09266523  1
  O  O12  1  0.23283387  0.51747921  0.93139482  1
  O  O13  1  0.23758648  0.94858069  0.53139160  1
  O  O14  1  0.76716613  0.48252079  0.06860518  1
  O  O15  1  0.76241352  0.05141931  0.46860840  1
  O  O16  1  0.00821235  0.13023513  0.85164645  1
  O  O17  1  0.99178765  0.86976487  0.14835355  1
  O  O18  1  0.27031987  0.69744351  0.71640330  1
  O  O19  1  0.72968013  0.30255649  0.28359670  1
  O  O20  1  0.21395882  0.52070023  0.27088150  1
  O  O21  1  0.22040209  0.28555469  0.53663105  1
  O  O22  1  0.78604118  0.47929977  0.72911850  1
  O  O23  1  0.77959791  0.71444531  0.46336895  1
