# generated using pymatgen
data_Ca16Mg3Sn13
_symmetry_space_group_name_H-M   'P 1'
_cell_length_a   6.04797430
_cell_length_b   9.25549050
_cell_length_c   17.53042159
_cell_angle_alpha   90.00000000
_cell_angle_beta   90.00000000
_cell_angle_gamma   109.07003134
_symmetry_Int_Tables_number   1
_chemical_formula_structural   Ca16Mg3Sn13
_chemical_formula_sum   'Ca16 Mg3 Sn13'
_cell_volume   927.44605996
_cell_formula_units_Z   1
loop_
 _symmetry_equiv_pos_site_id
 _symmetry_equiv_pos_as_xyz
  1  'x, y, z'
loop_
 _atom_site_type_symbol
 _atom_site_label
 _atom_site_symmetry_multiplicity
 _atom_site_fract_x
 _atom_site_fract_y
 _atom_site_fract_z
 _atom_site_occupancy
  Ca  Ca0  1  0.93371570  0.86609191  0.35119190  1
  Ca  Ca1  1  0.43277298  0.86561682  0.85005262  1
  Ca  Ca2  1  0.56762379  0.13390809  0.14880810  1
  Ca  Ca3  1  0.06715616  0.13438318  0.64994738  1
  Ca  Ca4  1  0.14950102  0.29916350  0.06658311  1
  Ca  Ca5  1  0.64884102  0.29858742  0.56761345  1
  Ca  Ca6  1  0.35033751  0.70083650  0.43341689  1
  Ca  Ca7  1  0.85025360  0.70141258  0.93238655  1
  Ca  Ca8  1  0.35033751  0.70083650  0.06658311  1
  Ca  Ca9  1  0.85025360  0.70141258  0.56761345  1
  Ca  Ca10  1  0.14950102  0.29916350  0.43341689  1
  Ca  Ca11  1  0.64884102  0.29858742  0.93238655  1
  Ca  Ca12  1  0.56762379  0.13390809  0.35119190  1
  Ca  Ca13  1  0.06715616  0.13438318  0.85005262  1
  Ca  Ca14  1  0.93371570  0.86609191  0.14880810  1
  Ca  Ca15  1  0.43277298  0.86561682  0.64994738  1
  Mg  Mg16  1  0.00021246  0.50000000  0.75000000  1
  Mg  Mg17  1  0.99944004  0.50000000  0.25000000  1
  Mg  Mg18  1  0.49971409  0.50000000  0.75000000  1
  Sn  Sn19  1  0.75208654  0.50000000  0.09682939  1
  Sn  Sn20  1  0.24899291  0.50000000  0.59644747  1
  Sn  Sn21  1  0.75208654  0.50000000  0.40317061  1
  Sn  Sn22  1  0.24899291  0.50000000  0.90355253  1
  Sn  Sn23  1  0.40261322  0.80712827  0.25000000  1
  Sn  Sn24  1  0.90223911  0.80536068  0.75000000  1
  Sn  Sn25  1  0.09548496  0.19287173  0.25000000  1
  Sn  Sn26  1  0.59687842  0.19463932  0.75000000  1
  Sn  Sn27  1  0.24983836  0.99972087  0.00040124  1
  Sn  Sn28  1  0.75011749  0.00027913  0.49959876  1
  Sn  Sn29  1  0.75011749  0.00027913  0.00040124  1
  Sn  Sn30  1  0.24983836  0.99972087  0.49959876  1
  Sn  Sn31  1  0.50094352  0.50000000  0.25000000  1
