# generated using pymatgen
data_BiBPbS4
_symmetry_space_group_name_H-M   'P 1'
_cell_length_a   6.13828755
_cell_length_b   6.32229923
_cell_length_c   9.40673379
_cell_angle_alpha   90.00000000
_cell_angle_beta   107.65817415
_cell_angle_gamma   90.00000000
_symmetry_Int_Tables_number   1
_chemical_formula_structural   BiBPbS4
_chemical_formula_sum   'Bi2 B2 Pb2 S8'
_cell_volume   347.85703211
_cell_formula_units_Z   2
loop_
 _symmetry_equiv_pos_site_id
 _symmetry_equiv_pos_as_xyz
  1  'x, y, z'
loop_
 _atom_site_type_symbol
 _atom_site_label
 _atom_site_symmetry_multiplicity
 _atom_site_fract_x
 _atom_site_fract_y
 _atom_site_fract_z
 _atom_site_occupancy
  Bi  Bi0  1  0.68486711  0.25038390  0.84997377  1
  Bi  Bi1  1  0.31513289  0.75038390  0.15002623  1
  B  B2  1  0.15911810  0.24979277  0.19611026  1
  B  B3  1  0.84088190  0.74979277  0.80388974  1
  Pb  Pb4  1  0.73352433  0.30960794  0.44434654  1
  Pb  Pb5  1  0.26647567  0.80960794  0.55565346  1
  S  S6  1  0.39397062  0.24318357  0.58250589  1
  S  S7  1  0.60602938  0.74318357  0.41749411  1
  S  S8  1  0.01175239  0.49253667  0.21067613  1
  S  S9  1  0.98824761  0.99253667  0.78932387  1
  S  S10  1  0.98569601  0.50677901  0.78574452  1
  S  S11  1  0.01430399  0.00677901  0.21425548  1
  S  S12  1  0.42981732  0.24851616  0.15343618  1
  S  S13  1  0.57018268  0.74851616  0.84656382  1
