# generated using pymatgen
data_Bi3Sb(WO6)2
_symmetry_space_group_name_H-M   'P 1'
_cell_length_a   5.47610595
_cell_length_b   5.51454269
_cell_length_c   8.97803673
_cell_angle_alpha   72.14251342
_cell_angle_beta   89.88989504
_cell_angle_gamma   90.20826848
_symmetry_Int_Tables_number   1
_chemical_formula_structural   Bi3Sb(WO6)2
_chemical_formula_sum   'Bi3 Sb1 W2 O12'
_cell_volume   258.05571067
_cell_formula_units_Z   1
loop_
 _symmetry_equiv_pos_site_id
 _symmetry_equiv_pos_as_xyz
  1  'x, y, z'
loop_
 _atom_site_type_symbol
 _atom_site_label
 _atom_site_symmetry_multiplicity
 _atom_site_fract_x
 _atom_site_fract_y
 _atom_site_fract_z
 _atom_site_occupancy
  Bi  Bi0  1  0.96894706  0.35453343  0.34676387  1
  Bi  Bi1  1  0.02916347  0.71093911  0.65615040  1
  Bi  Bi2  1  0.53035142  0.85795179  0.34545263  1
  Sb  Sb3  1  0.46439006  0.21832450  0.63844394  1
  W  W4  1  0.49945703  0.47236335  0.99877536  1
  W  W5  1  0.00006966  0.97275654  0.99952785  1
  O  O6  1  0.57913398  0.31734915  0.21725423  1
  O  O7  1  0.42142112  0.53231918  0.78420243  1
  O  O8  1  0.91933743  0.81719430  0.21806458  1
  O  O9  1  0.07919124  0.03369138  0.78418526  1
  O  O10  1  0.75129711  0.71577953  0.96223293  1
  O  O11  1  0.25304246  0.67834034  0.03984452  1
  O  O12  1  0.75579168  0.21850589  0.96373871  1
  O  O13  1  0.25007614  0.17725099  0.04060845  1
  O  O14  1  0.77000451  0.99541324  0.49749543  1
  O  O15  1  0.23362360  0.49507029  0.50513426  1
  O  O16  1  0.72260411  0.48901327  0.49975661  1
  O  O17  1  0.27209793  0.00760373  0.50236855  1
