# generated using pymatgen
data_Ca10P6O25
_symmetry_space_group_name_H-M   'P 1'
_cell_length_a   6.89958545
_cell_length_b   9.59223949
_cell_length_c   9.59229715
_cell_angle_alpha   119.99983248
_cell_angle_beta   89.99986200
_cell_angle_gamma   90.00017188
_symmetry_Int_Tables_number   1
_chemical_formula_structural   Ca10P6O25
_chemical_formula_sum   'Ca10 P6 O25'
_cell_volume   549.79020694
_cell_formula_units_Z   1
loop_
 _symmetry_equiv_pos_site_id
 _symmetry_equiv_pos_as_xyz
  1  'x, y, z'
loop_
 _atom_site_type_symbol
 _atom_site_label
 _atom_site_symmetry_multiplicity
 _atom_site_fract_x
 _atom_site_fract_y
 _atom_site_fract_z
 _atom_site_occupancy
  Ca  Ca0  1  0.50453394  0.66666958  0.33333320  1
  Ca  Ca1  1  0.99826081  0.33332995  0.66666387  1
  Ca  Ca2  1  0.50601793  0.33332848  0.66666380  1
  Ca  Ca3  1  0.99047460  0.66666959  0.33333479  1
  Ca  Ca4  1  0.74731147  0.22480143  0.99632236  1
  Ca  Ca5  1  0.74731391  0.00368486  0.22848291  1
  Ca  Ca6  1  0.74731362  0.77151589  0.77520570  1
  Ca  Ca7  1  0.24959005  0.72154957  0.99812239  1
  Ca  Ca8  1  0.24958631  0.00187254  0.72342383  1
  Ca  Ca9  1  0.24958895  0.27657595  0.27844565  1
  P  P10  1  0.75045747  0.03012082  0.62341210  1
  P  P11  1  0.75045767  0.37658743  0.40671091  1
  P  P12  1  0.75045953  0.59328919  0.96987554  1
  P  P13  1  0.24812720  0.97001802  0.35674009  1
  P  P14  1  0.24812652  0.64326064  0.61327775  1
  P  P15  1  0.24812404  0.38672374  0.02998461  1
  O  O16  1  0.56526711  0.08701481  0.73016346  1
  O  O17  1  0.56526762  0.26983514  0.35685931  1
  O  O18  1  0.56526922  0.64314705  0.91297890  1
  O  O19  1  0.07082218  0.91900209  0.24257606  1
  O  O20  1  0.07081875  0.75742459  0.67641876  1
  O  O21  1  0.07081778  0.32357926  0.08100509  1
  O  O22  1  0.42824701  0.91517166  0.24570047  1
  O  O23  1  0.42824672  0.75430188  0.66946404  1
  O  O24  1  0.42824392  0.33053470  0.08483801  1
  O  O25  1  0.93104610  0.08218114  0.73493435  1
  O  O26  1  0.93104729  0.26506398  0.34725222  1
  O  O27  1  0.93104834  0.65275315  0.91781421  1
  O  O28  1  0.75626499  0.12318486  0.52870376  1
  O  O29  1  0.75626677  0.47130204  0.59448093  1
  O  O30  1  0.75626563  0.40551892  0.87681742  1
  O  O31  1  0.24429161  0.87211926  0.44829888  1
  O  O32  1  0.24428988  0.55169568  0.42382156  1
  O  O33  1  0.24428911  0.57617854  0.12787399  1
  O  O34  1  0.74825988  0.84501863  0.50890242  1
  O  O35  1  0.74825914  0.49108757  0.33610578  1
  O  O36  1  0.74826065  0.66388950  0.15497871  1
  O  O37  1  0.24972588  0.15341998  0.48211404  1
  O  O38  1  0.24972706  0.51789669  0.67131929  1
  O  O39  1  0.24972617  0.32868209  0.84657945  1
  O  O40  1  0.73048715  -0.00000091  -0.00000060  1
