# generated using pymatgen
data_CaZrNbFeO7
_symmetry_space_group_name_H-M   'P 1'
_cell_length_a   7.38783873
_cell_length_b   7.41397472
_cell_length_c   11.59668454
_cell_angle_alpha   81.32952020
_cell_angle_beta   81.02552176
_cell_angle_gamma   61.08102230
_symmetry_Int_Tables_number   1
_chemical_formula_structural   CaZrNbFeO7
_chemical_formula_sum   'Ca4 Zr4 Nb4 Fe4 O28'
_cell_volume   547.08882668
_cell_formula_units_Z   4
loop_
 _symmetry_equiv_pos_site_id
 _symmetry_equiv_pos_as_xyz
  1  'x, y, z'
loop_
 _atom_site_type_symbol
 _atom_site_label
 _atom_site_symmetry_multiplicity
 _atom_site_fract_x
 _atom_site_fract_y
 _atom_site_fract_z
 _atom_site_occupancy
  Ca  Ca0  1  0.25251475  0.50270822  0.99795504  1
  Ca  Ca1  1  0.49773248  0.74658887  0.49734899  1
  Ca  Ca2  1  0.74748525  0.49729178  0.00204496  1
  Ca  Ca3  1  0.50226752  0.25341113  0.50265101  1
  Zr  Zr4  1  0.98980994  0.23612212  0.52872511  1
  Zr  Zr5  1  0.76292497  0.00892155  0.97332495  1
  Zr  Zr6  1  0.01019006  0.76387788  0.47127489  1
  Zr  Zr7  1  0.23707503  0.99107845  0.02667505  1
  Nb  Nb8  1  0.11182428  0.38507738  0.75458813  1
  Nb  Nb9  1  0.61970068  0.89169177  0.74377857  1
  Nb  Nb10  1  0.88817572  0.61492262  0.24541187  1
  Nb  Nb11  1  0.38029932  0.10830823  0.25622143  1
  Fe  Fe12  1  0.86425562  0.13401738  0.25110667  1
  Fe  Fe13  1  0.13574438  0.86598262  0.74889333  1
  Fe  Fe14  1  0.43023714  0.53262768  0.24635584  1
  Fe  Fe15  1  0.56976286  0.46737232  0.75364416  1
  O  O16  1  0.52850859  0.89120154  0.91470702  1
  O  O17  1  0.10803114  0.47654907  0.58526746  1
  O  O18  1  0.47149141  0.10879846  0.08529298  1
  O  O19  1  0.89196886  0.52345093  0.41473254  1
  O  O20  1  0.24929964  0.54963812  0.78114022  1
  O  O21  1  0.44154857  0.76897325  0.71446653  1
  O  O22  1  0.75070036  0.45036188  0.21885978  1
  O  O23  1  0.55845143  0.23102675  0.28553347  1
  O  O24  1  0.06120628  0.16589093  0.70759080  1
  O  O25  1  0.83977468  0.93170537  0.79279344  1
  O  O26  1  0.93879372  0.83410907  0.29240920  1
  O  O27  1  0.16022532  0.06829463  0.20720656  1
  O  O28  1  0.33188846  0.60554509  0.40108115  1
  O  O29  1  0.39110564  0.67205456  0.09495870  1
  O  O30  1  0.66811154  0.39445491  0.59891885  1
  O  O31  1  0.60889436  0.32794544  0.90504130  1
  O  O32  1  0.88135147  0.12219615  0.07846559  1
  O  O33  1  0.87598289  0.11863861  0.42348806  1
  O  O34  1  0.11864853  0.87780385  0.92153441  1
  O  O35  1  0.12401711  0.88136139  0.57651194  1
  O  O36  1  0.12481416  0.28940075  0.92924959  1
  O  O37  1  0.71554805  0.87210233  0.56984164  1
  O  O38  1  0.87518584  0.71059925  0.07075041  1
  O  O39  1  0.28445195  0.12789767  0.43015836  1
  O  O40  1  0.18774546  0.44058645  0.21426158  1
  O  O41  1  0.57602397  0.82979207  0.28972087  1
  O  O42  1  0.81225454  0.55941355  0.78573842  1
  O  O43  1  0.42397603  0.17020793  0.71027913  1
