# generated using pymatgen
data_Ca3TbMn4O12
_symmetry_space_group_name_H-M   'P 1'
_cell_length_a   5.35208284
_cell_length_b   5.45341925
_cell_length_c   7.59293845
_cell_angle_alpha   90.00000000
_cell_angle_beta   90.00000000
_cell_angle_gamma   89.88921726
_symmetry_Int_Tables_number   1
_chemical_formula_structural   Ca3TbMn4O12
_chemical_formula_sum   'Ca3 Tb1 Mn4 O12'
_cell_volume   221.61583113
_cell_formula_units_Z   1
loop_
 _symmetry_equiv_pos_site_id
 _symmetry_equiv_pos_as_xyz
  1  'x, y, z'
loop_
 _atom_site_type_symbol
 _atom_site_label
 _atom_site_symmetry_multiplicity
 _atom_site_fract_x
 _atom_site_fract_y
 _atom_site_fract_z
 _atom_site_occupancy
  Ca  Ca0  1  0.99176053  0.04727860  0.25000000  1
  Ca  Ca1  1  0.49191727  0.45608950  0.75000000  1
  Ca  Ca2  1  0.00886423  0.95518479  0.75000000  1
  Tb  Tb3  1  0.51139224  0.55659190  0.25000000  1
  Mn  Mn4  1  0.00147370  0.49938016  0.99872722  1
  Mn  Mn5  1  0.49872296  0.00326713  0.50139190  1
  Mn  Mn6  1  0.00147370  0.49938016  0.50127278  1
  Mn  Mn7  1  0.49872296  0.00326713  0.99860810  1
  O  O8  1  0.78744064  0.78611931  0.04802977  1
  O  O9  1  0.70175356  0.29677392  0.45483488  1
  O  O10  1  0.20166234  0.20364713  0.53933627  1
  O  O11  1  0.30080067  0.70131961  0.96655755  1
  O  O12  1  0.20166234  0.20364713  0.96066373  1
  O  O13  1  0.30080067  0.70131961  0.53344245  1
  O  O14  1  0.78744064  0.78611931  0.45197023  1
  O  O15  1  0.70175356  0.29677392  0.04516512  1
  O  O16  1  0.42208617  0.97714847  0.25000000  1
  O  O17  1  0.08729893  0.48118932  0.25000000  1
  O  O18  1  0.57963766  0.02151052  0.75000000  1
  O  O19  1  0.92333525  0.52399239  0.75000000  1
