# generated using pymatgen
data_Ca4Si3B5(HO4)5
_symmetry_space_group_name_H-M   'P 1'
_cell_length_a   4.87409936
_cell_length_b   7.65782902
_cell_length_c   9.59429394
_cell_angle_alpha   89.69274593
_cell_angle_beta   90.40769883
_cell_angle_gamma   90.29031000
_symmetry_Int_Tables_number   1
_chemical_formula_structural   Ca4Si3B5(HO4)5
_chemical_formula_sum   'Ca4 Si3 B5 H5 O20'
_cell_volume   358.08846574
_cell_formula_units_Z   1
loop_
 _symmetry_equiv_pos_site_id
 _symmetry_equiv_pos_as_xyz
  1  'x, y, z'
loop_
 _atom_site_type_symbol
 _atom_site_label
 _atom_site_symmetry_multiplicity
 _atom_site_fract_x
 _atom_site_fract_y
 _atom_site_fract_z
 _atom_site_occupancy
  Ca  Ca0  1  0.99181497  0.39159850  0.83176328  1
  Ca  Ca1  1  0.00322397  0.89468402  0.66708994  1
  Ca  Ca2  1  0.01046489  0.60390311  0.16226375  1
  Ca  Ca3  1  0.97956537  0.11692626  0.33533549  1
  Si  Si4  1  0.53004148  0.73421689  0.91230547  1
  Si  Si5  1  0.53067145  0.75715093  0.41311075  1
  Si  Si6  1  0.46728710  0.26488812  0.08472779  1
  B  B7  1  0.56059838  0.09689316  0.83240655  1
  B  B8  1  0.43099904  0.58158247  0.65694927  1
  B  B9  1  0.42778935  0.91002111  0.15731642  1
  B  B10  1  0.56616487  0.40356122  0.34947558  1
  B  B11  1  0.48728236  0.25424858  0.59153096  1
  H  H12  1  0.19989892  0.03733281  0.92474698  1
  H  H13  1  0.80256835  0.52867501  0.57536628  1
  H  H14  1  0.80061832  0.96351997  0.07313533  1
  H  H15  1  0.19594289  0.45196156  0.43212885  1
  H  H16  1  0.43220040  0.03088695  0.50437106  1
  O  O17  1  0.66684908  0.19892736  0.95600711  1
  O  O18  1  0.32320717  0.69724269  0.54084078  1
  O  O19  1  0.32769258  0.80146975  0.03946777  1
  O  O20  1  0.66497739  0.30240720  0.46993481  1
  O  O21  1  0.28830741  0.11153303  0.53968471  1
  O  O22  1  0.76148186  0.60071301  0.96112597  1
  O  O23  1  0.74071978  0.90780153  0.46331726  1
  O  O24  1  0.24128296  0.40267840  0.03795857  1
  O  O25  1  0.66379056  0.17710302  0.70422167  1
  O  O26  1  0.32187933  0.65914415  0.78703232  1
  O  O27  1  0.32235749  0.83110787  0.28840556  1
  O  O28  1  0.67278702  0.32724024  0.21655135  1
  O  O29  1  0.32401130  0.40351774  0.64079863  1
  O  O30  1  0.67765409  0.91577167  0.84668603  1
  O  O31  1  0.69094243  0.58378350  0.35453388  1
  O  O32  1  0.30654189  0.08598905  0.14545740  1
  O  O33  1  0.25243059  0.08800771  0.83447467  1
  O  O34  1  0.73974323  0.58860436  0.65968711  1
  O  O35  1  0.73610631  0.91643827  0.16261281  1
  O  O36  1  0.25950542  0.41216879  0.34057784  1
