# generated using pymatgen
data_Ca2Ti5(Bi2O9)2
_symmetry_space_group_name_H-M   'P 1'
_cell_length_a   5.47219075
_cell_length_b   5.51648621
_cell_length_c   24.59312695
_cell_angle_alpha   83.56044094
_cell_angle_beta   90.00000000
_cell_angle_gamma   90.00000000
_symmetry_Int_Tables_number   1
_chemical_formula_structural   Ca2Ti5(Bi2O9)2
_chemical_formula_sum   'Ca4 Ti10 Bi8 O36'
_cell_volume   737.71523124
_cell_formula_units_Z   2
loop_
 _symmetry_equiv_pos_site_id
 _symmetry_equiv_pos_as_xyz
  1  'x, y, z'
loop_
 _atom_site_type_symbol
 _atom_site_label
 _atom_site_symmetry_multiplicity
 _atom_site_fract_x
 _atom_site_fract_y
 _atom_site_fract_z
 _atom_site_occupancy
  Ca  Ca0  1  0.49095830  0.45282337  0.07933502  1
  Ca  Ca1  1  0.50904170  0.53215838  0.92066498  1
  Ca  Ca2  1  0.00904170  0.95282337  0.07933502  1
  Ca  Ca3  1  0.99095830  0.03215838  0.92066498  1
  Ti  Ti4  1  0.49753454  0.17772780  0.66573049  1
  Ti  Ti5  1  0.50246546  0.84345828  0.33426951  1
  Ti  Ti6  1  0.00246546  0.67772780  0.66573049  1
  Ti  Ti7  1  0.99753454  0.34345828  0.33426951  1
  Ti  Ti8  1  0.50000000  0.00765622  0.00000000  1
  Ti  Ti9  1  -0.00000000  0.50765622  0.00000000  1
  Ti  Ti10  1  0.49420548  0.09310975  0.84451074  1
  Ti  Ti11  1  0.50579452  0.93762048  0.15548926  1
  Ti  Ti12  1  0.00579452  0.59310975  0.84451074  1
  Ti  Ti13  1  0.99420548  0.43762048  0.15548926  1
  Bi  Bi14  1  0.52856556  0.27571277  0.44777212  1
  Bi  Bi15  1  0.47143444  0.72348488  0.55222788  1
  Bi  Bi16  1  0.97143444  0.77571277  0.44777212  1
  Bi  Bi17  1  0.02856556  0.22348488  0.55222788  1
  Bi  Bi18  1  0.49145198  0.34142535  0.24978469  1
  Bi  Bi19  1  0.50854802  0.59121004  0.75021531  1
  Bi  Bi20  1  0.00854802  0.84142535  0.24978469  1
  Bi  Bi21  1  0.99145198  0.09121004  0.75021531  1
  O  O22  1  0.41744926  0.09919278  0.92186478  1
  O  O23  1  0.58255074  0.02105756  0.07813522  1
  O  O24  1  0.08255074  0.59919278  0.92186478  1
  O  O25  1  0.91744926  0.52105756  0.07813522  1
  O  O26  1  0.24382836  0.27334577  0.01406283  1
  O  O27  1  0.75617164  0.28740860  0.98593717  1
  O  O28  1  0.25617164  0.77334577  0.01406283  1
  O  O29  1  0.74382836  0.78740860  0.98593717  1
  O  O30  1  0.20648467  0.19042946  0.14277118  1
  O  O31  1  0.79351533  0.33320064  0.85722882  1
  O  O32  1  0.29351533  0.69042946  0.14277118  1
  O  O33  1  0.70648467  0.83320064  0.85722882  1
  O  O34  1  0.30389111  0.43761150  0.83239238  1
  O  O35  1  0.69610889  0.27000388  0.16760762  1
  O  O36  1  0.19610889  0.93761150  0.83239238  1
  O  O37  1  0.80389111  0.77000388  0.16760762  1
  O  O38  1  0.43531076  0.22362061  0.59436839  1
  O  O39  1  0.56468924  0.81798900  0.40563161  1
  O  O40  1  0.06468924  0.72362061  0.59436839  1
  O  O41  1  0.93531076  0.31798900  0.40563161  1
  O  O42  1  0.24794449  0.42916898  0.69024162  1
  O  O43  1  0.75205551  0.11941061  0.30975838  1
  O  O44  1  0.25205551  0.92916898  0.69024162  1
  O  O45  1  0.74794449  0.61941061  0.30975838  1
  O  O46  1  0.25209015  0.00780364  0.49863051  1
  O  O47  1  0.74790985  0.50643415  0.50136949  1
  O  O48  1  0.24790985  0.50780364  0.49863051  1
  O  O49  1  0.75209015  0.00643415  0.50136949  1
  O  O50  1  0.56530668  0.17963764  0.76501268  1
  O  O51  1  0.43469332  0.94465033  0.23498732  1
  O  O52  1  0.93469332  0.67963764  0.76501268  1
  O  O53  1  0.06530668  0.44465033  0.23498732  1
  O  O54  1  0.26008930  0.12216819  0.32631114  1
  O  O55  1  0.73991070  0.44847933  0.67368886  1
  O  O56  1  0.23991070  0.62216819  0.32631114  1
  O  O57  1  0.76008930  0.94847933  0.67368886  1
