# generated using pymatgen
data_BaLa3Mn4O12
_symmetry_space_group_name_H-M   'P 1'
_cell_length_a   5.59289147
_cell_length_b   7.91314302
_cell_length_c   5.63689715
_cell_angle_alpha   89.99999727
_cell_angle_beta   89.99999684
_cell_angle_gamma   90.56658372
_symmetry_Int_Tables_number   1
_chemical_formula_structural   BaLa3Mn4O12
_chemical_formula_sum   'Ba1 La3 Mn4 O12'
_cell_volume   249.46193305
_cell_formula_units_Z   1
loop_
 _symmetry_equiv_pos_site_id
 _symmetry_equiv_pos_as_xyz
  1  'x, y, z'
loop_
 _atom_site_type_symbol
 _atom_site_label
 _atom_site_symmetry_multiplicity
 _atom_site_fract_x
 _atom_site_fract_y
 _atom_site_fract_z
 _atom_site_occupancy
  Ba  Ba0  1  0.50000000  0.25000000  0.00354599  1
  La  La1  1  1.00000000  0.75000000  0.49317523  1
  La  La2  1  0.50000000  0.75000000  0.00004663  1
  La  La3  1  0.00000000  0.25000000  0.50113053  1
  Mn  Mn4  1  0.00002200  0.50181045  -0.00003862  1
  Mn  Mn5  1  0.50028357  0.99826300  0.50008977  1
  Mn  Mn6  1  -0.00002200  0.99818955  -0.00003862  1
  Mn  Mn7  1  0.49971643  0.50173700  0.50008977  1
  O  O8  1  0.22549126  0.53005977  0.72585886  1
  O  O9  1  0.73738003  0.00853890  0.23728537  1
  O  O10  1  0.26261997  0.49146110  0.23728537  1
  O  O11  1  0.77450874  0.96994023  0.72585886  1
  O  O12  1  0.00000000  0.75000000  0.05152534  1
  O  O13  1  0.50000000  0.25000000  0.52819880  1
  O  O14  1  0.72824917  0.53907988  0.77153107  1
  O  O15  1  0.21498878  0.01892195  0.28615674  1
  O  O16  1  1.00000000  0.25000000  0.93828188  1
  O  O17  1  0.50000000  0.75000000  0.44232920  1
  O  O18  1  0.78501122  0.48107805  0.28615674  1
  O  O19  1  0.27175083  0.96092012  0.77153107  1
