# generated using pymatgen
data_Ba3Sr(CO2)8
_symmetry_space_group_name_H-M   'P 1'
_cell_length_a   6.08613813
_cell_length_b   10.44104336
_cell_length_c   7.93326757
_cell_angle_alpha   103.48129416
_cell_angle_beta   110.16730207
_cell_angle_gamma   90.99689920
_symmetry_Int_Tables_number   1
_chemical_formula_structural   Ba3Sr(CO2)8
_chemical_formula_sum   'Ba3 Sr1 C8 O16'
_cell_volume   457.53033659
_cell_formula_units_Z   1
loop_
 _symmetry_equiv_pos_site_id
 _symmetry_equiv_pos_as_xyz
  1  'x, y, z'
loop_
 _atom_site_type_symbol
 _atom_site_label
 _atom_site_symmetry_multiplicity
 _atom_site_fract_x
 _atom_site_fract_y
 _atom_site_fract_z
 _atom_site_occupancy
  Ba  Ba0  1  0.08246464  0.33026496  0.75006489  1
  Ba  Ba1  1  0.91949319  0.67056058  0.25009006  1
  Ba  Ba2  1  0.41849815  0.16728838  0.24994831  1
  Sr  Sr3  1  0.55770404  0.80975622  0.74978534  1
  C  C4  1  0.36354299  0.50293530  0.46977589  1
  C  C5  1  0.86569216  0.00005927  0.46814342  1
  C  C6  1  0.83560267  0.19814760  0.03199110  1
  C  C7  1  0.33531112  0.69905639  0.03005212  1
  C  C8  1  0.14033068  0.99826635  0.53536869  1
  C  C9  1  0.63661909  0.50262696  0.53403494  1
  C  C10  1  0.66441475  0.30180770  0.96818274  1
  C  C11  1  0.16363012  0.80236806  0.96244131  1
  O  O12  1  0.23486597  0.39688461  0.37182827  1
  O  O13  1  0.73653571  0.89383248  0.36873065  1
  O  O14  1  0.29043039  0.63064743  0.12851469  1
  O  O15  1  0.78971089  0.13020083  0.13088163  1
  O  O16  1  0.26546408  0.10660838  0.62829937  1
  O  O17  1  0.76148055  0.61074469  0.63207559  1
  O  O18  1  0.22079607  0.87081630  0.86871790  1
  O  O19  1  0.71113165  0.37105398  0.87074701  1
  O  O20  1  0.28838167  0.61275963  0.52269700  1
  O  O21  1  0.79104554  0.10991578  0.51881519  1
  O  O22  1  0.51154034  0.69004805  0.97760417  1
  O  O23  1  0.01222250  0.19039105  0.98085571  1
  O  O24  1  0.21920162  0.88813362  0.49082930  1
  O  O25  1  0.71371472  0.39403798  0.48258596  1
  O  O26  1  0.98089905  0.81001674  0.00586812  1
  O  O27  1  0.48927567  0.31077069  0.02107063  1
