# generated using pymatgen
data_Ca2Mn7Si10H12O35
_symmetry_space_group_name_H-M   'P 1'
_cell_length_a   8.99660455
_cell_length_b   9.03390227
_cell_length_c   9.41837913
_cell_angle_alpha   86.30918675
_cell_angle_beta   83.32541133
_cell_angle_gamma   84.61641510
_symmetry_Int_Tables_number   1
_chemical_formula_structural   Ca2Mn7Si10H12O35
_chemical_formula_sum   'Ca2 Mn7 Si10 H12 O35'
_cell_volume   755.82438601
_cell_formula_units_Z   1
loop_
 _symmetry_equiv_pos_site_id
 _symmetry_equiv_pos_as_xyz
  1  'x, y, z'
loop_
 _atom_site_type_symbol
 _atom_site_label
 _atom_site_symmetry_multiplicity
 _atom_site_fract_x
 _atom_site_fract_y
 _atom_site_fract_z
 _atom_site_occupancy
  Ca  Ca0  1  0.71104956  0.89833913  0.25990609  1
  Ca  Ca1  1  0.28894248  0.10209904  0.73892996  1
  Mn  Mn2  1  0.03243896  0.66033262  0.16276629  1
  Mn  Mn3  1  0.97060942  0.33593971  0.85282422  1
  Mn  Mn4  1  0.35175204  0.43893881  0.10921068  1
  Mn  Mn5  1  0.64583153  0.56008443  0.89406173  1
  Mn  Mn6  1  0.99970059  0.99583808  0.99927613  1
  Mn  Mn7  1  0.67309474  0.22346801  0.07803333  1
  Mn  Mn8  1  0.32459140  0.77440743  0.92330047  1
  Si  Si9  1  0.67989046  0.91957656  0.88440303  1
  Si  Si10  1  0.31955776  0.07955644  0.11522133  1
  Si  Si11  1  0.34515400  0.44447998  0.75649287  1
  Si  Si12  1  0.65404831  0.55627047  0.24249888  1
  Si  Si13  1  0.64224344  0.22837899  0.72647223  1
  Si  Si14  1  0.35899238  0.77274364  0.27349445  1
  Si  Si15  1  0.96582072  0.71664120  0.80945735  1
  Si  Si16  1  0.03471517  0.28056868  0.18600040  1
  Si  Si17  1  0.25003788  0.73514453  0.60284394  1
  Si  Si18  1  0.75241450  0.26810857  0.39700562  1
  H  H19  1  0.03149153  0.93926854  0.27429351  1
  H  H20  1  0.96752308  0.06509132  0.72495209  1
  H  H21  1  0.32078747  0.22098261  0.43076251  1
  H  H22  1  0.67506950  0.78199625  0.56944009  1
  H  H23  1  0.31475106  0.04743160  0.42741088  1
  H  H24  1  0.68496923  0.95441818  0.57179673  1
  H  H25  1  0.39614155  0.44737994  0.41097237  1
  H  H26  1  0.60141536  0.55018083  0.58549437  1
  H  H27  1  0.22532049  0.46459683  0.38417651  1
  H  H28  1  0.76588356  0.54268526  0.62579166  1
  H  H29  1  0.98064811  0.47694106  0.40977121  1
  H  H30  1  0.02251735  0.61785972  0.49285904  1
  O  O31  1  0.43252013  0.20906627  0.07613930  1
  O  O32  1  0.56661126  0.79026643  0.92337439  1
  O  O33  1  0.31792955  0.12786849  0.49148153  1
  O  O34  1  0.68496011  0.87349489  0.50767574  1
  O  O35  1  0.60077106  0.46738403  0.11318028  1
  O  O36  1  0.39832341  0.53017120  0.88796741  1
  O  O37  1  0.93242712  0.23306538  0.06594274  1
  O  O38  1  0.06420699  0.75813580  0.93491510  1
  O  O39  1  0.66113004  0.43712139  0.38554911  1
  O  O40  1  0.34015630  0.56610318  0.61568458  1
  O  O41  1  0.11370578  0.43193521  0.13644302  1
  O  O42  1  0.88585487  0.56190503  0.84058142  1
  O  O43  1  0.69020907  0.15281009  0.30124068  1
  O  O44  1  0.31175263  0.84842560  0.70111599  1
  O  O45  1  0.93072336  0.29745937  0.34423722  1
  O  O46  1  0.06929093  0.71244250  0.65023722  1
  O  O47  1  0.16583976  0.14409257  0.21604866  1
  O  O48  1  0.83329202  0.85351028  0.78501753  1
  O  O49  1  0.25971525  0.78641319  0.43086380  1
  O  O50  1  0.74522581  0.22026620  0.56995479  1
  O  O51  1  0.52283120  0.68733727  0.30273970  1
  O  O52  1  0.47757656  0.31281500  0.69783943  1
  O  O53  1  0.97260459  0.89244342  0.21212084  1
  O  O54  1  0.02664376  0.10872358  0.78909894  1
  O  O55  1  0.79906425  0.64616996  0.20114166  1
  O  O56  1  0.19853496  0.35519205  0.79123851  1
  O  O57  1  0.28179283  0.69158820  0.15609146  1
  O  O58  1  0.71986392  0.30960633  0.84365084  1
  O  O59  1  0.39905736  0.94486773  0.22083769  1
  O  O60  1  0.60352650  0.05532975  0.77698555  1
  O  O61  1  0.73551727  0.99378279  0.02049429  1
  O  O62  1  0.26289656  0.00582973  0.97920268  1
  O  O63  1  0.32409137  0.40825976  0.35547794  1
  O  O64  1  0.66643340  0.59503407  0.64480233  1
  O  O65  1  0.04401641  0.56143484  0.40560766  1
