# generated using pymatgen
data_Ca3MgNi14
_symmetry_space_group_name_H-M   'P 1'
_cell_length_a   4.98799861
_cell_length_b   4.98799861
_cell_length_c   12.29714584
_cell_angle_alpha   78.29859970
_cell_angle_beta   78.29859970
_cell_angle_gamma   60.00000247
_symmetry_Int_Tables_number   1
_chemical_formula_structural   Ca3MgNi14
_chemical_formula_sum   'Ca3 Mg1 Ni14'
_cell_volume   257.59625651
_cell_formula_units_Z   1
loop_
 _symmetry_equiv_pos_site_id
 _symmetry_equiv_pos_as_xyz
  1  'x, y, z'
loop_
 _atom_site_type_symbol
 _atom_site_label
 _atom_site_symmetry_multiplicity
 _atom_site_fract_x
 _atom_site_fract_y
 _atom_site_fract_z
 _atom_site_occupancy
  Ca  Ca0  1  0.05178697  0.05178697  0.84463910  1
  Ca  Ca1  1  0.94736727  0.94736727  0.15789820  1
  Ca  Ca2  1  0.14969544  0.14969544  0.55091367  1
  Mg  Mg3  1  0.85154460  0.85154460  0.44536619  1
  Ni  Ni4  1  0.27783991  0.27783991  0.16648027  1
  Ni  Ni5  1  0.72203983  0.72203983  0.83388051  1
  Ni  Ni6  1  0.38857067  0.38857067  0.83428800  1
  Ni  Ni7  1  0.61179122  0.61179122  0.16462635  1
  Ni  Ni8  1  0.10831081  0.61114974  0.66938972  1
  Ni  Ni9  1  0.61114974  0.61114974  0.66938972  1
  Ni  Ni10  1  0.61114974  0.10831081  0.66938972  1
  Ni  Ni11  1  0.89048951  0.38902962  0.33145126  1
  Ni  Ni12  1  0.38902962  0.38902962  0.33145126  1
  Ni  Ni13  1  0.38902962  0.89048951  0.33145126  1
  Ni  Ni14  1  0.49966040  0.49966040  0.00013925  1
  Ni  Ni15  1  0.49966040  0.00053995  0.00013925  1
  Ni  Ni16  1  0.00053995  0.49966040  0.00013925  1
  Ni  Ni17  1  0.50034433  0.50034433  0.49896702  1
