# generated using pymatgen
data_BaCd3Ga
_symmetry_space_group_name_H-M   'P 1'
_cell_length_a   4.91228846
_cell_length_b   4.91228846
_cell_length_c   6.74587654
_cell_angle_alpha   68.64805865
_cell_angle_beta   68.64805865
_cell_angle_gamma   90.00000000
_symmetry_Int_Tables_number   1
_chemical_formula_structural   BaCd3Ga
_chemical_formula_sum   'Ba1 Cd3 Ga1'
_cell_volume   139.54393598
_cell_formula_units_Z   1
loop_
 _symmetry_equiv_pos_site_id
 _symmetry_equiv_pos_as_xyz
  1  'x, y, z'
loop_
 _atom_site_type_symbol
 _atom_site_label
 _atom_site_symmetry_multiplicity
 _atom_site_fract_x
 _atom_site_fract_y
 _atom_site_fract_z
 _atom_site_occupancy
  Ba  Ba0  1  0.99554956  0.99554956  0.00890089  1
  Cd  Cd1  1  0.75729000  0.25729000  0.48542000  1
  Cd  Cd2  1  0.25729000  0.75729000  0.48542000  1
  Cd  Cd3  1  0.61224993  0.61224993  0.77550013  1
  Ga  Ga4  1  0.37762051  0.37762051  0.24475899  1
