# generated using pymatgen
data_Ca3SmMn4O12
_symmetry_space_group_name_H-M   'P 1'
_cell_length_a   5.36089856
_cell_length_b   5.45726294
_cell_length_c   7.66679156
_cell_angle_alpha   90.00000000
_cell_angle_beta   90.00000000
_cell_angle_gamma   90.13870844
_symmetry_Int_Tables_number   1
_chemical_formula_structural   Ca3SmMn4O12
_chemical_formula_sum   'Ca3 Sm1 Mn4 O12'
_cell_volume   224.29771652
_cell_formula_units_Z   1
loop_
 _symmetry_equiv_pos_site_id
 _symmetry_equiv_pos_as_xyz
  1  'x, y, z'
loop_
 _atom_site_type_symbol
 _atom_site_label
 _atom_site_symmetry_multiplicity
 _atom_site_fract_x
 _atom_site_fract_y
 _atom_site_fract_z
 _atom_site_occupancy
  Ca  Ca0  1  0.99281997  0.04615637  0.25000000  1
  Ca  Ca1  1  0.49424271  0.45593028  0.75000000  1
  Ca  Ca2  1  0.00590660  0.95726867  0.75000000  1
  Sm  Sm3  1  0.51213922  0.54982652  0.25000000  1
  Mn  Mn4  1  0.49827561  0.00235566  0.99717423  1
  Mn  Mn5  1  0.00197101  0.49973677  0.50291264  1
  Mn  Mn6  1  0.49827561  0.00235566  0.50282577  1
  Mn  Mn7  1  0.00197101  0.49973677  0.99708736  1
  O  O8  1  0.78861327  0.78770458  0.04581662  1
  O  O9  1  0.70403318  0.29485690  0.46138851  1
  O  O10  1  0.20201788  0.20385855  0.53911733  1
  O  O11  1  0.30072976  0.70076764  0.96633828  1
  O  O12  1  0.20201788  0.20385855  0.96088267  1
  O  O13  1  0.30072976  0.70076764  0.53366172  1
  O  O14  1  0.78861327  0.78770458  0.45418338  1
  O  O15  1  0.70403318  0.29485690  0.03861149  1
  O  O16  1  0.42591966  0.98576870  0.25000000  1
  O  O17  1  0.07622807  0.48143480  0.25000000  1
  O  O18  1  0.57522338  0.01929188  0.75000000  1
  O  O19  1  0.92623899  0.52576258  0.75000000  1
