# generated using pymatgen
data_Ce2Cu11Au
_symmetry_space_group_name_H-M   'P 1'
_cell_length_a   5.04370274
_cell_length_b   8.14380887
_cell_length_c   10.27222538
_cell_angle_alpha   90.00000000
_cell_angle_beta   90.00000000
_cell_angle_gamma   90.00000000
_symmetry_Int_Tables_number   1
_chemical_formula_structural   Ce2Cu11Au
_chemical_formula_sum   'Ce4 Cu22 Au2'
_cell_volume   421.93115529
_cell_formula_units_Z   2
loop_
 _symmetry_equiv_pos_site_id
 _symmetry_equiv_pos_as_xyz
  1  'x, y, z'
loop_
 _atom_site_type_symbol
 _atom_site_label
 _atom_site_symmetry_multiplicity
 _atom_site_fract_x
 _atom_site_fract_y
 _atom_site_fract_z
 _atom_site_occupancy
  Ce  Ce0  1  0.75000000  0.24000643  0.93713062  1
  Ce  Ce1  1  0.75000000  0.74000643  0.56286938  1
  Ce  Ce2  1  0.25000000  0.75990511  0.06699073  1
  Ce  Ce3  1  0.25000000  0.25990511  0.43300927  1
  Cu  Cu4  1  0.75000000  0.68425233  0.25106628  1
  Cu  Cu5  1  0.75000000  0.18425233  0.24893372  1
  Cu  Cu6  1  0.25000000  0.31482602  0.75170477  1
  Cu  Cu7  1  0.25000000  0.81482602  0.74829523  1
  Cu  Cu8  1  0.75000000  0.94512710  0.10595002  1
  Cu  Cu9  1  0.75000000  0.44512710  0.39404998  1
  Cu  Cu10  1  0.25000000  0.05974011  0.90198496  1
  Cu  Cu11  1  0.25000000  0.55974011  0.59801504  1
  Cu  Cu12  1  0.99959858  0.06468343  0.68719797  1
  Cu  Cu13  1  0.50040142  0.56468343  0.81280203  1
  Cu  Cu14  1  0.49274944  0.93426198  0.30998720  1
  Cu  Cu15  1  0.00725056  0.43426198  0.19001280  1
  Cu  Cu16  1  0.00725056  0.93426198  0.30998720  1
  Cu  Cu17  1  0.49274944  0.43426198  0.19001280  1
  Cu  Cu18  1  0.50040142  0.06468343  0.68719797  1
  Cu  Cu19  1  0.99959858  0.56468343  0.81280203  1
  Cu  Cu20  1  0.75000000  0.59006600  0.01757181  1
  Cu  Cu21  1  0.75000000  0.09006600  0.48242819  1
  Cu  Cu22  1  0.25000000  0.40409303  0.98600250  1
  Cu  Cu23  1  0.25000000  0.90409303  0.51399750  1
  Cu  Cu24  1  0.25000000  0.64417455  0.36029281  1
  Cu  Cu25  1  0.25000000  0.14417455  0.13970719  1
  Au  Au26  1  0.75000000  0.35991851  0.63916166  1
  Au  Au27  1  0.75000000  0.85991851  0.86083834  1
