# generated using pymatgen
data_Ca2ZrTi(GeO5)2
_symmetry_space_group_name_H-M   'P 1'
_cell_length_a   5.73483221
_cell_length_b   5.68196459
_cell_length_c   7.40735770
_cell_angle_alpha   104.07023040
_cell_angle_beta   104.13087897
_cell_angle_gamma   105.88880906
_symmetry_Int_Tables_number   1
_chemical_formula_structural   Ca2ZrTi(GeO5)2
_chemical_formula_sum   'Ca2 Zr1 Ti1 Ge2 O10'
_cell_volume   212.32911039
_cell_formula_units_Z   1
loop_
 _symmetry_equiv_pos_site_id
 _symmetry_equiv_pos_as_xyz
  1  'x, y, z'
loop_
 _atom_site_type_symbol
 _atom_site_label
 _atom_site_symmetry_multiplicity
 _atom_site_fract_x
 _atom_site_fract_y
 _atom_site_fract_z
 _atom_site_occupancy
  Ca  Ca0  1  0.16697296  0.81734891  0.24154205  1
  Ca  Ca1  1  0.83302704  0.18265109  0.75845795  1
  Zr  Zr2  1  0.50000000  0.50000000  0.50000000  1
  Ti  Ti3  1  0.50000000  0.50000000  -0.00000000  1
  Ge  Ge4  1  0.18665955  0.83196395  0.75490284  1
  Ge  Ge5  1  0.81334045  0.16803605  0.24509716  1
  O  O6  1  0.87800773  0.76984896  0.59124641  1
  O  O7  1  0.75338629  0.85914990  0.07708844  1
  O  O8  1  0.12199227  0.23015104  0.40875359  1
  O  O9  1  0.24661371  0.14085010  0.92291156  1
  O  O10  1  0.80850319  0.38852569  0.11022647  1
  O  O11  1  0.39345147  0.82657938  0.61169429  1
  O  O12  1  0.19149681  0.61147431  0.88977353  1
  O  O13  1  0.60654853  0.17342062  0.38830571  1
  O  O14  1  0.57276540  0.42431008  0.76204677  1
  O  O15  1  0.42723460  0.57568992  0.23795323  1
