# generated using pymatgen
data_BaSr3Lu2(BiO6)2
_symmetry_space_group_name_H-M   'P 1'
_cell_length_a   6.01238411
_cell_length_b   5.97353120
_cell_length_c   8.46232445
_cell_angle_alpha   89.92437987
_cell_angle_beta   89.97272959
_cell_angle_gamma   90.04222511
_symmetry_Int_Tables_number   1
_chemical_formula_structural   BaSr3Lu2(BiO6)2
_chemical_formula_sum   'Ba1 Sr3 Lu2 Bi2 O12'
_cell_volume   303.92538892
_cell_formula_units_Z   1
loop_
 _symmetry_equiv_pos_site_id
 _symmetry_equiv_pos_as_xyz
  1  'x, y, z'
loop_
 _atom_site_type_symbol
 _atom_site_label
 _atom_site_symmetry_multiplicity
 _atom_site_fract_x
 _atom_site_fract_y
 _atom_site_fract_z
 _atom_site_occupancy
  Ba  Ba0  1  0.52219737  0.00654417  0.75024673  1
  Sr  Sr1  1  0.03403084  0.49100327  0.74969075  1
  Sr  Sr2  1  0.46436949  0.99320041  0.24978552  1
  Sr  Sr3  1  0.96932408  0.50448560  0.25067491  1
  Lu  Lu4  1  0.50030276  0.49950737  0.00277584  1
  Lu  Lu5  1  0.99833444  0.00028941  0.49778336  1
  Bi  Bi6  1  0.50055368  0.49975822  0.49687238  1
  Bi  Bi7  1  0.99867044  0.00034034  0.00274174  1
  O  O8  1  0.71094724  0.78310445  0.45350873  1
  O  O9  1  0.79257964  0.28664030  0.96000729  1
  O  O10  1  0.27989200  0.22458451  0.53122789  1
  O  O11  1  0.21399866  0.72051201  0.04426535  1
  O  O12  1  0.21857291  0.71210813  0.45542164  1
  O  O13  1  0.27664277  0.21712690  0.96724054  1
  O  O14  1  0.78861804  0.29682943  0.53978578  1
  O  O15  1  0.71545928  0.79182346  0.04701792  1
  O  O16  1  0.47551257  0.55792631  0.74639576  1
  O  O17  1  0.02157401  0.08107540  0.24749101  1
  O  O18  1  0.52623164  0.41524045  0.25275664  1
  O  O19  1  0.99218813  0.91789985  0.75431022  1
