# generated using pymatgen
data_BaAlF5
_symmetry_space_group_name_H-M   'P 1'
_cell_length_a   5.29487481
_cell_length_b   7.50576388
_cell_length_c   15.15086832
_cell_angle_alpha   79.41648038
_cell_angle_beta   88.48177055
_cell_angle_gamma   88.12946959
_symmetry_Int_Tables_number   1
_chemical_formula_structural   BaAlF5
_chemical_formula_sum   'Ba6 Al6 F30'
_cell_volume   591.43958430
_cell_formula_units_Z   6
loop_
 _symmetry_equiv_pos_site_id
 _symmetry_equiv_pos_as_xyz
  1  'x, y, z'
loop_
 _atom_site_type_symbol
 _atom_site_label
 _atom_site_symmetry_multiplicity
 _atom_site_fract_x
 _atom_site_fract_y
 _atom_site_fract_z
 _atom_site_occupancy
  Ba  Ba0  1  0.73892073  0.59728222  0.12845350  1
  Ba  Ba1  1  0.25662000  0.40183671  0.87107948  1
  Ba  Ba2  1  0.24114060  0.07098924  0.19710467  1
  Ba  Ba3  1  0.75617451  0.92924323  0.80277009  1
  Ba  Ba4  1  0.71063784  0.75434670  0.44436503  1
  Ba  Ba5  1  0.28958537  0.24572644  0.55561468  1
  Al  Al6  1  0.77050483  0.20365108  0.35804671  1
  Al  Al7  1  0.22960534  0.79651017  0.64181672  1
  Al  Al8  1  0.73316196  0.15484392  0.02681216  1
  Al  Al9  1  0.24228705  0.84566992  0.97317542  1
  Al  Al10  1  0.25353088  0.53088148  0.32165926  1
  Al  Al11  1  0.74610073  0.46940071  0.67835297  1
  F  F12  1  0.97581491  0.65829949  0.28183388  1
  F  F13  1  0.02375380  0.34181782  0.71839685  1
  F  F14  1  0.73733656  0.25095621  0.90874284  1
  F  F15  1  0.23830071  0.75128769  0.09135627  1
  F  F16  1  0.99048173  0.28666532  0.04908134  1
  F  F17  1  0.03259756  0.68014214  0.94593324  1
  F  F18  1  0.45586740  0.71754659  0.27801982  1
  F  F19  1  0.54429236  0.28227049  0.72172832  1
  F  F20  1  0.50947560  0.31973668  0.05628802  1
  F  F21  1  0.51098733  0.71270978  0.94944897  1
  F  F22  1  0.55108155  0.39769471  0.37298048  1
  F  F23  1  0.44910101  0.60231863  0.62690056  1
  F  F24  1  0.73786462  0.11802802  0.47611400  1
  F  F25  1  0.26222052  0.88194314  0.52382057  1
  F  F26  1  0.97857723  0.01210581  0.34656988  1
  F  F27  1  0.02145212  0.98790219  0.65330617  1
  F  F28  1  0.30286860  0.42977409  0.22461963  1
  F  F29  1  0.69623793  0.57062490  0.77552064  1
  F  F30  1  0.05466360  0.33388641  0.37880541  1
  F  F31  1  0.94524073  0.66602804  0.62123887  1
  F  F32  1  0.50693562  0.06993250  0.34000641  1
  F  F33  1  0.49330106  0.93027318  0.65993145  1
  F  F34  1  0.22981813  0.59565826  0.43155019  1
  F  F35  1  0.77039579  0.40436970  0.56846715  1
  F  F36  1  0.73333636  0.01178018  0.13695315  1
  F  F37  1  0.24624582  0.98816835  0.86289563  1
  F  F38  1  0.81171705  0.29211455  0.24033210  1
  F  F39  1  0.18934541  0.70790125  0.75922332  1
  F  F40  1  0.45308148  0.02358899  0.00415698  1
  F  F41  1  0.95283759  0.97719308  0.99492717  1
