# generated using pymatgen
data_Ba3In2WO9
_symmetry_space_group_name_H-M   'P 1'
_cell_length_a   5.97395343
_cell_length_b   5.97395343
_cell_length_c   7.33227963
_cell_angle_alpha   90.00000000
_cell_angle_beta   90.00000000
_cell_angle_gamma   120.00000000
_symmetry_Int_Tables_number   1
_chemical_formula_structural   Ba3In2WO9
_chemical_formula_sum   'Ba3 In2 W1 O9'
_cell_volume   226.61743333
_cell_formula_units_Z   1
loop_
 _symmetry_equiv_pos_site_id
 _symmetry_equiv_pos_as_xyz
  1  'x, y, z'
loop_
 _atom_site_type_symbol
 _atom_site_label
 _atom_site_symmetry_multiplicity
 _atom_site_fract_x
 _atom_site_fract_y
 _atom_site_fract_z
 _atom_site_occupancy
  Ba  Ba0  1  0.00000000  0.00000000  0.50000000  1
  Ba  Ba1  1  0.66666700  0.33333300  0.81145231  1
  Ba  Ba2  1  0.33333300  0.66666700  0.18854769  1
  In  In3  1  0.66666700  0.33333300  0.33315957  1
  In  In4  1  0.33333300  0.66666700  0.66684043  1
  W  W5  1  0.00000000  0.00000000  -0.00000000  1
  O  O6  1  0.68801869  0.84400884  0.84730139  1
  O  O7  1  0.31198131  0.15599116  0.15269861  1
  O  O8  1  0.00000000  0.50000000  0.50000000  1
  O  O9  1  0.50000000  0.00000000  0.50000000  1
  O  O10  1  0.15599116  0.31198131  0.84730139  1
  O  O11  1  0.84400884  0.68801869  0.15269861  1
  O  O12  1  0.50000000  0.50000000  0.50000000  1
  O  O13  1  0.15599116  0.84400884  0.84730139  1
  O  O14  1  0.84400884  0.15599116  0.15269861  1
