# generated using pymatgen
data_Ba3SrNd2(IrO6)2
_symmetry_space_group_name_H-M   'P 1'
_cell_length_a   6.02487797
_cell_length_b   6.06584150
_cell_length_c   8.56013560
_cell_angle_alpha   89.48782334
_cell_angle_beta   89.89047180
_cell_angle_gamma   90.30168632
_symmetry_Int_Tables_number   1
_chemical_formula_structural   Ba3SrNd2(IrO6)2
_chemical_formula_sum   'Ba3 Sr1 Nd2 Ir2 O12'
_cell_volume   312.82089336
_cell_formula_units_Z   1
loop_
 _symmetry_equiv_pos_site_id
 _symmetry_equiv_pos_as_xyz
  1  'x, y, z'
loop_
 _atom_site_type_symbol
 _atom_site_label
 _atom_site_symmetry_multiplicity
 _atom_site_fract_x
 _atom_site_fract_y
 _atom_site_fract_z
 _atom_site_occupancy
  Ba  Ba0  1  0.24864149  0.25322014  0.50246907  1
  Ba  Ba1  1  0.74881512  0.75339858  0.00208626  1
  Ba  Ba2  1  0.75106012  0.74713300  0.49763447  1
  Sr  Sr3  1  0.25674067  0.24431900  0.99426609  1
  Nd  Nd4  1  0.24959881  0.75006300  0.75132422  1
  Nd  Nd5  1  0.75073059  0.25028146  0.24866616  1
  Ir  Ir6  1  0.25002220  0.75007563  0.24837935  1
  Ir  Ir7  1  0.74910363  0.25033256  0.75215851  1
  O  O8  1  0.77573776  0.27806423  0.52006704  1
  O  O9  1  0.27548111  0.78609791  0.01935597  1
  O  O10  1  0.99262240  0.95374821  0.24810898  1
  O  O11  1  0.48750689  0.45059295  0.75404248  1
  O  O12  1  0.22401458  0.72138975  0.48006539  1
  O  O13  1  0.71525238  0.22219309  0.98094143  1
  O  O14  1  0.01107740  0.04941111  0.75658040  1
  O  O15  1  0.50748807  0.54603204  0.25016595  1
  O  O16  1  0.54580384  0.99464793  0.72525392  1
  O  O17  1  0.05167684  0.49019611  0.21796969  1
  O  O18  1  0.45306850  0.00617478  0.27309606  1
  O  O19  1  0.95555759  0.50262852  0.77736858  1
