# generated using pymatgen
data_Ba4Pr2Cu6O13
_symmetry_space_group_name_H-M   'P 1'
_cell_length_a   5.57598104
_cell_length_b   5.57598104
_cell_length_c   12.67075012
_cell_angle_alpha   77.06723121
_cell_angle_beta   77.06723121
_cell_angle_gamma   89.01722205
_symmetry_Int_Tables_number   1
_chemical_formula_structural   Ba4Pr2Cu6O13
_chemical_formula_sum   'Ba4 Pr2 Cu6 O13'
_cell_volume   373.99534658
_cell_formula_units_Z   1
loop_
 _symmetry_equiv_pos_site_id
 _symmetry_equiv_pos_as_xyz
  1  'x, y, z'
loop_
 _atom_site_type_symbol
 _atom_site_label
 _atom_site_symmetry_multiplicity
 _atom_site_fract_x
 _atom_site_fract_y
 _atom_site_fract_z
 _atom_site_occupancy
  Ba  Ba0  1  0.08795327  0.60075247  0.81129426  1
  Ba  Ba1  1  0.60075247  0.08795327  0.81129426  1
  Ba  Ba2  1  0.41204673  0.89924753  0.18870574  1
  Ba  Ba3  1  0.89924753  0.41204673  0.18870574  1
  Pr  Pr4  1  0.25000000  0.75000000  0.50000000  1
  Pr  Pr5  1  0.75000000  0.25000000  0.50000000  1
  Cu  Cu6  1  0.17837691  0.17837691  0.64630259  1
  Cu  Cu7  1  0.67532050  0.67532050  0.64630259  1
  Cu  Cu8  1  0.32162309  0.32162309  0.35369741  1
  Cu  Cu9  1  0.82467950  0.82467950  0.35369741  1
  Cu  Cu10  1  0.51348969  0.51348969  -0.00000000  1
  Cu  Cu11  1  0.98651031  0.98651031  -0.00000000  1
  O  O12  1  0.09546708  0.09546708  0.84953761  1
  O  O13  1  0.55499531  0.55499531  0.84953761  1
  O  O14  1  0.40453292  0.40453292  0.15046239  1
  O  O15  1  0.94500469  0.94500469  0.15046239  1
  O  O16  1  0.43585574  0.93585574  0.62828852  1
  O  O17  1  0.93585574  0.43585574  0.62828852  1
  O  O18  1  0.93402034  0.93402034  0.63195931  1
  O  O19  1  0.43564378  0.43564378  0.62871245  1
  O  O20  1  0.56414426  0.06414426  0.37171148  1
  O  O21  1  0.06414426  0.56414426  0.37171148  1
  O  O22  1  0.06435622  0.06435622  0.37128755  1
  O  O23  1  0.56597966  0.56597966  0.36804069  1
  O  O24  1  0.75000000  0.75000000  -0.00000000  1
