# generated using pymatgen
data_BaCaLu2F10
_symmetry_space_group_name_H-M   'P 1'
_cell_length_a   8.18654524
_cell_length_b   8.08378408
_cell_length_c   8.08378408
_cell_angle_alpha   90.00000000
_cell_angle_beta   60.41437005
_cell_angle_gamma   119.58562995
_symmetry_Int_Tables_number   1
_chemical_formula_structural   BaCaLu2F10
_chemical_formula_sum   'Ba2 Ca2 Lu4 F20'
_cell_volume   382.97096671
_cell_formula_units_Z   2
loop_
 _symmetry_equiv_pos_site_id
 _symmetry_equiv_pos_as_xyz
  1  'x, y, z'
loop_
 _atom_site_type_symbol
 _atom_site_label
 _atom_site_symmetry_multiplicity
 _atom_site_fract_x
 _atom_site_fract_y
 _atom_site_fract_z
 _atom_site_occupancy
  Ba  Ba0  1  0.50000000  0.25000000  0.25000000  1
  Ba  Ba1  1  0.50000000  0.75000000  0.75000000  1
  Ca  Ca2  1  0.48831870  0.24415935  0.75584065  1
  Ca  Ca3  1  0.51168130  0.75584065  0.24415935  1
  Lu  Lu4  1  -0.00000000  0.76174664  0.76174664  1
  Lu  Lu5  1  0.00000000  0.23825336  0.76174664  1
  Lu  Lu6  1  0.00000000  0.23825336  0.23825336  1
  Lu  Lu7  1  -0.00000000  0.76174664  0.23825336  1
  F  F8  1  0.00000000  0.50000000  0.83228208  1
  F  F9  1  0.67763663  0.16425287  0.83574713  1
  F  F10  1  0.67763663  0.51338377  0.83574713  1
  F  F11  1  0.00000000  0.16771792  0.50000000  1
  F  F12  1  0.32236337  0.48661623  0.51338377  1
  F  F13  1  0.32236337  0.48661623  0.16425287  1
  F  F14  1  -0.00000000  0.83228208  0.50000000  1
  F  F15  1  0.32236337  0.83574713  0.16425287  1
  F  F16  1  0.32236337  0.83574713  0.51338377  1
  F  F17  1  -0.00000000  0.50000000  0.16771792  1
  F  F18  1  0.67763663  0.51338377  0.48661623  1
  F  F19  1  0.67763663  0.16425287  0.48661623  1
  F  F20  1  0.21649263  0.10824632  0.65957141  1
  F  F21  1  0.78350737  0.12393595  0.10824632  1
  F  F22  1  0.78350737  0.65957141  0.10824632  1
  F  F23  1  0.21649263  0.10824632  0.12393595  1
  F  F24  1  0.78350737  0.89175368  0.34042859  1
  F  F25  1  0.21649263  0.87606405  0.89175368  1
  F  F26  1  0.21649263  0.34042859  0.89175368  1
  F  F27  1  0.78350737  0.89175368  0.87606405  1
