# generated using pymatgen
data_Ba3Fe10SnO20
_symmetry_space_group_name_H-M   'P 1'
_cell_length_a   5.30428915
_cell_length_b   10.10458740
_cell_length_c   10.10458740
_cell_angle_alpha   73.08995600
_cell_angle_beta   75.67640858
_cell_angle_gamma   75.67640858
_symmetry_Int_Tables_number   1
_chemical_formula_structural   Ba3Fe10SnO20
_chemical_formula_sum   'Ba3 Fe10 Sn1 O20'
_cell_volume   492.98526744
_cell_formula_units_Z   1
loop_
 _symmetry_equiv_pos_site_id
 _symmetry_equiv_pos_as_xyz
  1  'x, y, z'
loop_
 _atom_site_type_symbol
 _atom_site_label
 _atom_site_symmetry_multiplicity
 _atom_site_fract_x
 _atom_site_fract_y
 _atom_site_fract_z
 _atom_site_occupancy
  Ba  Ba0  1  0.50000000  0.50000000  0.50000000  1
  Ba  Ba1  1  0.76454528  0.22151746  0.22151746  1
  Ba  Ba2  1  0.23545472  0.77848254  0.77848254  1
  Fe  Fe3  1  0.66061939  0.64747667  0.08044782  1
  Fe  Fe4  1  0.66061939  0.08044782  0.64747667  1
  Fe  Fe5  1  0.33938061  0.35252333  0.91955218  1
  Fe  Fe6  1  0.33938061  0.91955218  0.35252333  1
  Fe  Fe7  1  0.15187935  0.49662144  0.21728104  1
  Fe  Fe8  1  0.15187935  0.21728104  0.49662144  1
  Fe  Fe9  1  0.84812065  0.50337856  0.78271896  1
  Fe  Fe10  1  0.84812065  0.78271896  0.50337856  1
  Fe  Fe11  1  -0.00000000  0.12939465  0.87060535  1
  Fe  Fe12  1  -0.00000000  0.87060535  0.12939465  1
  Sn  Sn13  1  0.50000000  -0.00000000  -0.00000000  1
  O  O14  1  0.17458573  0.37710531  0.10095664  1
  O  O15  1  0.17458573  0.10095664  0.37710531  1
  O  O16  1  0.82541427  0.62289469  0.89904336  1
  O  O17  1  0.82541427  0.89904336  0.62289469  1
  O  O18  1  0.92690414  0.67857787  0.16212453  1
  O  O19  1  0.92690414  0.16212453  0.67857787  1
  O  O20  1  0.07309586  0.32142213  0.83787547  1
  O  O21  1  0.07309586  0.83787547  0.32142213  1
  O  O22  1  0.09823424  0.06278179  0.06278179  1
  O  O23  1  0.90176576  0.93721821  0.93721821  1
  O  O24  1  0.50999645  0.50064920  0.21782015  1
  O  O25  1  0.50999645  0.21782015  0.50064920  1
  O  O26  1  0.49000355  0.49935080  0.78217985  1
  O  O27  1  0.49000355  0.78217985  0.49935080  1
  O  O28  1  0.00551197  0.40058684  0.40058684  1
  O  O29  1  0.99448803  0.59941316  0.59941316  1
  O  O30  1  0.62168708  0.19438064  0.95109740  1
  O  O31  1  0.62168708  0.95109740  0.19438064  1
  O  O32  1  0.37831292  0.80561936  0.04890260  1
  O  O33  1  0.37831292  0.04890260  0.80561936  1
