# generated using pymatgen
data_Ba3SrZn2(WO6)2
_symmetry_space_group_name_H-M   'P 1'
_cell_length_a   5.81050577
_cell_length_b   5.81050576
_cell_length_c   10.06097231
_cell_angle_alpha   73.21598480
_cell_angle_beta   90.00000000
_cell_angle_gamma   119.99999996
_symmetry_Int_Tables_number   1
_chemical_formula_structural   Ba3SrZn2(WO6)2
_chemical_formula_sum   'Ba3 Sr1 Zn2 W2 O12'
_cell_volume   277.33542645
_cell_formula_units_Z   1
loop_
 _symmetry_equiv_pos_site_id
 _symmetry_equiv_pos_as_xyz
  1  'x, y, z'
loop_
 _atom_site_type_symbol
 _atom_site_label
 _atom_site_symmetry_multiplicity
 _atom_site_fract_x
 _atom_site_fract_y
 _atom_site_fract_z
 _atom_site_occupancy
  Ba  Ba0  1  0.12498752  0.24997504  0.62503744  1
  Ba  Ba1  1  0.87517308  0.75034616  0.37448075  1
  Ba  Ba2  1  0.37481993  0.74963985  0.87554022  1
  Sr  Sr3  1  0.62500395  0.25000790  0.12498814  1
  Zn  Zn4  1  0.25014103  0.50028205  0.24957692  1
  Zn  Zn5  1  0.74984883  0.49969766  0.75045351  1
  W  W6  1  0.99961413  0.99922826  0.00115761  1
  W  W7  1  0.50038408  0.00076815  0.49884777  1
  O  O8  1  0.64128198  0.76072128  0.11983942  1
  O  O9  1  0.14246836  0.76178310  0.61890216  1
  O  O10  1  0.11943930  0.23887860  0.11983943  1
  O  O11  1  0.61931474  0.23862948  0.61890216  1
  O  O12  1  0.38205984  0.23925349  0.37868667  1
  O  O13  1  0.87915819  0.23829753  0.88254428  1
  O  O14  1  0.38205984  0.76411968  0.37868667  1
  O  O15  1  0.87915819  0.75831638  0.88254428  1
  O  O16  1  0.11943930  0.76072128  0.11983942  1
  O  O17  1  0.61931474  0.76178310  0.61890216  1
  O  O18  1  0.85719366  0.23925349  0.37868667  1
  O  O19  1  0.35913934  0.23829753  0.88254428  1
