# generated using pymatgen
data_Ba7Nb4MoO20
_symmetry_space_group_name_H-M   'P 1'
_cell_length_a   5.97357094
_cell_length_b   5.97361758
_cell_length_c   16.83119149
_cell_angle_alpha   89.99996658
_cell_angle_beta   90.00010146
_cell_angle_gamma   120.00032009
_symmetry_Int_Tables_number   1
_chemical_formula_structural   Ba7Nb4MoO20
_chemical_formula_sum   'Ba7 Nb4 Mo1 O20'
_cell_volume   520.13434796
_cell_formula_units_Z   1
loop_
 _symmetry_equiv_pos_site_id
 _symmetry_equiv_pos_as_xyz
  1  'x, y, z'
loop_
 _atom_site_type_symbol
 _atom_site_label
 _atom_site_symmetry_multiplicity
 _atom_site_fract_x
 _atom_site_fract_y
 _atom_site_fract_z
 _atom_site_occupancy
  Ba  Ba0  1  0.33335559  0.66667821  0.82330931  1
  Ba  Ba1  1  0.66665280  0.33332563  0.17762900  1
  Ba  Ba2  1  0.00000503  0.00000113  0.99224670  1
  Ba  Ba3  1  0.33334487  0.66667189  0.57390167  1
  Ba  Ba4  1  0.66665145  0.33332546  0.42653886  1
  Ba  Ba5  1  0.99999264  0.99999673  0.28819494  1
  Ba  Ba6  1  0.00000531  0.00000268  0.72111229  1
  Nb  Nb7  1  0.66665186  0.33332584  0.90535226  1
  Nb  Nb8  1  0.33332936  0.66666596  0.34981256  1
  Nb  Nb9  1  0.66666309  0.33333208  0.65082957  1
  Nb  Nb10  1  0.99999819  0.99999872  0.50141301  1
  Mo  Mo11  1  0.33334286  0.66667240  0.09600197  1
  O  O12  1  0.66253875  0.83127020  0.13045356  1
  O  O13  1  0.16876196  0.83125554  0.13044340  1
  O  O14  1  0.16876381  0.33750781  0.13044323  1
  O  O15  1  0.32514753  0.16257279  0.86868587  1
  O  O16  1  0.83740747  0.16257035  0.86869329  1
  O  O17  1  0.83740771  0.67483694  0.86869326  1
  O  O18  1  0.49410152  0.50590264  0.29483586  1
  O  O19  1  0.49410028  0.98819915  0.29483559  1
  O  O20  1  0.01179735  0.50589928  0.29483523  1
  O  O21  1  0.50516218  0.49482933  0.70357807  1
  O  O22  1  0.50516237  0.01033264  0.70357826  1
  O  O23  1  0.98966569  0.49483267  0.70357793  1
  O  O24  1  0.67478158  0.83738988  0.43052525  1
  O  O25  1  0.16260924  0.83739674  0.43052434  1
  O  O26  1  0.16260944  0.32521228  0.43052400  1
  O  O27  1  0.32568362  0.16284138  0.56771674  1
  O  O28  1  0.83715492  0.16283482  0.56771701  1
  O  O29  1  0.83715474  0.67432012  0.56771682  1
  O  O30  1  0.33337986  0.66669003  0.98933610  1
  O  O31  1  0.66661693  0.33330871  0.01694404  1
