# generated using pymatgen
data_Ba9Ca3(MoN4)4
_symmetry_space_group_name_H-M   'P 1'
_cell_length_a   10.12469593
_cell_length_b   10.59423693
_cell_length_c   12.17125403
_cell_angle_alpha   90.00000000
_cell_angle_beta   89.94102545
_cell_angle_gamma   90.00000000
_symmetry_Int_Tables_number   1
_chemical_formula_structural   Ba9Ca3(MoN4)4
_chemical_formula_sum   'Ba18 Ca6 Mo8 N32'
_cell_volume   1305.52973308
_cell_formula_units_Z   2
loop_
 _symmetry_equiv_pos_site_id
 _symmetry_equiv_pos_as_xyz
  1  'x, y, z'
loop_
 _atom_site_type_symbol
 _atom_site_label
 _atom_site_symmetry_multiplicity
 _atom_site_fract_x
 _atom_site_fract_y
 _atom_site_fract_z
 _atom_site_occupancy
  Ba  Ba0  1  0.62211932  0.02855938  0.64534250  1
  Ba  Ba1  1  0.87788068  0.52855938  0.35465750  1
  Ba  Ba2  1  0.11979232  0.96081089  0.86037124  1
  Ba  Ba3  1  0.38020768  0.46081089  0.13962876  1
  Ba  Ba4  1  0.37741250  0.97213587  0.35450088  1
  Ba  Ba5  1  0.12258750  0.47213587  0.64549912  1
  Ba  Ba6  1  0.88047131  0.03732119  0.14546330  1
  Ba  Ba7  1  0.61952869  0.53732119  0.85453670  1
  Ba  Ba8  1  0.30246971  0.76915277  0.61782596  1
  Ba  Ba9  1  0.19753029  0.26915277  0.38217404  1
  Ba  Ba10  1  0.79483742  0.22959501  0.88507825  1
  Ba  Ba11  1  0.70516258  0.72959501  0.11492175  1
  Ba  Ba12  1  0.69498317  0.23222617  0.37870485  1
  Ba  Ba13  1  0.80501683  0.73222617  0.62129515  1
  Ba  Ba14  1  0.19517452  0.76633844  0.11660441  1
  Ba  Ba15  1  0.30482548  0.26633844  0.88339559  1
  Ba  Ba16  1  0.96419969  0.12445420  0.60938728  1
  Ba  Ba17  1  0.53580031  0.62445420  0.39061272  1
  Ca  Ca18  1  0.46747606  0.88181756  0.89952887  1
  Ca  Ca19  1  0.03252394  0.38181756  0.10047113  1
  Ca  Ca20  1  0.03304218  0.87912420  0.39352357  1
  Ca  Ca21  1  0.46695782  0.37912420  0.60647643  1
  Ca  Ca22  1  0.53015391  0.11459501  0.10140869  1
  Ca  Ca23  1  0.96984609  0.61459501  0.89859131  1
  Mo  Mo24  1  0.29883849  0.09367816  0.61953588  1
  Mo  Mo25  1  0.20116151  0.59367816  0.38046412  1
  Mo  Mo26  1  0.78227199  0.90049146  0.88701564  1
  Mo  Mo27  1  0.71772801  0.40049146  0.11298436  1
  Mo  Mo28  1  0.71268195  0.91070089  0.37573589  1
  Mo  Mo29  1  0.78731805  0.41070089  0.62426411  1
  Mo  Mo30  1  0.21470485  0.09423908  0.12039422  1
  Mo  Mo31  1  0.28529515  0.59423908  0.87960578  1
  N  N32  1  0.18833660  0.99044192  0.53054661  1
  N  N33  1  0.31166340  0.49044192  0.46945339  1
  N  N34  1  0.66876271  0.00017102  0.97465765  1
  N  N35  1  0.83123729  0.50017102  0.02534235  1
  N  N36  1  0.83399466  0.01265009  0.45054380  1
  N  N37  1  0.66600534  0.51265009  0.54945620  1
  N  N38  1  0.32541718  0.99304746  0.03065435  1
  N  N39  1  0.17458282  0.49304746  0.96934565  1
  N  N40  1  0.42811174  0.16903913  0.52847893  1
  N  N41  1  0.07188826  0.66903913  0.47152107  1
  N  N42  1  0.91397971  0.82299035  0.97622853  1
  N  N43  1  0.58602029  0.32299035  0.02377147  1
  N  N44  1  0.58505195  0.85074190  0.47670006  1
  N  N45  1  0.91494805  0.35074190  0.52329994  1
  N  N46  1  0.08567874  0.17077942  0.02963133  1
  N  N47  1  0.41432126  0.67077942  0.97036867  1
  N  N48  1  0.37681777  0.98683996  0.72623815  1
  N  N49  1  0.12318223  0.48683996  0.27376185  1
  N  N50  1  0.86790343  0.00797236  0.78777119  1
  N  N51  1  0.63209657  0.50797236  0.21222881  1
  N  N52  1  0.62719862  0.01315422  0.27025315  1
  N  N53  1  0.87280138  0.51315422  0.72974685  1
  N  N54  1  0.12899704  0.98873621  0.22439802  1
  N  N55  1  0.37100296  0.48873621  0.77560198  1
  N  N56  1  0.19590736  0.21742171  0.68930162  1
  N  N57  1  0.30409264  0.71742171  0.31069838  1
  N  N58  1  0.67150143  0.78840845  0.81062782  1
  N  N59  1  0.82849857  0.28840845  0.18937218  1
  N  N60  1  0.81306409  0.78222498  0.30985919  1
  N  N61  1  0.68693591  0.28222498  0.69014081  1
  N  N62  1  0.32659507  0.21014055  0.19189513  1
  N  N63  1  0.17340493  0.71014055  0.80810487  1
