# generated using pymatgen
data_Ba5Ce4ZrO15
_symmetry_space_group_name_H-M   'P 1'
_cell_length_a   6.22611970
_cell_length_b   13.89906410
_cell_length_c   10.85777447
_cell_angle_alpha   104.74205094
_cell_angle_beta   106.66124361
_cell_angle_gamma   77.05731458
_symmetry_Int_Tables_number   1
_chemical_formula_structural   Ba5Ce4ZrO15
_chemical_formula_sum   'Ba10 Ce8 Zr2 O30'
_cell_volume   858.87977907
_cell_formula_units_Z   2
loop_
 _symmetry_equiv_pos_site_id
 _symmetry_equiv_pos_as_xyz
  1  'x, y, z'
loop_
 _atom_site_type_symbol
 _atom_site_label
 _atom_site_symmetry_multiplicity
 _atom_site_fract_x
 _atom_site_fract_y
 _atom_site_fract_z
 _atom_site_occupancy
  Ba  Ba0  1  0.09548517  0.35370697  0.54467731  1
  Ba  Ba1  1  0.49563661  0.74890042  0.74017365  1
  Ba  Ba2  1  0.89822123  0.14466925  0.94111170  1
  Ba  Ba3  1  0.30070134  0.54897549  0.15037816  1
  Ba  Ba4  1  0.70205851  0.94630532  0.35042235  1
  Ba  Ba5  1  0.90436339  0.65109958  0.45982635  1
  Ba  Ba6  1  0.30451483  0.04629303  0.65532269  1
  Ba  Ba7  1  0.69794149  0.45369468  0.84957765  1
  Ba  Ba8  1  0.09929866  0.85102451  0.04962184  1
  Ba  Ba9  1  0.50177877  0.25533075  0.25888830  1
  Ce  Ce10  1  0.49904521  0.99830998  0.99640041  1
  Ce  Ce11  1  0.90095479  0.40169002  0.20359959  1
  Ce  Ce12  1  0.30282873  0.79852389  0.40418135  1
  Ce  Ce13  1  0.70000000  0.20000000  0.60000000  1
  Ce  Ce14  1  0.09717127  0.60147611  0.79581865  1
  Ce  Ce15  1  0.29976741  0.30127433  0.90080915  1
  Ce  Ce16  1  0.70000000  0.70000000  0.10000000  1
  Ce  Ce17  1  0.10023259  0.09872567  0.29919085  1
  Zr  Zr18  1  0.50065270  0.49962416  0.50092956  1
  Zr  Zr19  1  0.89934730  0.90037584  0.69907044  1
  O  O20  1  0.70881966  0.43061448  0.36440799  1
  O  O21  1  0.11028866  0.83021652  0.56399403  1
  O  O22  1  0.51918323  0.22494112  0.75925466  1
  O  O23  1  0.91630136  0.62546670  0.95608570  1
  O  O24  1  0.31523840  0.02253840  0.15545235  1
  O  O25  1  0.77651115  0.56978348  0.63600597  1
  O  O26  1  0.17502616  0.96938552  0.83559201  1
  O  O27  1  0.58232444  0.37746160  0.04454765  1
  O  O28  1  0.98568236  0.77453330  0.24391430  1
  O  O29  1  0.38486969  0.17505888  0.44074534  1
  O  O30  1  0.22497384  0.43061448  0.36440799  1
  O  O31  1  0.62348885  0.83021652  0.56399403  1
  O  O32  1  0.01513031  0.22494112  0.75925466  1
  O  O33  1  0.41431764  0.62546670  0.95608570  1
  O  O34  1  0.81767556  0.02253840  0.15545235  1
  O  O35  1  0.28971134  0.56978348  0.63600597  1
  O  O36  1  0.69118034  0.96938552  0.83559201  1
  O  O37  1  0.08476160  0.37746160  0.04454765  1
  O  O38  1  0.48369864  0.77453330  0.24391430  1
  O  O39  1  0.88081677  0.17505888  0.44074534  1
  O  O40  1  0.41495140  0.16402663  0.99392943  1
  O  O41  1  0.81604458  0.56630366  0.19839282  1
  O  O42  1  0.21683074  0.96384700  0.39750847  1
  O  O43  1  0.60967920  0.36924742  0.58860583  1
  O  O44  1  0.00842930  0.76776159  0.78462018  1
  O  O45  1  0.18316926  0.43615300  0.80249153  1
  O  O46  1  0.58395542  0.83369634  0.00160718  1
  O  O47  1  0.98504860  0.23597337  0.20607057  1
  O  O48  1  0.39157070  0.63223841  0.41537982  1
  O  O49  1  0.79032080  0.03075258  0.61139417  1
