# generated using pymatgen
data_NaSm2IrO6
_symmetry_space_group_name_H-M   'P 1'
_cell_length_a   5.50502435
_cell_length_b   5.93747625
_cell_length_c   7.97931343
_cell_angle_alpha   90.00000000
_cell_angle_beta   91.25995829
_cell_angle_gamma   90.00000000
_symmetry_Int_Tables_number   1
_chemical_formula_structural   NaSm2IrO6
_chemical_formula_sum   'Na2 Sm4 Ir2 O12'
_cell_volume   260.74839160
_cell_formula_units_Z   2
loop_
 _symmetry_equiv_pos_site_id
 _symmetry_equiv_pos_as_xyz
  1  'x, y, z'
loop_
 _atom_site_type_symbol
 _atom_site_label
 _atom_site_symmetry_multiplicity
 _atom_site_fract_x
 _atom_site_fract_y
 _atom_site_fract_z
 _atom_site_occupancy
  O  O0  1  0.83968505  0.71730971  0.57382529  1
  O  O1  1  0.66031495  0.21730971  0.92617471  1
  O  O2  1  0.16031495  0.28269029  0.42617471  1
  O  O3  1  0.33968505  0.78269029  0.07382529  1
  O  O4  1  0.13027053  0.05699813  0.73204956  1
  O  O5  1  0.36972947  0.55699813  0.76795044  1
  O  O6  1  0.86972947  0.94300187  0.26795044  1
  O  O7  1  0.63027053  0.44300187  0.23204956  1
  O  O8  1  0.20136779  0.32656734  0.05510560  1
  O  O9  1  0.29863221  0.82656734  0.44489440  1
  O  O10  1  0.79863221  0.67343266  0.94489440  1
  O  O11  1  0.70136779  0.17343266  0.55510560  1
  Na  Na12  1  0.50000000  0.50000000  0.50000000  1
  Na  Na13  1  0.00000000  0.00000000  0.00000000  1
  Sm  Sm14  1  0.47676181  0.07474467  0.25510847  1
  Sm  Sm15  1  0.02323819  0.57474467  0.24489153  1
  Sm  Sm16  1  0.97676181  0.42525533  0.75510847  1
  Sm  Sm17  1  0.52323819  0.92525533  0.74489153  1
  Ir  Ir18  1  0.50000000  0.50000000  0.00000000  1
  Ir  Ir19  1  0.00000000  0.00000000  0.50000000  1
