# generated using pymatgen
data_HoP5O14
_symmetry_space_group_name_H-M   'P 1'
_cell_length_a   8.80743506
_cell_length_b   9.14260450
_cell_length_c   12.80690152
_cell_angle_alpha   90.00000000
_cell_angle_beta   90.00000000
_cell_angle_gamma   90.00000000
_symmetry_Int_Tables_number   1
_chemical_formula_structural   HoP5O14
_chemical_formula_sum   'Ho4 P20 O56'
_cell_volume   1031.24879166
_cell_formula_units_Z   4
loop_
 _symmetry_equiv_pos_site_id
 _symmetry_equiv_pos_as_xyz
  1  'x, y, z'
loop_
 _atom_site_type_symbol
 _atom_site_label
 _atom_site_symmetry_multiplicity
 _atom_site_fract_x
 _atom_site_fract_y
 _atom_site_fract_z
 _atom_site_occupancy
  O  O0  1  0.82893803  0.10596710  0.37094374  1
  O  O1  1  0.32893803  0.39403290  0.12905626  1
  O  O2  1  0.67106197  0.60596710  0.62905626  1
  O  O3  1  0.17106197  0.89403290  0.87094374  1
  O  O4  1  0.17106197  0.89403290  0.62905626  1
  O  O5  1  0.67106197  0.60596710  0.87094374  1
  O  O6  1  0.32893803  0.39403290  0.37094374  1
  O  O7  1  0.82893803  0.10596710  0.12905626  1
  O  O8  1  0.65804060  0.33912184  0.37971330  1
  O  O9  1  0.15804060  0.16087816  0.12028670  1
  O  O10  1  0.84195940  0.83912184  0.62028670  1
  O  O11  1  0.34195940  0.66087816  0.87971330  1
  O  O12  1  0.34195940  0.66087816  0.62028670  1
  O  O13  1  0.84195940  0.83912184  0.87971330  1
  O  O14  1  0.15804060  0.16087816  0.37971330  1
  O  O15  1  0.65804060  0.33912184  0.12028670  1
  O  O16  1  0.88487954  0.31889294  0.49473846  1
  O  O17  1  0.38487954  0.18110706  0.00526154  1
  O  O18  1  0.61512046  0.81889294  0.50526154  1
  O  O19  1  0.66287398  0.15656193  0.52717975  1
  O  O20  1  0.11512046  0.68110706  0.99473846  1
  O  O21  1  0.61512046  0.81889294  0.99473846  1
  O  O22  1  0.38487954  0.18110706  0.49473846  1
  O  O23  1  0.88487954  0.31889294  0.00526154  1
  O  O24  1  0.53774920  0.83757799  0.75000000  1
  O  O25  1  0.03774920  0.66242201  0.75000000  1
  O  O26  1  0.96225080  0.33757799  0.25000000  1
  O  O27  1  0.46225080  0.16242201  0.25000000  1
  O  O28  1  0.73020212  0.05809012  0.75000000  1
  O  O29  1  0.23020212  0.44190988  0.75000000  1
  O  O30  1  0.76979788  0.55809012  0.25000000  1
  O  O31  1  0.26979788  0.94190988  0.25000000  1
  O  O32  1  0.47587177  0.06825215  0.84666794  1
  O  O33  1  0.97587177  0.43174785  0.65333206  1
  O  O34  1  0.02412823  0.56825215  0.15333206  1
  O  O35  1  0.52412823  0.93174785  0.34666794  1
  O  O36  1  0.52412823  0.93174785  0.15333206  1
  O  O37  1  0.02412823  0.56825215  0.34666794  1
  O  O38  1  0.97587177  0.43174785  0.84666794  1
  O  O39  1  0.47587177  0.06825215  0.65333206  1
  O  O40  1  0.50903276  0.34789488  0.86511581  1
  O  O41  1  0.00903276  0.15210512  0.63488419  1
  O  O42  1  0.99096724  0.84789488  0.13488419  1
  O  O43  1  0.49096724  0.65210512  0.36511581  1
  O  O44  1  0.49096724  0.65210512  0.13488419  1
  O  O45  1  0.99096724  0.84789488  0.36511581  1
  O  O46  1  0.00903276  0.15210512  0.86511581  1
  O  O47  1  0.50903276  0.34789488  0.63488419  1
  O  O48  1  0.66287398  0.15656193  0.97282025  1
  O  O49  1  0.16287398  0.34343807  0.52717975  1
  O  O50  1  0.83712602  0.65656193  0.02717975  1
  O  O51  1  0.33712602  0.84343807  0.47282025  1
  O  O52  1  0.33712602  0.84343807  0.02717975  1
  O  O53  1  0.83712602  0.65656193  0.47282025  1
  O  O54  1  0.16287398  0.34343807  0.97282025  1
  O  O55  1  0.11512046  0.68110706  0.50526154  1
  P  P56  1  0.75700641  0.22746220  0.43009817  1
  P  P57  1  0.25700641  0.27253780  0.06990183  1
  P  P58  1  0.74299359  0.72746220  0.56990183  1
  P  P59  1  0.24299359  0.77253780  0.93009817  1
  P  P60  1  0.24299359  0.77253780  0.56990183  1
  P  P61  1  0.74299359  0.72746220  0.93009817  1
  P  P62  1  0.25700641  0.27253780  0.43009817  1
  P  P63  1  0.75700641  0.22746220  0.06990183  1
  P  P64  1  0.50892397  0.20458100  0.58183651  1
  P  P65  1  0.00892397  0.29541900  0.91816349  1
  P  P66  1  0.99107603  0.70458100  0.41816349  1
  P  P67  1  0.49107603  0.79541900  0.08183651  1
  P  P68  1  0.49107603  0.79541900  0.41816349  1
  P  P69  1  0.99107603  0.70458100  0.08183651  1
  P  P70  1  0.00892397  0.29541900  0.58183651  1
  P  P71  1  0.50892397  0.20458100  0.91816349  1
  P  P72  1  0.42690157  0.00409798  0.25000000  1
  P  P73  1  0.92690157  0.49590202  0.25000000  1
  P  P74  1  0.07309843  0.50409798  0.75000000  1
  P  P75  1  0.57309843  0.99590202  0.75000000  1
  Ho  Ho76  1  0.02070449  0.05641319  0.25000000  1
  Ho  Ho77  1  0.52070449  0.44358681  0.25000000  1
  Ho  Ho78  1  0.47929551  0.55641319  0.75000000  1
  Ho  Ho79  1  0.97929551  0.94358681  0.75000000  1
