# generated using pymatgen
data_Ba3Ca2Fe3CuF21
_symmetry_space_group_name_H-M   'P 1'
_cell_length_a   5.46876153
_cell_length_b   7.51599372
_cell_length_c   45.56306335
_cell_angle_alpha   91.07914120
_cell_angle_beta   88.61395217
_cell_angle_gamma   69.33843133
_symmetry_Int_Tables_number   1
_chemical_formula_structural   Ba3Ca2Fe3CuF21
_chemical_formula_sum   'Ba12 Ca8 Fe12 Cu4 F84'
_cell_volume   1751.06805129
_cell_formula_units_Z   4
loop_
 _symmetry_equiv_pos_site_id
 _symmetry_equiv_pos_as_xyz
  1  'x, y, z'
loop_
 _atom_site_type_symbol
 _atom_site_label
 _atom_site_symmetry_multiplicity
 _atom_site_fract_x
 _atom_site_fract_y
 _atom_site_fract_z
 _atom_site_occupancy
  Ba  Ba0  1  0.12699894  0.62260196  0.12621527  1
  Ba  Ba1  1  0.13093424  0.62064821  0.46006187  1
  Ba  Ba2  1  0.13055922  0.62105115  0.79358144  1
  Ba  Ba3  1  0.75044573  0.37757337  0.04030695  1
  Ba  Ba4  1  0.75506343  0.38046219  0.37536228  1
  Ba  Ba5  1  0.75508836  0.38027735  0.70876464  1
  Ba  Ba6  1  0.86944078  0.37894885  0.20641856  1
  Ba  Ba7  1  0.86906576  0.37935179  0.53993813  1
  Ba  Ba8  1  0.87300106  0.37739804  0.87378473  1
  Ba  Ba9  1  0.24491164  0.61972265  0.29123536  1
  Ba  Ba10  1  0.24493657  0.61953781  0.62463772  1
  Ba  Ba11  1  0.24955427  0.62242663  0.95969305  1
  Ca  Ca12  1  0.42845093  0.99935471  0.08326966  1
  Ca  Ca13  1  0.43261439  0.00329080  0.41808583  1
  Ca  Ca14  1  0.43258394  0.00331526  0.75149975  1
  Ca  Ca15  1  0.56741606  0.99668474  0.24850025  1
  Ca  Ca16  1  0.56738561  0.99670920  0.58191417  1
  Ca  Ca17  1  0.57154907  0.00064529  0.91673034  1
  Ca  Ca18  1  0.50001960  0.00011647  0.33330763  1
  Ca  Ca19  1  0.49998040  0.99988353  0.66669237  1
  Fe  Fe20  1  0.86038543  0.24064263  0.12503948  1
  Fe  Fe21  1  0.86120157  0.24157958  0.45931052  1
  Fe  Fe22  1  0.86114206  0.24153328  0.79268152  1
  Fe  Fe23  1  0.10032151  0.76095440  0.04126769  1
  Fe  Fe24  1  0.11537519  0.75474773  0.37547527  1
  Fe  Fe25  1  0.11532337  0.75436085  0.70881826  1
  Fe  Fe26  1  0.13885794  0.75846672  0.20731848  1
  Fe  Fe27  1  0.13879843  0.75842042  0.54068948  1
  Fe  Fe28  1  0.13961457  0.75935737  0.87496052  1
  Fe  Fe29  1  0.88467663  0.24563915  0.29118174  1
  Fe  Fe30  1  0.88462481  0.24525227  0.62452473  1
  Fe  Fe31  1  0.89967849  0.23904560  0.95873231  1
  Cu  Cu32  1  0.49809594  0.00084888  0.16624674  1
  Cu  Cu33  1  0.50000000  -0.00000000  0.50000000  1
  Cu  Cu34  1  0.50190406  0.99915112  0.83375326  1
  Cu  Cu35  1  0.50000000  -0.00000000  0.00000000  1
  F  F36  1  0.57033198  0.27453421  0.31727715  1
  F  F37  1  0.57035494  0.27427086  0.65061039  1
  F  F38  1  0.59482349  0.27378026  0.98512595  1
  F  F39  1  0.87188135  0.72363223  0.18168583  1
  F  F40  1  0.87169600  0.72368131  0.51519767  1
  F  F41  1  0.87506815  0.72258610  0.84896354  1
  F  F42  1  0.40517651  0.72621974  0.01487405  1
  F  F43  1  0.42964506  0.72572914  0.34938961  1
  F  F44  1  0.42966802  0.72546579  0.68272285  1
  F  F45  1  0.12493185  0.27741390  0.15103646  1
  F  F46  1  0.12830400  0.27631869  0.48480233  1
  F  F47  1  0.12811865  0.27636777  0.81831417  1
  F  F48  1  0.90149054  0.98673184  0.28220002  1
  F  F49  1  0.90167605  0.98656054  0.61553758  1
  F  F50  1  0.92637515  0.98190563  0.94794598  1
  F  F51  1  0.91226881  0.01645293  0.21827056  1
  F  F52  1  0.91193635  0.01637098  0.55168583  1
  F  F53  1  0.90877169  0.01694854  0.88521440  1
  F  F54  1  0.07362485  0.01809437  0.05205402  1
  F  F55  1  0.09832395  0.01343946  0.38446242  1
  F  F56  1  0.09850946  0.01326816  0.71779998  1
  F  F57  1  0.09122831  0.98305146  0.11478560  1
  F  F58  1  0.08806365  0.98362902  0.44831417  1
  F  F59  1  0.08773119  0.98354707  0.78172944  1
  F  F60  1  0.59366851  0.23870505  0.09724609  1
  F  F61  1  0.58638046  0.24530744  0.43293944  1
  F  F62  1  0.58671995  0.24518838  0.76631429  1
  F  F63  1  0.82746718  0.75993588  0.06948605  1
  F  F64  1  0.83244478  0.75847148  0.40246956  1
  F  F65  1  0.83228127  0.75841942  0.73582477  1
  F  F66  1  0.41328005  0.75481162  0.23368571  1
  F  F67  1  0.41361954  0.75469256  0.56706056  1
  F  F68  1  0.40633149  0.76129495  0.90275391  1
  F  F69  1  0.16771873  0.24158058  0.26417523  1
  F  F70  1  0.16755522  0.24152852  0.59753044  1
  F  F71  1  0.17253282  0.24006412  0.93051395  1
  F  F72  1  0.51399375  0.10535071  0.03804904  1
  F  F73  1  0.53813425  0.11911965  0.37681286  1
  F  F74  1  0.53802538  0.11901492  0.71020403  1
  F  F75  1  0.61997339  0.89468116  0.12801454  1
  F  F76  1  0.62355763  0.89269766  0.46195732  1
  F  F77  1  0.62275095  0.89295127  0.79557317  1
  F  F78  1  0.46197462  0.88098508  0.28979597  1
  F  F79  1  0.46186575  0.88088035  0.62318714  1
  F  F80  1  0.48600625  0.89464929  0.96195096  1
  F  F81  1  0.37724905  0.10704873  0.20442683  1
  F  F82  1  0.37644237  0.10730234  0.53804268  1
  F  F83  1  0.38002661  0.10531884  0.87198546  1
  F  F84  1  0.35908560  0.68039674  0.07342245  1
  F  F85  1  0.36490288  0.67782010  0.40791867  1
  F  F86  1  0.36479070  0.67768731  0.74128838  1
  F  F87  1  0.04592021  0.32108345  0.09258534  1
  F  F88  1  0.04470699  0.32103786  0.42643185  1
  F  F89  1  0.04475234  0.32085324  0.75984496  1
  F  F90  1  0.63520930  0.32231269  0.25871162  1
  F  F91  1  0.63509712  0.32217990  0.59208133  1
  F  F92  1  0.64091440  0.31960326  0.92657755  1
  F  F93  1  0.95524766  0.67914676  0.24015504  1
  F  F94  1  0.95529301  0.67896214  0.57356815  1
  F  F95  1  0.95407979  0.67891655  0.90741466  1
  F  F96  1  0.66013701  0.50263611  0.13491884  1
  F  F97  1  0.66452009  0.50452507  0.46913541  1
  F  F98  1  0.66423901  0.50486372  0.80243220  1
  F  F99  1  0.16221042  0.49757678  0.03154437  1
  F  F100  1  0.17931759  0.49169175  0.36574641  1
  F  F101  1  0.17930721  0.49156596  0.69907502  1
  F  F102  1  0.33576099  0.49513628  0.19756780  1
  F  F103  1  0.33547991  0.49547493  0.53086459  1
  F  F104  1  0.33986299  0.49736389  0.86508116  1
  F  F105  1  0.82069279  0.50843404  0.30092498  1
  F  F106  1  0.82068241  0.50830825  0.63425359  1
  F  F107  1  0.83778958  0.50242322  0.96845563  1
  F  F108  1  0.71027602  0.16482445  0.16070008  1
  F  F109  1  0.71148190  0.16481965  0.49478697  1
  F  F110  1  0.71108108  0.16519813  0.82823726  1
  F  F111  1  0.87804680  0.83395343  0.00621555  1
  F  F112  1  0.92266155  0.81935334  0.33944677  1
  F  F113  1  0.92276738  0.81912643  0.67279705  1
  F  F114  1  0.28891892  0.83480187  0.17176274  1
  F  F115  1  0.28851810  0.83518035  0.50521303  1
  F  F116  1  0.28972398  0.83517555  0.83929992  1
  F  F117  1  0.07723262  0.18087357  0.32720295  1
  F  F118  1  0.07733845  0.18064666  0.66055323  1
  F  F119  1  0.12195320  0.16604657  0.99378445  1
