# generated using pymatgen
data_Al41V4
_symmetry_space_group_name_H-M   'P 1'
_cell_length_a   10.22906836
_cell_length_b   10.22906836
_cell_length_c   10.22906836
_cell_angle_alpha   90.00000000
_cell_angle_beta   60.00000000
_cell_angle_gamma   120.00000000
_symmetry_Int_Tables_number   1
_chemical_formula_structural   Al41V4
_chemical_formula_sum   'Al41 V4'
_cell_volume   756.82112270
_cell_formula_units_Z   1
loop_
 _symmetry_equiv_pos_site_id
 _symmetry_equiv_pos_as_xyz
  1  'x, y, z'
loop_
 _atom_site_type_symbol
 _atom_site_label
 _atom_site_symmetry_multiplicity
 _atom_site_fract_x
 _atom_site_fract_y
 _atom_site_fract_z
 _atom_site_occupancy
  Al  Al0  1  0.49895628  0.49843442  0.00052186  1
  Al  Al1  1  0.49895628  0.00052186  0.00052186  1
  Al  Al2  1  0.00104372  0.00052186  0.49843442  1
  Al  Al3  1  0.00104372  0.00052186  0.00052186  1
  Al  Al4  1  0.38100614  0.05837562  0.32263053  1
  Al  Al5  1  0.38100614  0.32263053  0.79636333  1
  Al  Al6  1  0.11899386  0.32263053  0.05837562  1
  Al  Al7  1  0.11899386  0.79636333  0.32263053  1
  Al  Al8  1  0.64526105  0.32263053  0.05837562  1
  Al  Al9  1  0.85473895  0.05837562  0.32263053  1
  Al  Al10  1  0.85473895  0.79636333  0.32263053  1
  Al  Al11  1  0.64526105  0.32263053  0.79636333  1
  Al  Al12  1  0.38100614  0.32263053  0.32263053  1
  Al  Al13  1  0.11899386  0.79636333  0.05837562  1
  Al  Al14  1  0.38100614  0.05837562  0.79636333  1
  Al  Al15  1  0.11899386  0.32263053  0.32263053  1
  Al  Al16  1  0.61939902  0.94208189  0.67731714  1
  Al  Al17  1  0.61939902  0.67731714  0.20328384  1
  Al  Al18  1  0.88060098  0.67731714  0.94208189  1
  Al  Al19  1  0.88060098  0.20328384  0.67731714  1
  Al  Al20  1  0.35463428  0.67731714  0.94208189  1
  Al  Al21  1  0.14536572  0.94208189  0.67731714  1
  Al  Al22  1  0.14536572  0.20328384  0.67731714  1
  Al  Al23  1  0.35463428  0.67731714  0.20328384  1
  Al  Al24  1  0.61939902  0.67731714  0.67731714  1
  Al  Al25  1  0.88060098  0.20328384  0.94208189  1
  Al  Al26  1  0.61939902  0.94208189  0.20328384  1
  Al  Al27  1  0.88060098  0.67731714  0.67731714  1
  Al  Al28  1  0.52992084  0.76496042  0.48503958  1
  Al  Al29  1  0.97007916  0.48503958  0.76496042  1
  Al  Al30  1  0.25000000  0.76496042  0.76496042  1
  Al  Al31  1  0.25000000  0.48503958  0.48503958  1
  Al  Al32  1  0.25000000  0.48503958  0.76496042  1
  Al  Al33  1  0.25000000  0.76496042  0.48503958  1
  Al  Al34  1  0.47148524  0.23574262  0.51425738  1
  Al  Al35  1  0.02851476  0.51425738  0.23574262  1
  Al  Al36  1  0.75000000  0.23574262  0.23574262  1
  Al  Al37  1  0.75000000  0.51425738  0.51425738  1
  Al  Al38  1  0.75000000  0.51425738  0.23574262  1
  Al  Al39  1  0.75000000  0.23574262  0.51425738  1
  Al  Al40  1  0.25000000  0.12500000  0.12500000  1
  V  V41  1  0.50000661  0.00000992  0.49999669  1
  V  V42  1  0.50000661  0.49999669  0.49999669  1
  V  V43  1  -0.00000661  0.49999669  0.00000992  1
  V  V44  1  -0.00000661  0.49999669  0.49999669  1
