# generated using pymatgen
data_AlGaAs2
_symmetry_space_group_name_H-M   'P 1'
_cell_length_a   4.05858313
_cell_length_b   4.05858313
_cell_length_c   7.02668249
_cell_angle_alpha   73.21399474
_cell_angle_beta   90.00000000
_cell_angle_gamma   120.00000000
_symmetry_Int_Tables_number   1
_chemical_formula_structural   AlGaAs2
_chemical_formula_sum   'Al1 Ga1 As2'
_cell_volume   94.49971252
_cell_formula_units_Z   1
loop_
 _symmetry_equiv_pos_site_id
 _symmetry_equiv_pos_as_xyz
  1  'x, y, z'
loop_
 _atom_site_type_symbol
 _atom_site_label
 _atom_site_symmetry_multiplicity
 _atom_site_fract_x
 _atom_site_fract_y
 _atom_site_fract_z
 _atom_site_occupancy
  Al  Al0  1  0.00011530  0.00023059  0.99965411  1
  Ga  Ga1  1  0.49993313  0.99986625  0.50020062  1
  As  As2  1  0.87520333  0.75040667  0.37439000  1
  As  As3  1  0.37474824  0.74949649  0.87575527  1
