# generated using pymatgen
data_Ca3In2(SiO4)3
_symmetry_space_group_name_H-M   'P 1'
_cell_length_a   10.80102417
_cell_length_b   10.80102418
_cell_length_c   10.80102418
_cell_angle_alpha   109.47122062
_cell_angle_beta   109.47122063
_cell_angle_gamma   109.47122066
_symmetry_Int_Tables_number   1
_chemical_formula_structural   Ca3In2(SiO4)3
_chemical_formula_sum   'Ca12 In8 Si12 O48'
_cell_volume   970.00265689
_cell_formula_units_Z   4
loop_
 _symmetry_equiv_pos_site_id
 _symmetry_equiv_pos_as_xyz
  1  'x, y, z'
loop_
 _atom_site_type_symbol
 _atom_site_label
 _atom_site_symmetry_multiplicity
 _atom_site_fract_x
 _atom_site_fract_y
 _atom_site_fract_z
 _atom_site_occupancy
  O  O0  1  0.71413831  0.70159523  0.09285637  1
  O  O1  1  0.70159523  0.10873886  0.98745692  1
  O  O2  1  0.62128194  0.71413831  0.51254308  1
  O  O3  1  0.51254308  0.62128194  0.71413831  1
  O  O4  1  0.09285637  0.87871806  0.39126114  1
  O  O5  1  0.39126114  0.09285637  0.87871806  1
  O  O6  1  0.10873886  0.98745692  0.70159523  1
  O  O7  1  0.62128194  0.40714363  0.10873886  1
  O  O8  1  0.51254308  0.39126114  0.79840477  1
  O  O9  1  0.87871806  0.98745692  0.78586169  1
  O  O10  1  0.40714363  0.10873886  0.62128194  1
  O  O11  1  0.79840477  0.51254308  0.39126114  1
  O  O12  1  0.98745692  0.78586169  0.87871806  1
  O  O13  1  0.09285637  0.71413831  0.70159523  1
  O  O14  1  0.70159523  0.09285637  0.71413831  1
  O  O15  1  0.10873886  0.62128194  0.40714363  1
  O  O16  1  0.79840477  0.78586169  0.40714363  1
  O  O17  1  0.39126114  0.79840477  0.51254308  1
  O  O18  1  0.40714363  0.79840477  0.78586169  1
  O  O19  1  0.78586169  0.87871806  0.98745692  1
  O  O20  1  0.78586169  0.40714363  0.79840477  1
  O  O21  1  0.87871806  0.39126114  0.09285637  1
  O  O22  1  0.98745692  0.70159523  0.10873886  1
  O  O23  1  0.71413831  0.51254308  0.62128194  1
  O  O24  1  0.28586169  0.29840477  0.90714363  1
  O  O25  1  0.29840477  0.89126114  0.01254308  1
  O  O26  1  0.37871806  0.28586169  0.48745692  1
  O  O27  1  0.48745692  0.37871806  0.28586169  1
  O  O28  1  0.90714363  0.12128194  0.60873886  1
  O  O29  1  0.60873886  0.90714363  0.12128194  1
  O  O30  1  0.89126114  0.01254308  0.29840477  1
  O  O31  1  0.37871806  0.59285637  0.89126114  1
  O  O32  1  0.48745692  0.60873886  0.20159523  1
  O  O33  1  0.12128194  0.01254308  0.21413831  1
  O  O34  1  0.59285637  0.89126114  0.37871806  1
  O  O35  1  0.20159523  0.48745692  0.60873886  1
  O  O36  1  0.01254308  0.21413831  0.12128194  1
  O  O37  1  0.90714363  0.28586169  0.29840477  1
  O  O38  1  0.29840477  0.90714363  0.28586169  1
  O  O39  1  0.89126114  0.37871806  0.59285637  1
  O  O40  1  0.20159523  0.21413831  0.59285637  1
  O  O41  1  0.60873886  0.20159523  0.48745692  1
  O  O42  1  0.59285637  0.20159523  0.21413831  1
  O  O43  1  0.21413831  0.12128194  0.01254308  1
  O  O44  1  0.21413831  0.59285637  0.20159523  1
  O  O45  1  0.12128194  0.60873886  0.90714363  1
  O  O46  1  0.01254308  0.29840477  0.89126114  1
  O  O47  1  0.28586169  0.48745692  0.37871806  1
  Si  Si48  1  0.25000000  0.12500000  0.87500000  1
  Si  Si49  1  0.62500000  0.75000000  0.37500000  1
  Si  Si50  1  0.25000000  0.62500000  0.37500000  1
  Si  Si51  1  0.37500000  0.62500000  0.75000000  1
  Si  Si52  1  0.75000000  0.37500000  0.62500000  1
  Si  Si53  1  0.87500000  0.12500000  0.75000000  1
  Si  Si54  1  0.12500000  0.87500000  0.25000000  1
  Si  Si55  1  0.12500000  0.75000000  0.87500000  1
  Si  Si56  1  0.62500000  0.37500000  0.25000000  1
  Si  Si57  1  0.37500000  0.25000000  0.62500000  1
  Si  Si58  1  0.75000000  0.87500000  0.12500000  1
  Si  Si59  1  0.87500000  0.25000000  0.12500000  1
  Ca  Ca60  1  0.87500000  0.62500000  0.25000000  1
  Ca  Ca61  1  0.62500000  0.87500000  0.75000000  1
  Ca  Ca62  1  0.87500000  0.75000000  0.62500000  1
  Ca  Ca63  1  0.62500000  0.25000000  0.87500000  1
  Ca  Ca64  1  0.75000000  0.62500000  0.87500000  1
  Ca  Ca65  1  0.75000000  0.12500000  0.37500000  1
  Ca  Ca66  1  0.12500000  0.37500000  0.75000000  1
  Ca  Ca67  1  0.37500000  0.12500000  0.25000000  1
  Ca  Ca68  1  0.12500000  0.25000000  0.37500000  1
  Ca  Ca69  1  0.37500000  0.75000000  0.12500000  1
  Ca  Ca70  1  0.25000000  0.87500000  0.62500000  1
  Ca  Ca71  1  0.25000000  0.37500000  0.12500000  1
  In  In72  1  0.50000000  0.50000000  0.50000000  1
  In  In73  1  0.50000000  0.50000000  0.00000000  1
  In  In74  1  0.50000000  0.00000000  0.50000000  1
  In  In75  1  0.50000000  0.00000000  0.00000000  1
  In  In76  1  0.00000000  0.00000000  0.50000000  1
  In  In77  1  0.00000000  0.50000000  0.00000000  1
  In  In78  1  0.00000000  0.00000000  0.00000000  1
  In  In79  1  0.00000000  0.50000000  0.50000000  1
