# generated using pymatgen
data_Ba2V(PO5)2
_symmetry_space_group_name_H-M   'P 1'
_cell_length_a   5.19266262
_cell_length_b   6.81531675
_cell_length_c   7.21580369
_cell_angle_alpha   103.64697834
_cell_angle_beta   90.00000000
_cell_angle_gamma   67.60712884
_symmetry_Int_Tables_number   1
_chemical_formula_structural   Ba2V(PO5)2
_chemical_formula_sum   'Ba2 V1 P2 O10'
_cell_volume   228.29173198
_cell_formula_units_Z   1
loop_
 _symmetry_equiv_pos_site_id
 _symmetry_equiv_pos_as_xyz
  1  'x, y, z'
loop_
 _atom_site_type_symbol
 _atom_site_label
 _atom_site_symmetry_multiplicity
 _atom_site_fract_x
 _atom_site_fract_y
 _atom_site_fract_z
 _atom_site_occupancy
  Ba  Ba0  1  0.83711154  0.32577692  0.20682256  1
  Ba  Ba1  1  0.16678466  0.66643069  0.78758820  1
  V  V2  1  0.49797139  0.00405723  0.48185907  1
  P  P3  1  0.86800600  0.26398799  0.71187848  1
  P  P4  1  0.13155168  0.73689663  0.28178393  1
  O  O5  1  0.75182325  0.49635351  0.84498107  1
  O  O6  1  0.25035486  0.49929027  0.15946179  1
  O  O7  1  0.47425127  0.05149746  0.26509334  1
  O  O8  1  0.51917319  0.96165363  0.73836645  1
  O  O9  1  0.95495396  0.09009209  0.82510855  1
  O  O10  1  0.04979662  0.90040676  0.16028799  1
  O  O11  1  0.64225611  0.24109667  0.57042110  1
  O  O12  1  0.11664721  0.24109667  0.57042110  1
  O  O13  1  0.35376265  0.76848174  0.42496317  1
  O  O14  1  0.87775561  0.76848174  0.42496317  1
