# generated using pymatgen
data_Ba3Eu3(Fe3O8)2
_symmetry_space_group_name_H-M   'P 1'
_cell_length_a   5.68182894
_cell_length_b   8.97531994
_cell_length_c   8.84600055
_cell_angle_alpha   113.88621312
_cell_angle_beta   108.72199086
_cell_angle_gamma   71.54726456
_symmetry_Int_Tables_number   1
_chemical_formula_structural   Ba3Eu3(Fe3O8)2
_chemical_formula_sum   'Ba3 Eu3 Fe6 O16'
_cell_volume   381.47794137
_cell_formula_units_Z   1
loop_
 _symmetry_equiv_pos_site_id
 _symmetry_equiv_pos_as_xyz
  1  'x, y, z'
loop_
 _atom_site_type_symbol
 _atom_site_label
 _atom_site_symmetry_multiplicity
 _atom_site_fract_x
 _atom_site_fract_y
 _atom_site_fract_z
 _atom_site_occupancy
  Ba  Ba0  1  0.66650066  0.67141658  0.00454486  1
  Ba  Ba1  1  0.33333300  0.33333300  -0.00000000  1
  Ba  Ba2  1  0.00016634  0.99525042  0.99545514  1
  Eu  Eu3  1  0.83333300  0.83333300  0.50000000  1
  Eu  Eu4  1  0.49267270  0.51512263  0.50054474  1
  Eu  Eu5  1  0.17399430  0.15154437  0.49945526  1
  Fe  Fe6  1  0.08818517  0.58154689  0.75799296  1
  Fe  Fe7  1  0.74897649  0.25505786  0.75294199  1
  Fe  Fe8  1  0.41238573  0.91314667  0.73782865  1
  Fe  Fe9  1  0.91768951  0.41160814  0.24705801  1
  Fe  Fe10  1  0.57848183  0.08512011  0.24200704  1
  Fe  Fe11  1  0.25428127  0.75352033  0.26217135  1
  O  O12  1  0.23311518  0.73071693  0.71588933  1
  O  O13  1  0.89925109  0.39903025  0.69683660  1
  O  O14  1  0.57620581  0.07914830  0.71322131  1
  O  O15  1  0.09046019  0.58751770  0.28677869  1
  O  O16  1  0.76741591  0.26763675  0.30316340  1
  O  O17  1  0.43355182  0.93595007  0.28411067  1
  O  O18  1  0.39838794  0.39895458  0.69695022  1
  O  O19  1  0.05798847  0.07916869  0.71344259  1
  O  O20  1  0.75186493  0.73060241  0.71574498  1
  O  O21  1  0.26827906  0.26771242  0.30304978  1
  O  O22  1  0.91480207  0.93606459  0.28425502  1
  O  O23  1  0.60867753  0.58749731  0.28655741  1
  O  O24  1  0.17117254  0.66345685  0.00592870  1
  O  O25  1  0.83333300  0.33333300  -0.00000000  1
  O  O26  1  0.49549446  0.00321015  0.99407130  1
  O  O27  1  0.33333300  0.83333300  0.50000000  1
