# generated using pymatgen
data_Ba2MnCu(P2O7)2
_symmetry_space_group_name_H-M   'P 1'
_cell_length_a   5.39860637
_cell_length_b   7.47901832
_cell_length_c   7.65789315
_cell_angle_alpha   102.61661292
_cell_angle_beta   91.03527325
_cell_angle_gamma   94.25504064
_symmetry_Int_Tables_number   1
_chemical_formula_structural   Ba2MnCu(P2O7)2
_chemical_formula_sum   'Ba2 Mn1 Cu1 P4 O14'
_cell_volume   300.71281690
_cell_formula_units_Z   1
loop_
 _symmetry_equiv_pos_site_id
 _symmetry_equiv_pos_as_xyz
  1  'x, y, z'
loop_
 _atom_site_type_symbol
 _atom_site_label
 _atom_site_symmetry_multiplicity
 _atom_site_fract_x
 _atom_site_fract_y
 _atom_site_fract_z
 _atom_site_occupancy
  Ba  Ba0  1  0.20785514  0.77612224  0.92696545  1
  Ba  Ba1  1  0.78468340  0.22422688  0.06869932  1
  Mn  Mn2  1  0.19650578  0.61624316  0.40042608  1
  Cu  Cu3  1  0.80091171  0.35177084  0.60380463  1
  P  P4  1  0.70505195  0.73120988  0.20581698  1
  P  P5  1  0.29291326  0.26912089  0.78865198  1
  P  P6  1  0.71961307  0.81985425  0.59803162  1
  P  P7  1  0.28544227  0.18261217  0.40842280  1
  O  O8  1  0.71451110  0.84979229  0.06674651  1
  O  O9  1  0.28319058  0.16216429  0.93660314  1
  O  O10  1  0.45669751  0.61402468  0.19530328  1
  O  O11  1  0.54398488  0.38381153  0.79235771  1
  O  O12  1  0.73361687  0.87195951  0.40055927  1
  O  O13  1  0.26583953  0.12123623  0.59851820  1
  O  O14  1  0.55078691  0.27645938  0.40423557  1
  O  O15  1  0.45472666  0.73225714  0.60845248  1
  O  O16  1  0.08857492  0.32988916  0.41589158  1
  O  O17  1  0.91339155  0.67633686  0.59751467  1
  O  O18  1  0.92617418  0.60901404  0.18956428  1
  O  O19  1  0.06928596  0.38992496  0.79672974  1
  O  O20  1  0.78190216  0.99648537  0.73472334  1
  O  O21  1  0.22434059  0.01548425  0.26198135  1
