# generated using pymatgen
data_Al3Cr20Si9
_symmetry_space_group_name_H-M   'P 1'
_cell_length_a   4.62939582
_cell_length_b   6.86456853
_cell_length_c   12.95894779
_cell_angle_alpha   90.00000000
_cell_angle_beta   90.00000000
_cell_angle_gamma   109.70606773
_symmetry_Int_Tables_number   1
_chemical_formula_structural   Al3Cr20Si9
_chemical_formula_sum   'Al3 Cr20 Si9'
_cell_volume   387.70157636
_cell_formula_units_Z   1
loop_
 _symmetry_equiv_pos_site_id
 _symmetry_equiv_pos_as_xyz
  1  'x, y, z'
loop_
 _atom_site_type_symbol
 _atom_site_label
 _atom_site_symmetry_multiplicity
 _atom_site_fract_x
 _atom_site_fract_y
 _atom_site_fract_z
 _atom_site_occupancy
  Al  Al0  1  0.25000000  -0.00000000  0.00000000  1
  Al  Al1  1  0.75000000  -0.00000000  0.50000000  1
  Al  Al2  1  0.75000000  -0.00000000  -0.00000000  1
  Cr  Cr3  1  0.92886091  0.84558298  0.34569031  1
  Cr  Cr4  1  0.41969371  0.84111924  0.84251582  1
  Cr  Cr5  1  0.57857447  0.15888076  0.15748418  1
  Cr  Cr6  1  0.08327793  0.15441702  0.65430969  1
  Cr  Cr7  1  0.15920519  0.31825398  0.07869340  1
  Cr  Cr8  1  0.65042870  0.31151258  0.57717287  1
  Cr  Cr9  1  0.33891612  0.68848742  0.42282713  1
  Cr  Cr10  1  0.84095121  0.68174602  0.92130660  1
  Cr  Cr11  1  0.34079481  0.68174602  0.07869340  1
  Cr  Cr12  1  0.84957130  0.68848742  0.57717287  1
  Cr  Cr13  1  0.16108388  0.31151258  0.42282713  1
  Cr  Cr14  1  0.65904879  0.31825398  0.92130660  1
  Cr  Cr15  1  0.57113909  0.15441702  0.34569031  1
  Cr  Cr16  1  0.08030629  0.15888076  0.84251582  1
  Cr  Cr17  1  0.92142553  0.84111924  0.15748418  1
  Cr  Cr18  1  0.41672207  0.84558298  0.65430969  1
  Cr  Cr19  1  0.49736847  0.50008860  0.25125718  1
  Cr  Cr20  1  0.99727987  0.49991140  0.74874282  1
  Cr  Cr21  1  0.00263153  0.49991140  0.25125718  1
  Cr  Cr22  1  0.50272013  0.50008860  0.74874282  1
  Si  Si23  1  0.25000000  0.00000000  0.50000000  1
  Si  Si24  1  0.75000000  0.50000000  0.08454507  1
  Si  Si25  1  0.25000000  0.50000000  0.58356367  1
  Si  Si26  1  0.75000000  0.50000000  0.41643633  1
  Si  Si27  1  0.25000000  0.50000000  0.91545493  1
  Si  Si28  1  0.41983440  0.83464586  0.24999198  1
  Si  Si29  1  0.91481146  0.83464586  0.75000802  1
  Si  Si30  1  0.08016560  0.16535414  0.24999198  1
  Si  Si31  1  0.58518854  0.16535414  0.75000802  1
