# generated using pymatgen
data_NaZnPO4
_symmetry_space_group_name_H-M   'P 1'
_cell_length_a   8.26870593
_cell_length_b   8.80176474
_cell_length_c   15.50092077
_cell_angle_alpha   90.25692861
_cell_angle_beta   90.00000000
_cell_angle_gamma   90.00000000
_symmetry_Int_Tables_number   1
_chemical_formula_structural   NaZnPO4
_chemical_formula_sum   'Na12 Zn12 P12 O48'
_cell_volume   1128.13333631
_cell_formula_units_Z   12
loop_
 _symmetry_equiv_pos_site_id
 _symmetry_equiv_pos_as_xyz
  1  'x, y, z'
loop_
 _atom_site_type_symbol
 _atom_site_label
 _atom_site_symmetry_multiplicity
 _atom_site_fract_x
 _atom_site_fract_y
 _atom_site_fract_z
 _atom_site_occupancy
  O  O0  1  0.15255670  0.92588312  0.83317697  1
  O  O1  1  0.65255670  0.57411688  0.66682303  1
  O  O2  1  0.84744330  0.07411688  0.16682303  1
  O  O3  1  0.34744330  0.42588312  0.33317697  1
  O  O4  1  0.26213637  0.77719129  0.70261500  1
  O  O5  1  0.76213637  0.72280871  0.79738500  1
  O  O6  1  0.73786363  0.22280871  0.29738500  1
  O  O7  1  0.23786363  0.27719129  0.20261500  1
  O  O8  1  0.27035574  0.06587865  0.70386570  1
  O  O9  1  0.77035574  0.43412135  0.79613430  1
  O  O10  1  0.72964426  0.93412135  0.29613430  1
  O  O11  1  0.22964426  0.56587865  0.20386570  1
  O  O12  1  0.00457888  0.92924098  0.68908224  1
  O  O13  1  0.50457888  0.57075902  0.81091776  1
  O  O14  1  0.99542112  0.07075902  0.31091776  1
  O  O15  1  0.49542112  0.42924098  0.18908224  1
  O  O16  1  0.26857838  0.27622126  0.86775771  1
  O  O17  1  0.76857838  0.22377874  0.63224229  1
  O  O18  1  0.73142162  0.72377874  0.13224229  1
  O  O19  1  0.23142162  0.77622126  0.36775771  1
  O  O20  1  0.26901451  0.42051279  0.67723071  1
  O  O21  1  0.27327895  0.43473319  0.00495774  1
  O  O22  1  0.72672105  0.56526681  0.99504226  1
  O  O23  1  0.22672105  0.93473319  0.50495774  1
  O  O24  1  0.14804119  0.54340665  0.86687990  1
  O  O25  1  0.64804119  0.95659335  0.63312010  1
  O  O26  1  0.85195881  0.45659335  0.13312010  1
  O  O27  1  0.35195881  0.04340665  0.36687990  1
  O  O28  1  0.00933070  0.32899913  0.94830554  1
  O  O29  1  0.50933070  0.17100087  0.55169446  1
  O  O30  1  0.99066930  0.67100087  0.05169446  1
  O  O31  1  0.49066930  0.82899913  0.44830554  1
  O  O32  1  0.15214341  0.28455352  0.54661979  1
  O  O33  1  0.65214341  0.21544648  0.95338021  1
  O  O34  1  0.84785659  0.71544648  0.45338021  1
  O  O35  1  0.34785659  0.78455352  0.04661979  1
  O  O36  1  0.50529618  0.98838889  0.88776966  1
  O  O37  1  0.00529618  0.51161111  0.61223034  1
  O  O38  1  0.49470382  0.01161111  0.11223034  1
  O  O39  1  0.99470382  0.48838889  0.38776966  1
  O  O40  1  0.23288059  0.05426517  0.03191061  1
  O  O41  1  0.73288059  0.44573483  0.46808939  1
  O  O42  1  0.76711941  0.94573483  0.96808939  1
  O  O43  1  0.26711941  0.55426517  0.53191061  1
  O  O44  1  0.23098549  0.92051279  0.17723071  1
  O  O45  1  0.73098549  0.57948721  0.32276929  1
  O  O46  1  0.76901451  0.07948721  0.82276929  1
  O  O47  1  0.77327895  0.06526681  0.49504226  1
  Na  Na48  1  0.03108961  0.77199854  0.56511188  1
  Na  Na49  1  0.53108961  0.72800146  0.93488812  1
  Na  Na50  1  0.96891039  0.22800146  0.43488812  1
  Na  Na51  1  0.46891039  0.27199854  0.06511188  1
  Na  Na52  1  0.96839547  0.76367046  0.90806176  1
  Na  Na53  1  0.46839547  0.73632954  0.59193824  1
  Na  Na54  1  0.03160453  0.23632954  0.09193824  1
  Na  Na55  1  0.53160453  0.26367046  0.40806176  1
  Na  Na56  1  0.95728454  0.24137963  0.74752521  1
  Na  Na57  1  0.45728454  0.25862037  0.75247479  1
  Na  Na58  1  0.04271546  0.75862037  0.25247479  1
  Na  Na59  1  0.54271546  0.74137963  0.24752521  1
  P  P60  1  0.67328352  0.57631871  0.76656937  1
  P  P61  1  0.17328352  0.92368129  0.73343063  1
  P  P62  1  0.32671648  0.42368129  0.23343063  1
  P  P63  1  0.82671648  0.07631871  0.26656937  1
  P  P64  1  0.17489654  0.39752771  0.92146735  1
  P  P65  1  0.67489654  0.10247229  0.57853265  1
  P  P66  1  0.82510346  0.60247229  0.07853265  1
  P  P67  1  0.32510346  0.89752771  0.42146735  1
  P  P68  1  0.67358810  0.05834144  0.90832622  1
  P  P69  1  0.17358810  0.44165856  0.59167378  1
  P  P70  1  0.32641190  0.94165856  0.09167378  1
  P  P71  1  0.82641190  0.55834144  0.40832622  1
  Zn  Zn72  1  0.28069862  0.58531496  0.76505557  1
  Zn  Zn73  1  0.78069862  0.91468504  0.73494443  1
  Zn  Zn74  1  0.71930138  0.41468504  0.23494443  1
  Zn  Zn75  1  0.21930138  0.08531496  0.26505557  1
  Zn  Zn76  1  0.78657449  0.39094978  0.92121093  1
  Zn  Zn77  1  0.28657449  0.10905022  0.57878907  1
  Zn  Zn78  1  0.21342551  0.60905022  0.07878907  1
  Zn  Zn79  1  0.71342551  0.89094978  0.42121093  1
  Zn  Zn80  1  0.28195523  0.06190517  0.90739143  1
  Zn  Zn81  1  0.78195523  0.43809483  0.59260857  1
  Zn  Zn82  1  0.71804477  0.93809483  0.09260857  1
  Zn  Zn83  1  0.21804477  0.56190517  0.40739143  1
