# generated using pymatgen
data_Cd2Sb2O7
_symmetry_space_group_name_H-M   'P 1'
_cell_length_a   7.34109118
_cell_length_b   7.37657215
_cell_length_c   7.37657215
_cell_angle_alpha   61.13987627
_cell_angle_beta   60.15898484
_cell_angle_gamma   60.15898483
_symmetry_Int_Tables_number   1
_chemical_formula_structural   Cd2Sb2O7
_chemical_formula_sum   'Cd4 Sb4 O14'
_cell_volume   285.50561004
_cell_formula_units_Z   2
loop_
 _symmetry_equiv_pos_site_id
 _symmetry_equiv_pos_as_xyz
  1  'x, y, z'
loop_
 _atom_site_type_symbol
 _atom_site_label
 _atom_site_symmetry_multiplicity
 _atom_site_fract_x
 _atom_site_fract_y
 _atom_site_fract_z
 _atom_site_occupancy
  O  O0  1  0.32533805  0.31960426  0.44517523  1
  O  O1  1  0.09011754  0.68039574  0.55482477  1
  O  O2  1  0.17466195  0.05482477  0.18039574  1
  O  O3  1  0.40988246  0.94517523  0.81960426  1
  O  O4  1  0.67466195  0.68039574  0.55482477  1
  O  O5  1  0.90988246  0.31960426  0.44517523  1
  O  O6  1  0.82533805  0.94517523  0.81960426  1
  O  O7  1  0.59011754  0.05482477  0.18039574  1
  O  O8  1  0.25000000  0.90234205  0.59765795  1
  O  O9  1  0.75000000  0.09765795  0.40234205  1
  O  O10  1  0.09706903  0.63910066  0.16676128  1
  O  O11  1  0.90293097  0.36089934  0.83323872  1
  O  O12  1  0.40293097  0.33323872  0.86089934  1
  O  O13  1  0.59706903  0.66676128  0.13910066  1
  Cd  Cd14  1  0.50000000  0.50000000  0.00000000  1
  Cd  Cd15  1  0.00000000  0.50000000  0.00000000  1
  Cd  Cd16  1  0.00000000  0.00000000  0.00000000  1
  Cd  Cd17  1  0.50000000  0.50000000  0.50000000  1
  Sb  Sb18  1  0.50000000  0.00000000  0.50000000  1
  Sb  Sb19  1  0.00000000  0.00000000  0.50000000  1
  Sb  Sb20  1  0.00000000  0.50000000  0.50000000  1
  Sb  Sb21  1  0.50000000  0.00000000  0.00000000  1
