# generated using pymatgen
data_Ba2Yb(CuO2)4
_symmetry_space_group_name_H-M   'P 1'
_cell_length_a   3.86422677
_cell_length_b   3.83237024
_cell_length_c   14.07800758
_cell_angle_alpha   97.82292362
_cell_angle_beta   90.00000000
_cell_angle_gamma   90.00000000
_symmetry_Int_Tables_number   1
_chemical_formula_structural   Ba2Yb(CuO2)4
_chemical_formula_sum   'Ba2 Yb1 Cu4 O8'
_cell_volume   206.54303550
_cell_formula_units_Z   1
loop_
 _symmetry_equiv_pos_site_id
 _symmetry_equiv_pos_as_xyz
  1  'x, y, z'
loop_
 _atom_site_type_symbol
 _atom_site_label
 _atom_site_symmetry_multiplicity
 _atom_site_fract_x
 _atom_site_fract_y
 _atom_site_fract_z
 _atom_site_occupancy
  O  O0  1  0.00000000  0.27994673  0.55989347  1
  O  O1  1  0.00000000  0.72005327  0.44010653  1
  O  O2  1  0.00000000  0.44705261  0.89410521  1
  O  O3  1  0.00000000  0.55294739  0.10589479  1
  O  O4  1  0.50000000  0.94645259  0.89290518  1
  O  O5  1  0.50000000  0.05354741  0.10709482  1
  O  O6  1  0.00000000  0.85326493  0.70652985  1
  O  O7  1  0.00000000  0.14673507  0.29347015  1
  Cu  Cu8  1  0.00000000  0.94277837  0.88555673  1
  Cu  Cu9  1  0.00000000  0.05722163  0.11444327  1
  Cu  Cu10  1  0.00000000  0.78780503  0.57561005  1
  Cu  Cu11  1  0.00000000  0.21219497  0.42438995  1
  Ba  Ba12  1  0.50000000  0.36958255  0.73916510  1
  Ba  Ba13  1  0.50000000  0.63041745  0.26083490  1
  Yb  Yb14  1  0.50000000  0.50000000  0.00000000  1
