# generated using pymatgen
data_TaS2
_symmetry_space_group_name_H-M   'P 1'
_cell_length_a   13.24061632
_cell_length_b   13.24061632
_cell_length_c   13.24061632
_cell_angle_alpha   14.59401121
_cell_angle_beta   14.59401125
_cell_angle_gamma   14.59401122
_symmetry_Int_Tables_number   1
_chemical_formula_structural   TaS2
_chemical_formula_sum   'Ta2 S4'
_cell_volume   128.31820421
_cell_formula_units_Z   2
loop_
 _symmetry_equiv_pos_site_id
 _symmetry_equiv_pos_as_xyz
  1  'x, y, z'
loop_
 _atom_site_type_symbol
 _atom_site_label
 _atom_site_symmetry_multiplicity
 _atom_site_fract_x
 _atom_site_fract_y
 _atom_site_fract_z
 _atom_site_occupancy
  S  S0  1  0.62269332  0.62269332  0.62269332  1
  S  S1  1  0.45578905  0.45578905  0.45578905  1
  S  S2  1  0.21111097  0.21111097  0.21111097  1
  S  S3  1  0.37664026  0.37664026  0.37664026  1
  Ta  Ta4  1  0.91690912  0.91690912  0.91690912  1
  Ta  Ta5  1  0.08285728  0.08285728  0.08285728  1
