# generated using pymatgen
data_SmCrS3
_symmetry_space_group_name_H-M   'P 1'
_cell_length_a   3.76185029
_cell_length_b   7.79520045
_cell_length_c   12.90226878
_cell_angle_alpha   90.00000000
_cell_angle_beta   90.00000000
_cell_angle_gamma   90.00000000
_symmetry_Int_Tables_number   1
_chemical_formula_structural   SmCrS3
_chemical_formula_sum   'Sm4 Cr4 S12'
_cell_volume   378.35099481
_cell_formula_units_Z   4
loop_
 _symmetry_equiv_pos_site_id
 _symmetry_equiv_pos_as_xyz
  1  'x, y, z'
loop_
 _atom_site_type_symbol
 _atom_site_label
 _atom_site_symmetry_multiplicity
 _atom_site_fract_x
 _atom_site_fract_y
 _atom_site_fract_z
 _atom_site_occupancy
  S  S0  1  0.25000000  0.99222230  0.39305152  1
  S  S1  1  0.75000000  0.00777770  0.60694848  1
  S  S2  1  0.25000000  0.49222230  0.10694848  1
  S  S3  1  0.75000000  0.50777770  0.89305152  1
  S  S4  1  0.25000000  0.84284095  0.99223157  1
  S  S5  1  0.75000000  0.15715905  0.00776843  1
  S  S6  1  0.25000000  0.34284095  0.50776843  1
  S  S7  1  0.75000000  0.65715905  0.49223157  1
  S  S8  1  0.75000000  0.80607813  0.21364193  1
  S  S9  1  0.25000000  0.19392187  0.78635807  1
  S  S10  1  0.75000000  0.30607813  0.28635807  1
  S  S11  1  0.25000000  0.69392187  0.71364193  1
  Cr  Cr12  1  0.25000000  0.83577850  0.55023312  1
  Cr  Cr13  1  0.75000000  0.16422150  0.44976688  1
  Cr  Cr14  1  0.25000000  0.33577850  0.94976688  1
  Cr  Cr15  1  0.75000000  0.66422150  0.05023312  1
  Sm  Sm16  1  0.25000000  0.58555866  0.32723482  1
  Sm  Sm17  1  0.75000000  0.41444134  0.67276518  1
  Sm  Sm18  1  0.25000000  0.08555866  0.17276518  1
  Sm  Sm19  1  0.75000000  0.91444134  0.82723482  1
