# generated using pymatgen
data_Ba6Mg7F26
_symmetry_space_group_name_H-M   'P 1'
_cell_length_a   5.92148971
_cell_length_b   10.28876921
_cell_length_c   10.28876921
_cell_angle_alpha   73.51786431
_cell_angle_beta   73.27581929
_cell_angle_gamma   73.27581932
_symmetry_Int_Tables_number   1
_chemical_formula_structural   Ba6Mg7F26
_chemical_formula_sum   'Ba6 Mg7 F26'
_cell_volume   560.97115288
_cell_formula_units_Z   1
loop_
 _symmetry_equiv_pos_site_id
 _symmetry_equiv_pos_as_xyz
  1  'x, y, z'
loop_
 _atom_site_type_symbol
 _atom_site_label
 _atom_site_symmetry_multiplicity
 _atom_site_fract_x
 _atom_site_fract_y
 _atom_site_fract_z
 _atom_site_occupancy
  F  F0  1  0.52605848  0.12874070  0.35569570  1
  F  F1  1  0.01049488  0.87125930  0.64430430  1
  F  F2  1  0.47394152  0.64430430  0.87125930  1
  F  F3  1  0.98950512  0.35569570  0.12874070  1
  F  F4  1  0.47394152  0.87125930  0.64430430  1
  F  F5  1  0.98950512  0.12874070  0.35569570  1
  F  F6  1  0.52605848  0.35569570  0.12874070  1
  F  F7  1  0.01049488  0.64430430  0.87125930  1
  F  F8  1  0.74919729  0.61185971  0.38814029  1
  F  F9  1  0.74919729  0.38814029  0.61185971  1
  F  F10  1  0.25080271  0.61185971  0.38814029  1
  F  F11  1  0.25080271  0.38814029  0.61185971  1
  F  F12  1  0.74426278  0.83655172  0.16344828  1
  F  F13  1  0.74426278  0.16344828  0.83655172  1
  F  F14  1  0.25573722  0.83655172  0.16344828  1
  F  F15  1  0.25573722  0.16344828  0.83655172  1
  F  F16  1  0.08907315  0.91092685  0.91092685  1
  F  F17  1  0.91092685  0.08907315  0.08907315  1
  F  F18  1  0.37054852  0.62945148  0.62945148  1
  F  F19  1  0.58749744  0.91250256  0.91250256  1
  F  F20  1  0.87405468  0.84390935  0.40798129  1
  F  F21  1  0.12594532  0.15609065  0.59201871  1
  F  F22  1  0.12594532  0.59201871  0.15609065  1
  F  F23  1  0.87405468  0.40798129  0.84390935  1
  F  F24  1  0.41250256  0.08749744  0.08749744  1
  F  F25  1  0.62945148  0.37054852  0.37054852  1
  Mg  Mg26  1  0.25264280  0.00000000  0.00000000  1
  Mg  Mg27  1  0.00000000  0.26852384  0.73147616  1
  Mg  Mg28  1  0.74735720  0.00000000  0.00000000  1
  Mg  Mg29  1  0.00000000  0.73147616  0.26852384  1
  Mg  Mg30  1  0.77945159  0.22054841  0.22054841  1
  Mg  Mg31  1  0.22054841  0.77945159  0.77945159  1
  Mg  Mg32  1  0.50000000  0.50000000  0.50000000  1
  Ba  Ba33  1  0.85280283  0.64719717  0.64719717  1
  Ba  Ba34  1  0.14719717  0.35280283  0.35280283  1
  Ba  Ba35  1  0.35091732  0.38736969  0.91079568  1
  Ba  Ba36  1  0.35091732  0.91079568  0.38736969  1
  Ba  Ba37  1  0.64908268  0.08920432  0.61263031  1
  Ba  Ba38  1  0.64908268  0.61263031  0.08920432  1
