# generated using pymatgen
data_BaCe2ZnS5
_symmetry_space_group_name_H-M   'P 1'
_cell_length_a   7.87127132
_cell_length_b   7.87127131
_cell_length_c   8.84148657
_cell_angle_alpha   116.43183553
_cell_angle_beta   116.43183551
_cell_angle_gamma   89.99999996
_symmetry_Int_Tables_number   1
_chemical_formula_structural   BaCe2ZnS5
_chemical_formula_sum   'Ba2 Ce4 Zn2 S10'
_cell_volume   425.62833284
_cell_formula_units_Z   2
loop_
 _symmetry_equiv_pos_site_id
 _symmetry_equiv_pos_as_xyz
  1  'x, y, z'
loop_
 _atom_site_type_symbol
 _atom_site_label
 _atom_site_symmetry_multiplicity
 _atom_site_fract_x
 _atom_site_fract_y
 _atom_site_fract_z
 _atom_site_occupancy
  S  S0  1  0.48329019  0.98329019  0.26741254  1
  S  S1  1  0.21587766  0.71587766  0.73258746  1
  S  S2  1  0.51670981  0.01670981  0.73258746  1
  S  S3  1  0.71587766  0.51670981  0.73258746  1
  S  S4  1  0.01670981  0.21587766  0.73258746  1
  S  S5  1  0.28412234  0.48329019  0.26741254  1
  S  S6  1  0.98329019  0.78412234  0.26741254  1
  S  S7  1  0.78412234  0.28412234  0.26741254  1
  S  S8  1  0.00000000  0.00000000  0.00000000  1
  S  S9  1  0.50000000  0.50000000  0.00000000  1
  Zn  Zn10  1  0.75000000  0.25000000  0.50000000  1
  Zn  Zn11  1  0.25000000  0.75000000  0.50000000  1
  Ba  Ba12  1  0.75000000  0.75000000  0.50000000  1
  Ba  Ba13  1  0.25000000  0.25000000  0.50000000  1
  Ce  Ce14  1  0.65917568  0.84082432  0.00000000  1
  Ce  Ce15  1  0.15917568  0.65917568  0.00000000  1
  Ce  Ce16  1  0.84082432  0.34082432  0.00000000  1
  Ce  Ce17  1  0.34082432  0.15917568  0.00000000  1
