# generated using pymatgen
data_SiO2
_symmetry_space_group_name_H-M   'P 1'
_cell_length_a   7.53560989
_cell_length_b   9.90121499
_cell_length_c   9.90121499
_cell_angle_alpha   88.23874220
_cell_angle_beta   81.28760819
_cell_angle_gamma   81.28760816
_symmetry_Int_Tables_number   1
_chemical_formula_structural   SiO2
_chemical_formula_sum   'Si12 O24'
_cell_volume   721.77326659
_cell_formula_units_Z   12
loop_
 _symmetry_equiv_pos_site_id
 _symmetry_equiv_pos_as_xyz
  1  'x, y, z'
loop_
 _atom_site_type_symbol
 _atom_site_label
 _atom_site_symmetry_multiplicity
 _atom_site_fract_x
 _atom_site_fract_y
 _atom_site_fract_z
 _atom_site_occupancy
  O  O0  1  0.00000000  0.25393249  0.74606751  1
  O  O1  1  0.00000000  0.74606751  0.25393249  1
  O  O2  1  0.04138919  0.50800624  0.79386799  1
  O  O3  1  0.95861081  0.20613201  0.49199376  1
  O  O4  1  0.95861081  0.49199376  0.20613201  1
  O  O5  1  0.04138919  0.79386799  0.50800624  1
  O  O6  1  0.09265760  0.65102216  0.00559354  1
  O  O7  1  0.90734240  0.99440646  0.34897784  1
  O  O8  1  0.90734240  0.34897784  0.99440646  1
  O  O9  1  0.09265760  0.00559354  0.65102216  1
  O  O10  1  0.88438256  0.23948709  0.23948709  1
  O  O11  1  0.11561744  0.76051291  0.76051291  1
  O  O12  1  0.50000000  0.64832778  0.35167222  1
  O  O13  1  0.50000000  0.35167222  0.64832778  1
  O  O14  1  0.60812967  0.59460653  0.59460653  1
  O  O15  1  0.39187033  0.40539347  0.40539347  1
  O  O16  1  0.37138543  0.81818964  0.55907486  1
  O  O17  1  0.62861457  0.44092514  0.18181036  1
  O  O18  1  0.62861457  0.18181036  0.44092514  1
  O  O19  1  0.37138543  0.55907486  0.81818964  1
  O  O20  1  0.71021263  0.80375216  0.44516094  1
  O  O21  1  0.28978737  0.55483906  0.19624784  1
  O  O22  1  0.28978737  0.19624784  0.55483906  1
  O  O23  1  0.71021263  0.44516094  0.80375216  1
  Si  Si24  1  0.91407157  0.38958147  0.83391726  1
  Si  Si25  1  0.08592843  0.16608274  0.61041853  1
  Si  Si26  1  0.08592843  0.61041853  0.16608274  1
  Si  Si27  1  0.91407157  0.83391726  0.38958147  1
  Si  Si28  1  0.15578162  0.61876136  0.84469190  1
  Si  Si29  1  0.84421838  0.15530810  0.38123864  1
  Si  Si30  1  0.84421838  0.38123864  0.15530810  1
  Si  Si31  1  0.15578162  0.84469190  0.61876136  1
  Si  Si32  1  0.54694669  0.48785985  0.71531841  1
  Si  Si33  1  0.45305331  0.28468159  0.51214015  1
  Si  Si34  1  0.45305331  0.51214015  0.28468159  1
  Si  Si35  1  0.54694669  0.71531841  0.48785985  1
