# generated using pymatgen
data_SrTb2O4
_symmetry_space_group_name_H-M   'P 1'
_cell_length_a   3.45257079
_cell_length_b   10.19995929
_cell_length_c   12.06163066
_cell_angle_alpha   90.00000000
_cell_angle_beta   90.00000000
_cell_angle_gamma   90.00000000
_symmetry_Int_Tables_number   1
_chemical_formula_structural   SrTb2O4
_chemical_formula_sum   'Sr4 Tb8 O16'
_cell_volume   424.76336839
_cell_formula_units_Z   4
loop_
 _symmetry_equiv_pos_site_id
 _symmetry_equiv_pos_as_xyz
  1  'x, y, z'
loop_
 _atom_site_type_symbol
 _atom_site_label
 _atom_site_symmetry_multiplicity
 _atom_site_fract_x
 _atom_site_fract_y
 _atom_site_fract_z
 _atom_site_occupancy
  O  O0  1  0.25000000  0.07467460  0.07764249  1
  O  O1  1  0.75000000  0.92532540  0.92235751  1
  O  O2  1  0.25000000  0.57467460  0.42235751  1
  O  O3  1  0.75000000  0.42532540  0.57764249  1
  O  O4  1  0.25000000  0.98532592  0.71621166  1
  O  O5  1  0.75000000  0.01467408  0.28378834  1
  O  O6  1  0.25000000  0.48532592  0.78378834  1
  O  O7  1  0.75000000  0.51467408  0.21621166  1
  O  O8  1  0.25000000  0.37403087  0.02036915  1
  O  O9  1  0.75000000  0.62596913  0.97963085  1
  O  O10  1  0.25000000  0.87403087  0.47963085  1
  O  O11  1  0.75000000  0.12596913  0.52036915  1
  O  O12  1  0.75000000  0.21143957  0.82430772  1
  O  O13  1  0.25000000  0.78856043  0.17569228  1
  O  O14  1  0.75000000  0.71143957  0.67569228  1
  O  O15  1  0.25000000  0.28856043  0.32430772  1
  Sr  Sr16  1  0.75000000  0.75288436  0.35127270  1
  Sr  Sr17  1  0.25000000  0.24711564  0.64872730  1
  Sr  Sr18  1  0.75000000  0.25288436  0.14872730  1
  Sr  Sr19  1  0.25000000  0.74711564  0.85127270  1
  Tb  Tb20  1  0.25000000  0.07694188  0.38890557  1
  Tb  Tb21  1  0.75000000  0.92305812  0.61109443  1
  Tb  Tb22  1  0.25000000  0.57694188  0.11109443  1
  Tb  Tb23  1  0.75000000  0.42305812  0.88890557  1
  Tb  Tb24  1  0.75000000  0.42252793  0.38786150  1
  Tb  Tb25  1  0.25000000  0.57747207  0.61213850  1
  Tb  Tb26  1  0.75000000  0.92252793  0.11213850  1
  Tb  Tb27  1  0.25000000  0.07747207  0.88786150  1
