# generated using pymatgen
data_Na2UO4
_symmetry_space_group_name_H-M   'P 1'
_cell_length_a   5.84254845
_cell_length_b   6.00840750
_cell_length_c   11.90406428
_cell_angle_alpha   90.00000000
_cell_angle_beta   90.00000000
_cell_angle_gamma   90.00000000
_symmetry_Int_Tables_number   1
_chemical_formula_structural   Na2UO4
_chemical_formula_sum   'Na8 U4 O16'
_cell_volume   417.88517608
_cell_formula_units_Z   4
loop_
 _symmetry_equiv_pos_site_id
 _symmetry_equiv_pos_as_xyz
  1  'x, y, z'
loop_
 _atom_site_type_symbol
 _atom_site_label
 _atom_site_symmetry_multiplicity
 _atom_site_fract_x
 _atom_site_fract_y
 _atom_site_fract_z
 _atom_site_occupancy
  O  O0  1  0.60665610  0.96439460  0.34649976  1
  O  O1  1  0.10665610  0.53560540  0.65350024  1
  O  O2  1  0.39334390  0.46439460  0.15350024  1
  O  O3  1  0.89334390  0.03560540  0.84649976  1
  O  O4  1  0.39334390  0.03560540  0.65350024  1
  O  O5  1  0.89334390  0.46439460  0.34649976  1
  O  O6  1  0.60665610  0.53560540  0.84649976  1
  O  O7  1  0.10665610  0.96439460  0.15350024  1
  O  O8  1  0.79570834  0.20880975  0.54501801  1
  O  O9  1  0.29570834  0.29119025  0.45498199  1
  O  O10  1  0.20429166  0.70880975  0.95498199  1
  O  O11  1  0.70429166  0.79119025  0.04501801  1
  O  O12  1  0.29570834  0.20880975  0.95498199  1
  O  O13  1  0.79570834  0.29119025  0.04501801  1
  O  O14  1  0.70429166  0.70880975  0.54501801  1
  O  O15  1  0.20429166  0.79119025  0.45498199  1
  Na  Na16  1  0.00079801  0.05318920  0.33607755  1
  Na  Na17  1  0.50079801  0.44681080  0.66392245  1
  Na  Na18  1  0.99920199  0.55318920  0.16392245  1
  Na  Na19  1  0.49920199  0.94681080  0.83607755  1
  Na  Na20  1  0.50079801  0.05318920  0.16392245  1
  Na  Na21  1  0.00079801  0.44681080  0.83607755  1
  Na  Na22  1  0.49920199  0.55318920  0.33607755  1
  Na  Na23  1  0.99920199  0.94681080  0.66392245  1
  U  U24  1  0.00000000  0.00000000  0.00000000  1
  U  U25  1  0.50000000  0.50000000  0.00000000  1
  U  U26  1  0.00000000  0.50000000  0.50000000  1
  U  U27  1  0.50000000  0.00000000  0.50000000  1
