# generated using pymatgen
data_Sr2SiO4
_symmetry_space_group_name_H-M   'P 1'
_cell_length_a   5.68272602
_cell_length_b   7.14205467
_cell_length_c   9.94380637
_cell_angle_alpha   90.00000000
_cell_angle_beta   90.00000000
_cell_angle_gamma   90.00000000
_symmetry_Int_Tables_number   1
_chemical_formula_structural   Sr2SiO4
_chemical_formula_sum   'Sr8 Si4 O16'
_cell_volume   403.58270533
_cell_formula_units_Z   4
loop_
 _symmetry_equiv_pos_site_id
 _symmetry_equiv_pos_as_xyz
  1  'x, y, z'
loop_
 _atom_site_type_symbol
 _atom_site_label
 _atom_site_symmetry_multiplicity
 _atom_site_fract_x
 _atom_site_fract_y
 _atom_site_fract_z
 _atom_site_occupancy
  O  O0  1  0.51222177  0.20215815  0.15689761  1
  O  O1  1  0.01222177  0.79784185  0.84310239  1
  O  O2  1  0.98777823  0.70215815  0.34310239  1
  O  O3  1  0.48777823  0.29784185  0.65689761  1
  O  O4  1  0.48777823  0.79784185  0.84310239  1
  O  O5  1  0.98777823  0.20215815  0.15689761  1
  O  O6  1  0.01222177  0.29784185  0.65689761  1
  O  O7  1  0.51222177  0.70215815  0.34310239  1
  O  O8  1  0.25000000  0.81901745  0.07151582  1
  O  O9  1  0.75000000  0.18098255  0.92848418  1
  O  O10  1  0.25000000  0.31901745  0.42848418  1
  O  O11  1  0.75000000  0.68098255  0.57151582  1
  O  O12  1  0.75000000  0.00804463  0.42929956  1
  O  O13  1  0.25000000  0.99195537  0.57070044  1
  O  O14  1  0.75000000  0.50804463  0.07070044  1
  O  O15  1  0.25000000  0.49195537  0.92929956  1
  Si  Si16  1  0.25000000  0.72018269  0.91948067  1
  Si  Si17  1  0.75000000  0.27981731  0.08051933  1
  Si  Si18  1  0.25000000  0.22018269  0.58051933  1
  Si  Si19  1  0.75000000  0.77981731  0.41948067  1
  Sr  Sr20  1  0.25000000  0.49967824  0.19716220  1
  Sr  Sr21  1  0.75000000  0.50032176  0.80283780  1
  Sr  Sr22  1  0.25000000  0.99967824  0.30283780  1
  Sr  Sr23  1  0.75000000  0.00032176  0.69716220  1
  Sr  Sr24  1  0.25000000  0.15732322  0.92887689  1
  Sr  Sr25  1  0.75000000  0.84267678  0.07112311  1
  Sr  Sr26  1  0.25000000  0.65732322  0.57112311  1
  Sr  Sr27  1  0.75000000  0.34267678  0.42887689  1
