# generated using pymatgen
data_Tl5Te3
_symmetry_space_group_name_H-M   'P 1'
_cell_length_a   9.13388743
_cell_length_b   9.13388743
_cell_length_c   9.13388743
_cell_angle_alpha   89.81531065
_cell_angle_beta   120.10668767
_cell_angle_gamma   120.10668767
_symmetry_Int_Tables_number   1
_chemical_formula_structural   Tl5Te3
_chemical_formula_sum   'Tl10 Te6'
_cell_volume   537.95831068
_cell_formula_units_Z   2
loop_
 _symmetry_equiv_pos_site_id
 _symmetry_equiv_pos_as_xyz
  1  'x, y, z'
loop_
 _atom_site_type_symbol
 _atom_site_label
 _atom_site_symmetry_multiplicity
 _atom_site_fract_x
 _atom_site_fract_y
 _atom_site_fract_z
 _atom_site_occupancy
  Tl  Tl0  1  0.20290179  0.00639841  0.50639841  1
  Tl  Tl1  1  0.79709821  0.30349662  0.80349662  1
  Tl  Tl2  1  0.50000000  0.80349662  0.00639841  1
  Tl  Tl3  1  0.50000000  0.50639841  0.30349662  1
  Tl  Tl4  1  0.79709821  0.99360159  0.49360159  1
  Tl  Tl5  1  0.20290179  0.69650338  0.19650338  1
  Tl  Tl6  1  0.50000000  0.19650338  0.99360159  1
  Tl  Tl7  1  0.50000000  0.49360159  0.69650338  1
  Tl  Tl8  1  -0.00000000  0.50000000  0.50000000  1
  Tl  Tl9  1  -0.00000000  -0.00000000  0.00000000  1
  Te  Te10  1  -0.00000000  0.75000000  0.75000000  1
  Te  Te11  1  -0.00000000  0.25000000  0.25000000  1
  Te  Te12  1  0.81159629  0.65579815  0.15579815  1
  Te  Te13  1  0.18840371  0.34420185  0.84420185  1
  Te  Te14  1  0.50000000  0.84420185  0.65579815  1
  Te  Te15  1  0.50000000  0.15579815  0.34420185  1
