# generated using pymatgen
data_ScMnO3
_symmetry_space_group_name_H-M   'P 1'
_cell_length_a   5.94047360
_cell_length_b   5.94047360
_cell_length_c   11.29346683
_cell_angle_alpha   90.00000000
_cell_angle_beta   90.00000000
_cell_angle_gamma   119.99999999
_symmetry_Int_Tables_number   1
_chemical_formula_structural   ScMnO3
_chemical_formula_sum   'Sc6 Mn6 O18'
_cell_volume   345.14378133
_cell_formula_units_Z   6
loop_
 _symmetry_equiv_pos_site_id
 _symmetry_equiv_pos_as_xyz
  1  'x, y, z'
loop_
 _atom_site_type_symbol
 _atom_site_label
 _atom_site_symmetry_multiplicity
 _atom_site_fract_x
 _atom_site_fract_y
 _atom_site_fract_z
 _atom_site_occupancy
  O  O0  1  0.66666667  0.33333333  0.02803663  1
  O  O1  1  0.33333333  0.66666667  0.52803663  1
  O  O2  1  0.66666667  0.33333333  0.52803663  1
  O  O3  1  0.33333333  0.66666667  0.02803663  1
  O  O4  1  0.00000000  0.00000000  0.96659680  1
  O  O5  1  0.00000000  0.00000000  0.46659680  1
  O  O6  1  0.36586267  0.00000000  0.83164840  1
  O  O7  1  0.36586267  0.36586267  0.33164840  1
  O  O8  1  0.00000000  0.63413733  0.33164840  1
  O  O9  1  0.00000000  0.36586267  0.83164840  1
  O  O10  1  0.63413733  0.63413733  0.83164840  1
  O  O11  1  0.63413733  0.00000000  0.33164840  1
  O  O12  1  0.30234982  0.00000000  0.16941009  1
  O  O13  1  0.30234982  0.30234982  0.66941009  1
  O  O14  1  1.00000000  0.69765018  0.66941009  1
  O  O15  1  0.00000000  0.30234982  0.16941009  1
  O  O16  1  0.69765018  0.69765018  0.16941009  1
  O  O17  1  0.69765018  0.00000000  0.66941009  1
  Sc  Sc18  1  0.00000000  0.00000000  0.27420391  1
  Sc  Sc19  1  0.00000000  0.00000000  0.77420391  1
  Sc  Sc20  1  0.33333333  0.66666667  0.23005517  1
  Sc  Sc21  1  0.66666667  0.33333333  0.73005517  1
  Sc  Sc22  1  0.33333333  0.66666667  0.73005517  1
  Sc  Sc23  1  0.66666667  0.33333333  0.23005517  1
  Mn  Mn24  1  0.33291563  0.00000000  0.00004673  1
  Mn  Mn25  1  0.33291563  0.33291563  0.50004673  1
  Mn  Mn26  1  0.00000000  0.66708437  0.50004673  1
  Mn  Mn27  1  0.00000000  0.33291563  0.00004673  1
  Mn  Mn28  1  0.66708437  0.66708437  0.00004673  1
  Mn  Mn29  1  0.66708437  0.00000000  0.50004673  1
