# generated using pymatgen
data_La2NiRuO6
_symmetry_space_group_name_H-M   'P 1'
_cell_length_a   5.55368426
_cell_length_b   5.75081724
_cell_length_c   7.92355786
_cell_angle_alpha   90.00000000
_cell_angle_beta   89.68474671
_cell_angle_gamma   90.00000000
_symmetry_Int_Tables_number   1
_chemical_formula_structural   La2NiRuO6
_chemical_formula_sum   'La4 Ni2 Ru2 O12'
_cell_volume   253.06052861
_cell_formula_units_Z   2
loop_
 _symmetry_equiv_pos_site_id
 _symmetry_equiv_pos_as_xyz
  1  'x, y, z'
loop_
 _atom_site_type_symbol
 _atom_site_label
 _atom_site_symmetry_multiplicity
 _atom_site_fract_x
 _atom_site_fract_y
 _atom_site_fract_z
 _atom_site_occupancy
  O  O0  1  0.41111036  0.97722211  0.25324314  1
  O  O1  1  0.08888964  0.47722211  0.24675686  1
  O  O2  1  0.58888964  0.02277789  0.74675686  1
  O  O3  1  0.91111036  0.52277789  0.75324314  1
  O  O4  1  0.69842515  0.29163531  0.45073544  1
  O  O5  1  0.80157485  0.79163531  0.04926456  1
  O  O6  1  0.30157485  0.70836469  0.54926456  1
  O  O7  1  0.19842515  0.20836469  0.95073544  1
  O  O8  1  0.29386393  0.69996116  0.95568043  1
  O  O9  1  0.20613607  0.19996116  0.54431957  1
  O  O10  1  0.70613607  0.30003884  0.04431957  1
  O  O11  1  0.79386393  0.80003884  0.45568043  1
  Ni  Ni12  1  0.50000000  0.00000000  0.00000000  1
  Ni  Ni13  1  0.00000000  0.50000000  0.50000000  1
  Ru  Ru14  1  0.50000000  0.00000000  0.50000000  1
  Ru  Ru15  1  0.00000000  0.50000000  0.00000000  1
  La  La16  1  0.51325357  0.55551044  0.24986271  1
  La  La17  1  0.98674643  0.05551044  0.25013729  1
  La  La18  1  0.48674643  0.44448956  0.75013729  1
  La  La19  1  0.01325357  0.94448956  0.74986271  1
