# generated using pymatgen
data_CaCo(SiO3)2
_symmetry_space_group_name_H-M   'P 1'
_cell_length_a   5.31872060
_cell_length_b   6.71524486
_cell_length_c   6.71524486
_cell_angle_alpha   84.65677287
_cell_angle_beta   78.33451071
_cell_angle_gamma   78.33451060
_symmetry_Int_Tables_number   1
_chemical_formula_structural   CaCo(SiO3)2
_chemical_formula_sum   'Ca2 Co2 Si4 O12'
_cell_volume   229.69788811
_cell_formula_units_Z   2
loop_
 _symmetry_equiv_pos_site_id
 _symmetry_equiv_pos_as_xyz
  1  'x, y, z'
loop_
 _atom_site_type_symbol
 _atom_site_label
 _atom_site_symmetry_multiplicity
 _atom_site_fract_x
 _atom_site_fract_y
 _atom_site_fract_z
 _atom_site_occupancy
  O  O0  1  0.50483767  0.33146450  0.36847520  1
  O  O1  1  0.99516122  0.63152495  0.66853596  1
  O  O2  1  0.49516153  0.66853546  0.63152509  1
  O  O3  1  0.00483797  0.36847501  0.33146433  1
  O  O4  1  0.17693424  0.11399509  0.61033930  1
  O  O5  1  0.32306603  0.38966122  0.88600549  1
  O  O6  1  0.82306688  0.88600487  0.38966068  1
  O  O7  1  0.67693316  0.61033874  0.11399480  1
  O  O8  1  0.85440609  0.20607330  0.02824239  1
  O  O9  1  0.64559455  0.97175741  0.79392559  1
  O  O10  1  0.35440658  0.02824256  0.20607291  1
  O  O11  1  0.14559311  0.79392666  0.97175790  1
  Si  Si12  1  0.26948314  0.19458613  0.37956934  1
  Si  Si13  1  0.23051701  0.62042999  0.80541404  1
  Si  Si14  1  0.76948219  0.37956997  0.19458625  1
  Si  Si15  1  0.73051798  0.80541383  0.62043065  1
  Ca  Ca16  1  0.75000030  0.29659570  0.70340395  1
  Ca  Ca17  1  0.25000083  0.70340425  0.29659604  1
  Co  Co18  1  0.24999983  0.09389028  0.90611105  1
  Co  Co19  1  0.74999937  0.90610967  0.09388924  1
