# generated using pymatgen
data_SrMnO3
_symmetry_space_group_name_H-M   'P 1'
_cell_length_a   5.53579132
_cell_length_b   5.53579132
_cell_length_c   9.27845293
_cell_angle_alpha   90.00000000
_cell_angle_beta   90.00000000
_cell_angle_gamma   120.00000002
_symmetry_Int_Tables_number   1
_chemical_formula_structural   SrMnO3
_chemical_formula_sum   'Sr4 Mn4 O12'
_cell_volume   246.24397947
_cell_formula_units_Z   4
loop_
 _symmetry_equiv_pos_site_id
 _symmetry_equiv_pos_as_xyz
  1  'x, y, z'
loop_
 _atom_site_type_symbol
 _atom_site_label
 _atom_site_symmetry_multiplicity
 _atom_site_fract_x
 _atom_site_fract_y
 _atom_site_fract_z
 _atom_site_occupancy
  O  O0  1  0.81911680  0.18088320  0.25000000  1
  O  O1  1  0.63823360  0.81911680  0.75000000  1
  O  O2  1  0.18088320  0.36176640  0.75000000  1
  O  O3  1  0.81911680  0.63823360  0.25000000  1
  O  O4  1  0.36176640  0.18088320  0.25000000  1
  O  O5  1  0.18088320  0.81911680  0.75000000  1
  O  O6  1  0.50000000  0.00000000  0.50000000  1
  O  O7  1  0.50000000  0.50000000  0.00000000  1
  O  O8  1  0.50000000  0.00000000  0.00000000  1
  O  O9  1  0.50000000  0.50000000  0.50000000  1
  O  O10  1  0.00000000  0.50000000  0.50000000  1
  O  O11  1  0.00000000  0.50000000  0.00000000  1
  Mn  Mn12  1  0.33333333  0.66666667  0.88713507  1
  Mn  Mn13  1  0.66666667  0.33333333  0.38713507  1
  Mn  Mn14  1  0.66666667  0.33333333  0.11286493  1
  Mn  Mn15  1  0.33333333  0.66666667  0.61286493  1
  Sr  Sr16  1  0.66666667  0.33333333  0.75000000  1
  Sr  Sr17  1  0.33333333  0.66666667  0.25000000  1
  Sr  Sr18  1  0.00000000  0.00000000  0.50000000  1
  Sr  Sr19  1  0.00000000  0.00000000  0.00000000  1
