# generated using pymatgen
data_Ba10Re6CO30
_symmetry_space_group_name_H-M   'P 1'
_cell_length_a   7.92338314
_cell_length_b   11.10821870
_cell_length_c   11.10800112
_cell_angle_alpha   59.99960121
_cell_angle_beta   90.00040360
_cell_angle_gamma   89.99748474
_symmetry_Int_Tables_number   1
_chemical_formula_structural   Ba10Re6CO30
_chemical_formula_sum   'Ba10 Re6 C1 O30'
_cell_volume   846.68112755
_cell_formula_units_Z   1
loop_
 _symmetry_equiv_pos_site_id
 _symmetry_equiv_pos_as_xyz
  1  'x, y, z'
loop_
 _atom_site_type_symbol
 _atom_site_label
 _atom_site_symmetry_multiplicity
 _atom_site_fract_x
 _atom_site_fract_y
 _atom_site_fract_z
 _atom_site_occupancy
  Ba  Ba0  1  0.75119525  0.73101579  0.26898787  1
  Ba  Ba1  1  0.75123375  0.26901312  0.99999195  1
  Ba  Ba2  1  0.75122519  0.99998853  0.73101076  1
  Ba  Ba3  1  0.26768921  0.26858497  0.73141723  1
  Ba  Ba4  1  0.26770360  0.73142901  0.00000112  1
  Ba  Ba5  1  0.26769969  0.99998411  0.26857926  1
  Ba  Ba6  1  0.50190229  0.33333563  0.33334603  1
  Ba  Ba7  1  0.50190535  0.66664787  0.66666120  1
  Ba  Ba8  1  0.00178759  0.66667719  0.66665524  1
  Ba  Ba9  1  0.00178861  0.33333720  0.33333224  1
  Re  Re10  1  0.20695532  0.61158213  0.38841840  1
  Re  Re11  1  0.20703873  0.38837955  0.00000061  1
  Re  Re12  1  0.20704249  0.00000053  0.61161824  1
  Re  Re13  1  0.70884787  0.38816435  0.61183739  1
  Re  Re14  1  0.70878451  0.61181577  -0.00000166  1
  Re  Re15  1  0.70878082  0.00000833  0.38818945  1
  C  C16  1  0.50964712  0.99999347  0.00000569  1
  O  O17  1  0.24595287  0.42468879  0.44444910  1
  O  O18  1  0.24596705  0.44445046  0.13086890  1
  O  O19  1  0.24594639  0.13085375  0.42469402  1
  O  O20  1  0.24594408  0.55554976  0.57531422  1
  O  O21  1  0.24597327  0.86913022  0.55555332  1
  O  O22  1  0.24595024  0.57531451  0.86913190  1
  O  O23  1  0.74713962  0.57533182  0.55524914  1
  O  O24  1  0.74712235  0.55527303  0.86940382  1
  O  O25  1  0.74712449  0.86941360  0.57531905  1
  O  O26  1  0.74713543  0.44474790  0.42466774  1
  O  O27  1  0.74712953  0.13058283  0.44473695  1
  O  O28  1  0.74711203  0.42467279  0.13059307  1
  O  O29  1  0.06532782  0.61471130  0.25368673  1
  O  O30  1  0.06533403  0.25368826  0.13161476  1
  O  O31  1  0.06534433  0.13160271  0.61471177  1
  O  O32  1  0.06532531  0.74631772  0.38528468  1
  O  O33  1  0.06533601  0.86838562  0.74631047  1
  O  O34  1  0.06534223  0.38529159  0.86838902  1
  O  O35  1  0.56502133  0.38783058  0.74424056  1
  O  O36  1  0.56498440  0.74424861  0.86791257  1
  O  O37  1  0.56499423  0.86791379  0.38782840  1
  O  O38  1  0.56502964  0.25576347  0.61216028  1
  O  O39  1  0.56499453  0.13208049  0.25575396  1
  O  O40  1  0.56498723  0.61217330  0.13209585  1
  O  O41  1  0.38517494  0.70666482  0.29333524  1
  O  O42  1  0.38516508  0.29334435  0.00000033  1
  O  O43  1  0.38516362  0.00000391  0.70665114  1
  O  O44  1  0.88429649  0.29001425  0.70998605  1
  O  O45  1  0.88428069  0.70998952  0.99999277  1
  O  O46  1  0.88427337  0.00000872  0.29001318  1
