# generated using pymatgen
data_Sr2MgWO6
_symmetry_space_group_name_H-M   'P 1'
_cell_length_a   5.67755258
_cell_length_b   5.67755258
_cell_length_c   5.67755258
_cell_angle_alpha   60.00000001
_cell_angle_beta   60.00000002
_cell_angle_gamma   59.99999997
_symmetry_Int_Tables_number   1
_chemical_formula_structural   Sr2MgWO6
_chemical_formula_sum   'Sr2 Mg1 W1 O6'
_cell_volume   129.41019671
_cell_formula_units_Z   1
loop_
 _symmetry_equiv_pos_site_id
 _symmetry_equiv_pos_as_xyz
  1  'x, y, z'
loop_
 _atom_site_type_symbol
 _atom_site_label
 _atom_site_symmetry_multiplicity
 _atom_site_fract_x
 _atom_site_fract_y
 _atom_site_fract_z
 _atom_site_occupancy
  O  O0  1  0.24267863  0.75732033  0.75732168  1
  O  O1  1  0.24267863  0.75732033  0.24268075  1
  O  O2  1  0.75732049  0.24268022  0.75732081  1
  O  O3  1  0.24267980  0.24268022  0.75731980  1
  O  O4  1  0.75732049  0.24268022  0.24267988  1
  O  O5  1  0.75732136  0.75732033  0.24267897  1
  Mg  Mg6  1  0.49999992  0.49999919  0.50000026  1
  Sr  Sr7  1  0.24999996  0.24999960  0.25000013  1
  Sr  Sr8  1  0.74999916  0.75000095  0.74999966  1
  W  W9  1  0.00000000  0.00000000  0.00000000  1
