# generated using pymatgen
data_Na7(CoO3)2
_symmetry_space_group_name_H-M   'P 1'
_cell_length_a   5.83985025
_cell_length_b   7.89902577
_cell_length_c   10.64175301
_cell_angle_alpha   103.93786361
_cell_angle_beta   90.00000000
_cell_angle_gamma   111.69442191
_symmetry_Int_Tables_number   1
_chemical_formula_structural   Na7(CoO3)2
_chemical_formula_sum   'Na14 Co4 O12'
_cell_volume   440.53153593
_cell_formula_units_Z   2
loop_
 _symmetry_equiv_pos_site_id
 _symmetry_equiv_pos_as_xyz
  1  'x, y, z'
loop_
 _atom_site_type_symbol
 _atom_site_label
 _atom_site_symmetry_multiplicity
 _atom_site_fract_x
 _atom_site_fract_y
 _atom_site_fract_z
 _atom_site_occupancy
  Na  Na0  1  0.76117643  0.33415355  0.90532687  1
  Na  Na1  1  0.74221187  0.55233325  0.19400071  1
  Na  Na2  1  0.57683585  0.87963267  0.34922590  1
  Na  Na3  1  0.23882357  0.66584645  0.09467313  1
  Na  Na4  1  0.30279682  0.87963267  0.84922590  1
  Na  Na5  1  0.07141448  0.00000000  0.25000000  1
  Na  Na6  1  0.25778813  0.44766675  0.80599929  1
  Na  Na7  1  0.18987862  0.44766675  0.30599929  1
  Na  Na8  1  0.92858552  -0.00000000  0.75000000  1
  Na  Na9  1  0.42702288  0.66584645  0.59467313  1
  Na  Na10  1  0.81012138  0.55233325  0.69400071  1
  Na  Na11  1  0.69720318  0.12036733  0.15077410  1
  Na  Na12  1  0.42316415  0.12036733  0.65077410  1
  Na  Na13  1  0.57297712  0.33415355  0.40532687  1
  Co  Co14  1  0.99218012  0.75179412  0.46073496  1
  Co  Co15  1  0.75961400  0.75179412  0.96073496  1
  Co  Co16  1  0.24038600  0.24820588  0.03926504  1
  Co  Co17  1  0.00781988  0.24820588  0.53926504  1
  O  O18  1  0.39417159  0.24125611  0.18735420  1
  O  O19  1  0.32782873  0.19144026  0.87602256  1
  O  O20  1  0.60582841  0.75874389  0.81264580  1
  O  O21  1  0.34298079  0.34679988  0.58077732  1
  O  O22  1  0.84708452  0.24125611  0.68735420  1
  O  O23  1  0.13638848  0.80855974  0.62397744  1
  O  O24  1  0.86361152  0.19144026  0.37602256  1
  O  O25  1  0.67217127  0.80855974  0.12397744  1
  O  O26  1  0.15291548  0.75874389  0.31264580  1
  O  O27  1  0.65701921  0.65320012  0.41922268  1
  O  O28  1  0.00381909  0.34679988  0.08077732  1
  O  O29  1  0.99618091  0.65320012  0.91922268  1
