# generated using pymatgen
data_Mo8O23
_symmetry_space_group_name_H-M   'P 1'
_cell_length_a   4.07751251
_cell_length_b   13.69757993
_cell_length_c   17.35280749
_cell_angle_alpha   106.45373138
_cell_angle_beta   90.00000000
_cell_angle_gamma   90.00000000
_symmetry_Int_Tables_number   1
_chemical_formula_structural   Mo8O23
_chemical_formula_sum   'Mo16 O46'
_cell_volume   929.50041868
_cell_formula_units_Z   2
loop_
 _symmetry_equiv_pos_site_id
 _symmetry_equiv_pos_as_xyz
  1  'x, y, z'
loop_
 _atom_site_type_symbol
 _atom_site_label
 _atom_site_symmetry_multiplicity
 _atom_site_fract_x
 _atom_site_fract_y
 _atom_site_fract_z
 _atom_site_occupancy
  O  O0  1  0.51414585  0.73839142  0.33657714  1
  O  O1  1  0.51414585  0.26160876  0.16342334  1
  O  O2  1  0.48585617  0.26160825  0.66342303  1
  O  O3  1  0.48585617  0.73839168  0.83657700  1
  O  O4  1  0.49630633  0.80003010  0.00432712  1
  O  O5  1  0.49630633  0.19997008  0.49567336  1
  O  O6  1  0.50369331  0.19997034  0.99567322  1
  O  O7  1  0.50369331  0.80003036  0.50432698  1
  O  O8  1  0.49502626  0.86999369  0.16982650  1
  O  O9  1  0.49502626  0.13000572  0.33017323  1
  O  O10  1  0.50497338  0.13000598  0.83017308  1
  O  O11  1  0.50497338  0.86999395  0.66982636  1
  O  O12  1  0.49521765  0.93431023  0.33469398  1
  O  O13  1  0.49521765  0.06568919  0.16530574  1
  O  O14  1  0.50478199  0.06568944  0.66530560  1
  O  O15  1  1.00196381  0.93402834  0.08457365  1
  O  O16  1  0.50000101  0.00000000  0.00000000  1
  O  O17  1  0.50000101  0.00000026  0.49999986  1
  O  O18  1  0.50913850  0.67345256  0.67274870  1
  O  O19  1  0.50913850  0.32654815  0.82725149  1
  O  O20  1  0.49086114  0.32654789  0.32725164  1
  O  O21  1  0.49086114  0.67345230  0.17274885  1
  O  O22  1  0.49841151  0.58884487  0.99553387  1
  O  O23  1  0.49841151  0.41115506  0.50446615  1
  O  O24  1  0.50158812  0.41115557  0.00446647  1
  O  O25  1  0.50158812  0.58884461  0.49553401  1
  O  O26  1  0.51010080  0.54320310  0.84803665  1
  O  O27  1  0.51010080  0.45679683  0.65196338  1
  O  O28  1  0.48989884  0.45679657  0.15196294  1
  O  O29  1  0.48989884  0.54320284  0.34803679  1
  O  O30  1  0.00107684  0.80695638  0.75404300  1
  O  O31  1  0.00107684  0.19304355  0.74595702  1
  O  O32  1  0.99892280  0.19304329  0.24595717  1
  O  O33  1  0.99892280  0.80695612  0.25404256  1
  O  O34  1  0.99208511  0.68005404  0.92302889  1
  O  O35  1  0.99208511  0.31994666  0.57697130  1
  O  O36  1  0.00791453  0.31994640  0.07697144  1
  O  O37  1  0.00791453  0.68005378  0.42302845  1
  O  O38  1  0.01233529  0.55302940  0.59297407  1
  O  O39  1  0.01233529  0.44697131  0.90702613  1
  O  O40  1  0.98766435  0.44697105  0.40702627  1
  O  O41  1  0.98766435  0.55302914  0.09297363  1
  O  O42  1  -0.00196417  0.93402860  0.58457350  1
  O  O43  1  -0.00196417  0.06597134  0.91542652  1
  O  O44  1  1.00196381  0.06597185  0.41542625  1
  O  O45  1  0.50478199  0.93431049  0.83469442  1
  Mo  Mo46  1  0.41542073  0.55376993  0.09698848  1
  Mo  Mo47  1  0.41542073  0.44622949  0.40301125  1
  Mo  Mo48  1  0.58457890  0.44622975  0.90301110  1
  Mo  Mo49  1  0.58457890  0.55377019  0.59698892  1
  Mo  Mo50  1  0.58033269  0.68501016  0.42041601  1
  Mo  Mo51  1  0.58033269  0.31498926  0.07958372  1
  Mo  Mo52  1  0.41966695  0.31498952  0.57958416  1
  Mo  Mo53  1  0.41966695  0.68501042  0.92041586  1
  Mo  Mo54  1  0.42666331  0.81466661  0.25361373  1
  Mo  Mo55  1  0.42666331  0.18533281  0.24638600  1
  Mo  Mo56  1  0.57333632  0.18533307  0.74638644  1
  Mo  Mo57  1  0.57333632  0.81466686  0.75361358  1
  Mo  Mo58  1  0.57464416  0.93591042  0.08311729  1
  Mo  Mo59  1  0.57464416  0.06408977  0.41688261  1
  Mo  Mo60  1  0.42535548  0.06409003  0.91688246  1
  Mo  Mo61  1  0.42535548  0.93590991  0.58311756  1
