# generated using pymatgen
data_Tb3In5S12
_symmetry_space_group_name_H-M   'P 1'
_cell_length_a   3.92361696
_cell_length_b   11.01067770
_cell_length_c   21.44114215
_cell_angle_alpha   95.95842623
_cell_angle_beta   90.00000000
_cell_angle_gamma   90.00000000
_symmetry_Int_Tables_number   1
_chemical_formula_structural   Tb3In5S12
_chemical_formula_sum   'Tb6 In10 S24'
_cell_volume   921.28908071
_cell_formula_units_Z   2
loop_
 _symmetry_equiv_pos_site_id
 _symmetry_equiv_pos_as_xyz
  1  'x, y, z'
loop_
 _atom_site_type_symbol
 _atom_site_label
 _atom_site_symmetry_multiplicity
 _atom_site_fract_x
 _atom_site_fract_y
 _atom_site_fract_z
 _atom_site_occupancy
  S  S0  1  0.25000000  0.38954858  0.15826921  1
  S  S1  1  0.75000000  0.13035113  0.03652864  1
  S  S2  1  0.25000000  0.86964887  0.96347136  1
  S  S3  1  0.75000000  0.06163513  0.85880362  1
  S  S4  1  0.25000000  0.93836487  0.14119638  1
  S  S5  1  0.75000000  0.61787948  0.06048519  1
  S  S6  1  0.25000000  0.38212052  0.93951481  1
  S  S7  1  0.75000000  0.27700631  0.38648625  1
  S  S8  1  0.25000000  0.72299369  0.61351375  1
  S  S9  1  0.75000000  0.16201780  0.21024940  1
  S  S10  1  0.25000000  0.03500038  0.31548403  1
  S  S11  1  0.75000000  0.96499962  0.68451597  1
  S  S12  1  0.25000000  0.70760338  0.21625015  1
  S  S13  1  0.75000000  0.29239662  0.78374985  1
  S  S14  1  0.25000000  0.51596590  0.71113555  1
  S  S15  1  0.75000000  0.48403410  0.28886445  1
  S  S16  1  0.25000000  0.20246913  0.65164919  1
  S  S17  1  0.75000000  0.79753087  0.34835081  1
  S  S18  1  0.25000000  0.57871686  0.44752392  1
  S  S19  1  0.75000000  0.42128314  0.55247608  1
  S  S20  1  0.75000000  0.87674416  0.50928804  1
  S  S21  1  0.75000000  0.61045142  0.84173079  1
  S  S22  1  0.25000000  0.12325584  0.49071196  1
  S  S23  1  0.25000000  0.83798220  0.78975060  1
  In  In24  1  0.25000000  0.16409736  0.11247913  1
  In  In25  1  0.75000000  0.65077971  0.52755112  1
  In  In26  1  0.25000000  0.34922029  0.47244888  1
  In  In27  1  0.75000000  0.54257726  0.17311566  1
  In  In28  1  0.25000000  0.45742274  0.82688434  1
  In  In29  1  0.75000000  0.35267296  0.66766400  1
  In  In30  1  0.25000000  0.64732704  0.33233600  1
  In  In31  1  0.75000000  0.24107579  0.94119639  1
  In  In32  1  0.25000000  0.75892421  0.05880361  1
  In  In33  1  0.75000000  0.83590264  0.88752087  1
  Tb  Tb34  1  0.25000000  0.28429240  0.28425559  1
  Tb  Tb35  1  0.75000000  0.71570760  0.71574441  1
  Tb  Tb36  1  0.25000000  0.08686498  0.76507594  1
  Tb  Tb37  1  0.75000000  0.91313502  0.23492406  1
  Tb  Tb38  1  0.25000000  0.97192903  0.58836070  1
  Tb  Tb39  1  0.75000000  0.02807097  0.41163930  1
