# generated using pymatgen
data_LiLa4NiO8
_symmetry_space_group_name_H-M   'P 1'
_cell_length_a   5.34911136
_cell_length_b   5.35436546
_cell_length_c   6.96753828
_cell_angle_alpha   90.00000000
_cell_angle_beta   112.57295417
_cell_angle_gamma   90.00000000
_symmetry_Int_Tables_number   1
_chemical_formula_structural   LiLa4NiO8
_chemical_formula_sum   'Li1 La4 Ni1 O8'
_cell_volume   184.27010922
_cell_formula_units_Z   1
loop_
 _symmetry_equiv_pos_site_id
 _symmetry_equiv_pos_as_xyz
  1  'x, y, z'
loop_
 _atom_site_type_symbol
 _atom_site_label
 _atom_site_symmetry_multiplicity
 _atom_site_fract_x
 _atom_site_fract_y
 _atom_site_fract_z
 _atom_site_occupancy
  Li  Li0  1  0.50000000  0.00000000  0.00000000  1
  O  O1  1  0.17687065  0.50000000  0.35374129  1
  O  O2  1  0.31952371  0.00000000  0.63904742  1
  O  O3  1  0.68047629  0.00000000  0.36095258  1
  O  O4  1  0.82312935  0.50000000  0.64625871  1
  O  O5  1  0.75442573  0.74336354  0.00000000  1
  O  O6  1  0.24557427  0.25663646  0.00000000  1
  O  O7  1  0.24557427  0.74336354  0.00000000  1
  O  O8  1  0.75442573  0.25663646  0.00000000  1
  Ni  Ni9  1  0.00000000  0.50000000  0.00000000  1
  La  La10  1  0.36325995  0.50000000  0.72651990  1
  La  La11  1  0.63674005  0.50000000  0.27348010  1
  La  La12  1  0.13761519  0.00000000  0.27523038  1
  La  La13  1  0.86238481  0.00000000  0.72476962  1
