# generated using pymatgen
data_YCo(BO2)5
_symmetry_space_group_name_H-M   'P 1'
_cell_length_a   7.66340852
_cell_length_b   8.64072391
_cell_length_c   9.44536935
_cell_angle_alpha   93.58564517
_cell_angle_beta   90.00000000
_cell_angle_gamma   90.00000000
_symmetry_Int_Tables_number   1
_chemical_formula_structural   YCo(BO2)5
_chemical_formula_sum   'Y4 Co4 B20 O40'
_cell_volume   624.22341567
_cell_formula_units_Z   4
loop_
 _symmetry_equiv_pos_site_id
 _symmetry_equiv_pos_as_xyz
  1  'x, y, z'
loop_
 _atom_site_type_symbol
 _atom_site_label
 _atom_site_symmetry_multiplicity
 _atom_site_fract_x
 _atom_site_fract_y
 _atom_site_fract_z
 _atom_site_occupancy
  B  B0  1  0.81283102  0.56662481  0.08909090  1
  B  B1  1  0.31283102  0.93337519  0.41090910  1
  B  B2  1  0.18716898  0.43337519  0.91090910  1
  B  B3  1  0.68716898  0.06662481  0.58909090  1
  B  B4  1  0.10193293  0.66066587  0.50923416  1
  B  B5  1  0.60193293  0.83933413  0.99076584  1
  B  B6  1  0.89806707  0.33933413  0.49076584  1
  B  B7  1  0.39806707  0.16066587  0.00923416  1
  B  B8  1  0.03210006  0.77809609  0.05706469  1
  B  B9  1  0.53210006  0.72190391  0.44293531  1
  B  B10  1  0.96789994  0.22190391  0.94293531  1
  B  B11  1  0.46789994  0.27809609  0.55706469  1
  B  B12  1  0.82474100  0.01725199  0.10246225  1
  B  B13  1  0.32474100  0.48274801  0.39753775  1
  B  B14  1  0.17525900  0.98274801  0.89753775  1
  B  B15  1  0.67525900  0.51725199  0.60246225  1
  B  B16  1  0.07328481  0.58491158  0.24701758  1
  B  B17  1  0.57328481  0.91508842  0.25298242  1
  B  B18  1  0.92671519  0.41508842  0.75298242  1
  B  B19  1  0.42671519  0.08491158  0.74701758  1
  O  O20  1  0.94504036  0.25703294  0.37038679  1
  O  O21  1  0.44504036  0.24296706  0.12961321  1
  O  O22  1  0.05495964  0.74296706  0.62961321  1
  O  O23  1  0.55495964  0.75703294  0.87038679  1
  O  O24  1  0.15296641  0.00662505  0.42898391  1
  O  O25  1  0.65296641  0.49337495  0.07101609  1
  O  O26  1  0.84703359  0.99337495  0.57101609  1
  O  O27  1  0.34703359  0.50662505  0.92898391  1
  O  O28  1  0.87604375  0.68132812  0.00976924  1
  O  O29  1  0.37604375  0.81867188  0.49023076  1
  O  O30  1  0.12395625  0.31867188  0.99023076  1
  O  O31  1  0.62395625  0.18132812  0.50976924  1
  O  O32  1  0.73150013  0.95134411  0.97713157  1
  O  O33  1  0.23150013  0.54865589  0.52286843  1
  O  O34  1  0.26849987  0.04865589  0.02286843  1
  O  O35  1  0.76849987  0.45134411  0.47713157  1
  O  O36  1  0.88982558  0.17497772  0.07855847  1
  O  O37  1  0.38982558  0.32502228  0.42144153  1
  O  O38  1  0.11017442  0.82502228  0.92144153  1
  O  O39  1  0.61017442  0.67497772  0.57855847  1
  O  O40  1  0.97026021  0.91595624  0.14878129  1
  O  O41  1  0.47026021  0.58404376  0.35121871  1
  O  O42  1  0.02973979  0.08404376  0.85121871  1
  O  O43  1  0.52973979  0.41595624  0.64878129  1
  O  O44  1  0.14803752  0.68373069  0.14064892  1
  O  O45  1  0.64803752  0.81626931  0.35935108  1
  O  O46  1  0.85196248  0.31626931  0.85935108  1
  O  O47  1  0.35196248  0.18373069  0.64064892  1
  O  O48  1  0.90789802  0.51278154  0.19975439  1
  O  O49  1  0.40789802  0.98721846  0.30024561  1
  O  O50  1  0.09210198  0.48721846  0.80024561  1
  O  O51  1  0.59210198  0.01278154  0.69975439  1
  O  O52  1  0.03198061  0.68460450  0.37856561  1
  O  O53  1  0.53198061  0.81539550  0.12143439  1
  O  O54  1  0.96801939  0.31539550  0.62143439  1
  O  O55  1  0.46801939  0.18460450  0.87856561  1
  O  O56  1  0.20459257  0.46427160  0.27377243  1
  O  O57  1  0.70459257  0.03572840  0.22622757  1
  O  O58  1  0.79540743  0.53572840  0.72622757  1
  O  O59  1  0.29540743  0.96427160  0.77377243  1
  Co  Co60  1  0.90306535  0.89856003  0.37042669  1
  Co  Co61  1  0.40306535  0.60143997  0.12957331  1
  Co  Co62  1  0.09693465  0.10143997  0.62957331  1
  Co  Co63  1  0.59693465  0.39856003  0.87042669  1
  Y  Y64  1  0.68476567  0.31534816  0.25778008  1
  Y  Y65  1  0.18476567  0.18465184  0.24221992  1
  Y  Y66  1  0.31523433  0.68465184  0.74221992  1
  Y  Y67  1  0.81523433  0.81534816  0.75778008  1
