# generated using pymatgen
data_GdTiGe
_symmetry_space_group_name_H-M   'P 1'
_cell_length_a   4.07697505
_cell_length_b   4.07697505
_cell_length_c   8.36609818
_cell_angle_alpha   104.10268619
_cell_angle_beta   104.10268619
_cell_angle_gamma   90.00000004
_symmetry_Int_Tables_number   1
_chemical_formula_structural   GdTiGe
_chemical_formula_sum   'Gd2 Ti2 Ge2'
_cell_volume   130.54218603
_cell_formula_units_Z   2
loop_
 _symmetry_equiv_pos_site_id
 _symmetry_equiv_pos_as_xyz
  1  'x, y, z'
loop_
 _atom_site_type_symbol
 _atom_site_label
 _atom_site_symmetry_multiplicity
 _atom_site_fract_x
 _atom_site_fract_y
 _atom_site_fract_z
 _atom_site_occupancy
  Ti  Ti0  1  0.00000000  0.50000000  0.00000000  1
  Ti  Ti1  1  0.50000000  0.00000000  0.00000000  1
  Ge  Ge2  1  0.11959426  0.11959426  0.23918851  1
  Ge  Ge3  1  0.88040574  0.88040574  0.76081149  1
  Gd  Gd4  1  0.67543366  0.67543366  0.35086731  1
  Gd  Gd5  1  0.32456634  0.32456634  0.64913269  1
