# generated using pymatgen
data_CaV2CoO7
_symmetry_space_group_name_H-M   'P 1'
_cell_length_a   6.84003892
_cell_length_b   11.39853862
_cell_length_c   14.66726781
_cell_angle_alpha   90.00000000
_cell_angle_beta   90.00000000
_cell_angle_gamma   99.60000995
_symmetry_Int_Tables_number   1
_chemical_formula_structural   CaV2CoO7
_chemical_formula_sum   'Ca8 V16 Co8 O56'
_cell_volume   1127.54043918
_cell_formula_units_Z   8
loop_
 _symmetry_equiv_pos_site_id
 _symmetry_equiv_pos_as_xyz
  1  'x, y, z'
loop_
 _atom_site_type_symbol
 _atom_site_label
 _atom_site_symmetry_multiplicity
 _atom_site_fract_x
 _atom_site_fract_y
 _atom_site_fract_z
 _atom_site_occupancy
  O  O0  1  0.75764773  0.96140504  0.98173447  1
  O  O1  1  0.24235227  0.53859496  0.48173447  1
  O  O2  1  0.24235227  0.03859496  0.01826553  1
  O  O3  1  0.75764773  0.46140504  0.51826553  1
  O  O4  1  0.98854538  0.87102465  0.85659141  1
  O  O5  1  0.01145462  0.62897535  0.35659141  1
  O  O6  1  0.01145462  0.12897535  0.14340859  1
  O  O7  1  0.98854538  0.37102465  0.64340859  1
  O  O8  1  0.99341892  0.11747628  0.85957964  1
  O  O9  1  0.00658108  0.38252372  0.35957964  1
  O  O10  1  0.00658108  0.88252372  0.14042036  1
  O  O11  1  0.99341892  0.61747628  0.64042036  1
  O  O12  1  0.67905229  0.95560719  0.28620094  1
  O  O13  1  0.32094771  0.54439281  0.78620094  1
  O  O14  1  0.32094771  0.04439281  0.71379906  1
  O  O15  1  0.67905229  0.45560719  0.21379906  1
  O  O16  1  0.96285359  0.13540225  0.36512345  1
  O  O17  1  0.03714641  0.36459775  0.86512345  1
  O  O18  1  0.03714641  0.86459775  0.63487655  1
  O  O19  1  0.96285359  0.63540225  0.13487655  1
  O  O20  1  0.05089738  0.89362073  0.34118880  1
  O  O21  1  0.38973518  0.82248480  0.44151024  1
  O  O22  1  0.94910262  0.60637927  0.84118880  1
  O  O23  1  0.05089738  0.39362073  0.15881120  1
  O  O24  1  0.72111209  0.70942012  0.47956785  1
  O  O25  1  0.27888791  0.79057988  0.97956785  1
  O  O26  1  0.27888791  0.29057988  0.52043215  1
  O  O27  1  0.72111209  0.20942012  0.02043215  1
  O  O28  1  0.76483202  0.94684978  0.47212742  1
  O  O29  1  0.23516798  0.55315022  0.97212742  1
  O  O30  1  0.23516798  0.05315022  0.52787258  1
  O  O31  1  0.76483202  0.44684978  0.02787258  1
  O  O32  1  0.42704470  0.20768356  0.89470687  1
  O  O33  1  0.57295530  0.29231644  0.39470687  1
  O  O34  1  0.57295530  0.79231644  0.10529313  1
  O  O35  1  0.42704470  0.70768356  0.60529313  1
  O  O36  1  0.69094016  0.22302205  0.75051125  1
  O  O37  1  0.30905984  0.27697795  0.25051125  1
  O  O38  1  0.30905984  0.77697795  0.24948875  1
  O  O39  1  0.69094016  0.72302205  0.74948875  1
  O  O40  1  0.63406736  0.46175956  0.70404422  1
  O  O41  1  0.36593264  0.03824044  0.20404422  1
  O  O42  1  0.36593264  0.53824044  0.29595578  1
  O  O43  1  0.63406736  0.96175956  0.79595578  1
  O  O44  1  0.30022704  0.29362123  0.72979908  1
  O  O45  1  0.69977296  0.20637877  0.22979908  1
  O  O46  1  0.69977296  0.70637877  0.27020092  1
  O  O47  1  0.30022704  0.79362123  0.77020092  1
  O  O48  1  0.59781540  0.41119139  0.87765907  1
  O  O49  1  0.40218460  0.08880861  0.37765907  1
  O  O50  1  0.40218460  0.58880861  0.12234093  1
  O  O51  1  0.59781540  0.91119139  0.62234093  1
  O  O52  1  0.38973518  0.32248480  0.05848976  1
  O  O53  1  0.61026482  0.17751520  0.55848976  1
  O  O54  1  0.61026482  0.67751520  0.94151024  1
  O  O55  1  0.94910262  0.10637927  0.65881120  1
  Ca  Ca56  1  0.07922475  0.73074058  0.50786655  1
  Ca  Ca57  1  0.32409060  0.97052064  0.87087569  1
  Ca  Ca58  1  0.67590940  0.52947936  0.37087569  1
  Ca  Ca59  1  0.67590940  0.02947936  0.12912431  1
  Ca  Ca60  1  0.32409060  0.47052064  0.62912431  1
  Ca  Ca61  1  0.07922475  0.23074058  0.99213345  1
  Ca  Ca62  1  0.92077525  0.26925942  0.49213345  1
  Ca  Ca63  1  0.92077525  0.76925942  0.00786655  1
  V  V64  1  0.83883204  0.98057296  0.87152575  1
  V  V65  1  0.41488382  0.68595741  0.01302711  1
  V  V66  1  0.41488382  0.18595741  0.48697289  1
  V  V67  1  0.58511618  0.31404259  0.98697289  1
  V  V68  1  0.50726495  0.79467297  0.70493568  1
  V  V69  1  0.49273505  0.70532703  0.20493568  1
  V  V70  1  0.49273505  0.20532703  0.29506432  1
  V  V71  1  0.50726495  0.29467297  0.79506432  1
  V  V72  1  0.58511618  0.81404259  0.51302711  1
  V  V73  1  0.86989497  0.48381755  0.13612359  1
  V  V74  1  0.13010503  0.01618245  0.63612359  1
  V  V75  1  0.13010503  0.51618245  0.86387641  1
  V  V76  1  0.16116796  0.51942704  0.37152575  1
  V  V77  1  0.83883204  0.48057296  0.62847425  1
  V  V78  1  0.16116796  0.01942704  0.12847425  1
  V  V79  1  0.86989497  0.98381755  0.36387641  1
  Co  Co80  1  0.63454109  0.07432892  0.67557640  1
  Co  Co81  1  0.36545891  0.42567108  0.17557640  1
  Co  Co82  1  0.36545891  0.92567108  0.32442360  1
  Co  Co83  1  0.63454109  0.57432892  0.82442360  1
  Co  Co84  1  0.00017802  0.24660749  0.75390581  1
  Co  Co85  1  0.99982198  0.25339251  0.25390581  1
  Co  Co86  1  0.99982198  0.75339251  0.24609419  1
  Co  Co87  1  0.00017802  0.74660749  0.74609419  1
