# generated using pymatgen
data_HfReSi2
_symmetry_space_group_name_H-M   'P 1'
_cell_length_a   8.09050280
_cell_length_b   9.21659730
_cell_length_c   10.06608649
_cell_angle_alpha   90.00000000
_cell_angle_beta   90.00000000
_cell_angle_gamma   90.00000000
_symmetry_Int_Tables_number   1
_chemical_formula_structural   HfReSi2
_chemical_formula_sum   'Hf12 Re12 Si24'
_cell_volume   750.59692773
_cell_formula_units_Z   12
loop_
 _symmetry_equiv_pos_site_id
 _symmetry_equiv_pos_as_xyz
  1  'x, y, z'
loop_
 _atom_site_type_symbol
 _atom_site_label
 _atom_site_symmetry_multiplicity
 _atom_site_fract_x
 _atom_site_fract_y
 _atom_site_fract_z
 _atom_site_occupancy
  Hf  Hf0  1  0.74829333  0.82586976  0.04703757  1
  Hf  Hf1  1  0.74829333  0.17413024  0.95296243  1
  Hf  Hf2  1  0.25170667  0.67413024  0.54703757  1
  Hf  Hf3  1  0.25170667  0.32586976  0.45296243  1
  Hf  Hf4  1  0.25170667  0.17413024  0.95296243  1
  Hf  Hf5  1  0.25170667  0.82586976  0.04703757  1
  Hf  Hf6  1  0.74829333  0.32586976  0.45296243  1
  Hf  Hf7  1  0.74829333  0.67413024  0.54703757  1
  Hf  Hf8  1  0.50000000  0.83172802  0.31982079  1
  Hf  Hf9  1  0.50000000  0.16827198  0.68017921  1
  Hf  Hf10  1  0.50000000  0.66827198  0.81982079  1
  Hf  Hf11  1  0.50000000  0.33172802  0.18017921  1
  Re  Re12  1  0.74923622  0.58607529  0.26107306  1
  Re  Re13  1  0.74923622  0.41392471  0.73892694  1
  Re  Re14  1  0.25076378  0.91392471  0.76107306  1
  Re  Re15  1  0.25076378  0.08607529  0.23892694  1
  Re  Re16  1  0.25076378  0.41392471  0.73892694  1
  Re  Re17  1  0.25076378  0.58607529  0.26107306  1
  Re  Re18  1  0.74923622  0.08607529  0.23892694  1
  Re  Re19  1  0.74923622  0.91392471  0.76107306  1
  Re  Re20  1  0.74298172  -0.00000000  0.50000000  1
  Re  Re21  1  0.25701828  0.50000000  -0.00000000  1
  Re  Re22  1  0.25701828  0.00000000  0.50000000  1
  Re  Re23  1  0.74298172  0.50000000  0.00000000  1
  Si  Si24  1  0.85447632  0.83383406  0.31879177  1
  Si  Si25  1  0.85447632  0.16616594  0.68120823  1
  Si  Si26  1  0.14552368  0.66616594  0.81879177  1
  Si  Si27  1  0.14552368  0.33383406  0.18120823  1
  Si  Si28  1  0.14552368  0.16616594  0.68120823  1
  Si  Si29  1  0.14552368  0.83383406  0.31879177  1
  Si  Si30  1  0.85447632  0.33383406  0.18120823  1
  Si  Si31  1  0.85447632  0.66616594  0.81879177  1
  Si  Si32  1  0.50000000  0.53430522  0.38507574  1
  Si  Si33  1  0.50000000  0.46569478  0.61492426  1
  Si  Si34  1  0.50000000  0.96569478  0.88507574  1
  Si  Si35  1  0.50000000  0.03430522  0.11492426  1
  Si  Si36  1  -0.00000000  0.52925797  0.38322410  1
  Si  Si37  1  -0.00000000  0.47074203  0.61677590  1
  Si  Si38  1  -0.00000000  0.97074203  0.88322410  1
  Si  Si39  1  0.00000000  0.02925797  0.11677590  1
  Si  Si40  1  0.50000000  0.63316977  0.10115223  1
  Si  Si41  1  0.50000000  0.36683023  0.89884777  1
  Si  Si42  1  0.50000000  0.86683023  0.60115223  1
  Si  Si43  1  0.50000000  0.13316977  0.39884777  1
  Si  Si44  1  -0.00000000  0.62534495  0.09242222  1
  Si  Si45  1  0.00000000  0.37465505  0.90757778  1
  Si  Si46  1  0.00000000  0.87465505  0.59242222  1
  Si  Si47  1  -0.00000000  0.12534495  0.40757778  1
