# generated using pymatgen
data_Zr2Te
_symmetry_space_group_name_H-M   'P 1'
_cell_length_a   3.85583865
_cell_length_b   10.77049643
_cell_length_c   20.11477775
_cell_angle_alpha   90.00000000
_cell_angle_beta   90.00000000
_cell_angle_gamma   90.00000000
_symmetry_Int_Tables_number   1
_chemical_formula_structural   Zr2Te
_chemical_formula_sum   'Zr24 Te12'
_cell_volume   835.35256749
_cell_formula_units_Z   12
loop_
 _symmetry_equiv_pos_site_id
 _symmetry_equiv_pos_as_xyz
  1  'x, y, z'
loop_
 _atom_site_type_symbol
 _atom_site_label
 _atom_site_symmetry_multiplicity
 _atom_site_fract_x
 _atom_site_fract_y
 _atom_site_fract_z
 _atom_site_occupancy
  Zr  Zr0  1  0.25000000  0.60933768  0.98464709  1
  Zr  Zr1  1  0.75000000  0.39066232  0.01535291  1
  Zr  Zr2  1  0.75000000  0.10933768  0.51535291  1
  Zr  Zr3  1  0.25000000  0.89066232  0.48464709  1
  Zr  Zr4  1  0.25000000  0.07779542  0.64566811  1
  Zr  Zr5  1  0.75000000  0.92220458  0.35433189  1
  Zr  Zr6  1  0.75000000  0.57779542  0.85433189  1
  Zr  Zr7  1  0.25000000  0.42220458  0.14566811  1
  Zr  Zr8  1  0.25000000  0.38825481  0.53302900  1
  Zr  Zr9  1  0.75000000  0.61174519  0.46697100  1
  Zr  Zr10  1  0.75000000  0.88825481  0.96697100  1
  Zr  Zr11  1  0.25000000  0.11174519  0.03302900  1
  Zr  Zr12  1  0.25000000  0.14666203  0.39586645  1
  Zr  Zr13  1  0.75000000  0.85333797  0.60413355  1
  Zr  Zr14  1  0.75000000  0.64666203  0.10413355  1
  Zr  Zr15  1  0.25000000  0.35333797  0.89586645  1
  Zr  Zr16  1  0.25000000  0.45762100  0.34136453  1
  Zr  Zr17  1  0.75000000  0.54237900  0.65863547  1
  Zr  Zr18  1  0.75000000  0.95762100  0.15863547  1
  Zr  Zr19  1  0.25000000  0.04237900  0.84136453  1
  Zr  Zr20  1  0.25000000  0.75238675  0.22431383  1
  Zr  Zr21  1  0.75000000  0.24761325  0.77568617  1
  Zr  Zr22  1  0.75000000  0.25238675  0.27568617  1
  Zr  Zr23  1  0.25000000  0.74761325  0.72431383  1
  Te  Te24  1  0.25000000  0.46194248  0.76021490  1
  Te  Te25  1  0.75000000  0.53805752  0.23978510  1
  Te  Te26  1  0.75000000  0.96194248  0.73978510  1
  Te  Te27  1  0.25000000  0.03805752  0.26021490  1
  Te  Te28  1  0.25000000  0.78074649  0.86916378  1
  Te  Te29  1  0.75000000  0.21925351  0.13083622  1
  Te  Te30  1  0.75000000  0.28074649  0.63083622  1
  Te  Te31  1  0.25000000  0.71925351  0.36916378  1
  Te  Te32  1  0.25000000  0.66126259  0.57277619  1
  Te  Te33  1  0.75000000  0.33873741  0.42722381  1
  Te  Te34  1  0.75000000  0.16126259  0.92722381  1
  Te  Te35  1  0.25000000  0.83873741  0.07277619  1
