# generated using pymatgen
data_Pr3Te4
_symmetry_space_group_name_H-M   'P 1'
_cell_length_a   8.31557644
_cell_length_b   8.31557644
_cell_length_c   8.31557644
_cell_angle_alpha   109.47122061
_cell_angle_beta   109.47122060
_cell_angle_gamma   109.47122069
_symmetry_Int_Tables_number   1
_chemical_formula_structural   Pr3Te4
_chemical_formula_sum   'Pr6 Te8'
_cell_volume   442.64461975
_cell_formula_units_Z   2
loop_
 _symmetry_equiv_pos_site_id
 _symmetry_equiv_pos_as_xyz
  1  'x, y, z'
loop_
 _atom_site_type_symbol
 _atom_site_label
 _atom_site_symmetry_multiplicity
 _atom_site_fract_x
 _atom_site_fract_y
 _atom_site_fract_z
 _atom_site_occupancy
  Te  Te0  1  0.65095967  0.65095967  0.65095967  1
  Te  Te1  1  0.34904033  0.50000000  0.00000000  1
  Te  Te2  1  0.50000000  0.00000000  0.34904033  1
  Te  Te3  1  0.00000000  0.34904033  0.50000000  1
  Te  Te4  1  0.50000000  0.00000000  0.84904033  1
  Te  Te5  1  0.00000000  0.84904033  0.50000000  1
  Te  Te6  1  0.15095967  0.15095967  0.15095967  1
  Te  Te7  1  0.84904033  0.50000000  0.00000000  1
  Pr  Pr8  1  0.75000000  0.87500000  0.12500000  1
  Pr  Pr9  1  0.62500000  0.37500000  0.25000000  1
  Pr  Pr10  1  0.87500000  0.12500000  0.75000000  1
  Pr  Pr11  1  0.12500000  0.75000000  0.87500000  1
  Pr  Pr12  1  0.37500000  0.25000000  0.62500000  1
  Pr  Pr13  1  0.25000000  0.62500000  0.37500000  1
