# generated using pymatgen
data_Al(SiO3)2
_symmetry_space_group_name_H-M   'P 1'
_cell_length_a   5.11334860
_cell_length_b   5.27133710
_cell_length_c   5.82855408
_cell_angle_alpha   90.00000000
_cell_angle_beta   90.00000000
_cell_angle_gamma   119.01340296
_symmetry_Int_Tables_number   1
_chemical_formula_structural   Al(SiO3)2
_chemical_formula_sum   'Al1 Si2 O6'
_cell_volume   137.38836362
_cell_formula_units_Z   1
loop_
 _symmetry_equiv_pos_site_id
 _symmetry_equiv_pos_as_xyz
  1  'x, y, z'
loop_
 _atom_site_type_symbol
 _atom_site_label
 _atom_site_symmetry_multiplicity
 _atom_site_fract_x
 _atom_site_fract_y
 _atom_site_fract_z
 _atom_site_occupancy
  Al  Al0  1  0.50000000  0.00000000  0.66666700  1
  Si  Si1  1  0.50000000  0.50000000  0.00231949  1
  Si  Si2  1  0.00000000  0.50000000  0.33101351  1
  O  O3  1  0.78563356  0.57126712  0.16666700  1
  O  O4  1  0.80031363  0.22047432  0.48889484  1
  O  O5  1  0.42016069  0.22047432  0.84443816  1
  O  O6  1  0.21436644  0.42873288  0.16666700  1
  O  O7  1  0.19968637  0.77952568  0.48889484  1
  O  O8  1  0.57983931  0.77952568  0.84443816  1
