# generated using pymatgen
data_Gd3Pd2
_symmetry_space_group_name_H-M   'P 1'
_cell_length_a   3.96115536
_cell_length_b   7.91002996
_cell_length_c   7.91002996
_cell_angle_alpha   90.00000000
_cell_angle_beta   90.00000000
_cell_angle_gamma   90.00000000
_symmetry_Int_Tables_number   1
_chemical_formula_structural   Gd3Pd2
_chemical_formula_sum   'Gd6 Pd4'
_cell_volume   247.84384214
_cell_formula_units_Z   2
loop_
 _symmetry_equiv_pos_site_id
 _symmetry_equiv_pos_as_xyz
  1  'x, y, z'
loop_
 _atom_site_type_symbol
 _atom_site_label
 _atom_site_symmetry_multiplicity
 _atom_site_fract_x
 _atom_site_fract_y
 _atom_site_fract_z
 _atom_site_occupancy
  Pd  Pd0  1  0.00000000  0.63147170  0.13147170  1
  Pd  Pd1  1  0.00000000  0.86852830  0.63147170  1
  Pd  Pd2  1  0.00000000  0.13147170  0.36852830  1
  Pd  Pd3  1  0.00000000  0.36852830  0.86852830  1
  Gd  Gd4  1  0.50000000  0.66513163  0.83486837  1
  Gd  Gd5  1  0.50000000  0.83486837  0.33486837  1
  Gd  Gd6  1  0.50000000  0.33486837  0.16513163  1
  Gd  Gd7  1  0.50000000  0.16513163  0.66513163  1
  Gd  Gd8  1  0.00000000  0.50000000  0.50000000  1
  Gd  Gd9  1  0.00000000  0.00000000  0.00000000  1
