# generated using pymatgen
data_K3Cu2F7
_symmetry_space_group_name_H-M   'P 1'
_cell_length_a   4.09146707
_cell_length_b   4.09146707
_cell_length_c   11.02344030
_cell_angle_alpha   100.69496789
_cell_angle_beta   100.69496790
_cell_angle_gamma   90.00000000
_symmetry_Int_Tables_number   1
_chemical_formula_structural   K3Cu2F7
_chemical_formula_sum   'K3 Cu2 F7'
_cell_volume   178.06480048
_cell_formula_units_Z   1
loop_
 _symmetry_equiv_pos_site_id
 _symmetry_equiv_pos_as_xyz
  1  'x, y, z'
loop_
 _atom_site_type_symbol
 _atom_site_label
 _atom_site_symmetry_multiplicity
 _atom_site_fract_x
 _atom_site_fract_y
 _atom_site_fract_z
 _atom_site_occupancy
  F  F0  1  0.40532298  0.90532298  0.81064596  1
  F  F1  1  0.90532298  0.40532298  0.81064596  1
  F  F2  1  0.59467702  0.09467702  0.18935404  1
  F  F3  1  0.09467702  0.59467702  0.18935404  1
  F  F4  1  0.00000000  0.00000000  0.00000000  1
  F  F5  1  0.19130639  0.19130639  0.38261278  1
  F  F6  1  0.80869361  0.80869361  0.61738722  1
  K  K7  1  0.31621138  0.31621138  0.63242275  1
  K  K8  1  0.68378862  0.68378862  0.36757725  1
  K  K9  1  0.50000000  0.50000000  0.00000000  1
  Cu  Cu10  1  0.09597513  0.09597513  0.19195026  1
  Cu  Cu11  1  0.90402487  0.90402487  0.80804974  1
