# generated using pymatgen
data_Er5Mg24
_symmetry_space_group_name_H-M   'P 1'
_cell_length_a   9.72550634
_cell_length_b   9.72550635
_cell_length_c   9.72550634
_cell_angle_alpha   109.47122064
_cell_angle_beta   109.47122066
_cell_angle_gamma   109.47122063
_symmetry_Int_Tables_number   1
_chemical_formula_structural   Er5Mg24
_chemical_formula_sum   'Er5 Mg24'
_cell_volume   708.13290185
_cell_formula_units_Z   1
loop_
 _symmetry_equiv_pos_site_id
 _symmetry_equiv_pos_as_xyz
  1  'x, y, z'
loop_
 _atom_site_type_symbol
 _atom_site_label
 _atom_site_symmetry_multiplicity
 _atom_site_fract_x
 _atom_site_fract_y
 _atom_site_fract_z
 _atom_site_occupancy
  Mg  Mg0  1  0.19064677  0.19064677  0.81958006  1
  Mg  Mg1  1  0.37106671  0.18041994  0.37106671  1
  Mg  Mg2  1  0.18041994  0.37106671  0.37106671  1
  Mg  Mg3  1  0.00000000  0.62893329  0.80935323  1
  Mg  Mg4  1  0.62893329  0.00000000  0.80935323  1
  Mg  Mg5  1  0.38936726  0.38936726  0.71262987  1
  Mg  Mg6  1  0.61063274  0.32326262  0.00000000  1
  Mg  Mg7  1  0.32326262  0.61063274  0.00000000  1
  Mg  Mg8  1  0.00000000  0.32326262  0.61063274  1
  Mg  Mg9  1  0.28737013  0.67673738  0.67673738  1
  Mg  Mg10  1  0.67673738  0.28737013  0.67673738  1
  Mg  Mg11  1  0.32326262  0.00000000  0.61063274  1
  Mg  Mg12  1  0.61063274  0.00000000  0.32326262  1
  Mg  Mg13  1  0.00000000  0.61063274  0.32326262  1
  Mg  Mg14  1  0.71262987  0.38936726  0.38936726  1
  Mg  Mg15  1  0.38936726  0.71262987  0.38936726  1
  Mg  Mg16  1  0.67673738  0.67673738  0.28737013  1
  Mg  Mg17  1  0.37106671  0.37106671  0.18041994  1
  Mg  Mg18  1  0.62893329  0.80935323  0.00000000  1
  Mg  Mg19  1  0.80935323  0.62893329  0.00000000  1
  Mg  Mg20  1  0.00000000  0.80935323  0.62893329  1
  Mg  Mg21  1  0.81958006  0.19064677  0.19064677  1
  Mg  Mg22  1  0.19064677  0.81958006  0.19064677  1
  Mg  Mg23  1  0.80935323  0.00000000  0.62893329  1
  Er  Er24  1  0.00000000  0.00000000  0.37292458  1
  Er  Er25  1  0.00000000  0.37292458  0.00000000  1
  Er  Er26  1  0.37292458  0.00000000  0.00000000  1
  Er  Er27  1  0.62707542  0.62707542  0.62707542  1
  Er  Er28  1  0.00000000  0.00000000  0.00000000  1
