# generated using pymatgen
data_SrCeO3
_symmetry_space_group_name_H-M   'P 1'
_cell_length_a   6.04901633
_cell_length_b   6.20567472
_cell_length_c   8.66780980
_cell_angle_alpha   90.00000000
_cell_angle_beta   90.00000000
_cell_angle_gamma   90.00000000
_symmetry_Int_Tables_number   1
_chemical_formula_structural   SrCeO3
_chemical_formula_sum   'Sr4 Ce4 O12'
_cell_volume   325.37421811
_cell_formula_units_Z   4
loop_
 _symmetry_equiv_pos_site_id
 _symmetry_equiv_pos_as_xyz
  1  'x, y, z'
loop_
 _atom_site_type_symbol
 _atom_site_label
 _atom_site_symmetry_multiplicity
 _atom_site_fract_x
 _atom_site_fract_y
 _atom_site_fract_z
 _atom_site_occupancy
  Sr  Sr0  1  0.98848921  0.45411324  0.25000000  1
  Sr  Sr1  1  0.48848921  0.04588676  0.75000000  1
  Sr  Sr2  1  0.51151079  0.95411324  0.25000000  1
  Sr  Sr3  1  0.01151079  0.54588676  0.75000000  1
  Ce  Ce4  1  0.50000000  0.50000000  0.50000000  1
  Ce  Ce5  1  0.50000000  0.50000000  0.00000000  1
  Ce  Ce6  1  0.00000000  0.00000000  0.00000000  1
  Ce  Ce7  1  0.00000000  0.00000000  0.50000000  1
  O  O8  1  0.39434001  0.54428453  0.25000000  1
  O  O9  1  0.30011302  0.80002864  0.55650354  1
  O  O10  1  0.80011302  0.69997136  0.44349646  1
  O  O11  1  0.69988698  0.19997136  0.44349646  1
  O  O12  1  0.19988698  0.30002864  0.94349646  1
  O  O13  1  0.19988698  0.30002864  0.55650354  1
  O  O14  1  0.80011302  0.69997136  0.05650354  1
  O  O15  1  0.89434001  0.95571547  0.75000000  1
  O  O16  1  0.10565999  0.04428453  0.25000000  1
  O  O17  1  0.69988698  0.19997136  0.05650354  1
  O  O18  1  0.60565999  0.45571547  0.75000000  1
  O  O19  1  0.30011302  0.80002864  0.94349646  1
