# generated using pymatgen
data_HfPbO3
_symmetry_space_group_name_H-M   'P 1'
_cell_length_a   5.89738698
_cell_length_b   8.24181270
_cell_length_c   11.78521845
_cell_angle_alpha   90.00000000
_cell_angle_beta   90.00000000
_cell_angle_gamma   90.00000000
_symmetry_Int_Tables_number   1
_chemical_formula_structural   HfPbO3
_chemical_formula_sum   'Hf8 Pb8 O24'
_cell_volume   572.82241553
_cell_formula_units_Z   8
loop_
 _symmetry_equiv_pos_site_id
 _symmetry_equiv_pos_as_xyz
  1  'x, y, z'
loop_
 _atom_site_type_symbol
 _atom_site_label
 _atom_site_symmetry_multiplicity
 _atom_site_fract_x
 _atom_site_fract_y
 _atom_site_fract_z
 _atom_site_occupancy
  O  O0  1  0.50000000  0.73005878  0.50000000  1
  O  O1  1  0.00000000  0.26994122  0.00000000  1
  O  O2  1  0.50000000  0.26994122  0.50000000  1
  O  O3  1  0.00000000  0.73005878  0.00000000  1
  O  O4  1  0.50000000  0.70913449  0.00000000  1
  O  O5  1  0.00000000  0.29086551  0.50000000  1
  O  O6  1  0.50000000  0.29086551  0.00000000  1
  O  O7  1  0.00000000  0.70913449  0.50000000  1
  O  O8  1  0.47481707  0.77802187  0.75919013  1
  O  O9  1  0.97481707  0.22197813  0.74080987  1
  O  O10  1  0.52518293  0.77802187  0.24080987  1
  O  O11  1  0.02518293  0.22197813  0.25919013  1
  O  O12  1  0.52518293  0.22197813  0.24080987  1
  O  O13  1  0.02518293  0.77802187  0.25919013  1
  O  O14  1  0.47481707  0.22197813  0.75919013  1
  O  O15  1  0.97481707  0.77802187  0.74080987  1
  O  O16  1  0.70997332  0.00000000  0.90206636  1
  O  O17  1  0.20997332  0.00000000  0.59793364  1
  O  O18  1  0.29002668  0.00000000  0.09793364  1
  O  O19  1  0.79002668  0.00000000  0.40206636  1
  O  O20  1  0.73120604  0.50000000  0.84637835  1
  O  O21  1  0.23120604  0.50000000  0.65362165  1
  O  O22  1  0.26879396  0.50000000  0.15362165  1
  O  O23  1  0.76879396  0.50000000  0.34637835  1
  Hf  Hf24  1  0.25721282  0.74959648  0.62387495  1
  Hf  Hf25  1  0.75721282  0.25040352  0.87612505  1
  Hf  Hf26  1  0.74278718  0.74959648  0.37612505  1
  Hf  Hf27  1  0.24278718  0.25040352  0.12387495  1
  Hf  Hf28  1  0.74278718  0.25040352  0.37612505  1
  Hf  Hf29  1  0.24278718  0.74959648  0.12387495  1
  Hf  Hf30  1  0.25721282  0.25040352  0.62387495  1
  Hf  Hf31  1  0.75721282  0.74959648  0.87612505  1
  Pb  Pb32  1  0.20536509  0.50000000  0.37541813  1
  Pb  Pb33  1  0.70536509  0.50000000  0.12458187  1
  Pb  Pb34  1  0.79463491  0.50000000  0.62458187  1
  Pb  Pb35  1  0.29463491  0.50000000  0.87541813  1
  Pb  Pb36  1  0.21004514  0.00000000  0.37010165  1
  Pb  Pb37  1  0.71004514  0.00000000  0.12989835  1
  Pb  Pb38  1  0.78995486  0.00000000  0.62989835  1
  Pb  Pb39  1  0.28995486  0.00000000  0.87010165  1
