# generated using pymatgen
data_AgF2
_symmetry_space_group_name_H-M   'P 1'
_cell_length_a   5.32748306
_cell_length_b   5.73270893
_cell_length_c   5.96842781
_cell_angle_alpha   90.00000000
_cell_angle_beta   90.00000000
_cell_angle_gamma   90.00000000
_symmetry_Int_Tables_number   1
_chemical_formula_structural   AgF2
_chemical_formula_sum   'Ag4 F8'
_cell_volume   182.28121487
_cell_formula_units_Z   4
loop_
 _symmetry_equiv_pos_site_id
 _symmetry_equiv_pos_as_xyz
  1  'x, y, z'
loop_
 _atom_site_type_symbol
 _atom_site_label
 _atom_site_symmetry_multiplicity
 _atom_site_fract_x
 _atom_site_fract_y
 _atom_site_fract_z
 _atom_site_occupancy
  F  F0  1  0.69116640  0.30113834  0.61637841  1
  F  F1  1  0.19116640  0.19886166  0.38362159  1
  F  F2  1  0.30883360  0.80113834  0.88362159  1
  F  F3  1  0.80883360  0.69886166  0.11637841  1
  F  F4  1  0.19116640  0.30113834  0.88362159  1
  F  F5  1  0.69116640  0.19886166  0.11637841  1
  F  F6  1  0.80883360  0.80113834  0.61637841  1
  F  F7  1  0.30883360  0.69886166  0.38362159  1
  Ag  Ag8  1  0.50000000  0.00000000  0.50000000  1
  Ag  Ag9  1  0.00000000  0.50000000  0.50000000  1
  Ag  Ag10  1  0.50000000  0.50000000  0.00000000  1
  Ag  Ag11  1  0.00000000  0.00000000  0.00000000  1
