# generated using pymatgen
data_As14H6O31
_symmetry_space_group_name_H-M   'P 1'
_cell_length_a   5.14819181
_cell_length_b   12.21834361
_cell_length_c   12.21832662
_cell_angle_alpha   120.00007227
_cell_angle_beta   90.00018545
_cell_angle_gamma   89.99983981
_symmetry_Int_Tables_number   1
_chemical_formula_structural   As14H6O31
_chemical_formula_sum   'As14 H6 O31'
_cell_volume   665.59354241
_cell_formula_units_Z   1
loop_
 _symmetry_equiv_pos_site_id
 _symmetry_equiv_pos_as_xyz
  1  'x, y, z'
loop_
 _atom_site_type_symbol
 _atom_site_label
 _atom_site_symmetry_multiplicity
 _atom_site_fract_x
 _atom_site_fract_y
 _atom_site_fract_z
 _atom_site_occupancy
  As  As0  1  0.25238625  0.13934286  0.80560206  1
  As  As1  1  0.25237807  0.19439479  0.33373778  1
  As  As2  1  0.25237837  0.66625702  0.86065221  1
  As  As3  1  0.72895191  0.86524744  0.19682263  1
  As  As4  1  0.72894266  0.80317539  0.66841977  1
  As  As5  1  0.72895083  0.33157982  0.13475628  1
  As  As6  1  0.18713018  0.66666748  0.33333093  1
  As  As7  1  0.71327001  0.33333243  0.66666675  1
  As  As8  1  0.20778353  0.94444591  0.39788250  1
  As  As9  1  0.20777261  0.60211529  0.54655984  1
  As  As10  1  0.20778253  0.45343831  0.05555328  1
  As  As11  1  0.70566435  0.05226069  0.60543261  1
  As  As12  1  0.70566059  0.39456616  0.44682962  1
  As  As13  1  0.70566271  0.55317116  0.94773863  1
  H  H14  1  0.52322576  0.06073772  0.90750010  1
  H  H15  1  0.52322605  0.09249942  0.15323818  1
  H  H16  1  0.52320917  0.84676406  0.93926227  1
  H  H17  1  0.02806861  0.92711595  0.08647567  1
  H  H18  1  0.02806607  0.91351012  0.84063263  1
  H  H19  1  0.02806903  0.15936447  0.07287951  1
  O  O20  1  0.88231856  0.42777900  0.81299537  1
  O  O21  1  0.88232667  0.18700120  0.61478434  1
  O  O22  1  0.88232256  0.38521349  0.57221895  1
  O  O23  1  0.38906394  0.56776912  0.19015955  1
  O  O24  1  0.38906619  0.80983936  0.37760599  1
  O  O25  1  0.38905762  0.62239134  0.43222914  1
  O  O26  1  0.33543736  0.07250763  0.90325642  1
  O  O27  1  0.33543755  0.09674285  0.16924936  1
  O  O28  1  0.33541826  0.83074819  0.92749079  1
  O  O29  1  0.83918299  0.92058977  0.09288198  1
  O  O30  1  0.83918038  0.90711895  0.82770144  1
  O  O31  1  0.83918317  0.17229686  0.07941360  1
  O  O32  1  0.47184236  0.04879843  0.49918916  1
  O  O33  1  0.47184108  0.50081197  0.54960793  1
  O  O34  1  0.47184155  0.45039354  0.95120065  1
  O  O35  1  0.97989498  0.95303285  0.51133587  1
  O  O36  1  0.97989297  0.48866025  0.44169538  1
  O  O37  1  0.97989673  0.55830022  0.04696526  1
  O  O38  1  0.14658205  0.29379511  0.93534967  1
  O  O39  1  0.14657650  0.06464659  0.35844344  1
  O  O40  1  0.14657376  0.64155460  0.70619990  1
  O  O41  1  0.62157078  0.70757585  0.07640637  1
  O  O42  1  0.62155883  0.92359344  0.63116455  1
  O  O43  1  0.62156231  0.36882900  0.29242618  1
  O  O44  1  0.03513726  0.75078021  0.58186027  1
  O  O45  1  0.03515564  0.41813314  0.16891795  1
  O  O46  1  0.03514856  0.83108262  0.24921723  1
  O  O47  1  0.58242136  0.23456044  0.39831926  1
  O  O48  1  0.58242494  0.60168257  0.83624183  1
  O  O49  1  0.58242915  0.16375656  0.76543858  1
  O  O50  1  0.39507464  0.33332833  0.66666034  1
