# generated using pymatgen
data_Y3(Co2Sn)4
_symmetry_space_group_name_H-M   'P 1'
_cell_length_a   8.92467339
_cell_length_b   8.92467340
_cell_length_c   7.44837232
_cell_angle_alpha   90.00000000
_cell_angle_beta   90.00000000
_cell_angle_gamma   120.00000002
_symmetry_Int_Tables_number   1
_chemical_formula_structural   Y3(Co2Sn)4
_chemical_formula_sum   'Y6 Co16 Sn8'
_cell_volume   513.77938247
_cell_formula_units_Z   2
loop_
 _symmetry_equiv_pos_site_id
 _symmetry_equiv_pos_as_xyz
  1  'x, y, z'
loop_
 _atom_site_type_symbol
 _atom_site_label
 _atom_site_symmetry_multiplicity
 _atom_site_fract_x
 _atom_site_fract_y
 _atom_site_fract_z
 _atom_site_occupancy
  Co  Co0  1  0.09743158  0.19486316  0.47602021  1
  Co  Co1  1  0.00000000  0.00000000  0.22149555  1
  Co  Co2  1  0.00000000  0.00000000  0.72149555  1
  Co  Co3  1  0.66666667  0.33333333  0.29524390  1
  Co  Co4  1  0.33333333  0.66666667  0.79524390  1
  Co  Co5  1  0.90256842  0.09743158  0.97602021  1
  Co  Co6  1  0.15880735  0.84119265  0.16928505  1
  Co  Co7  1  0.31761469  0.15880735  0.66928505  1
  Co  Co8  1  0.84119265  0.68238531  0.66928505  1
  Co  Co9  1  0.15880735  0.31761469  0.16928505  1
  Co  Co10  1  0.68238531  0.84119265  0.16928505  1
  Co  Co11  1  0.84119265  0.15880735  0.66928505  1
  Co  Co12  1  0.09743158  0.90256842  0.47602021  1
  Co  Co13  1  0.19486316  0.09743158  0.97602021  1
  Co  Co14  1  0.90256842  0.80513684  0.97602021  1
  Co  Co15  1  0.80513684  0.90256842  0.47602021  1
  Y  Y16  1  0.52874422  0.47125578  0.00037953  1
  Y  Y17  1  0.47125578  0.52874422  0.50037953  1
  Y  Y18  1  0.94251155  0.47125578  0.00037953  1
  Y  Y19  1  0.52874422  0.05748845  0.00037953  1
  Y  Y20  1  0.47125578  0.94251155  0.50037953  1
  Y  Y21  1  0.05748845  0.52874422  0.50037953  1
  Sn  Sn22  1  0.17144654  0.82855346  0.79562890  1
  Sn  Sn23  1  0.34289307  0.17144654  0.29562890  1
  Sn  Sn24  1  0.82855346  0.65710693  0.29562890  1
  Sn  Sn25  1  0.17144654  0.34289307  0.79562890  1
  Sn  Sn26  1  0.65710693  0.82855346  0.79562890  1
  Sn  Sn27  1  0.82855346  0.17144654  0.29562890  1
  Sn  Sn28  1  0.33333333  0.66666667  0.16861946  1
  Sn  Sn29  1  0.66666667  0.33333333  0.66861946  1
