# generated using pymatgen
data_NdSnPd
_symmetry_space_group_name_H-M   'P 1'
_cell_length_a   4.71775664
_cell_length_b   7.52856631
_cell_length_c   8.06184590
_cell_angle_alpha   90.00000000
_cell_angle_beta   90.00000000
_cell_angle_gamma   90.00000000
_symmetry_Int_Tables_number   1
_chemical_formula_structural   NdSnPd
_chemical_formula_sum   'Nd4 Sn4 Pd4'
_cell_volume   286.34018878
_cell_formula_units_Z   4
loop_
 _symmetry_equiv_pos_site_id
 _symmetry_equiv_pos_as_xyz
  1  'x, y, z'
loop_
 _atom_site_type_symbol
 _atom_site_label
 _atom_site_symmetry_multiplicity
 _atom_site_fract_x
 _atom_site_fract_y
 _atom_site_fract_z
 _atom_site_occupancy
  Pd  Pd0  1  0.75000000  0.29945770  0.08523422  1
  Pd  Pd1  1  0.25000000  0.20054230  0.58523422  1
  Pd  Pd2  1  0.75000000  0.79945770  0.41476578  1
  Pd  Pd3  1  0.25000000  0.70054230  0.91476578  1
  Sn  Sn4  1  0.25000000  0.81160106  0.58761462  1
  Sn  Sn5  1  0.75000000  0.68839894  0.08761462  1
  Sn  Sn6  1  0.25000000  0.31160106  0.91238538  1
  Sn  Sn7  1  0.75000000  0.18839894  0.41238538  1
  Nd  Nd8  1  0.25000000  0.48785132  0.29834697  1
  Nd  Nd9  1  0.75000000  0.51214868  0.70165303  1
  Nd  Nd10  1  0.25000000  0.98785132  0.20165303  1
  Nd  Nd11  1  0.75000000  0.01214868  0.79834697  1
