# generated using pymatgen
data_CaAl4Si2(HO6)2
_symmetry_space_group_name_H-M   'P 1'
_cell_length_a   5.15675008
_cell_length_b   5.15675008
_cell_length_c   19.41433003
_cell_angle_alpha   92.80169255
_cell_angle_beta   92.80169256
_cell_angle_gamma   120.04131438
_symmetry_Int_Tables_number   1
_chemical_formula_structural   CaAl4Si2(HO6)2
_chemical_formula_sum   'Ca2 Al8 Si4 H4 O24'
_cell_volume   444.77097457
_cell_formula_units_Z   2
loop_
 _symmetry_equiv_pos_site_id
 _symmetry_equiv_pos_as_xyz
  1  'x, y, z'
loop_
 _atom_site_type_symbol
 _atom_site_label
 _atom_site_symmetry_multiplicity
 _atom_site_fract_x
 _atom_site_fract_y
 _atom_site_fract_z
 _atom_site_occupancy
  H  H0  1  0.70807574  0.01772708  0.56190100  1
  H  H1  1  0.01772708  0.70807574  0.06190100  1
  H  H2  1  0.29018248  0.97655820  0.43873447  1
  H  H3  1  0.97655820  0.29018248  0.93873447  1
  O  O4  1  0.89034906  0.01519047  0.55261496  1
  O  O5  1  0.01519047  0.89034906  0.05261496  1
  O  O6  1  0.10875011  0.97843216  0.44916341  1
  O  O7  1  0.97843216  0.10875011  0.94916341  1
  O  O8  1  0.86956324  0.66388545  0.68072932  1
  O  O9  1  0.66388545  0.86956324  0.18072932  1
  O  O10  1  0.10542926  0.32022001  0.32140275  1
  O  O11  1  0.32022001  0.10542926  0.82140275  1
  O  O12  1  0.50376700  0.07316986  0.66963485  1
  O  O13  1  0.07316986  0.50376700  0.16963485  1
  O  O14  1  0.58825275  0.48471882  0.94855560  1
  O  O15  1  0.48471882  0.58825275  0.44855560  1
  O  O16  1  0.39647484  0.51631262  0.06138759  1
  O  O17  1  0.51631262  0.39647484  0.56138759  1
  O  O18  1  0.35327651  0.86339642  0.94046715  1
  O  O19  1  0.86339642  0.35327651  0.44046715  1
  O  O20  1  0.62745777  0.12683764  0.05328660  1
  O  O21  1  0.12683764  0.62745777  0.55328660  1
  O  O22  1  0.53872271  0.73722755  0.82236408  1
  O  O23  1  0.73722755  0.53872271  0.32236408  1
  O  O24  1  0.44538228  0.27959967  0.17926333  1
  O  O25  1  0.27959967  0.44538228  0.67926333  1
  O  O26  1  0.95268911  0.51267636  0.83235935  1
  O  O27  1  0.51267636  0.95268911  0.33235935  1
  Al  Al28  1  0.19513896  0.70860236  0.64243099  1
  Al  Al29  1  0.70860236  0.19513896  0.14243099  1
  Al  Al30  1  0.33249890  0.16793818  0.00100307  1
  Al  Al31  1  0.16793818  0.33249890  0.50100307  1
  Al  Al32  1  0.66445128  0.83432521  0.00086752  1
  Al  Al33  1  0.83432521  0.66445128  0.50086752  1
  Al  Al34  1  0.46698689  0.60811851  0.35956185  1
  Al  Al35  1  0.60811851  0.46698689  0.85956185  1
  Si  Si36  1  0.39155401  0.53819381  0.14572097  1
  Si  Si37  1  0.53819381  0.39155401  0.64572097  1
  Si  Si38  1  0.28892038  0.80593290  0.85611451  1
  Si  Si39  1  0.80593290  0.28892038  0.35611451  1
  Ca  Ca40  1  0.09405000  0.90756342  0.25083661  1
  Ca  Ca41  1  0.90756342  0.09405000  0.75083661  1
