# generated using pymatgen
data_Al2P2H9NO11
_symmetry_space_group_name_H-M   'P 1'
_cell_length_a   9.66420818
_cell_length_b   9.64770658
_cell_length_c   9.73756816
_cell_angle_alpha   103.72479182
_cell_angle_beta   90.00000000
_cell_angle_gamma   90.00000000
_symmetry_Int_Tables_number   1
_chemical_formula_structural   Al2P2H9NO11
_chemical_formula_sum   'Al8 P8 H36 N4 O44'
_cell_volume   881.98212631
_cell_formula_units_Z   4
loop_
 _symmetry_equiv_pos_site_id
 _symmetry_equiv_pos_as_xyz
  1  'x, y, z'
loop_
 _atom_site_type_symbol
 _atom_site_label
 _atom_site_symmetry_multiplicity
 _atom_site_fract_x
 _atom_site_fract_y
 _atom_site_fract_z
 _atom_site_occupancy
  H  H0  1  0.36108306  0.41847489  0.85765480  1
  H  H1  1  0.86108306  0.08152511  0.64234520  1
  H  H2  1  0.63891694  0.58152511  0.14234520  1
  H  H3  1  0.13891694  0.91847489  0.35765480  1
  H  H4  1  0.22207280  0.51007703  0.83170469  1
  H  H5  1  0.72207280  0.98992297  0.66829531  1
  H  H6  1  0.77792720  0.48992297  0.16829531  1
  H  H7  1  0.27792720  0.01007703  0.33170469  1
  H  H8  1  0.27035312  0.50065133  0.99878888  1
  H  H9  1  0.77035312  0.99934867  0.50121112  1
  H  H10  1  0.72964688  0.49934867  0.00121112  1
  H  H11  1  0.22964688  0.00065133  0.49878888  1
  H  H12  1  0.36520100  0.60174840  0.91320178  1
  H  H13  1  0.86520100  0.89825160  0.58679822  1
  H  H14  1  0.63479900  0.39825160  0.08679822  1
  H  H15  1  0.13479900  0.10174840  0.41320178  1
  H  H16  1  0.04016312  0.90327637  0.81088910  1
  H  H17  1  0.54016312  0.59672363  0.68911090  1
  H  H18  1  0.95983688  0.09672363  0.18911090  1
  H  H19  1  0.45983688  0.40327637  0.31088910  1
  H  H20  1  0.13410629  0.76456203  0.11390070  1
  H  H21  1  0.63410629  0.73543797  0.38609930  1
  H  H22  1  0.86589371  0.23543797  0.88609930  1
  H  H23  1  0.36589371  0.26456203  0.61390070  1
  H  H24  1  0.08560503  0.76620438  0.95866022  1
  H  H25  1  0.20017764  0.44105278  0.48020395  1
  H  H26  1  0.91439497  0.23379562  0.04133978  1
  H  H27  1  0.41439497  0.26620438  0.45866022  1
  H  H28  1  0.98719964  0.06183007  0.89664437  1
  H  H29  1  0.48719964  0.43816993  0.60335563  1
  H  H30  1  0.01280036  0.93816993  0.10335563  1
  H  H31  1  0.51280036  0.56183007  0.39664437  1
  H  H32  1  0.29982236  0.94105278  0.98020395  1
  H  H33  1  0.79982236  0.55894722  0.51979605  1
  H  H34  1  0.70017764  0.05894722  0.01979605  1
  H  H35  1  0.58560503  0.73379562  0.54133978  1
  N  N36  1  0.80524094  0.98991168  0.60002144  1
  N  N37  1  0.69475906  0.48991168  0.10002144  1
  N  N38  1  0.19475906  0.01008832  0.39997856  1
  N  N39  1  0.30524094  0.51008832  0.89997856  1
  O  O40  1  0.44937853  0.77751903  0.70767807  1
  O  O41  1  0.41333644  0.95852915  0.20320301  1
  O  O42  1  0.08666356  0.45852915  0.70320301  1
  O  O43  1  0.58666356  0.04147085  0.79679699  1
  O  O44  1  0.22798348  0.45554433  0.16467145  1
  O  O45  1  0.72798348  0.04445567  0.33532855  1
  O  O46  1  0.77201652  0.54445567  0.83532855  1
  O  O47  1  0.27201652  0.95554433  0.66467145  1
  O  O48  1  0.17698529  0.24050819  0.97520925  1
  O  O49  1  0.67698529  0.25949181  0.52479075  1
  O  O50  1  0.82301471  0.75949181  0.02479075  1
  O  O51  1  0.32301471  0.74050819  0.47520925  1
  O  O52  1  0.52441467  0.23748701  0.01378676  1
  O  O53  1  0.80281810  0.28907321  0.30460009  1
  O  O54  1  0.69718190  0.78907321  0.80460009  1
  O  O55  1  0.19718190  0.71092679  0.69539991  1
  O  O56  1  0.05062147  0.27751903  0.20767807  1
  O  O57  1  0.55062147  0.22248097  0.29232193  1
  O  O58  1  0.94937853  0.72248097  0.79232193  1
  O  O59  1  0.91333644  0.54147085  0.29679699  1
  O  O60  1  0.13482827  0.50356743  0.44563657  1
  O  O61  1  0.63482827  0.99643257  0.05436343  1
  O  O62  1  0.86517173  0.49643257  0.55436343  1
  O  O63  1  0.36517173  0.00356743  0.94563657  1
  O  O64  1  0.63267303  0.30389922  0.80554861  1
  O  O65  1  0.13267303  0.19610078  0.69445139  1
  O  O66  1  0.36732697  0.69610078  0.19445139  1
  O  O67  1  0.86732697  0.80389922  0.30554861  1
  O  O68  1  0.43084400  0.50227886  0.35224356  1
  O  O69  1  0.93084400  0.99772114  0.14775644  1
  O  O70  1  0.56915600  0.49772114  0.64775644  1
  O  O71  1  0.06915600  0.00227886  0.85224356  1
  O  O72  1  0.38906905  0.21222014  0.78584059  1
  O  O73  1  0.88906905  0.28777986  0.71415941  1
  O  O74  1  0.61093095  0.78777986  0.21415941  1
  O  O75  1  0.11093095  0.71222014  0.28584059  1
  O  O76  1  0.36564066  0.32224726  0.54221025  1
  O  O77  1  0.86564066  0.17775274  0.95778975  1
  O  O78  1  0.63435934  0.67775274  0.45778975  1
  O  O79  1  0.13435934  0.82224726  0.04221025  1
  O  O80  1  0.02441467  0.26251299  0.48621324  1
  O  O81  1  0.47558533  0.76251299  0.98621324  1
  O  O82  1  0.97558533  0.73748701  0.51378676  1
  O  O83  1  0.30281810  0.21092679  0.19539991  1
  Al  Al84  1  0.23066698  0.10781783  0.81482030  1
  Al  Al85  1  0.73066698  0.39218217  0.68517970  1
  Al  Al86  1  0.76933302  0.89218217  0.18517970  1
  Al  Al87  1  0.26933302  0.60781783  0.31482030  1
  Al  Al88  1  0.46404047  0.11500248  0.12775856  1
  Al  Al89  1  0.96404047  0.38499752  0.37224144  1
  Al  Al90  1  0.53595953  0.88499752  0.87224144  1
  Al  Al91  1  0.03595953  0.61500248  0.62775856  1
  P  P92  1  0.30807896  0.79489039  0.63544306  1
  P  P93  1  0.80807896  0.70510961  0.86455694  1
  P  P94  1  0.69192104  0.20510961  0.36455694  1
  P  P95  1  0.19192104  0.29489039  0.13544306  1
  P  P96  1  0.53550495  0.19805927  0.84889308  1
  P  P97  1  0.03550495  0.30194073  0.65110692  1
  P  P98  1  0.46449505  0.80194073  0.15110692  1
  P  P99  1  0.96449505  0.69805927  0.34889308  1
