# generated using pymatgen
data_K2LiAlH6
_symmetry_space_group_name_H-M   'P 1'
_cell_length_a   5.52610344
_cell_length_b   5.52824898
_cell_length_c   7.82126390
_cell_angle_alpha   90.00000000
_cell_angle_beta   90.00969695
_cell_angle_gamma   90.00000000
_symmetry_Int_Tables_number   1
_chemical_formula_structural   K2LiAlH6
_chemical_formula_sum   'K4 Li2 Al2 H12'
_cell_volume   238.93707246
_cell_formula_units_Z   2
loop_
 _symmetry_equiv_pos_site_id
 _symmetry_equiv_pos_as_xyz
  1  'x, y, z'
loop_
 _atom_site_type_symbol
 _atom_site_label
 _atom_site_symmetry_multiplicity
 _atom_site_fract_x
 _atom_site_fract_y
 _atom_site_fract_z
 _atom_site_occupancy
  H  H0  1  0.72890817  0.27115478  0.50000834  1
  H  H1  1  0.77109183  0.77115478  0.99999166  1
  H  H2  1  0.27109183  0.72884522  0.49999166  1
  H  H3  1  0.22890817  0.22884522  0.00000834  1
  H  H4  1  0.77109183  0.22884522  0.99999166  1
  H  H5  1  0.72890817  0.72884522  0.50000834  1
  H  H6  1  0.22890817  0.77115478  0.00000834  1
  H  H7  1  0.27109183  0.27115478  0.49999166  1
  H  H8  1  0.00001676  0.00000000  0.22879242  1
  H  H9  1  0.49998324  0.50000000  0.27120758  1
  H  H10  1  0.99998324  0.00000000  0.77120758  1
  H  H11  1  0.50001676  0.50000000  0.72879242  1
  Li  Li12  1  0.00000000  0.00000000  0.50000000  1
  Li  Li13  1  0.50000000  0.50000000  0.00000000  1
  Al  Al14  1  0.00000000  0.00000000  0.00000000  1
  Al  Al15  1  0.50000000  0.50000000  0.50000000  1
  K  K16  1  0.49998685  0.00000000  0.74997803  1
  K  K17  1  0.00001317  0.50000000  0.75002198  1
  K  K18  1  0.50001315  0.00000000  0.25002197  1
  K  K19  1  0.99998683  0.50000000  0.24997802  1
