# generated using pymatgen
data_HCNO
_symmetry_space_group_name_H-M   'P 1'
_cell_length_a   6.80776918
_cell_length_b   7.47560265
_cell_length_c   6.82371636
_cell_angle_alpha   72.79454470
_cell_angle_beta   60.07727800
_cell_angle_gamma   62.91367226
_symmetry_Int_Tables_number   1
_chemical_formula_structural   HCNO
_chemical_formula_sum   'H6 C6 N6 O6'
_cell_volume   266.90753664
_cell_formula_units_Z   6
loop_
 _symmetry_equiv_pos_site_id
 _symmetry_equiv_pos_as_xyz
  1  'x, y, z'
loop_
 _atom_site_type_symbol
 _atom_site_label
 _atom_site_symmetry_multiplicity
 _atom_site_fract_x
 _atom_site_fract_y
 _atom_site_fract_z
 _atom_site_occupancy
  H  H0  1  0.95548381  0.26345059  0.59658137  1
  H  H1  1  0.61173864  0.25000000  0.25000000  1
  H  H2  1  0.68448423  0.76345059  0.09658137  1
  H  H3  1  0.04451619  0.73654941  0.40341863  1
  H  H4  1  0.31551577  0.23654941  0.90341863  1
  H  H5  1  0.38826136  0.75000000  0.75000000  1
  C  C6  1  0.96380374  0.24249841  0.04378175  1
  C  C7  1  0.24991609  0.74249841  0.54378175  1
  C  C8  1  0.83031768  0.75000000  0.75000000  1
  C  C9  1  0.16968232  0.25000000  0.25000000  1
  C  C10  1  0.75008391  0.25750159  0.45621825  1
  C  C11  1  0.03619626  0.75750159  0.95621825  1
  N  N12  1  0.16207538  0.24167691  0.05411695  1
  N  N13  1  0.23650502  0.75000000  0.75000000  1
  N  N14  1  0.76349498  0.25000000  0.25000000  1
  N  N15  1  0.83792462  0.75832309  0.94588305  1
  N  N16  1  0.04213077  0.74167691  0.55411695  1
  N  N17  1  0.95786923  0.25832309  0.44588305  1
  O  O18  1  0.56755409  0.26229047  0.63624884  1
  O  O19  1  0.96609340  0.23770953  0.86375116  1
  O  O20  1  0.43244591  0.73770953  0.36375116  1
  O  O21  1  0.03390660  0.76229047  0.13624884  1
  O  O22  1  0.35021617  0.25000000  0.25000000  1
  O  O23  1  0.64978383  0.75000000  0.75000000  1
