# generated using pymatgen
data_MgH14SO11
_symmetry_space_group_name_H-M   'P 1'
_cell_length_a   6.80479132
_cell_length_b   11.99295786
_cell_length_c   12.08126514
_cell_angle_alpha   90.00000000
_cell_angle_beta   90.00000000
_cell_angle_gamma   90.00000000
_symmetry_Int_Tables_number   1
_chemical_formula_structural   MgH14SO11
_chemical_formula_sum   'Mg4 H56 S4 O44'
_cell_volume   985.94692014
_cell_formula_units_Z   4
loop_
 _symmetry_equiv_pos_site_id
 _symmetry_equiv_pos_as_xyz
  1  'x, y, z'
loop_
 _atom_site_type_symbol
 _atom_site_label
 _atom_site_symmetry_multiplicity
 _atom_site_fract_x
 _atom_site_fract_y
 _atom_site_fract_z
 _atom_site_occupancy
  H  H0  1  0.48200221  0.51608230  0.86786705  1
  H  H1  1  0.98200221  0.98391770  0.13213295  1
  H  H2  1  0.51799779  0.01608230  0.63213295  1
  H  H3  1  0.01799779  0.48391770  0.36786705  1
  H  H4  1  0.53847671  0.56522734  0.98508726  1
  H  H5  1  0.03847671  0.93477266  0.01491274  1
  H  H6  1  0.46152329  0.06522734  0.51491274  1
  H  H7  1  0.96152329  0.43477266  0.48508726  1
  H  H8  1  0.10423528  0.59642531  0.50115394  1
  H  H9  1  0.60423528  0.90357469  0.49884606  1
  H  H10  1  0.89576472  0.09642531  0.99884606  1
  H  H11  1  0.39576472  0.40357469  0.00115394  1
  H  H12  1  0.17461368  0.72148422  0.53080802  1
  H  H13  1  0.67461368  0.77851578  0.46919198  1
  H  H14  1  0.82538632  0.22148422  0.96919198  1
  H  H15  1  0.32538632  0.27851578  0.03080802  1
  H  H16  1  0.73335003  0.58235248  0.44230234  1
  H  H17  1  0.23335003  0.91764752  0.55769766  1
  H  H18  1  0.26664997  0.08235248  0.05769766  1
  H  H19  1  0.76664997  0.41764752  0.94230234  1
  H  H20  1  0.53462309  0.63684162  0.39219752  1
  H  H21  1  0.03462309  0.86315838  0.60780248  1
  H  H22  1  0.46537691  0.13684162  0.10780248  1
  H  H23  1  0.96537691  0.36315838  0.89219752  1
  H  H24  1  0.47787936  0.39480952  0.47249174  1
  H  H25  1  0.97787936  0.10519048  0.52750826  1
  H  H26  1  0.39799873  0.76699146  0.72520712  1
  H  H27  1  0.52212064  0.89480952  0.02750826  1
  H  H28  1  0.30050692  0.37884425  0.55544860  1
  H  H29  1  0.80050692  0.12115575  0.44455140  1
  H  H30  1  0.69949308  0.87884425  0.94455140  1
  H  H31  1  0.19949308  0.62115575  0.05544860  1
  H  H32  1  0.75889973  0.45361306  0.68515115  1
  H  H33  1  0.25889973  0.04638694  0.31484885  1
  H  H34  1  0.24110027  0.95361306  0.81484885  1
  H  H35  1  0.74110027  0.54638694  0.18515115  1
  H  H36  1  0.81110251  0.57745904  0.72646747  1
  H  H37  1  0.31110251  0.92254096  0.27353253  1
  H  H38  1  0.18889749  0.07745904  0.77353253  1
  H  H39  1  0.68889749  0.42254096  0.22646747  1
  H  H40  1  0.24086443  0.45226780  0.75481516  1
  H  H41  1  0.74086443  0.04773220  0.24518484  1
  H  H42  1  0.75913557  0.95226780  0.74518484  1
  H  H43  1  0.25913557  0.54773220  0.25481516  1
  H  H44  1  0.19578085  0.57946239  0.77542943  1
  H  H45  1  0.69578085  0.92053761  0.22457057  1
  H  H46  1  0.80421915  0.07946239  0.72457057  1
  H  H47  1  0.30421915  0.42053761  0.27542943  1
  H  H48  1  0.63086692  0.76533299  0.70071679  1
  H  H49  1  0.13086692  0.73466701  0.29928321  1
  H  H50  1  0.36913308  0.26533299  0.79928321  1
  H  H51  1  0.86913308  0.23466701  0.20071679  1
  H  H52  1  0.10200127  0.23300854  0.22520712  1
  H  H53  1  0.60200127  0.26699146  0.77479288  1
  H  H54  1  0.89799873  0.73300854  0.27479288  1
  H  H55  1  0.02212064  0.60519048  0.97249174  1
  O  O56  1  0.55303838  0.49858902  0.93744030  1
  O  O57  1  0.05303838  0.00141098  0.06255970  1
  O  O58  1  0.44696162  0.99858902  0.56255970  1
  O  O59  1  0.94696162  0.50141098  0.43744030  1
  O  O60  1  0.20647533  0.64169417  0.53928729  1
  O  O61  1  0.70647533  0.85830583  0.46071271  1
  O  O62  1  0.79352467  0.14169417  0.96071271  1
  O  O63  1  0.29352467  0.35830583  0.03928729  1
  O  O64  1  0.61516601  0.62860415  0.45983951  1
  O  O65  1  0.11516601  0.87139585  0.54016049  1
  O  O66  1  0.38483399  0.12860415  0.04016049  1
  O  O67  1  0.88483399  0.37139585  0.95983951  1
  O  O68  1  0.42358279  0.42193945  0.54303919  1
  O  O69  1  0.92358279  0.07806055  0.45696081  1
  O  O70  1  0.57641721  0.92193945  0.95696081  1
  O  O71  1  0.07641721  0.57806055  0.04303919  1
  O  O72  1  0.72818298  0.53423639  0.67528169  1
  O  O73  1  0.22818298  0.96576361  0.32471831  1
  O  O74  1  0.27181702  0.03423639  0.82471831  1
  O  O75  1  0.77181702  0.46576361  0.17528169  1
  O  O76  1  0.30329905  0.52759923  0.75323483  1
  O  O77  1  0.80329905  0.97240077  0.24676517  1
  O  O78  1  0.69670095  0.02759923  0.74676517  1
  O  O79  1  0.19670095  0.47240077  0.25323483  1
  O  O80  1  0.50178717  0.73654423  0.67615122  1
  O  O81  1  0.00178717  0.76345577  0.32384878  1
  O  O82  1  0.49821283  0.23654423  0.82384878  1
  O  O83  1  0.99821283  0.26345577  0.17615122  1
  O  O84  1  0.13296152  0.32227212  0.77226658  1
  O  O85  1  0.63296152  0.17772788  0.22773342  1
  O  O86  1  0.86703848  0.82227212  0.72773342  1
  O  O87  1  0.36703848  0.67772788  0.27226658  1
  O  O88  1  0.79826852  0.31605229  0.70138809  1
  O  O89  1  0.29826852  0.18394771  0.29861191  1
  O  O90  1  0.20173148  0.81605229  0.79861191  1
  O  O91  1  0.70173148  0.68394771  0.20138809  1
  O  O92  1  0.01316523  0.15428661  0.67837731  1
  O  O93  1  0.51316523  0.34571339  0.32162269  1
  O  O94  1  0.98683477  0.65428661  0.82162269  1
  O  O95  1  0.48683477  0.84571339  0.17837731  1
  O  O96  1  0.07219139  0.32469678  0.57244089  1
  O  O97  1  0.57219139  0.17530322  0.42755911  1
  O  O98  1  0.92780861  0.82469678  0.92755911  1
  O  O99  1  0.42780861  0.67530322  0.07244089  1
  Mg  Mg100  1  0.03766716  0.41932228  0.10676498  1
  Mg  Mg101  1  0.53766716  0.08067772  0.89323502  1
  Mg  Mg102  1  0.96233284  0.91932228  0.39323502  1
  Mg  Mg103  1  0.46233284  0.58067772  0.60676498  1
  S  S104  1  0.49652356  0.72080204  0.17983833  1
  S  S105  1  0.99652356  0.77919796  0.82016167  1
  S  S106  1  0.50347644  0.22080204  0.32016167  1
  S  S107  1  0.00347644  0.27919796  0.67983833  1
