# generated using pymatgen
data_MgTe(H4O3)3
_symmetry_space_group_name_H-M   'P 1'
_cell_length_a   6.02948119
_cell_length_b   6.02948119
_cell_length_c   6.02948118
_cell_angle_alpha   97.22771246
_cell_angle_beta   97.22771249
_cell_angle_gamma   97.22771250
_symmetry_Int_Tables_number   1
_chemical_formula_structural   MgTe(H4O3)3
_chemical_formula_sum   'Mg1 Te1 H12 O9'
_cell_volume   213.48404460
_cell_formula_units_Z   1
loop_
 _symmetry_equiv_pos_site_id
 _symmetry_equiv_pos_as_xyz
  1  'x, y, z'
loop_
 _atom_site_type_symbol
 _atom_site_label
 _atom_site_symmetry_multiplicity
 _atom_site_fract_x
 _atom_site_fract_y
 _atom_site_fract_z
 _atom_site_occupancy
  H  H0  1  0.17364123  0.81435224  0.38461427  1
  H  H1  1  0.81435224  0.38461427  0.17364123  1
  H  H2  1  0.38461427  0.17364123  0.81435224  1
  H  H3  1  0.27996666  0.07287361  0.42108795  1
  H  H4  1  0.07287361  0.42108795  0.27996666  1
  H  H5  1  0.42108795  0.27996666  0.07287361  1
  H  H6  1  0.73719917  0.12740229  0.63796840  1
  H  H7  1  0.12740229  0.63796840  0.73719917  1
  H  H8  1  0.63796840  0.73719917  0.12740229  1
  H  H9  1  0.95720339  0.03754353  0.54797575  1
  H  H10  1  0.03754353  0.54797575  0.95720339  1
  H  H11  1  0.54797575  0.95720339  0.03754353  1
  O  O12  1  0.14116917  0.96514257  0.34303508  1
  O  O13  1  0.96514257  0.34303508  0.14116917  1
  O  O14  1  0.34303508  0.14116917  0.96514257  1
  O  O15  1  0.87951895  0.06287870  0.68258034  1
  O  O16  1  0.06287870  0.68258034  0.87951895  1
  O  O17  1  0.68258034  0.87951895  0.06287870  1
  O  O18  1  0.49420203  0.23050049  0.58244502  1
  O  O19  1  0.23050049  0.58244502  0.49420203  1
  O  O20  1  0.58244502  0.49420203  0.23050049  1
  Mg  Mg21  1  0.00653344  0.00653344  0.00653344  1
  Te  Te22  1  0.53826570  0.53826570  0.53826570  1
