# generated using pymatgen
data_Hg3AsClO4
_symmetry_space_group_name_H-M   'P 1'
_cell_length_a   8.64546900
_cell_length_b   8.64546900
_cell_length_c   8.64546900
_cell_angle_alpha   90.00000000
_cell_angle_beta   90.00000000
_cell_angle_gamma   90.00000000
_symmetry_Int_Tables_number   1
_chemical_formula_structural   Hg3AsClO4
_chemical_formula_sum   'Hg12 As4 Cl4 O16'
_cell_volume   646.19809542
_cell_formula_units_Z   4
loop_
 _symmetry_equiv_pos_site_id
 _symmetry_equiv_pos_as_xyz
  1  'x, y, z'
loop_
 _atom_site_type_symbol
 _atom_site_label
 _atom_site_symmetry_multiplicity
 _atom_site_fract_x
 _atom_site_fract_y
 _atom_site_fract_z
 _atom_site_occupancy
  O  O0  1  0.39950603  0.89899756  0.37219566  1
  O  O1  1  0.89950603  0.60100244  0.62780434  1
  O  O2  1  0.60049397  0.39899756  0.12780434  1
  O  O3  1  0.60100244  0.62780434  0.89950603  1
  O  O4  1  0.12780434  0.60049397  0.39899756  1
  O  O5  1  0.62780434  0.89950603  0.60100244  1
  O  O6  1  0.89899756  0.37219566  0.39950603  1
  O  O7  1  0.37219566  0.39950603  0.89899756  1
  O  O8  1  0.39899756  0.12780434  0.60049397  1
  O  O9  1  0.10049397  0.10100244  0.87219566  1
  O  O10  1  0.87219566  0.10049397  0.10100244  1
  O  O11  1  0.13429628  0.36570372  0.63429628  1
  O  O12  1  0.36570372  0.63429628  0.13429628  1
  O  O13  1  0.63429628  0.13429628  0.36570372  1
  O  O14  1  0.86570372  0.86570372  0.86570372  1
  O  O15  1  0.10100244  0.87219566  0.10049397  1
  Cl  Cl16  1  0.22664355  0.22664355  0.22664355  1
  Cl  Cl17  1  0.27335645  0.77335645  0.72664355  1
  Cl  Cl18  1  0.72664355  0.27335645  0.77335645  1
  Cl  Cl19  1  0.77335645  0.72664355  0.27335645  1
  As  As20  1  0.02027944  0.47972056  0.52027944  1
  As  As21  1  0.52027944  0.02027944  0.47972056  1
  As  As22  1  0.97972056  0.97972056  0.97972056  1
  As  As23  1  0.47972056  0.52027944  0.02027944  1
  Hg  Hg24  1  0.55105248  0.89753025  0.85351156  1
  Hg  Hg25  1  0.60246975  0.14648844  0.05105248  1
  Hg  Hg26  1  0.89753025  0.85351156  0.55105248  1
  Hg  Hg27  1  0.14648844  0.05105248  0.60246975  1
  Hg  Hg28  1  0.10246975  0.35351156  0.94894752  1
  Hg  Hg29  1  0.05105248  0.60246975  0.14648844  1
  Hg  Hg30  1  0.35351156  0.94894752  0.10246975  1
  Hg  Hg31  1  0.94894752  0.10246975  0.35351156  1
  Hg  Hg32  1  0.85351156  0.55105248  0.89753025  1
  Hg  Hg33  1  0.64648844  0.44894752  0.39753025  1
  Hg  Hg34  1  0.44894752  0.39753025  0.64648844  1
  Hg  Hg35  1  0.39753025  0.64648844  0.44894752  1
