# generated using pymatgen
data_AlFeCuSe3
_symmetry_space_group_name_H-M   'P 1'
_cell_length_a   8.03748867
_cell_length_b   12.71590131
_cell_length_c   11.28543821
_cell_angle_alpha   90.01055863
_cell_angle_beta   90.03340915
_cell_angle_gamma   71.57633923
_symmetry_Int_Tables_number   1
_chemical_formula_structural   AlFeCuSe3
_chemical_formula_sum   'Al8 Fe8 Cu8 Se24'
_cell_volume   1094.29809095
_cell_formula_units_Z   8
loop_
 _symmetry_equiv_pos_site_id
 _symmetry_equiv_pos_as_xyz
  1  'x, y, z'
loop_
 _atom_site_type_symbol
 _atom_site_label
 _atom_site_symmetry_multiplicity
 _atom_site_fract_x
 _atom_site_fract_y
 _atom_site_fract_z
 _atom_site_occupancy
  Al  Al0  1  0.17211103  0.17226304  0.75017493  1
  Al  Al1  1  0.49708557  0.49739423  0.74743250  1
  Al  Al2  1  0.83071232  0.83025500  0.75233652  1
  Al  Al3  1  0.32781279  0.83593877  0.24743250  1
  Al  Al4  1  0.67770706  0.16107096  0.25017493  1
  Al  Al5  1  0.99430132  0.50307800  0.25233652  1
  Al  Al6  1  0.83354900  0.33278243  0.00009772  1
  Al  Al7  1  0.49966544  0.00055057  0.50009772  1
  Fe  Fe8  1  0.99910285  0.00091503  0.49532794  1
  Fe  Fe9  1  0.33222242  0.33549970  0.50554357  1
  Fe  Fe10  1  0.66757053  0.66405470  0.49926347  1
  Fe  Fe11  1  0.00105612  0.99783330  0.00554357  1
  Fe  Fe12  1  0.33335088  0.33241797  0.99532794  1
  Fe  Fe13  1  0.66495823  0.66927930  0.99926347  1
  Fe  Fe14  1  0.16677179  0.66885334  0.00001775  1
  Fe  Fe15  1  0.16895813  0.66448066  0.50001775  1
  Cu  Cu16  1  0.33616008  0.83126917  0.75088368  1
  Cu  Cu17  1  0.66006941  0.17001141  0.74984502  1
  Cu  Cu18  1  0.00364855  0.49888020  0.74883605  1
  Cu  Cu19  1  0.16341381  0.16332259  0.24984502  1
  Cu  Cu20  1  0.50076326  0.50206383  0.25088368  1
  Cu  Cu21  1  0.83586176  0.83445280  0.24883605  1
  Cu  Cu22  1  0.49982950  0.99931027  -0.00005027  1
  Cu  Cu23  1  0.83247277  0.33402273  0.49994973  1
  Se  Se24  1  0.24889939  0.00121446  0.62584368  1
  Se  Se25  1  0.58520342  0.33378749  0.62459374  1
  Se  Se26  1  0.91610576  0.66694226  0.62633706  1
  Se  Se27  1  0.74980760  0.00013877  0.62601072  1
  Se  Se28  1  0.08094073  0.33328246  0.62422072  1
  Se  Se29  1  0.41910426  0.66468058  0.62716010  1
  Se  Se30  1  0.41684425  0.16482188  0.87628343  1
  Se  Se31  1  0.74967136  0.49923257  0.87492420  1
  Se  Se32  1  0.08055899  0.83571149  0.87139226  1
  Se  Se33  1  0.58358319  0.83354246  0.87532028  1
  Se  Se34  1  0.91799274  0.16603854  0.87351067  1
  Se  Se35  1  0.25146319  0.50110272  0.87469428  1
  Se  Se36  1  0.41736428  0.16729546  0.37351067  1
  Se  Se37  1  0.75045965  0.49979054  0.37532028  1
  Se  Se38  1  0.08589891  0.83223028  0.37469428  1
  Se  Se39  1  0.58223693  0.83410043  0.37492420  1
  Se  Se40  1  0.91499913  0.16851212  0.37628343  1
  Se  Se41  1  0.24960448  0.49762151  0.37139226  1
  Se  Se42  1  0.74755718  0.00005054  0.12422072  1
  Se  Se43  1  0.08327937  0.33319423  0.12601072  1
  Se  Se44  1  0.41711783  0.66865342  0.12716010  1
  Se  Se45  1  0.25232490  -0.00045449  0.12459374  1
  Se  Se46  1  0.58344684  0.33211854  0.12584368  1
  Se  Se47  1  0.91638102  0.66639174  0.12633706  1
