# generated using pymatgen
data_Cr4Co3(PO4)6
_symmetry_space_group_name_H-M   'P 1'
_cell_length_a   6.37225566
_cell_length_b   7.96230592
_cell_length_c   9.41149580
_cell_angle_alpha   105.20929395
_cell_angle_beta   108.31695000
_cell_angle_gamma   101.55592284
_symmetry_Int_Tables_number   1
_chemical_formula_structural   Cr4Co3(PO4)6
_chemical_formula_sum   'Cr4 Co3 P6 O24'
_cell_volume   416.08447179
_cell_formula_units_Z   1
loop_
 _symmetry_equiv_pos_site_id
 _symmetry_equiv_pos_as_xyz
  1  'x, y, z'
loop_
 _atom_site_type_symbol
 _atom_site_label
 _atom_site_symmetry_multiplicity
 _atom_site_fract_x
 _atom_site_fract_y
 _atom_site_fract_z
 _atom_site_occupancy
  O  O0  1  0.79030004  0.05216790  0.29580359  1
  O  O1  1  0.20969940  0.94783203  0.70419601  1
  O  O2  1  0.77835359  0.80167524  0.06077224  1
  O  O3  1  0.22164585  0.19832469  0.93922735  1
  O  O4  1  0.62902281  0.23807480  0.49145964  1
  O  O5  1  0.37097664  0.76192513  0.50853996  1
  O  O6  1  0.00951561  0.18505343  0.65588459  1
  O  O7  1  0.99048549  0.81494650  0.34411535  1
  O  O8  1  0.87968729  0.46433361  0.83885399  1
  O  O9  1  0.12031215  0.53566632  0.16114560  1
  O  O10  1  0.88279547  0.20875650  0.08454622  1
  O  O11  1  0.11720562  0.79124342  0.91545372  1
  O  O12  1  0.92883334  0.45178320  0.34490433  1
  O  O13  1  0.26878718  0.03565281  0.23806263  1
  O  O14  1  0.73121226  0.96434712  0.76193696  1
  O  O15  1  0.31464730  0.54329775  0.91891925  1
  O  O16  1  0.68535215  0.45670218  0.08108034  1
  O  O17  1  0.24897950  0.28560460  0.46407509  1
  O  O18  1  0.07116776  0.54821673  0.65509562  1
  O  O19  1  0.44793553  0.36628657  0.28344685  1
  O  O20  1  0.55206391  0.63371335  0.71655381  1
  O  O21  1  0.45211942  0.26695292  0.76923390  1
  O  O22  1  0.54788002  0.73304701  0.23076569  1
  O  O23  1  0.75101994  0.71439533  0.53592557  1
  P  P24  1  0.77824603  0.85360958  0.23401257  1
  P  P25  1  0.22175507  0.14639034  0.76598737  1
  P  P26  1  0.60904995  0.76763092  0.63408034  1
  P  P27  1  0.39094949  0.23236901  0.36591926  1
  P  P28  1  0.09399456  0.59618307  0.83317120  1
  P  P29  1  0.90600653  0.40381685  0.16682982  1
  Cr  Cr30  1  0.61985609  0.54303242  0.89080937  1
  Cr  Cr31  1  0.04990612  0.71708278  0.52378466  1
  Cr  Cr32  1  0.38014501  0.45696750  0.10919058  1
  Cr  Cr33  1  0.95009332  0.28291715  0.47621494  1
  Co  Co34  1  0.29668498  0.81254233  0.29594521  1
  Co  Co35  1  0.70331612  0.18745760  0.70405474  1
  Co  Co36  1  0.00000000  0.00000000  0.00000000  1
