# generated using pymatgen
data_Ba4La4Co8O17
_symmetry_space_group_name_H-M   'P 1'
_cell_length_a   7.98282316
_cell_length_b   15.59545279
_cell_length_c   16.32669374
_cell_angle_alpha   90.00000000
_cell_angle_beta   90.00545696
_cell_angle_gamma   90.00000000
_symmetry_Int_Tables_number   1
_chemical_formula_structural   Ba4La4Co8O17
_chemical_formula_sum   'Ba16 La16 Co32 O68'
_cell_volume   2032.60383842
_cell_formula_units_Z   4
loop_
 _symmetry_equiv_pos_site_id
 _symmetry_equiv_pos_as_xyz
  1  'x, y, z'
loop_
 _atom_site_type_symbol
 _atom_site_label
 _atom_site_symmetry_multiplicity
 _atom_site_fract_x
 _atom_site_fract_y
 _atom_site_fract_z
 _atom_site_occupancy
  Ba  Ba0  1  0.49371406  0.49263539  0.74993241  1
  Ba  Ba1  1  0.50628594  0.50736461  0.25006759  1
  Ba  Ba2  1  0.49371406  0.00736461  0.24993241  1
  Ba  Ba3  1  0.50628594  0.99263539  0.75006759  1
  Ba  Ba4  1  0.50000000  0.50000000  0.00000000  1
  Ba  Ba5  1  0.50000000  0.00000000  0.50000000  1
  Ba  Ba6  1  0.00000000  0.50000000  0.50000000  1
  Ba  Ba7  1  0.00000000  0.00000000  0.00000000  1
  Ba  Ba8  1  0.00000000  0.50000000  0.00000000  1
  Ba  Ba9  1  0.00000000  0.00000000  0.50000000  1
  Ba  Ba10  1  0.50000000  0.50000000  0.50000000  1
  Ba  Ba11  1  0.50000000  0.00000000  0.00000000  1
  Ba  Ba12  1  0.00691281  0.50351455  0.74951890  1
  Ba  Ba13  1  0.99308719  0.49648545  0.25048110  1
  Ba  Ba14  1  0.00691281  0.99648545  0.24951890  1
  Ba  Ba15  1  0.99308719  0.00351455  0.75048110  1
  La  La16  1  0.50058788  0.23924261  0.49372566  1
  La  La17  1  0.49941212  0.76075739  0.50627434  1
  La  La18  1  0.50058788  0.26075739  0.99372566  1
  La  La19  1  0.49941212  0.73924261  0.00627434  1
  La  La20  1  0.99975575  0.23878982  0.50633287  1
  La  La21  1  0.00024425  0.76121018  0.49366713  1
  La  La22  1  0.99975575  0.26121018  0.00633287  1
  La  La23  1  0.00024425  0.73878982  0.99366713  1
  La  La24  1  0.00420675  0.25228249  0.74423813  1
  La  La25  1  0.99579325  0.74771751  0.25576187  1
  La  La26  1  0.00420675  0.24771751  0.24423813  1
  La  La27  1  0.99579325  0.75228249  0.75576187  1
  La  La28  1  0.50488731  0.24624363  0.75552148  1
  La  La29  1  0.49511269  0.75375637  0.24447852  1
  La  La30  1  0.50488731  0.25375637  0.25552148  1
  La  La31  1  0.49511269  0.74624363  0.74447852  1
  Co  Co32  1  0.23681533  0.37375283  0.61860501  1
  Co  Co33  1  0.23593367  0.62415619  0.37887956  1
  Co  Co34  1  0.76406633  0.12415619  0.12112044  1
  Co  Co35  1  0.76318467  0.87375283  0.88139499  1
  Co  Co36  1  0.76318467  0.62624717  0.38139499  1
  Co  Co37  1  0.76406633  0.37584381  0.62112044  1
  Co  Co38  1  0.23593367  0.87584381  0.87887956  1
  Co  Co39  1  0.23681533  0.12624717  0.11860501  1
  Co  Co40  1  0.26434618  0.37657199  0.37806544  1
  Co  Co41  1  0.26325497  0.62667633  0.61940701  1
  Co  Co42  1  0.73674503  0.12667633  0.88059299  1
  Co  Co43  1  0.73565382  0.87657199  0.12193456  1
  Co  Co44  1  0.73565382  0.62342801  0.62193456  1
  Co  Co45  1  0.73674503  0.37332367  0.38059299  1
  Co  Co46  1  0.26325497  0.87332367  0.11940701  1
  Co  Co47  1  0.26434618  0.12342801  0.87806544  1
  Co  Co48  1  0.25341083  0.36464714  0.12927648  1
  Co  Co49  1  0.24990542  0.62457723  0.87331017  1
  Co  Co50  1  0.75009458  0.12457723  0.62668983  1
  Co  Co51  1  0.74658917  0.86464714  0.37072352  1
  Co  Co52  1  0.74658917  0.63535286  0.87072352  1
  Co  Co53  1  0.75009458  0.37542277  0.12668983  1
  Co  Co54  1  0.24990542  0.87542277  0.37331017  1
  Co  Co55  1  0.25341083  0.13535286  0.62927648  1
  Co  Co56  1  0.25015152  0.37447433  0.87497957  1
  Co  Co57  1  0.24645972  0.63767378  0.12788924  1
  Co  Co58  1  0.75354028  0.13767378  0.37211076  1
  Co  Co59  1  0.74984848  0.87447433  0.62502043  1
  Co  Co60  1  0.74984848  0.62552567  0.12502043  1
  Co  Co61  1  0.75354028  0.36232622  0.87211076  1
  Co  Co62  1  0.24645972  0.86232622  0.62788924  1
  Co  Co63  1  0.25015152  0.12552567  0.37497957  1
  O  O64  1  0.00280656  0.34148750  0.86786059  1
  O  O65  1  0.99719344  0.65851250  0.13213941  1
  O  O66  1  0.00280656  0.15851250  0.36786059  1
  O  O67  1  0.99719344  0.84148750  0.63213941  1
  O  O68  1  0.22548376  0.35379695  0.25923105  1
  O  O69  1  0.21704641  0.65107120  0.73513243  1
  O  O70  1  0.78295359  0.15107120  0.76486757  1
  O  O71  1  0.77451624  0.85379695  0.24076895  1
  O  O72  1  0.77451624  0.64620305  0.74076895  1
  O  O73  1  0.78295359  0.34892880  0.26486757  1
  O  O74  1  0.21704641  0.84892880  0.23513243  1
  O  O75  1  0.22548376  0.14620305  0.75923105  1
  O  O76  1  0.24812004  0.34250740  0.49797303  1
  O  O77  1  0.25421461  0.65684833  0.49828854  1
  O  O78  1  0.74578539  0.15684833  0.00171146  1
  O  O79  1  0.75187996  0.84250740  0.00202697  1
  O  O80  1  0.75187996  0.65749260  0.50202697  1
  O  O81  1  0.74578539  0.34315167  0.50171146  1
  O  O82  1  0.25421461  0.84315167  0.99828854  1
  O  O83  1  0.24812004  0.15749260  0.99797303  1
  O  O84  1  0.50124179  0.35356569  0.87632384  1
  O  O85  1  0.49875821  0.64643431  0.12367616  1
  O  O86  1  0.50124179  0.14643431  0.37632384  1
  O  O87  1  0.49875821  0.85356569  0.62367616  1
  O  O88  1  0.99948110  0.33723534  0.62383859  1
  O  O89  1  0.00051890  0.66276466  0.37616141  1
  O  O90  1  0.99948110  0.16276466  0.12383859  1
  O  O91  1  0.00051890  0.83723534  0.87616141  1
  O  O92  1  0.50233096  0.34172666  0.13186567  1
  O  O93  1  0.49766904  0.65827334  0.86813433  1
  O  O94  1  0.50233096  0.15827334  0.63186567  1
  O  O95  1  0.49766904  0.84172666  0.36813433  1
  O  O96  1  0.49836966  0.33767897  0.37601991  1
  O  O97  1  0.50163034  0.66232103  0.62398009  1
  O  O98  1  0.49836966  0.16232103  0.87601991  1
  O  O99  1  0.50163034  0.83767897  0.12398009  1
  O  O100  1  0.28310551  0.34713230  0.73380823  1
  O  O101  1  0.27491084  0.64759976  0.25995600  1
  O  O102  1  0.72508916  0.14759976  0.24004400  1
  O  O103  1  0.71689449  0.84713230  0.76619177  1
  O  O104  1  0.71689449  0.65286770  0.26619177  1
  O  O105  1  0.72508916  0.35240024  0.74004400  1
  O  O106  1  0.27491084  0.85240024  0.75995600  1
  O  O107  1  0.28310551  0.15286770  0.23380823  1
  O  O108  1  0.00097940  0.35337850  0.12373400  1
  O  O109  1  0.99902060  0.64662150  0.87626600  1
  O  O110  1  0.00097940  0.14662150  0.62373400  1
  O  O111  1  0.99902060  0.85337850  0.37626600  1
  O  O112  1  0.25094896  0.49991293  0.62031074  1
  O  O113  1  0.24779914  0.50030475  0.38192977  1
  O  O114  1  0.75220086  0.00030475  0.11807023  1
  O  O115  1  0.74905104  -0.00008707  0.87968926  1
  O  O116  1  0.74905104  0.50008707  0.37968926  1
  O  O117  1  0.75220086  0.49969525  0.61807023  1
  O  O118  1  0.24779914  0.99969525  0.88192977  1
  O  O119  1  0.25094896  0.00008707  0.12031074  1
  O  O120  1  0.25083394  0.36027272  0.00330572  1
  O  O121  1  0.24808472  0.63986598  0.00244267  1
  O  O122  1  0.75191528  0.13986598  0.49755733  1
  O  O123  1  0.74916606  0.86027272  0.49669428  1
  O  O124  1  0.74916606  0.63972728  0.99669428  1
  O  O125  1  0.75191528  0.36013402  0.99755733  1
  O  O126  1  0.24808472  0.86013402  0.50244267  1
  O  O127  1  0.25083394  0.13972728  0.50330572  1
  O  O128  1  0.25066778  0.49937507  0.86644548  1
  O  O129  1  0.74933222  0.99937507  0.63355452  1
  O  O130  1  0.74933222  0.50062493  0.13355452  1
  O  O131  1  0.25066778  0.00062493  0.36644548  1
