# generated using pymatgen
data_BaV2CdO7
_symmetry_space_group_name_H-M   'P 1'
_cell_length_a   5.79913152
_cell_length_b   7.64168086
_cell_length_c   15.66156866
_cell_angle_alpha   90.00000000
_cell_angle_beta   90.00000000
_cell_angle_gamma   90.00000000
_symmetry_Int_Tables_number   1
_chemical_formula_structural   BaV2CdO7
_chemical_formula_sum   'Ba4 V8 Cd4 O28'
_cell_volume   694.04417460
_cell_formula_units_Z   4
loop_
 _symmetry_equiv_pos_site_id
 _symmetry_equiv_pos_as_xyz
  1  'x, y, z'
loop_
 _atom_site_type_symbol
 _atom_site_label
 _atom_site_symmetry_multiplicity
 _atom_site_fract_x
 _atom_site_fract_y
 _atom_site_fract_z
 _atom_site_occupancy
  O  O0  1  0.25000000  0.91315867  0.15213055  1
  O  O1  1  0.75000000  0.08684133  0.84786945  1
  O  O2  1  0.75000000  0.41315867  0.34786945  1
  O  O3  1  0.25000000  0.58684133  0.65213055  1
  O  O4  1  0.99095232  0.34151303  0.94091522  1
  O  O5  1  0.49095232  0.65848697  0.05908478  1
  O  O6  1  0.00904768  0.84151303  0.55908478  1
  O  O7  1  0.50904768  0.15848697  0.44091522  1
  O  O8  1  0.00904768  0.65848697  0.05908478  1
  O  O9  1  0.50904768  0.34151303  0.94091522  1
  O  O10  1  0.99095232  0.15848697  0.44091522  1
  O  O11  1  0.49095232  0.84151303  0.55908478  1
  O  O12  1  0.25000000  0.93336112  0.96615798  1
  O  O13  1  0.75000000  0.06663888  0.03384202  1
  O  O14  1  0.75000000  0.43336112  0.53384202  1
  O  O15  1  0.25000000  0.56663888  0.46615798  1
  O  O16  1  0.49061638  0.79920738  0.34881090  1
  O  O17  1  0.99061638  0.20079262  0.65118910  1
  O  O18  1  0.50938362  0.29920738  0.15118910  1
  O  O19  1  0.00938362  0.70079262  0.84881090  1
  O  O20  1  0.50938362  0.20079262  0.65118910  1
  O  O21  1  0.00938362  0.79920738  0.34881090  1
  O  O22  1  0.49061638  0.70079262  0.84881090  1
  O  O23  1  0.99061638  0.29920738  0.15118910  1
  O  O24  1  0.25000000  0.51802981  0.27959998  1
  O  O25  1  0.75000000  0.48197019  0.72040002  1
  O  O26  1  0.75000000  0.01802981  0.22040002  1
  O  O27  1  0.25000000  0.98197019  0.77959998  1
  V  V28  1  0.25000000  0.79744160  0.06127403  1
  V  V29  1  0.75000000  0.20255840  0.93872597  1
  V  V30  1  0.75000000  0.29744160  0.43872597  1
  V  V31  1  0.25000000  0.70255840  0.56127403  1
  V  V32  1  0.25000000  0.83383972  0.85972104  1
  V  V33  1  0.75000000  0.16616028  0.14027896  1
  V  V34  1  0.75000000  0.33383972  0.64027896  1
  V  V35  1  0.25000000  0.66616028  0.35972104  1
  Cd  Cd36  1  0.25000000  0.11750113  0.55092134  1
  Cd  Cd37  1  0.75000000  0.88249887  0.44907866  1
  Cd  Cd38  1  0.75000000  0.61750113  0.94907866  1
  Cd  Cd39  1  0.25000000  0.38249887  0.05092134  1
  Ba  Ba40  1  0.25000000  0.35970757  0.78532115  1
  Ba  Ba41  1  0.75000000  0.64029243  0.21467885  1
  Ba  Ba42  1  0.75000000  0.85970757  0.71467885  1
  Ba  Ba43  1  0.25000000  0.14029243  0.28532115  1
