# generated using pymatgen
data_V4Zn3(PO4)6
_symmetry_space_group_name_H-M   'P 1'
_cell_length_a   6.44601287
_cell_length_b   7.98430831
_cell_length_c   9.50963789
_cell_angle_alpha   105.64236316
_cell_angle_beta   108.64449169
_cell_angle_gamma   101.00739344
_symmetry_Int_Tables_number   1
_chemical_formula_structural   V4Zn3(PO4)6
_chemical_formula_sum   'V4 Zn3 P6 O24'
_cell_volume   425.47385220
_cell_formula_units_Z   1
loop_
 _symmetry_equiv_pos_site_id
 _symmetry_equiv_pos_as_xyz
  1  'x, y, z'
loop_
 _atom_site_type_symbol
 _atom_site_label
 _atom_site_symmetry_multiplicity
 _atom_site_fract_x
 _atom_site_fract_y
 _atom_site_fract_z
 _atom_site_occupancy
  O  O0  1  0.72341248  0.96743145  0.76117647  1
  O  O1  1  0.27658729  0.03256858  0.23882325  1
  O  O2  1  0.10492219  0.78825529  0.91212257  1
  O  O3  1  0.89507919  0.21174474  0.08787855  1
  O  O4  1  0.21430171  0.94634816  0.70764805  1
  O  O5  1  0.78569806  0.05365188  0.29235166  1
  O  O6  1  0.36781776  0.76277293  0.50722709  1
  O  O7  1  0.63218201  0.23722710  0.49277263  1
  O  O8  1  0.06467905  0.54316804  0.65590804  1
  O  O9  1  0.93532070  0.45683199  0.34409273  1
  O  O10  1  0.75142184  0.72160054  0.54008513  1
  O  O11  1  0.24857956  0.27839949  0.45991493  1
  O  O12  1  0.98153546  0.81695194  0.34202939  1
  O  O13  1  0.69211434  0.45641324  0.07966691  1
  O  O14  1  0.30788541  0.54358679  0.92033386  1
  O  O15  1  0.54438991  0.73425069  0.22923682  1
  O  O16  1  0.45561149  0.26574934  0.77076324  1
  O  O17  1  0.12253275  0.53821917  0.16318275  1
  O  O18  1  0.01846592  0.18304809  0.65797173  1
  O  O19  1  0.44849057  0.35879616  0.28181693  1
  O  O20  1  0.55150919  0.64120387  0.71818279  1
  O  O21  1  0.22776763  0.20094792  0.93925345  1
  O  O22  1  0.77223211  0.79905211  0.06074733  1
  O  O23  1  0.87746702  0.46178087  0.83681696  1
  P  P24  1  0.77203576  0.85415967  0.23208913  1
  P  P25  1  0.22796401  0.14584036  0.76791058  1
  P  P26  1  0.60342878  0.77177099  0.63289372  1
  P  P27  1  0.39657098  0.22822904  0.36710599  1
  P  P28  1  0.91166996  0.40719931  0.16621832  1
  P  P29  1  0.08832981  0.59280072  0.83378140  1
  V  V30  1  0.38729325  0.45918102  0.11436148  1
  V  V31  1  0.95540023  0.28407417  0.47633359  1
  V  V32  1  0.61270651  0.54081901  0.88563823  1
  V  V33  1  0.04459954  0.71592586  0.52366613  1
  Zn  Zn34  1  0.71709643  0.18923579  0.70657608  1
  Zn  Zn35  1  0.28290334  0.81076424  0.29342363  1
  Zn  Zn36  1  0.00000000  0.00000000  0.00000000  1
