# generated using pymatgen
data_ZnH12SeO10
_symmetry_space_group_name_H-M   'P 1'
_cell_length_a   6.98999654
_cell_length_b   6.98999654
_cell_length_c   18.90028895
_cell_angle_alpha   90.00000000
_cell_angle_beta   90.00000000
_cell_angle_gamma   90.00000000
_symmetry_Int_Tables_number   1
_chemical_formula_structural   ZnH12SeO10
_chemical_formula_sum   'Zn4 H48 Se4 O40'
_cell_volume   923.46909390
_cell_formula_units_Z   4
loop_
 _symmetry_equiv_pos_site_id
 _symmetry_equiv_pos_as_xyz
  1  'x, y, z'
loop_
 _atom_site_type_symbol
 _atom_site_label
 _atom_site_symmetry_multiplicity
 _atom_site_fract_x
 _atom_site_fract_y
 _atom_site_fract_z
 _atom_site_occupancy
  H  H0  1  0.71903232  0.00535988  0.38267969  1
  H  H1  1  0.28096768  0.99464012  0.88267969  1
  H  H2  1  0.00535988  0.71903232  0.61732031  1
  H  H3  1  0.50535988  0.78096768  0.13267969  1
  H  H4  1  0.49464012  0.21903232  0.63267969  1
  H  H5  1  0.78096768  0.50535988  0.86732031  1
  H  H6  1  0.21903232  0.49464012  0.36732031  1
  H  H7  1  0.99464012  0.28096768  0.11732031  1
  H  H8  1  0.52535363  0.99367775  0.43045754  1
  H  H9  1  0.47464637  0.00632225  0.93045754  1
  H  H10  1  0.99367775  0.52535363  0.56954246  1
  H  H11  1  0.49367775  0.97464637  0.18045754  1
  H  H12  1  0.50632225  0.02535363  0.68045754  1
  H  H13  1  0.97464637  0.49367775  0.81954246  1
  H  H14  1  0.02535363  0.50632225  0.31954246  1
  H  H15  1  0.00632225  0.47464637  0.06954246  1
  H  H16  1  0.62186943  0.46555150  0.43965148  1
  H  H17  1  0.37813057  0.53444850  0.93965148  1
  H  H18  1  0.46555150  0.62186943  0.56034852  1
  H  H19  1  0.96555150  0.87813057  0.18965148  1
  H  H20  1  0.03444850  0.12186943  0.68965148  1
  H  H21  1  0.87813057  0.96555150  0.81034852  1
  H  H22  1  0.12186943  0.03444850  0.31034852  1
  H  H23  1  0.08950348  0.85708292  0.04013495  1
  H  H24  1  0.84573943  0.42640402  0.45709286  1
  H  H25  1  0.15426057  0.57359598  0.95709286  1
  H  H26  1  0.42640402  0.84573943  0.54290714  1
  H  H27  1  0.92640402  0.65426057  0.20709286  1
  H  H28  1  0.07359598  0.34573943  0.70709286  1
  H  H29  1  0.65426057  0.92640402  0.79290714  1
  H  H30  1  0.34573943  0.07359598  0.29290714  1
  H  H31  1  0.57359598  0.15426057  0.04290714  1
  H  H32  1  0.07506666  0.74189116  0.40567788  1
  H  H33  1  0.92493334  0.25810884  0.90567788  1
  H  H34  1  0.74189116  0.07506666  0.59432212  1
  H  H35  1  0.24189116  0.42493334  0.15567788  1
  H  H36  1  0.75810884  0.57506666  0.65567788  1
  H  H37  1  0.42493334  0.24189116  0.84432212  1
  H  H38  1  0.57506666  0.75810884  0.34432212  1
  H  H39  1  0.25810884  0.92493334  0.09432212  1
  H  H40  1  0.14291708  0.91049652  0.45986505  1
  H  H41  1  0.85708292  0.08950348  0.95986505  1
  H  H42  1  0.91049652  0.14291708  0.54013495  1
  H  H43  1  0.41049652  0.35708292  0.20986505  1
  H  H44  1  0.58950348  0.64291708  0.70986505  1
  H  H45  1  0.35708292  0.41049652  0.79013495  1
  H  H46  1  0.64291708  0.58950348  0.29013495  1
  H  H47  1  0.53444850  0.37813057  0.06034852  1
  O  O48  1  0.32648670  0.05043856  0.49224379  1
  O  O49  1  0.67351330  0.94956144  0.99224379  1
  O  O50  1  0.05043856  0.32648670  0.50775621  1
  O  O51  1  0.55043856  0.17351330  0.24224379  1
  O  O52  1  0.44956144  0.82648670  0.74224379  1
  O  O53  1  0.17351330  0.55043856  0.75775621  1
  O  O54  1  0.82648670  0.44956144  0.25775621  1
  O  O55  1  0.94956144  0.67351330  0.00775621  1
  O  O56  1  0.37557860  0.39502573  0.42786829  1
  O  O57  1  0.62442140  0.60497427  0.92786829  1
  O  O58  1  0.39502573  0.37557860  0.57213171  1
  O  O59  1  0.89502573  0.12442140  0.17786829  1
  O  O60  1  0.10497427  0.87557860  0.67786829  1
  O  O61  1  0.12442140  0.89502573  0.82213171  1
  O  O62  1  0.87557860  0.10497427  0.32213171  1
  O  O63  1  0.60497427  0.62442140  0.07213171  1
  O  O64  1  0.63471924  0.91938091  0.41141761  1
  O  O65  1  0.36528076  0.08061909  0.91141761  1
  O  O66  1  0.91938091  0.63471924  0.58858239  1
  O  O67  1  0.41938091  0.86528076  0.16141761  1
  O  O68  1  0.58061909  0.13471924  0.66141761  1
  O  O69  1  0.86528076  0.41938091  0.83858239  1
  O  O70  1  0.13471924  0.58061909  0.33858239  1
  O  O71  1  0.08061909  0.36528076  0.08858239  1
  O  O72  1  0.18352550  0.95893224  0.05147823  1
  O  O73  1  0.24887394  0.47591327  0.94337289  1
  O  O74  1  0.52408673  0.75112606  0.55662711  1
  O  O75  1  0.02408673  0.74887394  0.19337289  1
  O  O76  1  0.97591327  0.25112606  0.69337289  1
  O  O77  1  0.74887394  0.02408673  0.80662711  1
  O  O78  1  0.25112606  0.97591327  0.30662711  1
  O  O79  1  0.47591327  0.24887394  0.05662711  1
  O  O80  1  0.04106776  0.81647450  0.44852177  1
  O  O81  1  0.95893224  0.18352550  0.94852177  1
  O  O82  1  0.81647450  0.04106776  0.55147823  1
  O  O83  1  0.31647450  0.45893224  0.19852177  1
  O  O84  1  0.68352550  0.54106776  0.69852177  1
  O  O85  1  0.45893224  0.31647450  0.80147823  1
  O  O86  1  0.54106776  0.68352550  0.30147823  1
  O  O87  1  0.75112606  0.52408673  0.44337289  1
  Zn  Zn88  1  0.21626142  0.21626142  0.00000000  1
  Zn  Zn89  1  0.28373858  0.71626142  0.25000000  1
  Zn  Zn90  1  0.71626142  0.28373858  0.75000000  1
  Zn  Zn91  1  0.78373858  0.78373858  0.50000000  1
  Se  Se92  1  0.71270624  0.71270624  0.00000000  1
  Se  Se93  1  0.78729376  0.21270624  0.25000000  1
  Se  Se94  1  0.21270624  0.78729376  0.75000000  1
  Se  Se95  1  0.28729376  0.28729376  0.50000000  1
