# generated using pymatgen
data_La2NiIrO6
_symmetry_space_group_name_H-M   'P 1'
_cell_length_a   5.55858190
_cell_length_b   5.78848729
_cell_length_c   7.92745713
_cell_angle_alpha   90.00000000
_cell_angle_beta   89.99342710
_cell_angle_gamma   90.00000000
_symmetry_Int_Tables_number   1
_chemical_formula_structural   La2NiIrO6
_chemical_formula_sum   'La4 Ni2 Ir2 O12'
_cell_volume   255.07212007
_cell_formula_units_Z   2
loop_
 _symmetry_equiv_pos_site_id
 _symmetry_equiv_pos_as_xyz
  1  'x, y, z'
loop_
 _atom_site_type_symbol
 _atom_site_label
 _atom_site_symmetry_multiplicity
 _atom_site_fract_x
 _atom_site_fract_y
 _atom_site_fract_z
 _atom_site_occupancy
  O  O0  1  0.90850919  0.52562199  0.74775447  1
  O  O1  1  0.59149084  0.02562252  0.75224665  1
  O  O2  1  0.09149022  0.47437866  0.25224628  1
  O  O3  1  0.40851039  0.97437813  0.24775410  1
  O  O4  1  0.80570603  0.79403655  0.45171167  1
  O  O5  1  0.69429408  0.29403537  0.04828870  1
  O  O6  1  0.19429338  0.20596410  0.54828908  1
  O  O7  1  0.30570714  0.70596357  0.95171078  1
  O  O8  1  0.20333397  0.20028831  0.95222882  1
  O  O9  1  0.29666655  0.70028778  0.54777104  1
  O  O10  1  0.70333286  0.29971116  0.45222971  1
  O  O11  1  0.79666725  0.79971234  0.04777066  1
  Ni  Ni12  1  0.50000061  0.00000000  0.50000038  1
  Ni  Ni13  1  0.00000000  0.49999947  0.00000000  1
  La  La14  1  0.51409846  0.55703208  0.25074160  1
  La  La15  1  0.98590165  0.05703261  0.24925749  1
  La  La16  1  0.48590276  0.44296686  0.74925787  1
  La  La17  1  0.01409776  0.94296804  0.75074199  1
  Ir  Ir18  1  0.50000066  0.00000000  0.00000063  1
  Ir  Ir19  1  0.99999996  0.49999947  0.49999974  1
