# generated using pymatgen
data_Na6Zn3P4H6O19
_symmetry_space_group_name_H-M   'P 1'
_cell_length_a   12.08143664
_cell_length_b   12.08143664
_cell_length_c   12.08143664
_cell_angle_alpha   90.00000000
_cell_angle_beta   90.00000000
_cell_angle_gamma   90.00000000
_symmetry_Int_Tables_number   1
_chemical_formula_structural   Na6Zn3P4H6O19
_chemical_formula_sum   'Na24 Zn12 P16 H24 O76'
_cell_volume   1763.41991791
_cell_formula_units_Z   4
loop_
 _symmetry_equiv_pos_site_id
 _symmetry_equiv_pos_as_xyz
  1  'x, y, z'
loop_
 _atom_site_type_symbol
 _atom_site_label
 _atom_site_symmetry_multiplicity
 _atom_site_fract_x
 _atom_site_fract_y
 _atom_site_fract_z
 _atom_site_occupancy
  H  H0  1  0.54845169  0.17624768  0.11596494  1
  H  H1  1  0.11596494  0.54845169  0.17624768  1
  H  H2  1  0.17624768  0.11596494  0.54845169  1
  H  H3  1  0.32375232  0.88403506  0.04845169  1
  H  H4  1  0.61596494  0.95154831  0.82375232  1
  H  H5  1  0.82375232  0.61596494  0.95154831  1
  H  H6  1  0.38403506  0.45154831  0.67624768  1
  H  H7  1  0.88403506  0.04845169  0.32375232  1
  H  H8  1  0.67624768  0.38403506  0.45154831  1
  H  H9  1  0.04845169  0.32375232  0.88403506  1
  H  H10  1  0.45154831  0.67624768  0.38403506  1
  H  H11  1  0.95154831  0.82375232  0.61596494  1
  H  H12  1  0.42410253  0.20484025  0.13326003  1
  H  H13  1  0.13326003  0.42410253  0.20484025  1
  H  H14  1  0.20484025  0.13326003  0.42410253  1
  H  H15  1  0.29515975  0.86673997  0.92410253  1
  H  H16  1  0.63326003  0.07589747  0.79515975  1
  H  H17  1  0.79515975  0.63326003  0.07589747  1
  H  H18  1  0.36673997  0.57589747  0.70484025  1
  H  H19  1  0.86673997  0.92410253  0.29515975  1
  H  H20  1  0.70484025  0.36673997  0.57589747  1
  H  H21  1  0.92410253  0.29515975  0.86673997  1
  H  H22  1  0.57589747  0.70484025  0.36673997  1
  H  H23  1  0.07589747  0.79515975  0.63326003  1
  O  O24  1  0.44579806  0.05420194  0.94579806  1
  O  O25  1  0.94579806  0.44579806  0.05420194  1
  O  O26  1  0.05420194  0.94579806  0.44579806  1
  O  O27  1  0.55420194  0.55420194  0.55420194  1
  O  O28  1  0.45815768  0.95815768  0.54184232  1
  O  O29  1  0.54184232  0.45815768  0.95815768  1
  O  O30  1  0.95815768  0.54184232  0.45815768  1
  O  O31  1  0.04184232  0.04184232  0.04184232  1
  O  O32  1  0.29129051  0.70870949  0.20870949  1
  O  O33  1  0.20870949  0.29129051  0.70870949  1
  O  O34  1  0.70870949  0.20870949  0.29129051  1
  O  O35  1  0.79129051  0.79129051  0.79129051  1
  O  O36  1  0.30407011  0.30407011  0.30407011  1
  O  O37  1  0.19592989  0.69592989  0.80407011  1
  O  O38  1  0.80407011  0.19592989  0.69592989  1
  O  O39  1  0.69592989  0.80407011  0.19592989  1
  O  O40  1  0.45139233  0.92852145  0.11649229  1
  O  O41  1  0.11649229  0.45139233  0.92852145  1
  O  O42  1  0.92852145  0.11649229  0.45139233  1
  O  O43  1  0.57147855  0.88350771  0.95139233  1
  O  O44  1  0.61649229  0.04860767  0.07147855  1
  O  O45  1  0.07147855  0.61649229  0.04860767  1
  O  O46  1  0.38350771  0.54860767  0.42852145  1
  O  O47  1  0.88350771  0.95139233  0.57147855  1
  O  O48  1  0.42852145  0.38350771  0.54860767  1
  O  O49  1  0.95139233  0.57147855  0.88350771  1
  O  O50  1  0.54860767  0.42852145  0.38350771  1
  O  O51  1  0.04860767  0.07147855  0.61649229  1
  O  O52  1  0.29905546  0.13526023  0.17470970  1
  O  O53  1  0.17470970  0.29905546  0.13526023  1
  O  O54  1  0.13526023  0.17470970  0.29905546  1
  O  O55  1  0.36473977  0.82529030  0.79905546  1
  O  O56  1  0.67470970  0.20094454  0.86473977  1
  O  O57  1  0.86473977  0.67470970  0.20094454  1
  O  O58  1  0.32529030  0.70094454  0.63526023  1
  O  O59  1  0.82529030  0.79905546  0.36473977  1
  O  O60  1  0.63526023  0.32529030  0.70094454  1
  O  O61  1  0.79905546  0.36473977  0.82529030  1
  O  O62  1  0.70094454  0.63526023  0.32529030  1
  O  O63  1  0.20094454  0.86473977  0.67470970  1
  O  O64  1  0.25633088  0.90560827  0.28684434  1
  O  O65  1  0.28684434  0.25633088  0.90560827  1
  O  O66  1  0.90560827  0.28684434  0.25633088  1
  O  O67  1  0.59439173  0.71315566  0.75633088  1
  O  O68  1  0.78684434  0.24366912  0.09439173  1
  O  O69  1  0.09439173  0.78684434  0.24366912  1
  O  O70  1  0.21315566  0.74366912  0.40560827  1
  O  O71  1  0.71315566  0.75633088  0.59439173  1
  O  O72  1  0.40560827  0.21315566  0.74366912  1
  O  O73  1  0.75633088  0.59439173  0.71315566  1
  O  O74  1  0.74366912  0.40560827  0.21315566  1
  O  O75  1  0.24366912  0.09439173  0.78684434  1
  O  O76  1  0.48443543  0.05034267  0.34899218  1
  O  O77  1  0.34899218  0.48443543  0.05034267  1
  O  O78  1  0.05034267  0.34899218  0.48443543  1
  O  O79  1  0.44965733  0.65100782  0.98443543  1
  O  O80  1  0.84899218  0.01556457  0.94965733  1
  O  O81  1  0.94965733  0.84899218  0.01556457  1
  O  O82  1  0.15100782  0.51556457  0.55034267  1
  O  O83  1  0.65100782  0.98443543  0.44965733  1
  O  O84  1  0.55034267  0.15100782  0.51556457  1
  O  O85  1  0.98443543  0.44965733  0.65100782  1
  O  O86  1  0.51556457  0.55034267  0.15100782  1
  O  O87  1  0.01556457  0.94965733  0.84899218  1
  O  O88  1  0.49807634  0.24000433  0.12676338  1
  O  O89  1  0.12676338  0.49807634  0.24000433  1
  O  O90  1  0.24000433  0.12676338  0.49807634  1
  O  O91  1  0.25999567  0.87323662  0.99807634  1
  O  O92  1  0.62676338  0.00192366  0.75999567  1
  O  O93  1  0.75999567  0.62676338  0.00192366  1
  O  O94  1  0.37323662  0.50192366  0.74000433  1
  O  O95  1  0.87323662  0.99807634  0.25999567  1
  O  O96  1  0.74000433  0.37323662  0.50192366  1
  O  O97  1  0.99807634  0.25999567  0.87323662  1
  O  O98  1  0.50192366  0.74000433  0.37323662  1
  O  O99  1  0.00192366  0.75999567  0.62676338  1
  Na  Na100  1  0.32755194  0.50603959  0.24810212  1
  Na  Na101  1  0.24810212  0.32755194  0.50603959  1
  Na  Na102  1  0.50603959  0.24810212  0.32755194  1
  Na  Na103  1  0.99396041  0.75189788  0.82755194  1
  Na  Na104  1  0.74810212  0.17244806  0.49396041  1
  Na  Na105  1  0.49396041  0.74810212  0.17244806  1
  Na  Na106  1  0.25189788  0.67244806  0.00603959  1
  Na  Na107  1  0.75189788  0.82755194  0.99396041  1
  Na  Na108  1  0.00603959  0.25189788  0.67244806  1
  Na  Na109  1  0.82755194  0.99396041  0.75189788  1
  Na  Na110  1  0.67244806  0.00603959  0.25189788  1
  Na  Na111  1  0.17244806  0.49396041  0.74810212  1
  Na  Na112  1  0.42371241  0.00979070  0.74041177  1
  Na  Na113  1  0.74041177  0.42371241  0.00979070  1
  Na  Na114  1  0.00979070  0.74041177  0.42371241  1
  Na  Na115  1  0.49020930  0.25958823  0.92371241  1
  Na  Na116  1  0.24041177  0.07628759  0.99020930  1
  Na  Na117  1  0.99020930  0.24041177  0.07628759  1
  Na  Na118  1  0.75958823  0.57628759  0.50979070  1
  Na  Na119  1  0.25958823  0.92371241  0.49020930  1
  Na  Na120  1  0.50979070  0.75958823  0.57628759  1
  Na  Na121  1  0.92371241  0.49020930  0.25958823  1
  Na  Na122  1  0.57628759  0.50979070  0.75958823  1
  Na  Na123  1  0.07628759  0.99020930  0.24041177  1
  P  P124  1  0.51826146  0.98173854  0.01826146  1
  P  P125  1  0.01826146  0.51826146  0.98173854  1
  P  P126  1  0.98173854  0.01826146  0.51826146  1
  P  P127  1  0.48173854  0.48173854  0.48173854  1
  P  P128  1  0.53102347  0.03102347  0.46897653  1
  P  P129  1  0.46897653  0.53102347  0.03102347  1
  P  P130  1  0.03102347  0.46897653  0.53102347  1
  P  P131  1  0.96897653  0.96897653  0.96897653  1
  P  P132  1  0.21858453  0.78141547  0.28141547  1
  P  P133  1  0.28141547  0.21858453  0.78141547  1
  P  P134  1  0.78141547  0.28141547  0.21858453  1
  P  P135  1  0.71858453  0.71858453  0.71858453  1
  P  P136  1  0.23119492  0.23119492  0.23119492  1
  P  P137  1  0.26880508  0.76880508  0.73119492  1
  P  P138  1  0.73119492  0.26880508  0.76880508  1
  P  P139  1  0.76880508  0.73119492  0.26880508  1
  Zn  Zn140  1  0.37503208  0.00239915  0.24252761  1
  Zn  Zn141  1  0.24252761  0.37503208  0.00239915  1
  Zn  Zn142  1  0.00239915  0.24252761  0.37503208  1
  Zn  Zn143  1  0.49760085  0.75747239  0.87503208  1
  Zn  Zn144  1  0.74252761  0.12496792  0.99760085  1
  Zn  Zn145  1  0.99760085  0.74252761  0.12496792  1
  Zn  Zn146  1  0.25747239  0.62496792  0.50239915  1
  Zn  Zn147  1  0.75747239  0.87503208  0.49760085  1
  Zn  Zn148  1  0.50239915  0.25747239  0.62496792  1
  Zn  Zn149  1  0.87503208  0.49760085  0.75747239  1
  Zn  Zn150  1  0.62496792  0.50239915  0.25747239  1
  Zn  Zn151  1  0.12496792  0.99760085  0.74252761  1
