# generated using pymatgen
data_Cu4(BiS2)5
_symmetry_space_group_name_H-M   'P 1'
_cell_length_a   3.90133691
_cell_length_b   9.00650393
_cell_length_c   12.91255937
_cell_angle_alpha   106.97555009
_cell_angle_beta   90.00000000
_cell_angle_gamma   102.50849849
_symmetry_Int_Tables_number   1
_chemical_formula_structural   Cu4(BiS2)5
_chemical_formula_sum   'Cu4 Bi5 S10'
_cell_volume   422.67248439
_cell_formula_units_Z   1
loop_
 _symmetry_equiv_pos_site_id
 _symmetry_equiv_pos_as_xyz
  1  'x, y, z'
loop_
 _atom_site_type_symbol
 _atom_site_label
 _atom_site_symmetry_multiplicity
 _atom_site_fract_x
 _atom_site_fract_y
 _atom_site_fract_z
 _atom_site_occupancy
  S  S0  1  0.02221717  0.04443434  0.63341201  1
  S  S1  1  0.97778283  0.95556566  0.36658799  1
  S  S2  1  0.15343599  0.30687198  0.97170901  1
  S  S3  1  0.84656401  0.69312802  0.02829099  1
  S  S4  1  0.66397517  0.32795034  0.50336919  1
  S  S5  1  0.33602483  0.67204966  0.49663081  1
  S  S6  1  0.24073333  0.48146665  0.76037556  1
  S  S7  1  0.75926667  0.51853335  0.23962444  1
  S  S8  1  0.45715289  0.91430577  0.83413423  1
  S  S9  1  0.54284711  0.08569423  0.16586577  1
  Cu  Cu10  1  0.09622110  0.19244221  0.51301681  1
  Cu  Cu11  1  0.90377890  0.80755779  0.48698319  1
  Cu  Cu12  1  0.28669149  0.57338299  0.94522537  1
  Cu  Cu13  1  0.71330851  0.42661701  0.05477463  1
  Bi  Bi14  1  0.58840910  0.17681820  0.77518484  1
  Bi  Bi15  1  0.41159090  0.82318180  0.22481516  1
  Bi  Bi16  1  0.80172364  0.60344728  0.66233342  1
  Bi  Bi17  1  0.19827636  0.39655272  0.33766658  1
  Bi  Bi18  1  0.00000000  0.00000000  0.00000000  1
