# generated using pymatgen
data_V2CoP2(H4O7)2
_symmetry_space_group_name_H-M   'P 1'
_cell_length_a   6.34751820
_cell_length_b   6.34751820
_cell_length_c   8.09820957
_cell_angle_alpha   113.07331894
_cell_angle_beta   113.07331893
_cell_angle_gamma   90.00000000
_symmetry_Int_Tables_number   1
_chemical_formula_structural   V2CoP2(H4O7)2
_chemical_formula_sum   'V2 Co1 P2 H8 O14'
_cell_volume   271.58487978
_cell_formula_units_Z   1
loop_
 _symmetry_equiv_pos_site_id
 _symmetry_equiv_pos_as_xyz
  1  'x, y, z'
loop_
 _atom_site_type_symbol
 _atom_site_label
 _atom_site_symmetry_multiplicity
 _atom_site_fract_x
 _atom_site_fract_y
 _atom_site_fract_z
 _atom_site_occupancy
  H  H0  1  0.11296698  0.29918407  0.87979167  1
  H  H1  1  0.58060681  0.11296733  0.87979173  1
  H  H2  1  0.29918416  0.76682383  0.87979135  1
  H  H3  1  0.76682400  0.58060710  0.87979141  1
  H  H4  1  0.88703223  0.70081478  0.12020712  1
  H  H5  1  0.23317521  0.41939175  0.12020737  1
  H  H6  1  0.41939271  0.88703326  0.12020768  1
  H  H7  1  0.70081505  0.23317501  0.12020743  1
  O  O8  1  0.29798819  0.62296587  0.63729650  1
  O  O9  1  0.33930730  0.01433034  0.63729603  1
  O  O10  1  0.62296505  0.33930729  0.63729520  1
  O  O11  1  0.37703416  0.66069155  0.36270358  1
  O  O12  1  0.70201135  0.37703474  0.36270417  1
  O  O13  1  0.84433984  0.84433938  0.68867979  1
  O  O14  1  0.98567081  0.70201170  0.36270387  1
  O  O15  1  0.18209282  0.27023743  0.00000038  1
  O  O16  1  0.72976248  0.18209366  0.00000011  1
  O  O17  1  0.27023706  0.81790695  0.00000056  1
  O  O18  1  0.81790672  0.72976318  0.00000029  1
  O  O19  1  0.15565939  0.15565948  0.31132025  1
  O  O20  1  0.01433012  0.29798715  0.63729544  1
  O  O21  1  0.66069224  0.98567027  0.36270464  1
  P  P22  1  0.24999992  0.75000077  0.50000052  1
  P  P23  1  0.74999962  0.24999984  0.50000015  1
  V  V24  1  0.27732948  0.27732990  0.55465907  1
  V  V25  1  0.72267005  0.72267069  0.44534035  1
  Co  Co26  1  0.00000000  0.00000000  0.00000000  1
