# generated using pymatgen
data_ZrPb3F10
_symmetry_space_group_name_H-M   'P 1'
_cell_length_a   6.11179795
_cell_length_b   8.40248897
_cell_length_c   8.40248897
_cell_angle_alpha   100.96004247
_cell_angle_beta   90.00000000
_cell_angle_gamma   90.00000000
_symmetry_Int_Tables_number   1
_chemical_formula_structural   ZrPb3F10
_chemical_formula_sum   'Zr2 Pb6 F20'
_cell_volume   423.63343593
_cell_formula_units_Z   2
loop_
 _symmetry_equiv_pos_site_id
 _symmetry_equiv_pos_as_xyz
  1  'x, y, z'
loop_
 _atom_site_type_symbol
 _atom_site_label
 _atom_site_symmetry_multiplicity
 _atom_site_fract_x
 _atom_site_fract_y
 _atom_site_fract_z
 _atom_site_occupancy
  F  F0  1  0.75000000  0.07596493  0.25331244  1
  F  F1  1  0.25000000  0.92403507  0.74668756  1
  F  F2  1  0.25000000  0.25331244  0.07596493  1
  F  F3  1  0.75000000  0.74668756  0.92403507  1
  F  F4  1  0.54694396  0.10364246  0.89635754  1
  F  F5  1  0.04694396  0.89635754  0.10364246  1
  F  F6  1  0.45305604  0.89635754  0.10364246  1
  F  F7  1  0.95305604  0.10364246  0.89635754  1
  F  F8  1  0.00000000  0.36369340  0.36369340  1
  F  F9  1  0.50000000  0.63630660  0.63630660  1
  F  F10  1  0.00000000  0.63630660  0.63630660  1
  F  F11  1  0.50000000  0.36369340  0.36369340  1
  F  F12  1  0.95992710  0.60397716  0.15408262  1
  F  F13  1  0.45992710  0.39602284  0.84591738  1
  F  F14  1  0.04007290  0.15408262  0.60397716  1
  F  F15  1  0.54007290  0.84591738  0.39602284  1
  F  F16  1  0.04007290  0.39602284  0.84591738  1
  F  F17  1  0.54007290  0.60397716  0.15408262  1
  F  F18  1  0.95992710  0.84591738  0.39602284  1
  F  F19  1  0.45992710  0.15408262  0.60397716  1
  Zr  Zr20  1  0.25000000  0.18280202  0.81719798  1
  Zr  Zr21  1  0.75000000  0.81719798  0.18280202  1
  Pb  Pb22  1  0.75000000  0.89088502  0.67948268  1
  Pb  Pb23  1  0.25000000  0.10911498  0.32051732  1
  Pb  Pb24  1  0.25000000  0.67948268  0.89088502  1
  Pb  Pb25  1  0.75000000  0.32051732  0.10911498  1
  Pb  Pb26  1  0.25000000  0.61069845  0.38930155  1
  Pb  Pb27  1  0.75000000  0.38930155  0.61069845  1
