# generated using pymatgen
data_Cd2P3Cl
_symmetry_space_group_name_H-M   'P 1'
_cell_length_a   6.11639199
_cell_length_b   6.11639199
_cell_length_c   7.66724322
_cell_angle_alpha   96.92006099
_cell_angle_beta   96.92006096
_cell_angle_gamma   96.79402230
_symmetry_Int_Tables_number   1
_chemical_formula_structural   Cd2P3Cl
_chemical_formula_sum   'Cd4 P6 Cl2'
_cell_volume   280.09072753
_cell_formula_units_Z   2
loop_
 _symmetry_equiv_pos_site_id
 _symmetry_equiv_pos_as_xyz
  1  'x, y, z'
loop_
 _atom_site_type_symbol
 _atom_site_label
 _atom_site_symmetry_multiplicity
 _atom_site_fract_x
 _atom_site_fract_y
 _atom_site_fract_z
 _atom_site_occupancy
  P  P0  1  0.94964798  0.55993125  0.96713365  1
  P  P1  1  0.55993125  0.94964798  0.46713365  1
  P  P2  1  0.68493319  0.59447245  0.75274783  1
  P  P3  1  0.59447245  0.68493319  0.25274783  1
  P  P4  1  0.82445374  0.91481096  0.68150411  1
  P  P5  1  0.91481096  0.82445374  0.18150411  1
  Cl  Cl6  1  0.11945938  0.39167220  0.47336346  1
  Cl  Cl7  1  0.39167220  0.11945938  0.97336346  1
  Cd  Cd8  1  0.66733234  0.35987975  0.43276790  1
  Cd  Cd9  1  0.35987975  0.66733234  0.93276790  1
  Cd  Cd10  1  0.14927532  0.84213145  0.50048305  1
  Cd  Cd11  1  0.84213145  0.14927532  0.00048305  1
