# generated using pymatgen
data_CsSrN9
_symmetry_space_group_name_H-M   'P 1'
_cell_length_a   6.97495898
_cell_length_b   6.97495899
_cell_length_c   9.12103059
_cell_angle_alpha   109.33623877
_cell_angle_beta   109.33623875
_cell_angle_gamma   95.62379003
_symmetry_Int_Tables_number   1
_chemical_formula_structural   CsSrN9
_chemical_formula_sum   'Cs2 Sr2 N18'
_cell_volume   384.19664406
_cell_formula_units_Z   2
loop_
 _symmetry_equiv_pos_site_id
 _symmetry_equiv_pos_as_xyz
  1  'x, y, z'
loop_
 _atom_site_type_symbol
 _atom_site_label
 _atom_site_symmetry_multiplicity
 _atom_site_fract_x
 _atom_site_fract_y
 _atom_site_fract_z
 _atom_site_occupancy
  N  N0  1  0.74273649  0.91315197  0.35042005  1
  N  N1  1  0.08684803  0.25726351  0.14957995  1
  N  N2  1  0.25726351  0.08684803  0.64957995  1
  N  N3  1  0.91315197  0.74273649  0.85042005  1
  N  N4  1  0.50000000  0.50000000  0.50000000  1
  N  N5  1  0.50000000  0.50000000  0.00000000  1
  N  N6  1  0.34052744  0.54939630  0.95084269  1
  N  N7  1  0.45060370  0.65947256  0.54915731  1
  N  N8  1  0.65947256  0.45060370  0.04915731  1
  N  N9  1  0.54939630  0.34052744  0.45084269  1
  N  N10  1  0.79025927  0.82089128  0.89770128  1
  N  N11  1  0.17910872  0.20974073  0.60229872  1
  N  N12  1  0.20974073  0.17910872  0.10229872  1
  N  N13  1  0.82089128  0.79025927  0.39770128  1
  N  N14  1  0.66647269  0.90020580  0.94449810  1
  N  N15  1  0.09979420  0.33352731  0.55550190  1
  N  N16  1  0.33352731  0.09979420  0.05550190  1
  N  N17  1  0.90020580  0.66647269  0.44449810  1
  Sr  Sr18  1  0.76087699  0.23912301  0.25000000  1
  Sr  Sr19  1  0.23912301  0.76087699  0.75000000  1
  Cs  Cs20  1  0.21066942  0.78933058  0.25000000  1
  Cs  Cs21  1  0.78933058  0.21066942  0.75000000  1
