# generated using pymatgen
data_Te6Br2O11
_symmetry_space_group_name_H-M   'P 1'
_cell_length_a   6.96858039
_cell_length_b   6.96858039
_cell_length_c   15.93843580
_cell_angle_alpha   90.00000000
_cell_angle_beta   90.00000000
_cell_angle_gamma   119.71569105
_symmetry_Int_Tables_number   1
_chemical_formula_structural   Te6Br2O11
_chemical_formula_sum   'Te12 Br4 O22'
_cell_volume   672.20547667
_cell_formula_units_Z   2
loop_
 _symmetry_equiv_pos_site_id
 _symmetry_equiv_pos_as_xyz
  1  'x, y, z'
loop_
 _atom_site_type_symbol
 _atom_site_label
 _atom_site_symmetry_multiplicity
 _atom_site_fract_x
 _atom_site_fract_y
 _atom_site_fract_z
 _atom_site_occupancy
  O  O0  1  0.92729642  0.92729642  0.75000000  1
  O  O1  1  0.07270358  0.07270358  0.25000000  1
  O  O2  1  0.20181135  0.96224226  0.09627105  1
  O  O3  1  0.79818865  0.03775774  0.59627105  1
  O  O4  1  0.96224226  0.20181135  0.40372895  1
  O  O5  1  0.03775774  0.79818865  0.90372895  1
  O  O6  1  0.79818865  0.03775774  0.90372895  1
  O  O7  1  0.20181135  0.96224226  0.40372895  1
  O  O8  1  0.03775774  0.79818865  0.59627105  1
  O  O9  1  0.96224226  0.20181135  0.09627105  1
  O  O10  1  0.51582634  0.81492432  0.03539029  1
  O  O11  1  0.48417366  0.18507568  0.53539029  1
  O  O12  1  0.81492432  0.51582634  0.46460971  1
  O  O13  1  0.18507568  0.48417366  0.96460971  1
  O  O14  1  0.48417366  0.18507568  0.96460971  1
  O  O15  1  0.51582634  0.81492432  0.46460971  1
  O  O16  1  0.42524934  0.42524934  0.11337185  1
  O  O17  1  0.57475066  0.57475066  0.61337185  1
  O  O18  1  0.42524934  0.42524934  0.38662815  1
  O  O19  1  0.57475066  0.57475066  0.88662815  1
  O  O20  1  0.81492432  0.51582634  0.03539029  1
  O  O21  1  0.18507568  0.48417366  0.53539029  1
  Br  Br22  1  0.47218284  0.13838025  0.75000000  1
  Br  Br23  1  0.52781716  0.86161975  0.25000000  1
  Br  Br24  1  0.13838025  0.47218284  0.75000000  1
  Br  Br25  1  0.86161975  0.52781716  0.25000000  1
  Te  Te26  1  0.06877742  0.06877742  0.85781188  1
  Te  Te27  1  0.93122258  0.93122258  0.35781188  1
  Te  Te28  1  0.06877742  0.06877742  0.64218812  1
  Te  Te29  1  0.93122258  0.93122258  0.14218812  1
  Te  Te30  1  0.52489639  0.21614153  0.08473111  1
  Te  Te31  1  0.47510361  0.78385847  0.58473111  1
  Te  Te32  1  0.21614153  0.52489639  0.41526889  1
  Te  Te33  1  0.78385847  0.47510361  0.91526889  1
  Te  Te34  1  0.47510361  0.78385847  0.91526889  1
  Te  Te35  1  0.52489639  0.21614153  0.41526889  1
  Te  Te36  1  0.78385847  0.47510361  0.58473111  1
  Te  Te37  1  0.21614153  0.52489639  0.08473111  1
