# generated using pymatgen
data_Tl2SnTe3
_symmetry_space_group_name_H-M   'P 1'
_cell_length_a   8.63882824
_cell_length_b   8.79686057
_cell_length_c   22.64672969
_cell_angle_alpha   90.00000000
_cell_angle_beta   90.00000000
_cell_angle_gamma   90.00000000
_symmetry_Int_Tables_number   1
_chemical_formula_structural   Tl2SnTe3
_chemical_formula_sum   'Tl16 Sn8 Te24'
_cell_volume   1721.02842843
_cell_formula_units_Z   8
loop_
 _symmetry_equiv_pos_site_id
 _symmetry_equiv_pos_as_xyz
  1  'x, y, z'
loop_
 _atom_site_type_symbol
 _atom_site_label
 _atom_site_symmetry_multiplicity
 _atom_site_fract_x
 _atom_site_fract_y
 _atom_site_fract_z
 _atom_site_occupancy
  Sn  Sn0  1  0.80319263  0.99453732  0.33482904  1
  Sn  Sn1  1  0.80319263  0.99453732  0.16517096  1
  Sn  Sn2  1  0.30319263  0.50546268  0.33482904  1
  Sn  Sn3  1  0.69680737  0.49453732  0.83482904  1
  Sn  Sn4  1  0.19680737  0.00546268  0.66517096  1
  Sn  Sn5  1  0.19680737  0.00546268  0.83482904  1
  Sn  Sn6  1  0.69680737  0.49453732  0.66517096  1
  Sn  Sn7  1  0.30319263  0.50546268  0.16517096  1
  Te  Te8  1  0.90233516  0.30977265  0.60302015  1
  Te  Te9  1  0.40233516  0.19022735  0.89697985  1
  Te  Te10  1  0.59766484  0.80977265  0.39697985  1
  Te  Te11  1  0.09766484  0.69022735  0.10302015  1
  Te  Te12  1  0.09766484  0.69022735  0.39697985  1
  Te  Te13  1  0.59766484  0.80977265  0.10302015  1
  Te  Te14  1  0.40233516  0.19022735  0.60302015  1
  Te  Te15  1  0.90233516  0.30977265  0.89697985  1
  Te  Te16  1  0.97976731  0.17932562  0.09032413  1
  Te  Te17  1  0.97976731  0.17932562  0.40967587  1
  Te  Te18  1  0.47976731  0.32067438  0.09032413  1
  Te  Te19  1  0.52023269  0.67932562  0.59032413  1
  Te  Te20  1  0.02023269  0.82067438  0.90967587  1
  Te  Te21  1  0.02023269  0.82067438  0.59032413  1
  Te  Te22  1  0.52023269  0.67932562  0.90967587  1
  Te  Te23  1  0.47976731  0.32067438  0.40967587  1
  Te  Te24  1  0.63279447  0.17046501  0.25000000  1
  Te  Te25  1  0.13279447  0.32953499  0.25000000  1
  Te  Te26  1  0.86720553  0.67046501  0.75000000  1
  Te  Te27  1  0.36720553  0.82953499  0.75000000  1
  Te  Te28  1  0.02216100  0.17453648  0.75000000  1
  Te  Te29  1  0.52216100  0.32546352  0.75000000  1
  Te  Te30  1  0.47783900  0.67453648  0.25000000  1
  Te  Te31  1  0.97783900  0.82546352  0.25000000  1
  Tl  Tl32  1  0.70062677  0.98843027  0.66832584  1
  Tl  Tl33  1  0.20062677  0.51156973  0.83167416  1
  Tl  Tl34  1  0.79937323  0.48843027  0.33167416  1
  Tl  Tl35  1  0.29937323  0.01156973  0.16832584  1
  Tl  Tl36  1  0.29937323  0.01156973  0.33167416  1
  Tl  Tl37  1  0.79937323  0.48843027  0.16832584  1
  Tl  Tl38  1  0.20062677  0.51156973  0.66832584  1
  Tl  Tl39  1  0.70062677  0.98843027  0.83167416  1
  Tl  Tl40  1  0.73647411  0.03376956  0.51014174  1
  Tl  Tl41  1  0.23647411  0.46623044  0.98985826  1
  Tl  Tl42  1  0.76352589  0.53376956  0.48985826  1
  Tl  Tl43  1  0.26352589  0.96623044  0.01014174  1
  Tl  Tl44  1  0.26352589  0.96623044  0.48985826  1
  Tl  Tl45  1  0.76352589  0.53376956  0.01014174  1
  Tl  Tl46  1  0.23647411  0.46623044  0.51014174  1
  Tl  Tl47  1  0.73647411  0.03376956  0.98985826  1
