# generated using pymatgen
data_Tl4S3
_symmetry_space_group_name_H-M   'P 1'
_cell_length_a   8.35854795
_cell_length_b   8.13926697
_cell_length_c   13.12870685
_cell_angle_alpha   90.00000000
_cell_angle_beta   90.00000000
_cell_angle_gamma   103.32467944
_symmetry_Int_Tables_number   1
_chemical_formula_structural   Tl4S3
_chemical_formula_sum   'Tl16 S12'
_cell_volume   869.13350480
_cell_formula_units_Z   4
loop_
 _symmetry_equiv_pos_site_id
 _symmetry_equiv_pos_as_xyz
  1  'x, y, z'
loop_
 _atom_site_type_symbol
 _atom_site_label
 _atom_site_symmetry_multiplicity
 _atom_site_fract_x
 _atom_site_fract_y
 _atom_site_fract_z
 _atom_site_occupancy
  S  S0  1  0.03869034  0.91574888  0.83438036  1
  S  S1  1  0.96130966  0.58425112  0.33438036  1
  S  S2  1  0.96130966  0.08425112  0.16561964  1
  S  S3  1  0.03869034  0.41574888  0.66561964  1
  S  S4  1  0.49168542  0.75590998  0.74706357  1
  S  S5  1  0.50831458  0.74409002  0.24706357  1
  S  S6  1  0.50831458  0.24409002  0.25293643  1
  S  S7  1  0.49168542  0.25590998  0.75293643  1
  S  S8  1  0.24082454  0.45717271  0.97224141  1
  S  S9  1  0.75917546  0.04282729  0.47224141  1
  S  S10  1  0.75917546  0.54282729  0.02775859  1
  S  S11  1  0.24082454  0.95717271  0.52775859  1
  Tl  Tl12  1  0.29287188  0.45992005  0.77604126  1
  Tl  Tl13  1  0.70712812  0.04007995  0.27604126  1
  Tl  Tl14  1  0.70712812  0.54007995  0.22395874  1
  Tl  Tl15  1  0.29287188  0.95992005  0.72395874  1
  Tl  Tl16  1  0.80268778  0.58450307  0.79002917  1
  Tl  Tl17  1  0.19731222  0.91549693  0.29002917  1
  Tl  Tl18  1  0.19731222  0.41549693  0.20997083  1
  Tl  Tl19  1  0.80268778  0.08450307  0.70997083  1
  Tl  Tl20  1  0.91265522  0.72350260  0.53414127  1
  Tl  Tl21  1  0.08734478  0.77649740  0.03414127  1
  Tl  Tl22  1  0.08734478  0.27649740  0.46585873  1
  Tl  Tl23  1  0.91265522  0.22350260  0.96585873  1
  Tl  Tl24  1  0.52884897  0.27083983  0.49813133  1
  Tl  Tl25  1  0.47115103  0.22916017  0.99813133  1
  Tl  Tl26  1  0.47115103  0.72916017  0.50186867  1
  Tl  Tl27  1  0.52884897  0.77083983  0.00186867  1
