# generated using pymatgen
data_Li7Ge2
_symmetry_space_group_name_H-M   'P 1'
_cell_length_a   4.48146683
_cell_length_b   8.05963888
_cell_length_c   8.05963888
_cell_angle_alpha   110.27108857
_cell_angle_beta   90.00000000
_cell_angle_gamma   90.00000000
_symmetry_Int_Tables_number   1
_chemical_formula_structural   Li7Ge2
_chemical_formula_sum   'Li14 Ge4'
_cell_volume   273.07614689
_cell_formula_units_Z   2
loop_
 _symmetry_equiv_pos_site_id
 _symmetry_equiv_pos_as_xyz
  1  'x, y, z'
loop_
 _atom_site_type_symbol
 _atom_site_label
 _atom_site_symmetry_multiplicity
 _atom_site_fract_x
 _atom_site_fract_y
 _atom_site_fract_z
 _atom_site_occupancy
  Li  Li0  1  0.50000000  0.81666797  0.50142123  1
  Li  Li1  1  0.50000000  0.18333203  0.49857877  1
  Li  Li2  1  0.50000000  0.50142123  0.81666797  1
  Li  Li3  1  0.50000000  0.49857877  0.18333203  1
  Li  Li4  1  0.00000000  0.00000000  0.00000000  1
  Li  Li5  1  0.50000000  0.50000000  0.50000000  1
  Li  Li6  1  0.00000000  0.33997962  0.33997962  1
  Li  Li7  1  0.00000000  0.66002038  0.66002038  1
  Li  Li8  1  0.50000000  0.17294953  0.82705047  1
  Li  Li9  1  0.50000000  0.82705047  0.17294953  1
  Li  Li10  1  0.00000000  0.34324921  0.02034824  1
  Li  Li11  1  0.00000000  0.65675079  0.97965176  1
  Li  Li12  1  0.00000000  0.02034824  0.34324921  1
  Li  Li13  1  0.00000000  0.97965176  0.65675079  1
  Ge  Ge14  1  0.50000000  0.84451186  0.84451186  1
  Ge  Ge15  1  0.50000000  0.15548814  0.15548814  1
  Ge  Ge16  1  0.00000000  0.67843849  0.32156151  1
  Ge  Ge17  1  0.00000000  0.32156151  0.67843849  1
