# generated using pymatgen
data_Tl3PbCl5
_symmetry_space_group_name_H-M   'P 1'
_cell_length_a   8.64867672
_cell_length_b   8.64867672
_cell_length_c   15.08472245
_cell_angle_alpha   90.00000000
_cell_angle_beta   90.00000000
_cell_angle_gamma   90.00000000
_symmetry_Int_Tables_number   1
_chemical_formula_structural   Tl3PbCl5
_chemical_formula_sum   'Tl12 Pb4 Cl20'
_cell_volume   1128.33134124
_cell_formula_units_Z   4
loop_
 _symmetry_equiv_pos_site_id
 _symmetry_equiv_pos_as_xyz
  1  'x, y, z'
loop_
 _atom_site_type_symbol
 _atom_site_label
 _atom_site_symmetry_multiplicity
 _atom_site_fract_x
 _atom_site_fract_y
 _atom_site_fract_z
 _atom_site_occupancy
  Cl  Cl0  1  0.50907544  0.20569469  0.60661172  1
  Cl  Cl1  1  0.79430531  0.50907544  0.85661172  1
  Cl  Cl2  1  0.20569469  0.49092456  0.35661172  1
  Cl  Cl3  1  0.49092456  0.79430531  0.10661172  1
  Cl  Cl4  1  0.47662022  0.35599527  0.01023482  1
  Cl  Cl5  1  0.64400473  0.47662022  0.26023482  1
  Cl  Cl6  1  0.35599527  0.52337978  0.76023482  1
  Cl  Cl7  1  0.52337978  0.64400473  0.51023482  1
  Cl  Cl8  1  0.96876290  0.17914254  0.70818662  1
  Cl  Cl9  1  0.82085746  0.96876290  0.95818662  1
  Cl  Cl10  1  0.17914254  0.03123710  0.45818662  1
  Cl  Cl11  1  0.03123710  0.82085746  0.20818662  1
  Cl  Cl12  1  0.33016348  0.97559721  0.85343024  1
  Cl  Cl13  1  0.02440279  0.33016348  0.10343024  1
  Cl  Cl14  1  0.97559721  0.66983652  0.60343024  1
  Cl  Cl15  1  0.66983652  0.02440279  0.35343024  1
  Cl  Cl16  1  0.35442735  0.17991392  0.22880522  1
  Cl  Cl17  1  0.82008608  0.35442735  0.47880522  1
  Cl  Cl18  1  0.17991392  0.64557265  0.97880522  1
  Cl  Cl19  1  0.64557265  0.82008608  0.72880522  1
  Tl  Tl20  1  0.99235686  0.81044292  0.80721585  1
  Tl  Tl21  1  0.18955708  0.99235686  0.05721585  1
  Tl  Tl22  1  0.81044292  0.00764314  0.55721585  1
  Tl  Tl23  1  0.00764314  0.18955708  0.30721585  1
  Tl  Tl24  1  0.36505645  0.82663668  0.32245290  1
  Tl  Tl25  1  0.17336332  0.36505645  0.57245290  1
  Tl  Tl26  1  0.82663668  0.63494355  0.07245290  1
  Tl  Tl27  1  0.63494355  0.17336332  0.82245290  1
  Tl  Tl28  1  0.88725690  0.67806185  0.38071841  1
  Tl  Tl29  1  0.32193815  0.88725690  0.63071841  1
  Tl  Tl30  1  0.67806185  0.11274310  0.13071841  1
  Tl  Tl31  1  0.11274310  0.32193815  0.88071841  1
  Pb  Pb32  1  0.48909044  0.69694670  0.89234421  1
  Pb  Pb33  1  0.30305330  0.48909044  0.14234421  1
  Pb  Pb34  1  0.69694670  0.51090956  0.64234421  1
  Pb  Pb35  1  0.51090956  0.30305330  0.39234421  1
