# generated using pymatgen
data_Bi3ClO4
_symmetry_space_group_name_H-M   'P 1'
_cell_length_a   5.79809572
_cell_length_b   5.79233321
_cell_length_c   10.22250799
_cell_angle_alpha   106.05872421
_cell_angle_beta   106.47485813
_cell_angle_gamma   90.00000002
_symmetry_Int_Tables_number   1
_chemical_formula_structural   Bi3ClO4
_chemical_formula_sum   'Bi6 Cl2 O8'
_cell_volume   315.22750889
_cell_formula_units_Z   2
loop_
 _symmetry_equiv_pos_site_id
 _symmetry_equiv_pos_as_xyz
  1  'x, y, z'
loop_
 _atom_site_type_symbol
 _atom_site_label
 _atom_site_symmetry_multiplicity
 _atom_site_fract_x
 _atom_site_fract_y
 _atom_site_fract_z
 _atom_site_occupancy
  O  O0  1  0.49999358  0.99293339  0.13257970  1
  O  O1  1  0.36741388  0.50706661  0.86742030  1
  O  O2  1  0.50000642  0.00706661  0.86742030  1
  O  O3  1  0.63258612  0.49293339  0.13257970  1
  O  O4  1  0.13112459  0.60245867  0.17982252  1
  O  O5  1  0.86887541  0.39754133  0.82017748  1
  O  O6  1  0.95130207  0.89754133  0.82017748  1
  O  O7  1  0.04869793  0.10245867  0.17982252  1
  Cl  Cl8  1  0.50000000  0.50000000  0.50000000  1
  Cl  Cl9  1  0.00000000  0.00000000  0.50000000  1
  Bi  Bi10  1  0.05855926  0.56135829  0.71054151  1
  Bi  Bi11  1  0.65198224  0.06135829  0.71054151  1
  Bi  Bi12  1  0.94144074  0.43864171  0.28945849  1
  Bi  Bi13  1  0.34801776  0.93864171  0.28945849  1
  Bi  Bi14  1  0.29522455  0.25000000  0.00000000  1
  Bi  Bi15  1  0.70477545  0.75000000  0.00000000  1
