# generated using pymatgen
data_KEu2I5
_symmetry_space_group_name_H-M   'P 1'
_cell_length_a   9.01445563
_cell_length_b   10.03183293
_cell_length_c   14.39539195
_cell_angle_alpha   90.14557154
_cell_angle_beta   90.00000000
_cell_angle_gamma   90.00000000
_symmetry_Int_Tables_number   1
_chemical_formula_structural   KEu2I5
_chemical_formula_sum   'K4 Eu8 I20'
_cell_volume   1301.79287118
_cell_formula_units_Z   4
loop_
 _symmetry_equiv_pos_site_id
 _symmetry_equiv_pos_as_xyz
  1  'x, y, z'
loop_
 _atom_site_type_symbol
 _atom_site_label
 _atom_site_symmetry_multiplicity
 _atom_site_fract_x
 _atom_site_fract_y
 _atom_site_fract_z
 _atom_site_occupancy
  K  K0  1  0.95102837  0.49228166  0.17079069  1
  K  K1  1  0.45102837  0.50771834  0.32920931  1
  K  K2  1  0.04897163  0.50771834  0.82920931  1
  K  K3  1  0.54897163  0.49228166  0.67079069  1
  I  I4  1  0.18884682  0.23112602  0.28415030  1
  I  I5  1  0.83498463  0.21954866  0.68275667  1
  I  I6  1  0.33498463  0.78045134  0.81724333  1
  I  I7  1  0.16501537  0.78045134  0.31724333  1
  I  I8  1  0.66501537  0.21954866  0.18275667  1
  I  I9  1  0.81115318  0.76887398  0.71584970  1
  I  I10  1  0.31115318  0.23112602  0.78415030  1
  I  I11  1  0.95609182  0.78378716  0.99760221  1
  I  I12  1  0.83834295  0.04055320  0.40020488  1
  I  I13  1  0.33834295  0.95944680  0.09979512  1
  I  I14  1  0.16165705  0.95944680  0.59979512  1
  I  I15  1  0.66165705  0.04055320  0.90020488  1
  I  I16  1  0.04390818  0.21621284  0.00239779  1
  I  I17  1  0.45609182  0.21621284  0.50239779  1
  I  I18  1  0.67437599  0.46289582  0.91445825  1
  I  I19  1  0.54390818  0.78378716  0.49760221  1
  I  I20  1  0.82562401  0.46289582  0.41445825  1
  I  I21  1  0.32562401  0.53710418  0.08554175  1
  I  I22  1  0.17437599  0.53710418  0.58554175  1
  I  I23  1  0.68884682  0.76887398  0.21584970  1
  Eu  Eu24  1  0.97483967  0.99689734  0.18026912  1
  Eu  Eu25  1  0.92679089  0.75108544  0.49428275  1
  Eu  Eu26  1  0.42679089  0.24891456  0.00571725  1
  Eu  Eu27  1  0.07320911  0.24891456  0.50571725  1
  Eu  Eu28  1  0.57320911  0.75108544  0.99428275  1
  Eu  Eu29  1  0.52516033  0.99689734  0.68026912  1
  Eu  Eu30  1  0.02516033  0.00310266  0.81973088  1
  Eu  Eu31  1  0.47483967  0.00310266  0.31973088  1
