# generated using pymatgen
data_Ga2Te4O11
_symmetry_space_group_name_H-M   'P 1'
_cell_length_a   5.24462346
_cell_length_b   6.66145771
_cell_length_c   8.39387058
_cell_angle_alpha   75.40542130
_cell_angle_beta   89.07385944
_cell_angle_gamma   69.83207638
_symmetry_Int_Tables_number   1
_chemical_formula_structural   Ga2Te4O11
_chemical_formula_sum   'Ga2 Te4 O11'
_cell_volume   265.58409304
_cell_formula_units_Z   1
loop_
 _symmetry_equiv_pos_site_id
 _symmetry_equiv_pos_as_xyz
  1  'x, y, z'
loop_
 _atom_site_type_symbol
 _atom_site_label
 _atom_site_symmetry_multiplicity
 _atom_site_fract_x
 _atom_site_fract_y
 _atom_site_fract_z
 _atom_site_occupancy
  O  O0  1  0.55769461  0.18182238  0.91038227  1
  O  O1  1  0.02613087  0.44283274  0.80974822  1
  O  O2  1  0.17118812  0.97081103  0.86241935  1
  O  O3  1  0.52207015  0.54038603  0.61702655  1
  O  O4  1  0.91486266  0.12771289  0.16876449  1
  O  O5  1  0.98060475  0.40073773  0.38464457  1
  O  O6  1  0.55184170  0.26713735  0.40446088  1
  O  O7  1  0.64759260  0.88884275  0.69945380  1
  O  O8  1  0.62735965  0.86720523  0.33571194  1
  O  O9  1  0.88357031  0.68954141  0.05675125  1
  O  O10  1  0.29837392  0.67296592  0.24370492  1
  Ga  Ga11  1  0.60984600  0.57493590  0.39483832  1
  Ga  Ga12  1  0.89968017  0.97466761  0.01119744  1
  Te  Te13  1  0.64447059  0.59949952  0.80934097  1
  Te  Te14  1  0.32201452  0.18251968  0.73953404  1
  Te  Te15  1  0.85184311  0.00817269  0.39453872  1
  Te  Te16  1  0.18765629  0.44540914  0.19758226  1
