# generated using pymatgen
data_H30S2O21
_symmetry_space_group_name_H-M   'P 1'
_cell_length_a   5.93278522
_cell_length_b   6.30958790
_cell_length_c   13.88083986
_cell_angle_alpha   76.86319699
_cell_angle_beta   85.04430259
_cell_angle_gamma   67.66080675
_symmetry_Int_Tables_number   1
_chemical_formula_structural   H30S2O21
_chemical_formula_sum   'H30 S2 O21'
_cell_volume   468.03337256
_cell_formula_units_Z   1
loop_
 _symmetry_equiv_pos_site_id
 _symmetry_equiv_pos_as_xyz
  1  'x, y, z'
loop_
 _atom_site_type_symbol
 _atom_site_label
 _atom_site_symmetry_multiplicity
 _atom_site_fract_x
 _atom_site_fract_y
 _atom_site_fract_z
 _atom_site_occupancy
  H  H0  1  0.16032215  0.41072344  0.83824038  1
  H  H1  1  0.16032215  0.24896382  0.16175962  1
  H  H2  1  0.08974858  0.21162215  0.80862676  1
  H  H3  1  0.08974858  0.02024891  0.19137324  1
  H  H4  1  0.55981945  0.92383159  0.00000000  1
  H  H5  1  0.30071496  0.09360111  0.93299834  1
  H  H6  1  0.30071496  0.02659945  0.06700166  1
  H  H7  1  0.93516993  0.82205171  0.94079878  1
  H  H8  1  0.93516993  0.76285050  0.05920122  1
  H  H9  1  0.66039694  0.68484266  0.79278061  1
  H  H10  1  0.66039694  0.47762327  0.20721939  1
  H  H11  1  0.41286673  0.65712574  0.84298265  1
  H  H12  1  0.41286673  0.50010839  0.15701735  1
  H  H13  1  0.70870492  0.43770260  0.93438307  1
  H  H14  1  0.70870492  0.37208568  0.06561693  1
  H  H15  1  0.81564983  0.15047992  0.00000000  1
  H  H16  1  0.41042736  0.57806356  0.65292394  1
  H  H17  1  0.41042736  0.23098750  0.34707606  1
  H  H18  1  0.62256715  0.32494676  0.68930543  1
  H  H19  1  0.62256715  0.01425219  0.31069457  1
  H  H20  1  0.82858979  0.92527578  0.56535345  1
  H  H21  1  0.82858979  0.49062923  0.43464655  1
  H  H22  1  0.72001190  0.02532905  0.45378308  1
  H  H23  1  0.24715610  0.70332532  0.38850500  1
  H  H24  1  0.24715610  0.09183032  0.61149500  1
  H  H25  1  0.35206654  0.90582534  0.40448199  1
  H  H26  1  0.35206654  0.31030733  0.59551801  1
  H  H27  1  0.06943040  0.89805764  0.46363532  1
  H  H28  1  0.06943040  0.36169295  0.53636468  1
  H  H29  1  0.72001190  0.47911214  0.54621692  1
  O  O30  1  0.21862097  0.24101472  0.83878303  1
  O  O31  1  0.21862097  0.07979775  0.16121697  1
  O  O32  1  0.37612341  0.97119063  0.00000000  1
  O  O33  1  0.84752038  0.88072118  0.00000000  1
  O  O34  1  0.59209828  0.59757483  0.84824507  1
  O  O35  1  0.59209828  0.44581990  0.15175493  1
  O  O36  1  0.79437473  0.31785067  0.00000000  1
  O  O37  1  0.51424460  0.42884961  0.63286768  1
  O  O38  1  0.51424460  0.06171729  0.36713232  1
  O  O39  1  0.85439182  0.00776880  0.49784968  1
  O  O40  1  0.85439182  0.50561848  0.50215032  1
  O  O41  1  0.25797110  0.23641449  0.56456597  1
  O  O42  1  0.25797110  0.80098046  0.43543403  1
  O  O43  1  0.82154100  0.81528571  0.69871913  1
  O  O44  1  0.82154100  0.51400485  0.30128087  1
  O  O45  1  0.88953034  0.12314590  0.75838203  1
  O  O46  1  0.88953034  0.88152793  0.24161797  1
  O  O47  1  0.21746593  0.85600625  0.67474438  1
  O  O48  1  0.21746593  0.53075063  0.32525562  1
  O  O49  1  0.09074653  0.71317578  0.83998546  1
  O  O50  1  0.09074653  0.55316124  0.16001454  1
  S  S51  1  0.00106207  0.87957040  0.74191602  1
  S  S52  1  0.00106207  0.62148642  0.25808398  1
