# generated using pymatgen
data_Ca7Sn6
_symmetry_space_group_name_H-M   'P 1'
_cell_length_a   7.93694596
_cell_length_b   8.50654975
_cell_length_c   23.90688045
_cell_angle_alpha   90.00000000
_cell_angle_beta   90.00000000
_cell_angle_gamma   90.00012292
_symmetry_Int_Tables_number   1
_chemical_formula_structural   Ca7Sn6
_chemical_formula_sum   'Ca28 Sn24'
_cell_volume   1614.09755419
_cell_formula_units_Z   4
loop_
 _symmetry_equiv_pos_site_id
 _symmetry_equiv_pos_as_xyz
  1  'x, y, z'
loop_
 _atom_site_type_symbol
 _atom_site_label
 _atom_site_symmetry_multiplicity
 _atom_site_fract_x
 _atom_site_fract_y
 _atom_site_fract_z
 _atom_site_occupancy
  Ca  Ca0  1  0.99674329  0.17478883  0.83641430  1
  Ca  Ca1  1  0.49674264  0.32521114  0.66358581  1
  Ca  Ca2  1  0.50325736  0.67478886  0.16358581  1
  Ca  Ca3  1  0.00325671  0.82521117  0.33641430  1
  Ca  Ca4  1  0.00325671  0.82521117  0.16358570  1
  Ca  Ca5  1  0.50325736  0.67478886  0.33641419  1
  Ca  Ca6  1  0.49674264  0.32521114  0.83641419  1
  Ca  Ca7  1  0.99674329  0.17478883  0.66358570  1
  Ca  Ca8  1  0.82857336  0.67974968  0.85251751  1
  Ca  Ca9  1  0.32857403  0.82024999  0.64748206  1
  Ca  Ca10  1  0.67142597  0.17975001  0.14748206  1
  Ca  Ca11  1  0.17142664  0.32025032  0.35251751  1
  Ca  Ca12  1  0.17142664  0.32025032  0.14748249  1
  Ca  Ca13  1  0.67142597  0.17975001  0.35251794  1
  Ca  Ca14  1  0.32857403  0.82024999  0.85251794  1
  Ca  Ca15  1  0.82857336  0.67974968  0.64748249  1
  Ca  Ca16  1  0.66956822  0.82584418  0.47848196  1
  Ca  Ca17  1  0.16956832  0.67415603  0.02151823  1
  Ca  Ca18  1  0.83043168  0.32584397  0.52151823  1
  Ca  Ca19  1  0.33043178  0.17415582  0.97848196  1
  Ca  Ca20  1  0.33043178  0.17415582  0.52151804  1
  Ca  Ca21  1  0.83043168  0.32584397  0.97848177  1
  Ca  Ca22  1  0.16956832  0.67415603  0.47848177  1
  Ca  Ca23  1  0.66956822  0.82584418  0.02151804  1
  Ca  Ca24  1  0.66581835  0.99376370  0.75000000  1
  Ca  Ca25  1  0.16581767  0.50623644  0.75000000  1
  Ca  Ca26  1  0.83418233  0.49376356  0.25000000  1
  Ca  Ca27  1  0.33418165  0.00623630  0.25000000  1
  Sn  Sn28  1  1.00027898  0.94453831  0.94187572  1
  Sn  Sn29  1  0.50027897  0.55546138  0.55812429  1
  Sn  Sn30  1  0.49972103  0.44453862  0.05812429  1
  Sn  Sn31  1  -0.00027898  0.05546169  0.44187572  1
  Sn  Sn32  1  -0.00027898  0.05546169  0.05812428  1
  Sn  Sn33  1  0.49972103  0.44453862  0.44187571  1
  Sn  Sn34  1  0.50027897  0.55546138  0.94187571  1
  Sn  Sn35  1  1.00027898  0.94453831  0.55812428  1
  Sn  Sn36  1  0.84141272  0.52483218  0.40085728  1
  Sn  Sn37  1  0.34141242  0.97516759  0.09914272  1
  Sn  Sn38  1  0.65858758  0.02483241  0.59914272  1
  Sn  Sn39  1  0.15858728  0.47516782  0.90085728  1
  Sn  Sn40  1  0.15858728  0.47516782  0.59914272  1
  Sn  Sn41  1  0.65858758  0.02483241  0.90085728  1
  Sn  Sn42  1  0.34141242  0.97516759  0.40085728  1
  Sn  Sn43  1  0.84141272  0.52483218  0.09914272  1
  Sn  Sn44  1  0.79312991  0.38672573  0.75000000  1
  Sn  Sn45  1  0.29312910  0.11327540  0.75000000  1
  Sn  Sn46  1  0.70687090  0.88672460  0.25000000  1
  Sn  Sn47  1  0.20687009  0.61327427  0.25000000  1
  Sn  Sn48  1  0.54190815  0.63528604  0.75000000  1
  Sn  Sn49  1  0.04190816  0.86471327  0.75000000  1
  Sn  Sn50  1  0.95809184  0.13528673  0.25000000  1
  Sn  Sn51  1  0.45809185  0.36471396  0.25000000  1
