# generated using pymatgen
data_TbAlPd
_symmetry_space_group_name_H-M   'P 1'
_cell_length_a   7.15147885
_cell_length_b   7.15147884
_cell_length_c   4.10833200
_cell_angle_alpha   90.00000000
_cell_angle_beta   90.00000000
_cell_angle_gamma   120.00000000
_symmetry_Int_Tables_number   1
_chemical_formula_structural   TbAlPd
_chemical_formula_sum   'Tb3 Al3 Pd3'
_cell_volume   181.96500785
_cell_formula_units_Z   3
loop_
 _symmetry_equiv_pos_site_id
 _symmetry_equiv_pos_as_xyz
  1  'x, y, z'
loop_
 _atom_site_type_symbol
 _atom_site_label
 _atom_site_symmetry_multiplicity
 _atom_site_fract_x
 _atom_site_fract_y
 _atom_site_fract_z
 _atom_site_occupancy
  Al  Al0  1  0.76407981  0.76407981  0.00000000  1
  Al  Al1  1  0.23592019  0.00000000  0.00000000  1
  Al  Al2  1  0.00000000  0.23592019  0.00000000  1
  Pd  Pd3  1  0.33333333  0.66666667  0.00000000  1
  Pd  Pd4  1  0.66666667  0.33333333  0.00000000  1
  Pd  Pd5  1  0.00000000  0.00000000  0.50000000  1
  Tb  Tb6  1  0.00000000  0.58288173  0.50000000  1
  Tb  Tb7  1  0.41711827  0.41711827  0.50000000  1
  Tb  Tb8  1  0.58288173  0.00000000  0.50000000  1
