# generated using pymatgen
data_BaTi4O9
_symmetry_space_group_name_H-M   'P 1'
_cell_length_a   3.81953797
_cell_length_b   6.39679212
_cell_length_c   14.71614312
_cell_angle_alpha   90.00000000
_cell_angle_beta   90.00000000
_cell_angle_gamma   90.00000000
_symmetry_Int_Tables_number   1
_chemical_formula_structural   BaTi4O9
_chemical_formula_sum   'Ba2 Ti8 O18'
_cell_volume   359.55644018
_cell_formula_units_Z   2
loop_
 _symmetry_equiv_pos_site_id
 _symmetry_equiv_pos_as_xyz
  1  'x, y, z'
loop_
 _atom_site_type_symbol
 _atom_site_label
 _atom_site_symmetry_multiplicity
 _atom_site_fract_x
 _atom_site_fract_y
 _atom_site_fract_z
 _atom_site_occupancy
  O  O0  1  0.75000000  0.66332816  0.75000000  1
  O  O1  1  0.25000000  0.33667184  0.25000000  1
  O  O2  1  0.75000000  0.43695876  0.59632635  1
  O  O3  1  0.25000000  0.56304124  0.40367365  1
  O  O4  1  0.75000000  0.43695876  0.90367365  1
  O  O5  1  0.25000000  0.56304124  0.09632635  1
  O  O6  1  0.75000000  0.04235710  0.65096741  1
  O  O7  1  0.25000000  0.95764290  0.34903259  1
  O  O8  1  0.75000000  0.04235710  0.84903259  1
  O  O9  1  0.25000000  0.95764290  0.15096741  1
  O  O10  1  0.25000000  0.15254599  0.51058338  1
  O  O11  1  0.75000000  0.84745401  0.48941662  1
  O  O12  1  0.25000000  0.15254599  0.98941662  1
  O  O13  1  0.75000000  0.84745401  0.01058338  1
  O  O14  1  0.25000000  0.74046238  0.59913645  1
  O  O15  1  0.75000000  0.25953762  0.40086355  1
  O  O16  1  0.25000000  0.74046238  0.90086355  1
  O  O17  1  0.75000000  0.25953762  0.09913645  1
  Ti  Ti18  1  0.75000000  0.74786722  0.62809183  1
  Ti  Ti19  1  0.25000000  0.25213278  0.37190817  1
  Ti  Ti20  1  0.75000000  0.74786722  0.87190817  1
  Ti  Ti21  1  0.25000000  0.25213278  0.12809183  1
  Ti  Ti22  1  0.75000000  0.19506756  0.53829618  1
  Ti  Ti23  1  0.25000000  0.80493244  0.46170382  1
  Ti  Ti24  1  0.75000000  0.19506756  0.96170382  1
  Ti  Ti25  1  0.25000000  0.80493244  0.03829618  1
  Ba  Ba26  1  0.25000000  0.28548417  0.75000000  1
  Ba  Ba27  1  0.75000000  0.71451583  0.25000000  1
