# generated using pymatgen
data_Li4Fe(PO4)2
_symmetry_space_group_name_H-M   'P 1'
_cell_length_a   8.22064732
_cell_length_b   10.47948087
_cell_length_c   8.27894760
_cell_angle_alpha   90.00000000
_cell_angle_beta   104.28379227
_cell_angle_gamma   90.00000000
_symmetry_Int_Tables_number   1
_chemical_formula_structural   Li4Fe(PO4)2
_chemical_formula_sum   'Li16 Fe4 P8 O32'
_cell_volume   691.16707738
_cell_formula_units_Z   4
loop_
 _symmetry_equiv_pos_site_id
 _symmetry_equiv_pos_as_xyz
  1  'x, y, z'
loop_
 _atom_site_type_symbol
 _atom_site_label
 _atom_site_symmetry_multiplicity
 _atom_site_fract_x
 _atom_site_fract_y
 _atom_site_fract_z
 _atom_site_occupancy
  Li  Li0  1  0.72584580  0.07304475  0.47587333  1
  Li  Li1  1  0.89821564  0.33769249  0.39788450  1
  Li  Li2  1  0.15013398  0.34736895  0.15080293  1
  Li  Li3  1  0.84643538  0.83746729  0.34925666  1
  Li  Li4  1  0.27415420  0.92695525  0.52412667  1
  Li  Li5  1  0.10178436  0.66230751  0.60211550  1
  Li  Li6  1  0.60178436  0.83769249  0.60211550  1
  Li  Li7  1  0.22584580  0.42695525  0.47587333  1
  Li  Li8  1  0.34643538  0.66253271  0.34925666  1
  Li  Li9  1  0.39821564  0.16230751  0.39788450  1
  Li  Li10  1  0.15356462  0.16253271  0.65074334  1
  Li  Li11  1  0.34986602  0.84736895  0.84919707  1
  Li  Li12  1  0.77415420  0.57304475  0.52412667  1
  Li  Li13  1  0.65356462  0.33746729  0.65074334  1
  Li  Li14  1  0.65013398  0.15263105  0.15080293  1
  Li  Li15  1  0.84986602  0.65263105  0.84919707  1
  Fe  Fe16  1  0.40933021  0.34318705  0.90715290  1
  Fe  Fe17  1  0.09066979  0.84318705  0.09284710  1
  Fe  Fe18  1  0.90933021  0.15681295  0.90715290  1
  Fe  Fe19  1  0.59066979  0.65681295  0.09284710  1
  P  P20  1  0.97483705  0.90795663  0.70916954  1
  P  P21  1  0.02516295  0.09204337  0.29083046  1
  P  P22  1  0.03001542  0.40632161  0.76568520  1
  P  P23  1  0.53001542  0.09367839  0.76568520  1
  P  P24  1  0.96998458  0.59367839  0.23431480  1
  P  P25  1  0.46998458  0.90632161  0.23431480  1
  P  P26  1  0.47483705  0.59204337  0.70916954  1
  P  P27  1  0.52516295  0.40795663  0.29083046  1
  O  O28  1  0.87713654  0.33139544  0.79732346  1
  O  O29  1  0.81566924  0.90215738  0.56186890  1
  O  O30  1  0.62286346  0.83139544  0.20267654  1
  O  O31  1  0.17615325  0.39084954  0.92633183  1
  O  O32  1  0.97916679  0.54722094  0.72633172  1
  O  O33  1  0.51509613  0.44937545  0.75698616  1
  O  O34  1  0.68433076  0.40215738  0.43813110  1
  O  O35  1  0.37158054  0.34689733  0.33928726  1
  O  O36  1  0.31566924  0.59784262  0.56186890  1
  O  O37  1  0.91382904  0.65409262  0.38412630  1
  O  O38  1  0.43750805  0.66606341  0.85975352  1
  O  O39  1  0.12841946  0.84689733  0.66071274  1
  O  O40  1  0.02083421  0.45277906  0.27366828  1
  O  O41  1  0.56249195  0.33393659  0.14024648  1
  O  O42  1  0.67615325  0.10915046  0.92633183  1
  O  O43  1  0.62841946  0.65310267  0.66071274  1
  O  O44  1  0.18433076  0.09784262  0.43813110  1
  O  O45  1  0.98490387  0.94937545  0.24301384  1
  O  O46  1  0.37713654  0.16860356  0.79732346  1
  O  O47  1  0.82384675  0.60915046  0.07366817  1
  O  O48  1  0.41382904  0.84590738  0.38412630  1
  O  O49  1  0.48490387  0.55062455  0.24301384  1
  O  O50  1  0.06249195  0.16606341  0.14024648  1
  O  O51  1  0.87158054  0.15310267  0.33928726  1
  O  O52  1  0.58617096  0.15409262  0.61587370  1
  O  O53  1  0.08617096  0.34590738  0.61587370  1
  O  O54  1  0.93750805  0.83393659  0.85975352  1
  O  O55  1  0.12286346  0.66860456  0.20267654  1
  O  O56  1  0.52083321  0.04722094  0.27366828  1
  O  O57  1  0.47916679  0.95277906  0.72633172  1
  O  O58  1  0.01509613  0.05062455  0.75698616  1
  O  O59  1  0.32384675  0.89084954  0.07366817  1
