# generated using pymatgen
data_Li6Cr9(PO4)8
_symmetry_space_group_name_H-M   'P 1'
_cell_length_a   9.22117247
_cell_length_b   9.04506002
_cell_length_c   8.99646391
_cell_angle_alpha   102.71707776
_cell_angle_beta   99.52251134
_cell_angle_gamma   111.75504652
_symmetry_Int_Tables_number   1
_chemical_formula_structural   Li6Cr9(PO4)8
_chemical_formula_sum   'Li6 Cr9 P8 O32'
_cell_volume   654.06282365
_cell_formula_units_Z   1
loop_
 _symmetry_equiv_pos_site_id
 _symmetry_equiv_pos_as_xyz
  1  'x, y, z'
loop_
 _atom_site_type_symbol
 _atom_site_label
 _atom_site_symmetry_multiplicity
 _atom_site_fract_x
 _atom_site_fract_y
 _atom_site_fract_z
 _atom_site_occupancy
  Li  Li0  1  -0.00345704  0.89176675  0.63958032  1
  Li  Li1  1  1.00345685  0.10823349  0.36041966  1
  Li  Li2  1  0.73128405  0.24063333  0.95968792  1
  Li  Li3  1  0.65301796  0.68930546  0.69854210  1
  Li  Li4  1  0.34698132  0.31069353  0.30145749  1
  Li  Li5  1  0.26871575  0.75936691  0.04031205  1
  O  O6  1  0.26676266  0.91639901  0.56230151  1
  O  O7  1  0.67995344  0.16288627  0.71193012  1
  O  O8  1  0.88153232  0.04186058  0.67548535  1
  O  O9  1  0.60057423  0.82907577  0.85679368  1
  O  O10  1  0.74940730  0.41586433  0.40551470  1
  O  O11  1  0.86672229  0.72186735  0.42310903  1
  O  O12  1  0.66398112  0.06387322  0.10187262  1
  O  O13  1  0.73323715  0.08360123  0.43769847  1
  O  O14  1  0.97721696  0.53075020  0.72576364  1
  O  O15  1  0.11846859  0.95813966  0.32451481  1
  O  O16  1  0.02472351  0.69094354  0.01139892  1
  O  O17  1  0.02278395  0.46925004  0.27423653  1
  O  O18  1  0.90765241  0.78353629  0.79452512  1
  O  O19  1  0.33601979  0.93612702  0.89812754  1
  O  O20  1  0.13327751  0.27813289  0.57689095  1
  O  O21  1  0.25059361  0.58413591  0.59448547  1
  O  O22  1  0.70253851  0.52013663  0.16241322  1
  O  O23  1  0.32004747  0.83711397  0.28807005  1
  O  O24  1  0.29746078  0.47986235  0.83758637  1
  O  O25  1  0.17678632  0.11144324  0.89969392  1
  O  O26  1  0.26559699  0.48356429  0.16415174  1
  O  O27  1  0.97527630  0.30905670  0.98860105  1
  O  O28  1  0.57845448  0.86119280  0.55691928  1
  O  O29  1  0.44417153  0.45193887  0.62298856  1
  O  O30  1  0.47068215  0.24792057  0.90174684  1
  O  O31  1  0.52931876  0.75207967  0.09825333  1
  O  O32  1  0.55582827  0.54806137  0.37701141  1
  O  O33  1  0.42154533  0.13880744  0.44308069  1
  O  O34  1  0.39942558  0.17092447  0.14320630  1
  O  O35  1  0.73440229  0.51643469  0.83584785  1
  O  O36  1  0.82321349  0.88855700  0.10030606  1
  O  O37  1  0.09234740  0.21646395  0.20547486  1
  P  P38  1  0.27975236  0.95934165  0.40745621  1
  P  P39  1  0.08815830  0.37371029  0.16003923  1
  P  P40  1  0.28495048  0.44968717  0.65514198  1
  P  P41  1  0.34752989  0.11556417  0.95912943  1
  P  P42  1  0.65246939  0.88443482  0.04087017  1
  P  P43  1  0.71504881  0.55031181  0.34485762  1
  P  P44  1  0.91184151  0.62628995  0.83996075  1
  P  P45  1  0.72024745  0.04065859  0.59254377  1
  Cr  Cr46  1  0.93698751  0.72160350  0.21022641  1
  Cr  Cr47  1  0.57091850  0.12704059  0.28484662  1
  Cr  Cr48  1  0.56360699  0.30664107  0.66153965  1
  Cr  Cr49  1  0.49999970  0.49999948  0.99999956  1
  Cr  Cr50  1  0.43639282  0.69335917  0.33846033  1
  Cr  Cr51  1  0.00000000  0.00000000  0.00000000  1
  Cr  Cr52  1  0.42908241  0.87295965  0.71515354  1
  Cr  Cr53  1  0.06301177  0.27839549  0.78977319  1
  Cr  Cr54  1  0.99999982  0.50000045  0.50000047  1
