# generated using pymatgen
data_LiCo2P5O16
_symmetry_space_group_name_H-M   'P 1'
_cell_length_a   18.57193214
_cell_length_b   6.74559662
_cell_length_c   5.03508356
_cell_angle_alpha   90.00000000
_cell_angle_beta   89.89247537
_cell_angle_gamma   90.00000000
_symmetry_Int_Tables_number   1
_chemical_formula_structural   LiCo2P5O16
_chemical_formula_sum   'Li2 Co4 P10 O32'
_cell_volume   630.78792829
_cell_formula_units_Z   2
loop_
 _symmetry_equiv_pos_site_id
 _symmetry_equiv_pos_as_xyz
  1  'x, y, z'
loop_
 _atom_site_type_symbol
 _atom_site_label
 _atom_site_symmetry_multiplicity
 _atom_site_fract_x
 _atom_site_fract_y
 _atom_site_fract_z
 _atom_site_occupancy
  Li  Li0  1  0.46671975  0.36220551  0.74279319  1
  Li  Li1  1  0.96671961  0.63779347  0.74279375  1
  O  O2  1  0.35683908  0.29078600  0.23207162  1
  O  O3  1  0.91951263  0.40191846  0.04107323  1
  O  O4  1  0.57099638  0.94734977  0.05860689  1
  O  O5  1  0.98614169  0.78016511  0.36065257  1
  O  O6  1  0.00770982  0.22088138  0.67299621  1
  O  O7  1  0.07548564  0.63757582  0.92359834  1
  O  O8  1  0.07099653  0.05265068  0.05860633  1
  O  O9  1  0.11739206  0.57714312  0.44684091  1
  O  O10  1  0.11204777  0.97661102  0.58603907  1
  O  O11  1  0.13523291  0.30767893  0.78846102  1
  O  O12  1  0.19786725  0.86921869  0.15372739  1
  O  O13  1  0.21147060  0.59340863  0.81110028  1
  O  O14  1  0.28890822  0.59887650  0.21748705  1
  O  O15  1  0.30836316  0.84935744  0.84564565  1
  O  O16  1  0.93058071  0.91911935  0.93086428  1
  O  O17  1  0.38902479  0.94983260  0.38671414  1
  O  O18  1  0.39121202  0.55757145  0.54458290  1
  O  O19  1  0.41951277  0.59808200  0.04107268  1
  O  O20  1  0.43058031  0.08088111  0.93086372  1
  O  O21  1  0.88902464  0.05016638  0.38671469  1
  O  O22  1  0.50770968  0.77911760  0.67299479  1
  O  O23  1  0.57548603  0.36242464  0.92359890  1
  O  O24  1  0.89121188  0.44242901  0.54458345  1
  O  O25  1  0.61739245  0.42285586  0.44684147  1
  O  O26  1  0.61204763  0.02338796  0.58603764  1
  O  O27  1  0.63523277  0.69232152  0.78845960  1
  O  O28  1  0.69786765  0.13078177  0.15372795  1
  O  O29  1  0.71147045  0.40659035  0.81110084  1
  O  O30  1  0.78890808  0.40112396  0.21748761  1
  O  O31  1  0.80836302  0.15064301  0.84564423  1
  O  O32  1  0.85683894  0.70921298  0.23207218  1
  O  O33  1  0.48614183  0.21983534  0.36065201  1
  P  P34  1  0.57799328  0.87394734  0.77135978  1
  P  P35  1  0.62983722  0.46026137  0.74022857  1
  P  P36  1  0.75147728  0.25499414  0.00803474  1
  P  P37  1  0.87026733  0.47646284  0.25680412  1
  P  P38  1  0.07799342  0.12605164  0.77136121  1
  P  P39  1  0.12983736  0.53973761  0.74022802  1
  P  P40  1  0.25147742  0.74500632  0.00803617  1
  P  P41  1  0.37026748  0.52353762  0.25680357  1
  P  P42  1  0.42026802  0.12156886  0.22930835  1
  P  P43  1  0.92026788  0.87843012  0.22930890  1
  Co  Co44  1  0.90754854  0.18027096  0.73378199  1
  Co  Co45  1  0.59295724  0.17639855  0.25723841  1
  Co  Co46  1  0.40754868  0.81972949  0.73378342  1
  Co  Co47  1  0.09295684  0.82360191  0.25723983  1
