# generated using pymatgen
data_Li3Fe3(PO4)4
_symmetry_space_group_name_H-M   'P 1'
_cell_length_a   7.71509658
_cell_length_b   8.09934861
_cell_length_c   10.15658701
_cell_angle_alpha   90.00000000
_cell_angle_beta   94.85999953
_cell_angle_gamma   90.00000000
_symmetry_Int_Tables_number   1
_chemical_formula_structural   Li3Fe3(PO4)4
_chemical_formula_sum   'Li6 Fe6 P8 O32'
_cell_volume   632.37546854
_cell_formula_units_Z   2
loop_
 _symmetry_equiv_pos_site_id
 _symmetry_equiv_pos_as_xyz
  1  'x, y, z'
loop_
 _atom_site_type_symbol
 _atom_site_label
 _atom_site_symmetry_multiplicity
 _atom_site_fract_x
 _atom_site_fract_y
 _atom_site_fract_z
 _atom_site_occupancy
  Li  Li0  1  0.11300248  0.36064960  0.79591300  1
  Li  Li1  1  0.90512298  0.63181273  0.21012489  1
  Li  Li2  1  0.59487640  0.13181316  0.53987595  1
  Li  Li3  1  0.40718226  0.86424536  0.45670863  1
  Li  Li4  1  0.38699649  0.86065040  0.95408712  1
  Li  Li5  1  0.09281769  0.36424578  0.29329087  1
  O  O6  1  0.23777667  0.87141553  0.77136100  1
  O  O7  1  0.87810095  0.79986601  0.84748947  1
  O  O8  1  0.84922367  0.42690910  0.28164046  1
  O  O9  1  0.89798939  0.80568265  0.35061011  1
  O  O10  1  0.94271437  0.85761967  0.59866967  1
  O  O11  1  0.94159307  0.86118912  0.09071847  1
  O  O12  1  0.06696648  0.13888498  0.90792723  1
  O  O13  1  0.05718164  0.13294612  0.40611945  1
  O  O14  1  0.11173013  0.19765060  0.64856170  1
  O  O15  1  0.13905958  0.57848492  0.72032396  1
  O  O16  1  0.11619808  0.19005287  0.15224753  1
  O  O17  1  0.14663528  0.57132755  0.22102330  1
  O  O18  1  0.38826982  0.69765017  0.10143878  1
  O  O19  1  0.26222360  0.37141596  0.97863922  1
  O  O20  1  0.25268624  0.36663531  0.47531798  1
  O  O21  1  0.24731372  0.86663488  0.27468250  1
  O  O22  1  0.73157196  0.63278131  0.02391122  1
  O  O23  1  0.38380187  0.69005245  0.59775196  1
  O  O24  1  0.43303379  0.63888456  0.84207299  1
  O  O25  1  0.36094037  0.07848535  0.02967652  1
  O  O26  1  0.85231568  0.43052814  0.77799197  1
  O  O27  1  0.44281831  0.63294693  0.34388005  1
  O  O28  1  0.55840631  0.36118954  0.65928237  1
  O  O29  1  0.62189875  0.29986643  0.90251111  1
  O  O30  1  0.55728502  0.35761887  0.15133117  1
  O  O31  1  0.64768402  0.93052772  0.97200762  1
  O  O32  1  0.60201129  0.30568308  0.39938984  1
  O  O33  1  0.65077571  0.92690868  0.46835939  1
  O  O34  1  0.76842743  0.13278174  0.72608864  1
  O  O35  1  0.75376082  0.63386913  0.53024846  1
  O  O36  1  0.74623986  0.13386832  0.21975149  1
  O  O37  1  0.35336467  0.07132797  0.52897717  1
  P  P38  1  0.20096808  0.19793797  0.02069706  1
  P  P39  1  0.29903187  0.69793755  0.72930243  1
  P  P40  1  0.29929148  0.68731999  0.23467349  1
  P  P41  1  0.70055786  0.30367508  0.76409262  1
  P  P42  1  0.69639951  0.31287803  0.27211333  1
  P  P43  1  0.79944184  0.80367465  0.98590698  1
  P  P44  1  0.20070848  0.18732041  0.51532699  1
  P  P45  1  0.80359988  0.81287883  0.47788653  1
  Fe  Fe46  1  0.89770628  0.64106022  0.70241669  1
  Fe  Fe47  1  0.60229311  0.14106065  0.04758316  1
  Fe  Fe48  1  0.48858719  0.51605908  0.00489240  1
  Fe  Fe49  1  0.47597805  0.48851729  0.49660143  1
  Fe  Fe50  1  0.02402190  0.98851686  0.25339806  1
  Fe  Fe51  1  0.01141276  0.01605951  0.74510807  1
