# generated using pymatgen
data_MnHO2
_symmetry_space_group_name_H-M   'P 1'
_cell_length_a   5.36554592
_cell_length_b   5.37507241
_cell_length_c   5.38276926
_cell_angle_alpha   113.18397669
_cell_angle_beta   90.00036857
_cell_angle_gamma   89.99972479
_symmetry_Int_Tables_number   1
_chemical_formula_structural   MnHO2
_chemical_formula_sum   'Mn4 H4 O8'
_cell_volume   142.70378706
_cell_formula_units_Z   4
loop_
 _symmetry_equiv_pos_site_id
 _symmetry_equiv_pos_as_xyz
  1  'x, y, z'
loop_
 _atom_site_type_symbol
 _atom_site_label
 _atom_site_symmetry_multiplicity
 _atom_site_fract_x
 _atom_site_fract_y
 _atom_site_fract_z
 _atom_site_occupancy
  H  H0  1  0.52303585  0.72083286  0.76679560  1
  H  H1  1  0.02303464  0.27916615  0.73320565  1
  H  H2  1  0.47696463  0.27916776  0.23320494  1
  H  H3  1  0.97696585  0.72083447  0.26679489  1
  O  O4  1  0.37746274  0.37335082  0.13036433  1
  O  O5  1  0.87746273  0.62664926  0.36963461  1
  O  O6  1  0.12253776  0.37335137  0.63036593  1
  O  O7  1  0.62253775  0.62664981  0.86963435  1
  O  O8  1  0.62550751  0.12662245  0.37848369  1
  O  O9  1  0.37449110  0.87337819  0.62151500  1
  O  O10  1  0.12550825  0.87337822  0.12151506  1
  O  O11  1  0.87449036  0.12662240  0.87848548  1
  Mn  Mn12  1  0.51185000  0.23806448  0.74807829  1
  Mn  Mn13  1  0.01185287  0.76192363  0.75191001  1
  Mn  Mn14  1  0.48814861  0.76193614  0.25192225  1
  Mn  Mn15  1  0.98814574  0.23807495  0.24808970  1
