# generated using pymatgen
data_Y3Se4
_symmetry_space_group_name_H-M   'P 1'
_cell_length_a   8.13818964
_cell_length_b   8.19682844
_cell_length_c   16.21422022
_cell_angle_alpha   59.63323857
_cell_angle_beta   60.11306440
_cell_angle_gamma   59.76136090
_symmetry_Int_Tables_number   1
_chemical_formula_structural   Y3Se4
_chemical_formula_sum   'Y12 Se16'
_cell_volume   761.93453302
_cell_formula_units_Z   4
loop_
 _symmetry_equiv_pos_site_id
 _symmetry_equiv_pos_as_xyz
  1  'x, y, z'
loop_
 _atom_site_type_symbol
 _atom_site_label
 _atom_site_symmetry_multiplicity
 _atom_site_fract_x
 _atom_site_fract_y
 _atom_site_fract_z
 _atom_site_occupancy
  Se  Se0  1  0.24966728  0.24826869  0.12446729  1
  Se  Se1  1  0.24966728  0.75312945  0.12446729  1
  Se  Se2  1  0.25505256  0.24799631  0.37447741  1
  Se  Se3  1  0.24910778  0.74979160  0.37565451  1
  Se  Se4  1  0.25236272  0.25559371  0.62451253  1
  Se  Se5  1  0.75089222  0.25020840  0.12434549  1
  Se  Se6  1  0.75033272  0.24687055  0.37553271  1
  Se  Se7  1  0.25030720  0.24708227  0.87776413  1
  Se  Se8  1  0.25236272  0.74301850  0.62451253  1
  Se  Se9  1  0.74494744  0.75200369  0.12552259  1
  Se  Se10  1  0.24571814  0.75479148  0.87234945  1
  Se  Se11  1  0.75033272  0.75173131  0.37553271  1
  Se  Se12  1  0.75428186  0.24520852  0.62765055  1
  Se  Se13  1  0.74763728  0.25698150  0.87548747  1
  Se  Se14  1  0.74969280  0.75291773  0.62223587  1
  Se  Se15  1  0.74763728  0.74440629  0.87548747  1
  Y  Y16  1  0.99671069  0.98850013  0.00418179  1
  Y  Y17  1  0.99671069  0.50642559  0.00418179  1
  Y  Y18  1  0.00000000  0.00000000  0.25000000  1
  Y  Y19  1  0.49009982  0.50053560  0.00441449  1
  Y  Y20  1  0.50000000  0.00000000  0.25000000  1
  Y  Y21  1  0.00328931  0.49357441  0.49581821  1
  Y  Y22  1  0.50000000  0.50000000  0.25000000  1
  Y  Y23  1  0.00328931  0.01149987  0.49581821  1
  Y  Y24  1  0.00000000  0.50000000  0.75000000  1
  Y  Y25  1  0.50990018  0.49946440  0.49558551  1
  Y  Y26  1  0.50000000  0.00000000  0.75000000  1
  Y  Y27  1  0.50000000  0.50000000  0.75000000  1
