# generated using pymatgen
data_Mo(PO3)4
_symmetry_space_group_name_H-M   'P 1'
_cell_length_a   13.19143868
_cell_length_b   8.37689616
_cell_length_c   9.49360596
_cell_angle_alpha   90.00000000
_cell_angle_beta   90.00000000
_cell_angle_gamma   90.00000000
_symmetry_Int_Tables_number   1
_chemical_formula_structural   Mo(PO3)4
_chemical_formula_sum   'Mo4 P16 O48'
_cell_volume   1049.07490162
_cell_formula_units_Z   4
loop_
 _symmetry_equiv_pos_site_id
 _symmetry_equiv_pos_as_xyz
  1  'x, y, z'
loop_
 _atom_site_type_symbol
 _atom_site_label
 _atom_site_symmetry_multiplicity
 _atom_site_fract_x
 _atom_site_fract_y
 _atom_site_fract_z
 _atom_site_occupancy
  O  O0  1  0.92651295  0.81159588  0.37042310  1
  O  O1  1  0.92651295  0.18840412  0.87042376  1
  O  O2  1  0.92955284  0.53046415  0.86865760  1
  O  O3  1  0.92955284  0.46953585  0.36865799  1
  O  O4  1  0.07348731  0.18840412  0.62957612  1
  O  O5  1  0.07348731  0.81159588  0.12957651  1
  O  O6  1  0.07044665  0.46953585  0.13134267  1
  O  O7  1  0.07044665  0.53046415  0.63134228  1
  O  O8  1  0.12370768  0.09012993  0.37797870  1
  O  O9  1  0.12370768  0.90987007  0.87797831  1
  O  O10  1  0.11986391  0.37131034  0.88542695  1
  O  O11  1  0.11986391  0.62868966  0.38542734  1
  O  O12  1  0.18317487  0.36280049  0.46926940  1
  O  O13  1  0.18317487  0.63719951  0.96926901  1
  O  O14  1  0.25260649  0.11743423  0.58240812  1
  O  O15  1  0.25260649  0.88256577  0.08240851  1
  O  O16  1  0.24739363  0.38256577  0.08240851  1
  O  O17  1  0.24739363  0.61743423  0.58240812  1
  O  O18  1  0.31682526  0.13719951  0.96926901  1
  O  O19  1  0.31682526  0.86280049  0.46926940  1
  O  O20  1  0.38013621  0.12868966  0.38542734  1
  O  O21  1  0.38013621  0.87131034  0.88542695  1
  O  O22  1  0.37629245  0.40987007  0.87797831  1
  O  O23  1  0.37629245  0.59012993  0.37797870  1
  O  O24  1  0.42955347  0.03046415  0.63134228  1
  O  O25  1  0.42955347  0.96953585  0.13134267  1
  O  O26  1  0.42651282  0.31159588  0.12957651  1
  O  O27  1  0.42651282  0.68840412  0.62957612  1
  O  O28  1  0.57348743  0.31159588  0.37042310  1
  O  O29  1  0.57348743  0.68840412  0.87042376  1
  O  O30  1  0.57044678  0.03046415  0.86865760  1
  O  O31  1  0.57044678  0.96953585  0.36865799  1
  O  O32  1  0.62370780  0.40987007  0.62202157  1
  O  O33  1  0.62370780  0.59012993  0.12202196  1
  O  O34  1  0.61986328  0.12868966  0.11457332  1
  O  O35  1  0.61986328  0.87131034  0.61457293  1
  O  O36  1  0.68317499  0.13719951  0.53073087  1
  O  O37  1  0.68317499  0.86280049  0.03073126  1
  O  O38  1  0.75260662  0.38256577  0.41759110  1
  O  O39  1  0.75260662  0.61743423  0.91759176  1
  O  O40  1  0.74739300  0.11743423  0.91759176  1
  O  O41  1  0.74739300  0.88256577  0.41759110  1
  O  O42  1  0.81682539  0.36280049  0.03073126  1
  O  O43  1  0.81682539  0.63719951  0.53073087  1
  O  O44  1  0.88013634  0.37131034  0.61457293  1
  O  O45  1  0.88013634  0.62868966  0.11457332  1
  O  O46  1  0.87629258  0.90987007  0.62202157  1
  O  O47  1  0.87629258  0.09012993  0.12202196  1
  P  P48  1  0.84959662  0.46399093  0.48317257  1
  P  P49  1  0.84959662  0.53600907  0.98317323  1
  P  P50  1  0.85219294  0.17913120  0.99401220  1
  P  P51  1  0.65040300  0.96399092  0.48317257  1
  P  P52  1  0.14780731  0.17913120  0.50598768  1
  P  P53  1  0.14780731  0.82086879  0.00598807  1
  P  P54  1  0.15040288  0.46399093  0.01682704  1
  P  P55  1  0.15040288  0.53600907  0.51682664  1
  P  P56  1  0.34959725  0.03600907  0.51682664  1
  P  P57  1  0.34959725  0.96399092  0.01682704  1
  P  P58  1  0.35219281  0.32086879  0.00598807  1
  P  P59  1  0.35219281  0.67913120  0.50598768  1
  P  P60  1  0.64780744  0.32086879  0.49401259  1
  P  P61  1  0.64780744  0.67913120  0.99401220  1
  P  P62  1  0.65040300  0.03600907  0.98317323  1
  P  P63  1  0.85219294  0.82086879  0.49401259  1
  Mo  Mo64  1  0.50000013  0.85239334  0.74999994  1
  Mo  Mo65  1  0.50000013  0.14760665  0.25000033  1
  Mo  Mo66  1  0.00000000  0.64760665  0.25000033  1
  Mo  Mo67  1  0.00000000  0.35239335  0.74999994  1
