# generated using pymatgen
data_Li4Mn(PO4)2
_symmetry_space_group_name_H-M   'P 1'
_cell_length_a   8.25951680
_cell_length_b   10.49476682
_cell_length_c   8.33707071
_cell_angle_alpha   90.00000000
_cell_angle_beta   104.52347252
_cell_angle_gamma   90.00000000
_symmetry_Int_Tables_number   1
_chemical_formula_structural   Li4Mn(PO4)2
_chemical_formula_sum   'Li16 Mn4 P8 O32'
_cell_volume   699.57850808
_cell_formula_units_Z   4
loop_
 _symmetry_equiv_pos_site_id
 _symmetry_equiv_pos_as_xyz
  1  'x, y, z'
loop_
 _atom_site_type_symbol
 _atom_site_label
 _atom_site_symmetry_multiplicity
 _atom_site_fract_x
 _atom_site_fract_y
 _atom_site_fract_z
 _atom_site_occupancy
  Li  Li0  1  0.09967878  0.66269437  0.59771260  1
  Li  Li1  1  0.15408386  0.16240854  0.65212415  1
  Li  Li2  1  0.22778884  0.42706610  0.47848009  1
  Li  Li3  1  0.15126287  0.34889547  0.15416711  1
  Li  Li4  1  0.34873692  0.84889550  0.84583285  1
  Li  Li5  1  0.27221095  0.92706612  0.52151987  1
  Li  Li6  1  0.34591717  0.66240760  0.34787612  1
  Li  Li7  1  0.40032101  0.16269435  0.40228736  1
  Li  Li8  1  0.59967880  0.83730569  0.59771320  1
  Li  Li9  1  0.65408388  0.33759149  0.65212354  1
  Li  Li10  1  0.72778886  0.07293392  0.47848069  1
  Li  Li11  1  0.65126289  0.15110455  0.15416771  1
  Li  Li12  1  0.84873693  0.65110457  0.84583224  1
  Li  Li13  1  0.77221096  0.57293394  0.52151927  1
  Li  Li14  1  0.84591719  0.83759151  0.34787672  1
  Li  Li15  1  0.90032103  0.33730567  0.40228675  1
  O  O16  1  0.02256618  0.45111288  0.27791418  1
  O  O17  1  0.90980773  0.65297326  0.37863291  1
  O  O18  1  0.82660485  0.60159849  0.07060775  1
  O  O19  1  0.97743362  0.54888717  0.72208517  1
  O  O20  1  0.01092054  0.04924906  0.75113177  1
  O  O21  1  0.09019207  0.34702678  0.62136765  1
  O  O22  1  0.17339495  0.39840155  0.92939161  1
  O  O23  1  0.98907926  0.95075098  0.24886878  1
  O  O24  1  0.12705711  0.84664516  0.65711136  1
  O  O25  1  0.06141052  0.16804954  0.14492636  1
  O  O26  1  0.12179945  0.66668237  0.20359128  1
  O  O27  1  0.18603567  0.10051447  0.44106851  1
  O  O28  1  0.31396537  0.60051449  0.55893176  1
  O  O29  1  0.37820034  0.16668235  0.79640868  1
  O  O30  1  0.43859052  0.66804956  0.85507391  1
  O  O31  1  0.37294267  0.34664514  0.34288860  1
  O  O32  1  0.47743360  0.95111290  0.72208578  1
  O  O33  1  0.32660483  0.89840157  0.07060835  1
  O  O34  1  0.40980771  0.84702680  0.37863232  1
  O  O35  1  0.51092056  0.45075096  0.75113117  1
  O  O36  1  0.48907924  0.54924908  0.24886819  1
  O  O37  1  0.59019209  0.15297324  0.62136704  1
  O  O38  1  0.67339497  0.10159847  0.92939221  1
  O  O39  1  0.52256620  0.04888714  0.27791478  1
  O  O40  1  0.62705713  0.65335490  0.65711075  1
  O  O41  1  0.56141054  0.33195049  0.14492575  1
  O  O42  1  0.62179947  0.83331769  0.20359068  1
  O  O43  1  0.68603569  0.39948555  0.44106791  1
  O  O44  1  0.81396539  0.89948558  0.55893235  1
  O  O45  1  0.87294269  0.15335488  0.34288920  1
  O  O46  1  0.93859054  0.83195051  0.85507451  1
  O  O47  1  0.87820036  0.33331767  0.79640927  1
  P  P48  1  0.96996171  0.59085415  0.23334120  1
  P  P49  1  0.97335597  0.90631437  0.70492220  1
  P  P50  1  0.52664386  0.40631435  0.29507775  1
  P  P51  1  0.46996169  0.90914592  0.23334060  1
  P  P52  1  0.03003809  0.40914590  0.76665936  1
  P  P53  1  0.02664384  0.09368567  0.29507715  1
  P  P54  1  0.53003811  0.09085412  0.76665875  1
  P  P55  1  0.47335595  0.59368569  0.70492281  1
  Mn  Mn56  1  0.09276989  0.84395672  0.09218011  1
  Mn  Mn57  1  0.40722990  0.34395670  0.90781985  1
  Mn  Mn58  1  0.59276991  0.65604334  0.09218071  1
  Mn  Mn59  1  0.90722992  0.15604332  0.90781924  1
