# generated using pymatgen
data_LiV2(PO4)3
_symmetry_space_group_name_H-M   'P 1'
_cell_length_a   8.44568369
_cell_length_b   8.49378065
_cell_length_c   8.79865437
_cell_angle_alpha   118.48938713
_cell_angle_beta   91.06334440
_cell_angle_gamma   119.50324510
_symmetry_Int_Tables_number   1
_chemical_formula_structural   LiV2(PO4)3
_chemical_formula_sum   'Li2 V4 P6 O24'
_cell_volume   455.53512842
_cell_formula_units_Z   2
loop_
 _symmetry_equiv_pos_site_id
 _symmetry_equiv_pos_as_xyz
  1  'x, y, z'
loop_
 _atom_site_type_symbol
 _atom_site_label
 _atom_site_symmetry_multiplicity
 _atom_site_fract_x
 _atom_site_fract_y
 _atom_site_fract_z
 _atom_site_occupancy
  Li  Li0  1  0.22962087  0.76514950  0.58477472  1
  Li  Li1  1  0.77037969  0.23485012  0.41522456  1
  O  O2  1  0.64009378  0.92270432  0.92310411  1
  O  O3  1  0.26044010  0.89371789  0.43444324  1
  O  O4  1  0.19458754  0.70904409  0.08405144  1
  O  O5  1  0.09198240  0.50128836  0.23777433  1
  O  O6  1  0.27637935  0.69366331  0.77329019  1
  O  O7  1  0.02834677  0.14248593  0.94568022  1
  O  O8  1  0.44120545  0.73403152  0.27080318  1
  O  O9  1  0.18868784  0.17016328  0.71406952  1
  O  O10  1  0.16337532  0.13842271  0.39153334  1
  O  O11  1  0.47504309  0.75746241  0.58951065  1
  O  O12  1  0.09183851  0.85890012  0.75029666  1
  O  O13  1  0.46520788  0.52234763  0.70176928  1
  O  O14  1  0.53479149  0.47765199  0.29823113  1
  O  O15  1  0.35990560  0.07729531  0.07689630  1
  O  O16  1  0.52495710  0.24253885  0.41049053  1
  O  O17  1  0.83662524  0.86157691  0.60846594  1
  O  O18  1  0.90816168  0.14110114  0.24970452  1
  O  O19  1  0.55879473  0.26596973  0.72919684  1
  O  O20  1  0.97165380  0.85751370  0.05432021  1
  O  O21  1  0.72362083  0.30633794  0.22670984  1
  O  O22  1  0.90801697  0.49871126  0.76222609  1
  O  O23  1  0.80541383  0.29095716  0.91594859  1
  O  O24  1  0.73956008  0.10628335  0.56555679  1
  O  O25  1  0.81131272  0.82983634  0.28592976  1
  P  P26  1  0.24663456  0.71265229  0.25251817  1
  P  P27  1  0.03913413  0.01279671  0.75612407  1
  P  P28  1  0.46621689  0.71938394  0.74667558  1
  P  P29  1  0.53378330  0.28061732  0.25332560  1
  P  P30  1  0.96086525  0.98720291  0.24387634  1
  P  P31  1  0.75336481  0.28734733  0.74748224  1
  V  V32  1  0.13588570  0.78985265  0.92983128  1
  V  V33  1  0.64095017  0.78757810  0.43141455  1
  V  V34  1  0.35905040  0.21242154  0.56858588  1
  V  V35  1  0.86411487  0.21014699  0.07016915  1
