# generated using pymatgen
data_Li3Mo2(PO4)3
_symmetry_space_group_name_H-M   'P 1'
_cell_length_a   8.69343995
_cell_length_b   12.38963378
_cell_length_c   9.02444428
_cell_angle_alpha   90.00000000
_cell_angle_beta   90.00000000
_cell_angle_gamma   89.91852679
_symmetry_Int_Tables_number   1
_chemical_formula_structural   Li3Mo2(PO4)3
_chemical_formula_sum   'Li12 Mo8 P12 O48'
_cell_volume   972.00871078
_cell_formula_units_Z   4
loop_
 _symmetry_equiv_pos_site_id
 _symmetry_equiv_pos_as_xyz
  1  'x, y, z'
loop_
 _atom_site_type_symbol
 _atom_site_label
 _atom_site_symmetry_multiplicity
 _atom_site_fract_x
 _atom_site_fract_y
 _atom_site_fract_z
 _atom_site_occupancy
  Li  Li0  1  0.06875082  0.35063560  0.51656158  1
  Li  Li1  1  0.08307889  0.68674813  0.09092650  1
  Li  Li2  1  0.17680698  0.17890908  0.77770862  1
  Li  Li3  1  0.32319205  0.32109121  0.27770836  1
  Li  Li4  1  0.41692133  0.81325205  0.59092676  1
  Li  Li5  1  0.43124821  0.14936469  0.01656243  1
  Li  Li6  1  0.56875101  0.85063508  0.98343810  1
  Li  Li7  1  0.58307906  0.18674853  0.40907377  1
  Li  Li8  1  0.67680717  0.67890937  0.72229105  1
  Li  Li9  1  0.82319224  0.82109069  0.22229079  1
  Li  Li10  1  0.91692033  0.31325163  0.90907292  1
  Li  Li11  1  0.93124840  0.64936417  0.48343784  1
  O  O12  1  0.19098622  0.43705139  0.18355546  1
  O  O13  1  0.95428266  0.55048115  0.13029592  1
  O  O14  1  0.95272329  0.40038251  0.33299118  1
  O  O15  1  0.94306927  0.80659149  0.42691015  1
  O  O16  1  0.90672585  0.41993655  0.63949807  1
  O  O17  1  0.88321371  0.17875450  0.78650002  1
  O  O18  1  0.87837181  0.75479833  0.01003376  1
  O  O19  1  0.82442667  0.80774455  0.74167605  1
  O  O20  1  0.04735013  0.89470383  0.88724276  1
  O  O21  1  0.04571772  0.44951862  0.86970350  1
  O  O22  1  0.04727709  0.59961807  0.66700935  1
  O  O23  1  0.05692995  0.19340827  0.57309037  1
  O  O24  1  0.09327453  0.58006403  0.36050135  1
  O  O25  1  0.11678551  0.82124526  0.21349940  1
  O  O26  1  0.12162857  0.24520225  0.98996566  1
  O  O27  1  0.12968775  0.96480094  0.41061711  1
  O  O28  1  0.17557372  0.19225522  0.25832336  1
  O  O29  1  0.95264910  0.10529594  0.11275777  1
  O  O30  1  0.22904816  0.77850264  0.47486821  1
  O  O31  1  0.23535469  0.06654342  0.04819807  1
  O  O32  1  0.26464550  0.43345605  0.54819722  1
  O  O33  1  0.27095206  0.72149674  0.97486847  1
  O  O34  1  0.30901397  0.06294809  0.68355572  1
  O  O35  1  0.32442648  0.30774507  0.75832362  1
  O  O36  1  0.37031247  0.53519924  0.91061626  1
  O  O37  1  0.37837162  0.25479804  0.48996651  1
  O  O38  1  0.38321470  0.67875492  0.71349966  1
  O  O39  1  0.40672568  0.91993615  0.86050161  1
  O  O40  1  0.44307024  0.30659120  0.07309011  1
  O  O41  1  0.45272313  0.90038212  0.16700908  1
  O  O42  1  0.45265009  0.60529554  0.38724250  1
  O  O43  1  0.45428247  0.05048086  0.36970323  1
  O  O44  1  0.54571791  0.94951891  0.63029618  1
  O  O45  1  0.54735029  0.39470422  0.61275692  1
  O  O46  1  0.54727610  0.09961765  0.83299033  1
  O  O47  1  0.55693014  0.69340856  0.92691042  1
  O  O48  1  0.59327470  0.08006361  0.13949780  1
  O  O49  1  0.61678568  0.32124566  0.28649975  1
  O  O50  1  0.62162876  0.74520173  0.51003402  1
  O  O51  1  0.62968792  0.46480134  0.08938315  1
  O  O52  1  0.67557391  0.69225551  0.24167579  1
  O  O53  1  0.69098641  0.93705168  0.31644481  1
  O  O54  1  0.72904832  0.27850303  0.02513205  1
  O  O55  1  0.73535372  0.56654371  0.45180219  1
  O  O56  1  0.76464569  0.93345634  0.95180246  1
  O  O57  1  0.77095222  0.22149713  0.52513232  1
  O  O58  1  0.80901301  0.56294838  0.81644507  1
  O  O59  1  0.87031263  0.03519883  0.58938342  1
  P  P60  1  0.95535278  0.51070181  0.74889234  1
  P  P61  1  0.88922379  0.15508826  0.61648184  1
  P  P62  1  0.88466461  0.84941510  0.89327335  1
  P  P63  1  0.61533480  0.65058496  0.39327309  1
  P  P64  1  0.61077676  0.34491190  0.11648158  1
  P  P65  1  0.54464663  0.98929824  0.24889319  1
  P  P66  1  0.45535259  0.01070233  0.75110734  1
  P  P67  1  0.38922363  0.65508787  0.88351895  1
  P  P68  1  0.04464760  0.48929796  0.25110707  1
  P  P69  1  0.11077659  0.84491232  0.38351868  1
  P  P70  1  0.38466442  0.34941481  0.60672744  1
  P  P71  1  0.11533577  0.15058548  0.10672717  1
  Mo  Mo72  1  0.24449262  0.89307021  0.03094154  1
  Mo  Mo73  1  0.24344780  0.10905377  0.46074858  1
  Mo  Mo74  1  0.25550644  0.60692998  0.53094180  1
  Mo  Mo75  1  0.25655239  0.39094652  0.96074884  1
  Mo  Mo76  1  0.74344799  0.60905406  0.03925168  1
  Mo  Mo77  1  0.74449278  0.39306979  0.46905873  1
  Mo  Mo78  1  0.75655259  0.89094600  0.53925083  1
  Mo  Mo79  1  0.75550661  0.10692956  0.96905788  1
