# generated using pymatgen
data_TbAlO3
_symmetry_space_group_name_H-M   'P 1'
_cell_length_a   5.23635306
_cell_length_b   5.37614173
_cell_length_c   7.46483374
_cell_angle_alpha   90.00000000
_cell_angle_beta   90.00000000
_cell_angle_gamma   90.00000000
_symmetry_Int_Tables_number   1
_chemical_formula_structural   TbAlO3
_chemical_formula_sum   'Tb4 Al4 O12'
_cell_volume   210.14534288
_cell_formula_units_Z   4
loop_
 _symmetry_equiv_pos_site_id
 _symmetry_equiv_pos_as_xyz
  1  'x, y, z'
loop_
 _atom_site_type_symbol
 _atom_site_label
 _atom_site_symmetry_multiplicity
 _atom_site_fract_x
 _atom_site_fract_y
 _atom_site_fract_z
 _atom_site_occupancy
  O  O0  1  0.29166230  0.29198738  0.45578573  1
  O  O1  1  0.79166230  0.20801262  0.54421427  1
  O  O2  1  0.20833770  0.79198738  0.04421427  1
  O  O3  1  0.70833770  0.70801262  0.95578573  1
  O  O4  1  0.70833770  0.70801262  0.54421427  1
  O  O5  1  0.20833770  0.79198738  0.45578573  1
  O  O6  1  0.79166230  0.20801262  0.95578573  1
  O  O7  1  0.29166230  0.29198738  0.04421427  1
  O  O8  1  0.91650676  0.47888200  0.25000000  1
  O  O9  1  0.41650676  0.02111800  0.75000000  1
  O  O10  1  0.58349324  0.97888200  0.25000000  1
  O  O11  1  0.08349324  0.52111800  0.75000000  1
  Al  Al12  1  0.50000000  0.00000000  0.00000000  1
  Al  Al13  1  0.00000000  0.50000000  0.00000000  1
  Al  Al14  1  0.00000000  0.50000000  0.50000000  1
  Al  Al15  1  0.50000000  0.00000000  0.50000000  1
  Tb  Tb16  1  0.01235702  0.05147924  0.25000000  1
  Tb  Tb17  1  0.51235702  0.44852076  0.75000000  1
  Tb  Tb18  1  0.48764298  0.55147924  0.25000000  1
  Tb  Tb19  1  0.98764298  0.94852076  0.75000000  1
