# generated using pymatgen
data_Ca3Si2O7
_symmetry_space_group_name_H-M   'P 1'
_cell_length_a   7.92686737
_cell_length_b   8.99405956
_cell_length_c   9.69341695
_cell_angle_alpha   90.00000000
_cell_angle_beta   106.14696813
_cell_angle_gamma   90.00000000
_symmetry_Int_Tables_number   1
_chemical_formula_structural   Ca3Si2O7
_chemical_formula_sum   'Ca12 Si8 O28'
_cell_volume   663.82698199
_cell_formula_units_Z   4
loop_
 _symmetry_equiv_pos_site_id
 _symmetry_equiv_pos_as_xyz
  1  'x, y, z'
loop_
 _atom_site_type_symbol
 _atom_site_label
 _atom_site_symmetry_multiplicity
 _atom_site_fract_x
 _atom_site_fract_y
 _atom_site_fract_z
 _atom_site_occupancy
  O  O0  1  0.48898209  0.33458321  0.42737592  1
  O  O1  1  0.01101791  0.83458321  0.07262408  1
  O  O2  1  0.51101791  0.66541679  0.57262408  1
  O  O3  1  0.98898209  0.16541679  0.92737592  1
  O  O4  1  0.79816724  0.35969499  0.64107098  1
  O  O5  1  0.70183276  0.85969499  0.85892902  1
  O  O6  1  0.20183276  0.64030501  0.35892902  1
  O  O7  1  0.29816724  0.14030501  0.14107098  1
  O  O8  1  0.62563443  0.10378126  0.59864281  1
  O  O9  1  0.87436557  0.60378126  0.90135719  1
  O  O10  1  0.37436557  0.89621874  0.40135719  1
  O  O11  1  0.12563443  0.39621874  0.09864281  1
  O  O12  1  0.49264099  0.34649463  0.70300874  1
  O  O13  1  0.00735901  0.84649463  0.79699126  1
  O  O14  1  0.50735901  0.65350537  0.29699126  1
  O  O15  1  0.99264099  0.15350537  0.20300874  1
  O  O16  1  0.36256883  0.39832046  0.91093089  1
  O  O17  1  0.13743117  0.89832046  0.58906911  1
  O  O18  1  0.63743117  0.60167954  0.08906911  1
  O  O19  1  0.86256883  0.10167954  0.41093089  1
  O  O20  1  0.93644203  0.39716326  0.35668977  1
  O  O21  1  0.56355797  0.89716326  0.14331023  1
  O  O22  1  0.06355797  0.60283674  0.64331023  1
  O  O23  1  0.43644203  0.10283674  0.85668977  1
  O  O24  1  0.66990192  0.23856761  0.17932628  1
  O  O25  1  0.83009808  0.73856761  0.32067372  1
  O  O26  1  0.33009808  0.76143239  0.82067372  1
  O  O27  1  0.16990192  0.26143239  0.67932628  1
  Si  Si28  1  0.60431961  0.28438937  0.58916909  1
  Si  Si29  1  0.89568039  0.78438937  0.91083091  1
  Si  Si30  1  0.39568039  0.71561063  0.41083091  1
  Si  Si31  1  0.10431961  0.21561063  0.08916909  1
  Si  Si32  1  0.36354881  0.26651929  0.79608726  1
  Si  Si33  1  0.13645119  0.76651929  0.70391274  1
  Si  Si34  1  0.63645119  0.73348071  0.20391274  1
  Si  Si35  1  0.86354881  0.23348071  0.29608726  1
  Ca  Ca36  1  0.55640684  0.59378126  0.84281051  1
  Ca  Ca37  1  0.94359316  0.09378126  0.65718949  1
  Ca  Ca38  1  0.44359316  0.40621874  0.15718949  1
  Ca  Ca39  1  0.05640684  0.90621874  0.34281051  1
  Ca  Ca40  1  0.46120338  0.92487910  0.66879478  1
  Ca  Ca41  1  0.03879662  0.42487910  0.83120522  1
  Ca  Ca42  1  0.53879662  0.07512090  0.33120522  1
  Ca  Ca43  1  0.96120338  0.57512090  0.16879478  1
  Ca  Ca44  1  0.21827791  0.44014691  0.50843496  1
  Ca  Ca45  1  0.28172209  0.94014691  0.99156504  1
  Ca  Ca46  1  0.78172209  0.55985309  0.49156504  1
  Ca  Ca47  1  0.71827791  0.05985309  0.00843496  1
