# generated using pymatgen
data_CdInBr3
_symmetry_space_group_name_H-M   'P 1'
_cell_length_a   4.19910411
_cell_length_b   9.60093190
_cell_length_c   15.68105594
_cell_angle_alpha   90.00000000
_cell_angle_beta   90.00000000
_cell_angle_gamma   90.00000000
_symmetry_Int_Tables_number   1
_chemical_formula_structural   CdInBr3
_chemical_formula_sum   'Cd4 In4 Br12'
_cell_volume   632.18667214
_cell_formula_units_Z   4
loop_
 _symmetry_equiv_pos_site_id
 _symmetry_equiv_pos_as_xyz
  1  'x, y, z'
loop_
 _atom_site_type_symbol
 _atom_site_label
 _atom_site_symmetry_multiplicity
 _atom_site_fract_x
 _atom_site_fract_y
 _atom_site_fract_z
 _atom_site_occupancy
  In  In0  1  0.75000000  0.55847821  0.32228745  1
  In  In1  1  0.25000000  0.44152179  0.67771255  1
  In  In2  1  0.75000000  0.05847821  0.17771255  1
  In  In3  1  0.25000000  0.94152179  0.82228745  1
  Cd  Cd4  1  0.75000000  0.83292445  0.55634277  1
  Cd  Cd5  1  0.25000000  0.16707555  0.44365723  1
  Cd  Cd6  1  0.75000000  0.33292445  0.94365723  1
  Cd  Cd7  1  0.25000000  0.66707555  0.05634277  1
  Br  Br8  1  0.75000000  0.33408978  0.50573394  1
  Br  Br9  1  0.25000000  0.66591022  0.49426606  1
  Br  Br10  1  0.75000000  0.83408978  0.99426606  1
  Br  Br11  1  0.25000000  0.16591022  0.00573394  1
  Br  Br12  1  0.75000000  0.71207470  0.71327735  1
  Br  Br13  1  0.25000000  0.28792530  0.28672265  1
  Br  Br14  1  0.75000000  0.21207470  0.78672265  1
  Br  Br15  1  0.25000000  0.78792530  0.21327735  1
  Br  Br16  1  0.75000000  0.97754012  0.39637366  1
  Br  Br17  1  0.25000000  0.02245988  0.60362634  1
  Br  Br18  1  0.75000000  0.47754012  0.10362634  1
  Br  Br19  1  0.25000000  0.52245988  0.89637366  1
