# generated using pymatgen
data_Na3Sr7Ta3Ti7O30
_symmetry_space_group_name_H-M   'P 1'
_cell_length_a   3.95631697
_cell_length_b   7.94250673
_cell_length_c   19.81127525
_cell_angle_alpha   90.05299630
_cell_angle_beta   90.00000000
_cell_angle_gamma   90.00000000
_symmetry_Int_Tables_number   1
_chemical_formula_structural   Na3Sr7Ta3Ti7O30
_chemical_formula_sum   'Na3 Sr7 Ta3 Ti7 O30'
_cell_volume   622.53090500
_cell_formula_units_Z   1
loop_
 _symmetry_equiv_pos_site_id
 _symmetry_equiv_pos_as_xyz
  1  'x, y, z'
loop_
 _atom_site_type_symbol
 _atom_site_label
 _atom_site_symmetry_multiplicity
 _atom_site_fract_x
 _atom_site_fract_y
 _atom_site_fract_z
 _atom_site_occupancy
  Na  Na0  1  0.00000000  0.50610453  0.00895732  1
  Na  Na1  1  0.00000000  0.47964534  0.79140066  1
  Na  Na2  1  0.00000000  0.01970310  0.79326523  1
  O  O3  1  0.00000000  0.24377602  0.10303451  1
  O  O4  1  0.00000000  0.24416249  0.90273274  1
  O  O5  1  0.00000000  0.75365099  0.90321760  1
  O  O6  1  0.50000000  0.24640799  0.20181958  1
  O  O7  1  0.50000000  0.49638150  0.10328372  1
  O  O8  1  0.50000000  0.75525582  0.00174339  1
  O  O9  1  0.50000000  0.99423310  0.10284393  1
  O  O10  1  0.50000000  0.23930243  0.00193194  1
  O  O11  1  0.50000000  0.49541325  0.30151340  1
  O  O12  1  0.50000000  0.74461832  0.20173408  1
  O  O13  1  0.50000000  0.24805756  0.59998067  1
  O  O14  1  0.50000000  0.49597467  0.50015217  1
  O  O15  1  0.50000000  0.74645344  0.40080434  1
  O  O16  1  0.50000000  0.99508401  0.30114230  1
  O  O17  1  0.50000000  0.24579653  0.40093469  1
  O  O18  1  0.50000000  0.49916241  0.69774746  1
  O  O19  1  0.50000000  0.74770292  0.59990884  1
  O  O20  1  0.50000000  0.49913001  0.90269535  1
  O  O21  1  0.50000000  0.74830497  0.80082918  1
  O  O22  1  0.50000000  -0.00099278  0.69778043  1
  O  O23  1  0.50000000  0.24967940  0.80035568  1
  O  O24  1  0.50000000  -0.00360223  0.50030349  1
  O  O25  1  0.50000000  0.99908654  0.90305258  1
  O  O26  1  0.00000000  0.24559246  0.30154742  1
  O  O27  1  0.00000000  0.24694495  0.50036449  1
  O  O28  1  0.00000000  0.74885883  0.10285125  1
  O  O29  1  0.00000000  0.24951740  0.69734695  1
  O  O30  1  0.00000000  0.74557655  0.30134029  1
  O  O31  1  0.00000000  0.74687055  0.50021821  1
  O  O32  1  0.00000000  0.74912923  0.69780521  1
  Sr  Sr33  1  0.00000000  0.00494607  0.00572763  1
  Sr  Sr34  1  0.00000000  0.50610788  0.19836624  1
  Sr  Sr35  1  0.00000000  0.50467969  0.39779157  1
  Sr  Sr36  1  0.00000000  0.00785205  0.19882401  1
  Sr  Sr37  1  0.00000000  0.00419003  0.39787958  1
  Sr  Sr38  1  0.00000000  0.49461399  0.59630849  1
  Sr  Sr39  1  0.00000000  0.00804239  0.59644749  1
  Ta  Ta40  1  0.50000000  0.75021695  0.70088522  1
  Ta  Ta41  1  0.50000000  0.25216440  0.89738115  1
  Ta  Ta42  1  0.50000000  0.74752163  0.90092802  1
  Ti  Ti43  1  0.50000000  0.26361281  0.09793379  1
  Ti  Ti44  1  0.50000000  0.75798896  0.29828671  1
  Ti  Ti45  1  0.50000000  0.25825480  0.29729057  1
  Ti  Ti46  1  0.50000000  0.75677912  0.10039590  1
  Ti  Ti47  1  0.50000000  0.25576668  0.49646248  1
  Ti  Ti48  1  0.50000000  0.25038094  0.69729272  1
  Ti  Ti49  1  0.50000000  0.75589928  0.49715933  1
