# generated using pymatgen
data_Mo2P3O13
_symmetry_space_group_name_H-M   'P 1'
_cell_length_a   6.46686744
_cell_length_b   22.68688188
_cell_length_c   7.14783105
_cell_angle_alpha   89.99919664
_cell_angle_beta   80.01944953
_cell_angle_gamma   90.00056327
_symmetry_Int_Tables_number   1
_chemical_formula_structural   Mo2P3O13
_chemical_formula_sum   'Mo8 P12 O52'
_cell_volume   1032.81009789
_cell_formula_units_Z   4
loop_
 _symmetry_equiv_pos_site_id
 _symmetry_equiv_pos_as_xyz
  1  'x, y, z'
loop_
 _atom_site_type_symbol
 _atom_site_label
 _atom_site_symmetry_multiplicity
 _atom_site_fract_x
 _atom_site_fract_y
 _atom_site_fract_z
 _atom_site_occupancy
  O  O0  1  0.90865050  0.94168631  0.21427161  1
  O  O1  1  0.98053457  0.69199744  0.44721230  1
  O  O2  1  0.98099960  0.43313614  0.20664447  1
  O  O3  1  0.86670768  0.87243611  0.80976654  1
  O  O4  1  0.89967728  0.07670772  0.47289709  1
  O  O5  1  0.76455123  0.38466895  0.99224270  1
  O  O6  1  0.80299462  0.76103838  0.69581323  1
  O  O7  1  0.78217170  0.15291825  0.77032255  1
  O  O8  1  0.01946643  0.30800256  0.55278670  1
  O  O9  1  0.01899940  0.56686386  0.79335553  1
  O  O10  1  0.13329332  0.12756289  0.19023346  1
  O  O11  1  0.10032272  0.92329228  0.52710291  1
  O  O12  1  0.23544977  0.61533105  0.00775630  1
  O  O13  1  0.09134850  0.05831369  0.78572739  1
  O  O14  1  0.19700638  0.23896262  0.30418577  1
  O  O15  1  0.21782930  0.84708075  0.22967645  1
  O  O16  1  0.22765896  0.02645705  0.28984560  1
  O  O17  1  0.09493474  0.78907153  0.96820592  1
  O  O18  1  0.20533661  0.44368261  0.51399821  1
  O  O19  1  0.27233478  0.52645788  0.21016598  1
  O  O20  1  0.28217382  0.34707535  0.27031031  1
  O  O21  1  0.30299809  0.73896734  0.19581340  1
  O  O22  1  0.26455649  0.11532929  0.49224294  1
  O  O23  1  0.24444649  0.77320598  0.56141750  1
  O  O24  1  0.23801426  0.65920592  0.69170621  1
  O  O25  1  0.26199292  0.15920717  0.80828887  1
  O  O26  1  0.25556416  0.27320444  0.93858513  1
  O  O27  1  0.36670972  0.62756551  0.30976116  1
  O  O28  1  0.29467653  0.94369390  0.98597611  1
  O  O29  1  0.40505888  0.28906787  0.53179611  1
  O  O30  1  0.51946747  0.19199061  0.05279302  1
  O  O31  1  0.40864405  0.55831265  0.71428882  1
  O  O32  1  0.51900717  0.93313646  0.29334181  1
  O  O33  1  0.39968102  0.42329300  0.97288758  1
  O  O34  1  0.60031798  0.57670700  0.02711342  1
  O  O35  1  0.48099383  0.06686354  0.70665919  1
  O  O36  1  0.59135495  0.44168735  0.28571218  1
  O  O37  1  0.48053253  0.80800939  0.94720698  1
  O  O38  1  0.59494212  0.71093213  0.46820489  1
  O  O39  1  0.70532447  0.05630610  0.01402389  1
  O  O40  1  0.63329128  0.37243449  0.69023884  1
  O  O41  1  0.74443484  0.72679556  0.06141487  1
  O  O42  1  0.73800808  0.84079183  0.19171013  1
  O  O43  1  0.76198574  0.34079308  0.30829479  1
  O  O44  1  0.75555451  0.22679402  0.43858350  1
  O  O45  1  0.73544251  0.88467071  0.50775806  1
  O  O46  1  0.77234004  0.97354295  0.71015440  1
  O  O47  1  0.71782718  0.65292365  0.72968869  1
  O  O48  1  0.72766422  0.47354212  0.78983502  1
  O  O49  1  0.79466239  0.55631839  0.48600279  1
  O  O50  1  0.90506526  0.21092847  0.03179408  1
  O  O51  1  0.69700191  0.26103366  0.80418660  1
  P  P52  1  0.27493288  0.09795367  0.70630990  1
  P  P53  1  0.38308209  0.58418612  0.14415107  1
  P  P54  1  0.22506767  0.59795349  0.79369696  1
  P  P55  1  0.61691891  0.41581388  0.85584993  1
  P  P56  1  0.72506812  0.90204533  0.29368910  1
  P  P57  1  0.77493133  0.40204651  0.20630404  1
  P  P58  1  0.77124418  0.70255484  0.58714700  1
  P  P59  1  0.72875850  0.20255038  0.91286005  1
  P  P60  1  0.11691263  0.08418444  0.35585773  1
  P  P61  1  0.27124250  0.79744962  0.08713895  1
  P  P62  1  0.22875582  0.29744516  0.41285400  1
  P  P63  1  0.88308837  0.91581556  0.64414227  1
  Mo  Mo64  1  0.78599696  0.79369293  0.95474078  1
  Mo  Mo65  1  0.77334570  0.06075071  0.77411306  1
  Mo  Mo66  1  0.72664495  0.56075509  0.72591162  1
  Mo  Mo67  1  0.71399404  0.29369090  0.54525835  1
  Mo  Mo68  1  0.28600496  0.70630910  0.45474165  1
  Mo  Mo69  1  0.27335605  0.43924491  0.27408938  1
  Mo  Mo70  1  0.22665330  0.93924929  0.22588794  1
  Mo  Mo71  1  0.21400304  0.20630707  0.04525822  1
