# generated using pymatgen
data_CsU2F9
_symmetry_space_group_name_H-M   'P 1'
_cell_length_a   7.17246005
_cell_length_b   8.38645368
_cell_length_c   8.72633445
_cell_angle_alpha   115.97331141
_cell_angle_beta   90.00337161
_cell_angle_gamma   114.35801043
_symmetry_Int_Tables_number   1
_chemical_formula_structural   CsU2F9
_chemical_formula_sum   'Cs2 U4 F18'
_cell_volume   419.28879069
_cell_formula_units_Z   2
loop_
 _symmetry_equiv_pos_site_id
 _symmetry_equiv_pos_as_xyz
  1  'x, y, z'
loop_
 _atom_site_type_symbol
 _atom_site_label
 _atom_site_symmetry_multiplicity
 _atom_site_fract_x
 _atom_site_fract_y
 _atom_site_fract_z
 _atom_site_occupancy
  Cs  Cs0  1  0.10782851  0.99179203  0.24494209  1
  Cs  Cs1  1  0.87816063  -0.00747055  0.75070761  1
  F  F2  1  0.02772991  0.67872914  0.57669917  1
  F  F3  1  0.12241537  0.67022259  0.28354394  1
  F  F4  1  0.05570691  0.31218207  0.13233114  1
  F  F5  1  0.26064489  0.63420891  -0.01025198  1
  F  F6  1  0.36579139  0.62948532  0.48777624  1
  F  F7  1  0.26174215  0.31119698  0.63054696  1
  F  F8  1  0.33827435  0.32152376  0.92697015  1
  F  F9  1  0.54086640  0.66989343  0.78340343  1
  F  F10  1  0.44300595  0.33292060  0.21938062  1
  F  F11  1  0.64537187  0.67647299  0.07606173  1
  F  F12  1  0.47841249  0.10317068  0.65467561  1
  F  F13  1  0.73330063  0.68827543  0.36609946  1
  F  F14  1  0.64167099  0.38043796  0.51508174  1
  F  F15  1  0.74058167  0.37793177  0.01416632  1
  F  F16  1  0.64149518  0.10461871  0.15631263  1
  F  F17  1  0.94614478  0.68749911  0.86452409  1
  F  F18  1  0.89563377  0.33422377  0.72088119  1
  F  F19  1  0.98587080  0.32181786  0.42852185  1
  U  U20  1  0.18464170  0.56305121  0.69993557  1
  U  U21  1  0.37631868  0.56335673  0.20003299  1
  U  U22  1  0.61331482  0.41574999  0.78814092  1
  U  U23  1  0.80427615  0.41710950  0.28891654  1
