# generated using pymatgen
data_Sr5Si3
_symmetry_space_group_name_H-M   'P 1'
_cell_length_a   6.50281318
_cell_length_b   9.46103824
_cell_length_c   9.46103823
_cell_angle_alpha   83.21730272
_cell_angle_beta   69.89981253
_cell_angle_gamma   69.89981251
_symmetry_Int_Tables_number   1
_chemical_formula_structural   Sr5Si3
_chemical_formula_sum   'Sr10 Si6'
_cell_volume   513.32946967
_cell_formula_units_Z   2
loop_
 _symmetry_equiv_pos_site_id
 _symmetry_equiv_pos_as_xyz
  1  'x, y, z'
loop_
 _atom_site_type_symbol
 _atom_site_label
 _atom_site_symmetry_multiplicity
 _atom_site_fract_x
 _atom_site_fract_y
 _atom_site_fract_z
 _atom_site_occupancy
  Si  Si0  1  0.84574611  0.50000000  0.80850777  1
  Si  Si1  1  0.65425389  0.19149223  0.50000000  1
  Si  Si2  1  0.34574611  0.80850777  0.50000000  1
  Si  Si3  1  0.15425389  0.50000000  0.19149223  1
  Si  Si4  1  0.75000000  0.00000000  0.00000000  1
  Si  Si5  1  0.25000000  0.00000000  0.00000000  1
  Sr  Sr6  1  0.29356821  0.12204204  0.29082153  1
  Sr  Sr7  1  0.70643179  0.87795796  0.70917847  1
  Sr  Sr8  1  0.41561025  0.29082153  0.87795796  1
  Sr  Sr9  1  0.58438975  0.70917847  0.12204204  1
  Sr  Sr10  1  0.91561025  0.87795796  0.29082153  1
  Sr  Sr11  1  0.20643179  0.70917847  0.87795796  1
  Sr  Sr12  1  0.79356821  0.29082153  0.12204204  1
  Sr  Sr13  1  0.08438975  0.12204204  0.70917847  1
  Sr  Sr14  1  0.75000000  0.50000000  0.50000000  1
  Sr  Sr15  1  0.25000000  0.50000000  0.50000000  1
