# generated using pymatgen
data_Co2Mo4C
_symmetry_space_group_name_H-M   'P 1'
_cell_length_a   7.98947832
_cell_length_b   7.98947872
_cell_length_c   7.98947776
_cell_angle_alpha   59.99999985
_cell_angle_beta   59.99999817
_cell_angle_gamma   59.99999807
_symmetry_Int_Tables_number   1
_chemical_formula_structural   Co2Mo4C
_chemical_formula_sum   'Co8 Mo16 C4'
_cell_volume   360.61206156
_cell_formula_units_Z   4
loop_
 _symmetry_equiv_pos_site_id
 _symmetry_equiv_pos_as_xyz
  1  'x, y, z'
loop_
 _atom_site_type_symbol
 _atom_site_label
 _atom_site_symmetry_multiplicity
 _atom_site_fract_x
 _atom_site_fract_y
 _atom_site_fract_z
 _atom_site_occupancy
  Co  Co0  1  0.70623783  0.70623783  0.70623783  1
  Co  Co1  1  0.29376217  0.29376217  0.61871349  1
  Co  Co2  1  0.61871349  0.29376217  0.29376217  1
  Co  Co3  1  0.29376217  0.61871349  0.29376217  1
  Co  Co4  1  0.38128651  0.70623783  0.70623783  1
  Co  Co5  1  0.70623783  0.38128651  0.70623783  1
  Co  Co6  1  0.70623783  0.70623783  0.38128651  1
  Co  Co7  1  0.29376217  0.29376217  0.29376217  1
  Mo  Mo8  1  0.50000000  0.50000000  0.50000000  1
  Mo  Mo9  1  0.50000000  0.50000000  0.00000000  1
  Mo  Mo10  1  0.00000000  0.50000000  0.50000000  1
  Mo  Mo11  1  0.50000000  0.00000000  0.50000000  1
  Mo  Mo12  1  0.68723134  0.06276866  0.06276866  1
  Mo  Mo13  1  0.93723134  0.93723134  0.31276866  1
  Mo  Mo14  1  0.31276866  0.31276866  0.93723134  1
  Mo  Mo15  1  0.93723134  0.31276866  0.31276866  1
  Mo  Mo16  1  0.93723134  0.31276866  0.93723134  1
  Mo  Mo17  1  0.31276866  0.93723134  0.31276866  1
  Mo  Mo18  1  0.06276866  0.68723134  0.06276866  1
  Mo  Mo19  1  0.06276866  0.06276866  0.68723134  1
  Mo  Mo20  1  0.68723134  0.68723134  0.06276866  1
  Mo  Mo21  1  0.68723134  0.06276866  0.68723134  1
  Mo  Mo22  1  0.31276866  0.93723134  0.93723134  1
  Mo  Mo23  1  0.06276866  0.68723134  0.68723134  1
  C  C24  1  0.00000000  0.00000000  0.00000000  1
  C  C25  1  0.00000000  0.00000000  0.50000000  1
  C  C26  1  0.50000000  0.00000000  0.00000000  1
  C  C27  1  0.00000000  0.50000000  0.00000000  1
