# generated using pymatgen
data_Mg(GaO2)2
_symmetry_space_group_name_H-M   'P 1'
_cell_length_a   5.93530033
_cell_length_b   5.97834310
_cell_length_c   23.77311535
_cell_angle_alpha   59.80464084
_cell_angle_beta   59.77682991
_cell_angle_gamma   59.75981150
_symmetry_Int_Tables_number   1
_chemical_formula_structural   Mg(GaO2)2
_chemical_formula_sum   'Mg8 Ga16 O32'
_cell_volume   593.50459675
_cell_formula_units_Z   8
loop_
 _symmetry_equiv_pos_site_id
 _symmetry_equiv_pos_as_xyz
  1  'x, y, z'
loop_
 _atom_site_type_symbol
 _atom_site_label
 _atom_site_symmetry_multiplicity
 _atom_site_fract_x
 _atom_site_fract_y
 _atom_site_fract_z
 _atom_site_occupancy
  Ga  Ga0  1  0.26520964  0.24424595  0.06157461  1
  Ga  Ga1  1  0.26564903  0.24394462  0.31161543  1
  Ga  Ga2  1  0.98624329  0.00746741  0.49970547  1
  Ga  Ga3  1  0.62958554  0.62925076  0.02797824  1
  Ga  Ga4  1  0.62960946  0.11533075  0.15666420  1
  Ga  Ga5  1  0.62960946  0.62840300  0.15666420  1
  Ga  Ga6  1  0.99130727  0.01169285  0.74632676  1
  Ga  Ga7  1  0.62976647  0.62827125  0.27842276  1
  Ga  Ga8  1  0.26003773  0.23932312  0.56532901  1
  Ga  Ga9  1  0.62503213  0.11830341  0.40802191  1
  Ga  Ga10  1  0.62503213  0.62457682  0.40802191  1
  Ga  Ga11  1  0.26067113  0.24021976  0.81472234  1
  Ga  Ga12  1  0.62460812  0.12439832  0.65651741  1
  Ga  Ga13  1  0.62460812  0.62492390  0.65651741  1
  Ga  Ga14  1  0.62862925  0.12165063  0.90535176  1
  Ga  Ga15  1  0.62862925  0.62831309  0.90535176  1
  Mg  Mg16  1  0.99095550  0.00696207  0.99878009  1
  Mg  Mg17  1  0.98552266  0.00258384  0.25232742  1
  Mg  Mg18  1  0.12023992  0.62677460  0.15655272  1
  Mg  Mg19  1  0.12153156  0.62408016  0.40757703  1
  Mg  Mg20  1  0.12469227  0.62490710  0.65637338  1
  Mg  Mg21  1  0.62485820  0.62398055  0.53179517  1
  Mg  Mg22  1  0.12383106  0.62748788  0.90529830  1
  Mg  Mg23  1  0.62527097  0.62459987  0.78138232  1
  O  O24  1  0.39062128  0.37934432  0.09454471  1
  O  O25  1  0.39075433  0.37813080  0.21324602  1
  O  O26  1  0.39062128  0.85185557  0.09454471  1
  O  O27  1  0.85983277  0.38031704  0.09488329  1
  O  O28  1  0.39049752  0.37976126  0.34461123  1
  O  O29  1  0.39755960  0.86772676  0.21674672  1
  O  O30  1  0.39078119  0.37582533  0.46439204  1
  O  O31  1  0.39049752  0.85129632  0.34461123  1
  O  O32  1  0.85363754  0.40591961  0.21754522  1
  O  O33  1  0.85371045  0.87182984  0.10065746  1
  O  O34  1  0.85966110  0.38072297  0.34472324  1
  O  O35  1  0.85363754  0.87026197  0.21754522  1
  O  O36  1  0.38230101  0.87499004  0.46692973  1
  O  O37  1  0.38730045  0.37202682  0.59681253  1
  O  O38  1  0.38764704  0.37603325  0.71507161  1
  O  O39  1  0.38730045  0.85342259  0.59681253  1
  O  O40  1  0.86373688  0.39158510  0.46684152  1
  O  O41  1  0.84651240  0.86673752  0.35500314  1
  O  O42  1  0.86128651  0.37551386  0.59692144  1
  O  O43  1  0.86373688  0.87731195  0.46684152  1
  O  O44  1  0.39020325  0.87424176  0.71532831  1
  O  O45  1  0.38702074  0.37083865  0.84704078  1
  O  O46  1  0.38800599  0.37802564  0.96398568  1
  O  O47  1  0.86226301  0.39774274  0.71547605  1
  O  O48  1  0.38702074  0.85397749  0.84704078  1
  O  O49  1  0.86034625  0.87288429  0.59847129  1
  O  O50  1  0.86155472  0.37431661  0.84745302  1
  O  O51  1  0.86226301  0.87809007  0.71547605  1
  O  O52  1  0.40505890  0.86736552  0.96505252  1
  O  O53  1  0.85299954  0.41207946  0.96600408  1
  O  O54  1  0.86750043  0.87722844  0.84451067  1
  O  O55  1  0.85299954  0.87090468  0.96600408  1
