# generated using pymatgen
data_Ga2NiP3H8NO14
_symmetry_space_group_name_H-M   'P 1'
_cell_length_a   8.43279372
_cell_length_b   8.43268816
_cell_length_c   9.02057634
_cell_angle_alpha   75.77831851
_cell_angle_beta   75.77756459
_cell_angle_gamma   74.39006016
_symmetry_Int_Tables_number   1
_chemical_formula_structural   Ga2NiP3H8NO14
_chemical_formula_sum   'Ga4 Ni2 P6 H16 N2 O28'
_cell_volume   587.68607929
_cell_formula_units_Z   2
loop_
 _symmetry_equiv_pos_site_id
 _symmetry_equiv_pos_as_xyz
  1  'x, y, z'
loop_
 _atom_site_type_symbol
 _atom_site_label
 _atom_site_symmetry_multiplicity
 _atom_site_fract_x
 _atom_site_fract_y
 _atom_site_fract_z
 _atom_site_occupancy
  H  H0  1  0.24860755  0.63511584  0.31664138  1
  H  H1  1  0.36488388  0.75139397  0.18336431  1
  H  H2  1  0.75139345  0.36488416  0.68335862  1
  H  H3  1  0.63511512  0.24860603  0.81663569  1
  H  H4  1  0.39695295  0.54322963  0.18124689  1
  H  H5  1  0.45676801  0.60304578  0.31875791  1
  H  H6  1  0.60304705  0.45677037  0.81875311  1
  H  H7  1  0.54323299  0.39695422  0.68124309  1
  H  H8  1  0.77591277  0.52194601  0.00656122  1
  H  H9  1  0.47807502  0.22409824  0.49340808  1
  H  H10  1  0.22408723  0.47805399  0.99343878  1
  H  H11  1  0.52192598  0.77590176  0.50659092  1
  H  H12  1  0.08022342  0.63202636  0.04358690  1
  H  H13  1  0.36795929  0.91975571  0.45645649  1
  H  H14  1  0.91977558  0.36797364  0.95641410  1
  H  H15  1  0.63204171  0.08024429  0.54354351  1
  N  N16  1  0.63325732  0.36674237  0.74999655  1
  N  N17  1  0.36674168  0.63325763  0.25000245  1
  O  O18  1  0.88279838  0.70148449  0.16250131  1
  O  O19  1  0.50432290  0.30185369  0.18151257  1
  O  O20  1  0.16975862  0.97259165  0.80378779  1
  O  O21  1  0.02741194  0.83022987  0.69623095  1
  O  O22  1  0.96730803  0.15211653  0.61711988  1
  O  O23  1  0.97258906  0.16977013  0.30376805  1
  O  O24  1  0.39844610  0.80604964  0.51971311  1
  O  O25  1  0.19395028  0.60153254  0.98035881  1
  O  O26  1  0.60155390  0.19395036  0.48028589  1
  O  O27  1  0.80605072  0.39846746  0.01964219  1
  O  O28  1  0.11720162  0.29851551  0.83749769  1
  O  O29  1  0.84787977  0.03270631  0.88287807  1
  O  O30  1  0.69816419  0.49566127  0.31844714  1
  O  O31  1  0.29851026  0.11721300  0.33749091  1
  O  O32  1  0.31596903  0.23474551  0.04382055  1
  O  O33  1  0.76525155  0.68401697  0.45617466  1
  O  O34  1  0.68403197  0.76525449  0.95617845  1
  O  O35  1  0.23474745  0.31598303  0.54382534  1
  O  O36  1  0.46512942  0.00748956  0.84330284  1
  O  O37  1  0.99250292  0.53487129  0.65670342  1
  O  O38  1  0.53486958  0.99251044  0.15669816  1
  O  O39  1  0.00749708  0.46512871  0.34329658  1
  O  O40  1  0.30183581  0.50433873  0.68155286  1
  O  O41  1  0.49567710  0.69814631  0.81848743  1
  O  O42  1  0.03269197  0.84788347  0.38288112  1
  O  O43  1  0.15211923  0.96729369  0.11712193  1
  O  O44  1  0.83024038  0.02740835  0.19621221  1
  O  O45  1  0.70149074  0.88278700  0.66250909  1
  P  P46  1  0.41760555  0.16590927  0.17728255  1
  P  P47  1  0.83409664  0.58238463  0.32270283  1
  P  P48  1  0.58239445  0.83409073  0.82271645  1
  P  P49  1  0.00081198  0.99918569  0.75000442  1
  P  P50  1  0.99918802  0.00081431  0.24999458  1
  P  P51  1  0.16590436  0.41761537  0.67729717  1
  Ni  Ni52  1  0.27548109  0.72451832  0.75007350  1
  Ni  Ni53  1  0.72451991  0.27548168  0.24992550  1
  Ga  Ga54  1  0.09811135  0.24616452  0.43162044  1
  Ga  Ga55  1  0.75384061  0.90189151  0.06837917  1
  Ga  Ga56  1  0.90188765  0.75383548  0.56838056  1
  Ga  Ga57  1  0.24616039  0.09810849  0.93162083  1
