# generated using pymatgen
data_Li4Ti7O16
_symmetry_space_group_name_H-M   'P 1'
_cell_length_a   5.99388039
_cell_length_b   23.87350760
_cell_length_c   10.37770011
_cell_angle_alpha   29.61210876
_cell_angle_beta   54.71997699
_cell_angle_gamma   59.85854808
_symmetry_Int_Tables_number   1
_chemical_formula_structural   Li4Ti7O16
_chemical_formula_sum   'Li8 Ti14 O32'
_cell_volume   599.00899138
_cell_formula_units_Z   2
loop_
 _symmetry_equiv_pos_site_id
 _symmetry_equiv_pos_as_xyz
  1  'x, y, z'
loop_
 _atom_site_type_symbol
 _atom_site_label
 _atom_site_symmetry_multiplicity
 _atom_site_fract_x
 _atom_site_fract_y
 _atom_site_fract_z
 _atom_site_occupancy
  Li  Li0  1  0.00936070  0.99792059  0.99479812  1
  Li  Li1  1  0.00206166  0.25356576  0.99080681  1
  Li  Li2  1  0.00206166  0.49643424  0.00506987  1
  Li  Li3  1  0.24063930  0.25207941  0.25520188  1
  Li  Li4  1  0.24063930  0.49792059  0.26351953  1
  Li  Li5  1  0.00936070  0.75207941  0.98648047  1
  Li  Li6  1  0.24793834  0.75356576  0.24493013  1
  Li  Li7  1  0.24793834  0.99643424  0.25919319  1
  O  O8  1  0.36573345  0.10810455  0.41805745  1
  O  O9  1  0.42156406  0.00148564  0.85793250  1
  O  O10  1  0.39337163  0.24851436  0.39206750  1
  O  O11  1  0.86404388  0.11387348  0.40820916  1
  O  O12  1  0.39055124  0.36527257  0.37890362  1
  O  O13  1  0.38595612  0.13612652  0.84179084  1
  O  O14  1  0.40415648  0.26416818  0.82597348  1
  O  O15  1  0.39337163  0.50148564  0.38612493  1
  O  O16  1  0.85662837  0.00148564  0.85793250  1
  O  O17  1  0.82843594  0.24851436  0.39206750  1
  O  O18  1  0.86423278  0.35945927  0.41684868  1
  O  O19  1  0.88426655  0.14189545  0.83194255  1
  O  O20  1  0.39055124  0.38472743  0.83999390  1
  O  O21  1  0.38595612  0.61387348  0.38629692  1
  O  O22  1  0.40415648  0.48583182  0.88264618  1
  O  O23  1  0.36277614  0.76416818  0.36735382  1
  O  O24  1  0.88722386  0.26416818  0.82597348  1
  O  O25  1  0.82843594  0.50148564  0.38612493  1
  O  O26  1  0.88426655  0.60810455  0.39952434  1
  O  O27  1  0.86423278  0.39054073  0.85468575  1
  O  O28  1  0.36573345  0.64189545  0.85047566  1
  O  O29  1  0.38576722  0.85945927  0.39531425  1
  O  O30  1  0.88722386  0.48583182  0.88264618  1
  O  O31  1  0.42156406  0.74851436  0.86387507  1
  O  O32  1  0.36277614  0.98583182  0.42402652  1
  O  O33  1  0.84584352  0.76416818  0.36735382  1
  O  O34  1  0.85944876  0.86527257  0.41000610  1
  O  O35  1  0.86404388  0.63612652  0.86370308  1
  O  O36  1  0.38576722  0.89054073  0.83315132  1
  O  O37  1  0.85662837  0.74851436  0.86387507  1
  O  O38  1  0.84584352  0.98583182  0.42402652  1
  O  O39  1  0.85944876  0.88472743  0.87109638  1
  Ti  Ti40  1  0.14782451  0.00655747  0.59989669  1
  Ti  Ti41  1  0.62615224  0.00655747  0.59989669  1
  Ti  Ti42  1  0.10217549  0.24344253  0.65010331  1
  Ti  Ti43  1  0.62500000  0.12500000  0.62500000  1
  Ti  Ti44  1  0.61073101  0.38376490  0.12173919  1
  Ti  Ti45  1  0.62384776  0.24344253  0.65010331  1
  Ti  Ti46  1  0.10217549  0.50655747  0.62387344  1
  Ti  Ti47  1  0.61073101  0.36623510  0.65679879  1
  Ti  Ti48  1  0.62500000  0.62500000  0.12500000  1
  Ti  Ti49  1  0.62384776  0.50655747  0.62387344  1
  Ti  Ti50  1  0.14782451  0.74344253  0.62612656  1
  Ti  Ti51  1  0.63926899  0.86623510  0.12826081  1
  Ti  Ti52  1  0.62615224  0.74344253  0.62612656  1
  Ti  Ti53  1  0.63926899  0.88376490  0.59320121  1
