# generated using pymatgen
data_K3B12H12Br
_symmetry_space_group_name_H-M   'P 1'
_cell_length_a   6.95620639
_cell_length_b   6.95620580
_cell_length_c   6.95620542
_cell_angle_alpha   94.26620560
_cell_angle_beta   94.26620545
_cell_angle_gamma   94.26620399
_symmetry_Int_Tables_number   1
_chemical_formula_structural   K3B12H12Br
_chemical_formula_sum   'K3 B12 H12 Br1'
_cell_volume   333.65688400
_cell_formula_units_Z   1
loop_
 _symmetry_equiv_pos_site_id
 _symmetry_equiv_pos_as_xyz
  1  'x, y, z'
loop_
 _atom_site_type_symbol
 _atom_site_label
 _atom_site_symmetry_multiplicity
 _atom_site_fract_x
 _atom_site_fract_y
 _atom_site_fract_z
 _atom_site_occupancy
  K  K0  1  0.50000000  0.50000000  0.00000000  1
  K  K1  1  0.00000000  0.50000000  0.50000000  1
  K  K2  1  0.50000000  0.00000000  0.50000000  1
  Br  Br3  1  0.50000000  0.50000000  0.50000000  1
  B  B4  1  0.93704921  0.76317295  0.93704921  1
  B  B5  1  0.93704921  0.93704921  0.76317295  1
  B  B6  1  0.76317295  0.93704921  0.93704921  1
  B  B7  1  0.23682705  0.06295079  0.06295079  1
  B  B8  1  0.06295079  0.23682705  0.06295079  1
  B  B9  1  0.06295079  0.06295079  0.23682705  1
  B  B10  1  0.12280631  0.84065103  0.12280631  1
  B  B11  1  0.12280630  0.12280631  0.84065103  1
  B  B12  1  0.84065103  0.12280631  0.12280631  1
  B  B13  1  0.15934897  0.87719369  0.87719369  1
  B  B14  1  0.87719369  0.15934897  0.87719369  1
  B  B15  1  0.87719370  0.87719369  0.15934897  1
  H  H16  1  0.10847898  0.40488237  0.10847898  1
  H  H17  1  0.10847898  0.10847898  0.40488237  1
  H  H18  1  0.40488237  0.10847898  0.10847898  1
  H  H19  1  0.59511763  0.89152102  0.89152102  1
  H  H20  1  0.89152102  0.59511763  0.89152102  1
  H  H21  1  0.89152102  0.89152102  0.59511763  1
  H  H22  1  0.21150179  0.72877071  0.21150178  1
  H  H23  1  0.21150179  0.21150179  0.72877071  1
  H  H24  1  0.72877071  0.21150179  0.21150178  1
  H  H25  1  0.27122929  0.78849821  0.78849822  1
  H  H26  1  0.78849821  0.27122929  0.78849822  1
  H  H27  1  0.78849821  0.78849821  0.27122929  1
