# generated using pymatgen
data_Li10Mg7Cl24
_symmetry_space_group_name_H-M   'P 1'
_cell_length_a   7.43471631
_cell_length_b   7.43471674
_cell_length_c   44.47569766
_cell_angle_alpha   60.07079138
_cell_angle_beta   60.07078948
_cell_angle_gamma   60.25397284
_symmetry_Int_Tables_number   1
_chemical_formula_structural   Li10Mg7Cl24
_chemical_formula_sum   'Li20 Mg14 Cl48'
_cell_volume   1743.52793708
_cell_formula_units_Z   2
loop_
 _symmetry_equiv_pos_site_id
 _symmetry_equiv_pos_as_xyz
  1  'x, y, z'
loop_
 _atom_site_type_symbol
 _atom_site_label
 _atom_site_symmetry_multiplicity
 _atom_site_fract_x
 _atom_site_fract_y
 _atom_site_fract_z
 _atom_site_occupancy
  Cl  Cl0  1  0.25394506  0.25394506  0.04252481  1
  Cl  Cl1  1  0.25290904  0.25290904  0.12093952  1
  Cl  Cl2  1  0.25350917  0.72390563  0.04240130  1
  Cl  Cl3  1  0.72390563  0.25350917  0.04240130  1
  Cl  Cl4  1  0.27859977  0.74380367  0.12391446  1
  Cl  Cl5  1  0.25471987  0.25471987  0.20979911  1
  Cl  Cl6  1  0.74380367  0.27859977  0.12391446  1
  Cl  Cl7  1  0.25564749  0.71863996  0.20949352  1
  Cl  Cl8  1  0.25203534  0.25203534  0.28914419  1
  Cl  Cl9  1  0.74421378  0.74421378  0.04633600  1
  Cl  Cl10  1  0.74338780  0.74338780  0.12381507  1
  Cl  Cl11  1  0.71863996  0.25564749  0.20949352  1
  Cl  Cl12  1  0.27726845  0.75055704  0.28916284  1
  Cl  Cl13  1  0.25264494  0.25264494  0.37716166  1
  Cl  Cl14  1  0.75055704  0.27726845  0.28916284  1
  Cl  Cl15  1  0.25256031  0.25256031  0.45538082  1
  Cl  Cl16  1  0.25072271  0.72319832  0.37720247  1
  Cl  Cl17  1  0.74710241  0.74710241  0.21151477  1
  Cl  Cl18  1  0.75002332  0.75002332  0.28858017  1
  Cl  Cl19  1  0.72319832  0.25072271  0.37720247  1
  Cl  Cl20  1  0.27665371  0.74984382  0.45626473  1
  Cl  Cl21  1  0.25245544  0.25245544  0.54394230  1
  Cl  Cl22  1  0.24983744  0.72345812  0.54407975  1
  Cl  Cl23  1  0.74984382  0.27665371  0.45626473  1
  Cl  Cl24  1  0.25250233  0.25250233  0.62207293  1
  Cl  Cl25  1  0.74777426  0.74777426  0.37792622  1
  Cl  Cl26  1  0.72345812  0.24983744  0.54407975  1
  Cl  Cl27  1  0.74745054  0.74745054  0.45622541  1
  Cl  Cl28  1  0.27607070  0.74973558  0.62296156  1
  Cl  Cl29  1  0.25230006  0.25230006  0.71049771  1
  Cl  Cl30  1  0.74973558  0.27607070  0.62296156  1
  Cl  Cl31  1  0.25344897  0.25344897  0.78832016  1
  Cl  Cl32  1  0.24942949  0.72348695  0.71055672  1
  Cl  Cl33  1  0.74725189  0.74725189  0.54480110  1
  Cl  Cl34  1  0.74686360  0.74686360  0.62303827  1
  Cl  Cl35  1  0.72348695  0.24942949  0.71055672  1
  Cl  Cl36  1  0.27619802  0.74959640  0.78960343  1
  Cl  Cl37  1  0.25076481  0.25076481  0.87670708  1
  Cl  Cl38  1  0.74959640  0.27619802  0.78960343  1
  Cl  Cl39  1  0.25470823  0.25470823  0.95337319  1
  Cl  Cl40  1  0.25059317  0.72777408  0.87675992  1
  Cl  Cl41  1  0.74678399  0.74678399  0.71146247  1
  Cl  Cl42  1  0.74714695  0.74714695  0.78967797  1
  Cl  Cl43  1  0.72777408  0.25059317  0.87675992  1
  Cl  Cl44  1  0.27854336  0.74290945  0.95759750  1
  Cl  Cl45  1  0.74290945  0.27854336  0.95759750  1
  Cl  Cl46  1  0.74641692  0.74641692  0.87928719  1
  Cl  Cl47  1  0.74263678  0.74263678  0.95775972  1
  Li  Li48  1  0.49427345  0.49427345  0.08247445  1
  Li  Li49  1  0.11296272  0.11296272  0.35633779  1
  Li  Li50  1  0.49886888  0.49886888  0.25067995  1
  Li  Li51  1  0.11385332  0.11385332  0.52270170  1
  Li  Li52  1  0.50043155  0.50043155  0.33325428  1
  Li  Li53  1  0.88180278  0.88180278  0.14603684  1
  Li  Li54  1  0.50009540  0.50009540  0.41660089  1
  Li  Li55  1  0.49999390  0.49999390  0.49995624  1
  Li  Li56  1  0.11369257  0.11369257  0.68934636  1
  Li  Li57  1  0.88698217  0.88698217  0.31019977  1
  Li  Li58  1  0.49987319  0.49987319  0.58339025  1
  Li  Li59  1  0.11623511  0.11623511  0.85449645  1
  Li  Li60  1  0.49990020  0.49990020  0.66674779  1
  Li  Li61  1  0.88638699  0.88638699  0.47726953  1
  Li  Li62  1  0.50047108  0.50047108  0.74980865  1
  Li  Li63  1  0.50268590  0.50268590  0.83208161  1
  Li  Li64  1  0.88590488  0.88590488  0.64399460  1
  Li  Li65  1  0.49456988  0.49456988  0.91599311  1
  Li  Li66  1  0.88641102  0.88641102  0.81058597  1
  Li  Li67  1  0.88050130  0.88050130  0.98049122  1
  Mg  Mg68  1  0.01294951  0.49472724  0.08267973  1
  Mg  Mg69  1  0.00280427  0.49745774  0.24989495  1
  Mg  Mg70  1  0.49293764  0.49293764  0.16913843  1
  Mg  Mg71  1  0.49472724  0.01294951  0.08267973  1
  Mg  Mg72  1  0.00015587  0.50024438  0.41665392  1
  Mg  Mg73  1  0.49745774  0.00280427  0.24989495  1
  Mg  Mg74  1  -0.00021373  0.49979388  0.58344441  1
  Mg  Mg75  1  0.50024438  0.00015587  0.41665392  1
  Mg  Mg76  1  0.00001129  0.50002688  0.74980696  1
  Mg  Mg77  1  0.49979388  -0.00021373  0.58344441  1
  Mg  Mg78  1  0.01039115  0.49700948  0.91605367  1
  Mg  Mg79  1  0.50002688  0.00001129  0.74980696  1
  Mg  Mg80  1  0.49700948  0.01039115  0.91605367  1
  Mg  Mg81  1  0.49377897  0.49377897  0.00272960  1
