# generated using pymatgen
data_LiMgAl3(SeO4)6
_symmetry_space_group_name_H-M   'P 1'
_cell_length_a   9.09120073
_cell_length_b   18.16050704
_cell_length_c   16.06190102
_cell_angle_alpha   28.01606483
_cell_angle_beta   50.63476492
_cell_angle_gamma   56.02302354
_symmetry_Int_Tables_number   1
_chemical_formula_structural   LiMgAl3(SeO4)6
_chemical_formula_sum   'Li2 Mg2 Al6 Se12 O48'
_cell_volume   963.00508933
_cell_formula_units_Z   2
loop_
 _symmetry_equiv_pos_site_id
 _symmetry_equiv_pos_as_xyz
  1  'x, y, z'
loop_
 _atom_site_type_symbol
 _atom_site_label
 _atom_site_symmetry_multiplicity
 _atom_site_fract_x
 _atom_site_fract_y
 _atom_site_fract_z
 _atom_site_occupancy
  Al  Al0  1  0.15319411  0.49846274  0.14769158  1
  Al  Al1  1  0.36173209  0.50083461  0.35481282  1
  Al  Al2  1  0.64684806  0.00236487  0.63896347  1
  Al  Al3  1  0.14466683  0.99797832  0.15408749  1
  Al  Al4  1  0.35338867  0.99834582  0.36195112  1
  Al  Al5  1  0.84345586  0.50164819  0.84968982  1
  Li  Li6  1  0.56844352  0.22435894  0.80570650  1
  Li  Li7  1  0.81904987  0.66849124  0.23872945  1
  Mg  Mg8  1  0.64314312  0.50272599  0.64314371  1
  Mg  Mg9  1  0.86172471  0.00138818  0.84429005  1
  O  O10  1  0.28772907  0.18682422  0.13325089  1
  O  O11  1  0.01507241  0.32880109  0.31503430  1
  O  O12  1  0.01785666  0.01259759  0.67296569  1
  O  O13  1  0.25135700  0.12037785  0.36356384  1
  O  O14  1  0.59631105  0.06144689  0.25737936  1
  O  O15  1  0.31890989  0.34522587  0.28861022  1
  O  O16  1  0.71143691  0.33208479  0.01385365  1
  O  O17  1  0.12372487  0.41378379  0.49401503  1
  O  O18  1  0.97180282  0.14380668  0.02591576  1
  O  O19  1  0.31921589  0.69003621  0.12530005  1
  O  O20  1  0.68565226  0.47382186  0.03240896  1
  O  O21  1  0.61135017  0.16949536  0.40626733  1
  O  O22  1  0.02265850  0.83076160  0.31217684  1
  O  O23  1  0.50461884  0.41109096  0.30266447  1
  O  O24  1  0.01811537  0.52174086  0.67542122  1
  O  O25  1  0.49320102  0.07847820  0.70796846  1
  O  O26  1  0.26334911  0.60918413  0.38026551  1
  O  O27  1  0.36580287  0.32497028  0.60181852  1
  O  O28  1  0.30405760  0.02184584  0.97317285  1
  O  O29  1  0.01705867  0.34869216  0.98974335  1
  O  O30  1  0.60727291  0.55349876  0.25471073  1
  O  O31  1  0.86719136  0.11799303  0.47492857  1
  O  O32  1  0.28592988  0.16700692  0.98383464  1
  O  O33  1  0.31776187  0.85026760  0.28755932  1
  O  O34  1  0.65583938  0.16229525  0.71790407  1
  O  O35  1  0.72077675  0.80487943  0.04437920  1
  O  O36  1  0.12974175  0.88643524  0.51929629  1
  O  O37  1  0.39629088  0.42636408  0.75065473  1
  O  O38  1  0.97633879  0.64318995  0.01677399  1
  O  O39  1  0.66962426  1.00161133  0.01672161  1
  O  O40  1  0.63114679  0.69225363  0.37175581  1
  O  O41  1  0.75444259  0.38702169  0.61046043  1
  O  O42  1  0.50413013  0.90907212  0.31100654  1
  O  O43  1  0.98755184  0.49058691  0.31131738  1
  O  O44  1  0.47160974  0.58386984  0.71323397  1
  O  O45  1  0.01760621  0.17630062  0.66838030  1
  O  O46  1  0.37581430  0.83070291  0.60132421  1
  O  O47  1  0.31033146  0.52296875  0.97474104  1
  O  O48  1  0.71554497  0.29555901  0.87781467  1
  O  O49  1  0.03619002  0.83080308  0.00602973  1
  O  O50  1  0.88204348  0.61838976  0.47486837  1
  O  O51  1  0.29631753  0.66409420  0.98617857  1
  O  O52  1  0.67191512  0.65293987  0.71651747  1
  O  O53  1  0.40278912  0.93325269  0.75205593  1
  O  O54  1  0.74821883  0.89038516  0.62168667  1
  O  O55  1  0.98307590  0.98122180  0.32559222  1
  O  O56  1  0.97768429  0.66830637  0.69313629  1
  O  O57  1  0.71308843  0.81353045  0.86458416  1
  Se  Se58  1  0.03759667  0.14309036  0.46031670  1
  Se  Se59  1  0.74824428  0.20947518  0.04244122  1
  Se  Se60  1  0.53011441  0.35169242  0.25503015  1
  Se  Se61  1  0.04670660  0.64346031  0.46189594  1
  Se  Se62  1  0.45667357  0.14534552  0.74976145  1
  Se  Se63  1  0.75301004  0.70720546  0.04072805  1
  Se  Se64  1  0.24030649  0.28606060  0.96507668  1
  Se  Se65  1  0.52759416  0.86603420  0.24523800  1
  Se  Se66  1  0.97763299  0.35884113  0.52643190  1
  Se  Se67  1  0.45885329  0.64811585  0.74964163  1
  Se  Se68  1  0.26379037  0.77775596  0.96827749  1
  Se  Se69  1  0.96128074  0.85695742  0.53785157  1
