# generated using pymatgen
data_Li3Mo2(PO4)3
_symmetry_space_group_name_H-M   'P 1'
_cell_length_a   8.96234822
_cell_length_b   12.54437068
_cell_length_c   8.94618825
_cell_angle_alpha   90.00000000
_cell_angle_beta   90.00000000
_cell_angle_gamma   90.13127997
_symmetry_Int_Tables_number   1
_chemical_formula_structural   Li3Mo2(PO4)3
_chemical_formula_sum   'Li12 Mo8 P12 O48'
_cell_volume   1005.79062859
_cell_formula_units_Z   4
loop_
 _symmetry_equiv_pos_site_id
 _symmetry_equiv_pos_as_xyz
  1  'x, y, z'
loop_
 _atom_site_type_symbol
 _atom_site_label
 _atom_site_symmetry_multiplicity
 _atom_site_fract_x
 _atom_site_fract_y
 _atom_site_fract_z
 _atom_site_occupancy
  Li  Li0  1  0.06501848  0.75621052  0.70377206  1
  Li  Li1  1  0.08642070  0.69322801  0.09778988  1
  Li  Li2  1  0.20451778  0.17798801  0.76880452  1
  Li  Li3  1  0.29548222  0.32201299  0.26880452  1
  Li  Li4  1  0.41357930  0.80677199  0.59778988  1
  Li  Li5  1  0.43498152  0.74378948  0.20377206  1
  Li  Li6  1  0.56501848  0.25621052  0.79622794  1
  Li  Li7  1  0.58642070  0.19322801  0.40221012  1
  Li  Li8  1  0.70451778  0.67798801  0.73119548  1
  Li  Li9  1  0.79548222  0.82201199  0.23119548  1
  Li  Li10  1  0.91357930  0.30677199  0.90221012  1
  Li  Li11  1  0.93498152  0.24378948  0.29622794  1
  Mo  Mo12  1  0.24891146  0.11147132  0.45322071  1
  Mo  Mo13  1  0.25194258  0.88821875  0.03975457  1
  Mo  Mo14  1  0.24805742  0.61178125  0.53975457  1
  Mo  Mo15  1  0.25108854  0.38852868  0.95322071  1
  Mo  Mo16  1  0.74891146  0.61147132  0.04677929  1
  Mo  Mo17  1  0.75194258  0.38821875  0.46024543  1
  Mo  Mo18  1  0.74805742  0.11178125  0.96024543  1
  Mo  Mo19  1  0.75108854  0.88852868  0.54677929  1
  O  O20  1  0.03760685  0.43282786  0.86391205  1
  O  O21  1  0.06555986  0.59707595  0.69421246  1
  O  O22  1  0.06806962  0.17037031  0.58958603  1
  O  O23  1  0.07132640  0.84273924  0.89045563  1
  O  O24  1  0.10357476  0.56276339  0.37093746  1
  O  O25  1  0.14281630  0.80918721  0.23097195  1
  O  O26  1  0.16097211  0.04191690  0.05866775  1
  O  O27  1  0.14439590  0.96493225  0.41058734  1
  O  O28  1  0.15889109  0.19203120  0.25212758  1
  O  O29  1  0.14672822  0.23175161  0.97058432  1
  O  O30  1  0.17275511  0.43240107  0.16973622  1
  O  O31  1  0.18525628  0.78088680  0.51456054  1
  O  O32  1  0.31474372  0.71911320  0.01456054  1
  O  O33  1  0.32724489  0.06759893  0.66973622  1
  O  O34  1  0.35327178  0.26824839  0.47058432  1
  O  O35  1  0.34110891  0.30796880  0.75212758  1
  O  O36  1  0.33902789  0.45808310  0.55866775  1
  O  O37  1  0.35560410  0.53506775  0.91058734  1
  O  O38  1  0.35718370  0.69081279  0.73097195  1
  O  O39  1  0.39642524  0.93723661  0.87093746  1
  O  O40  1  0.43193038  0.32962969  0.08958603  1
  O  O41  1  0.42867360  0.65726076  0.39045563  1
  O  O42  1  0.43444014  0.90292405  0.19421246  1
  O  O43  1  0.46239315  0.06717214  0.36391205  1
  O  O44  1  0.53760685  0.93282786  0.63608795  1
  O  O45  1  0.56555986  0.09707595  0.80578754  1
  O  O46  1  0.57132640  0.34273924  0.60954437  1
  O  O47  1  0.56806962  0.67037031  0.91041397  1
  O  O48  1  0.60357476  0.06276339  0.12906254  1
  O  O49  1  0.64281630  0.30918721  0.26902805  1
  O  O50  1  0.64439590  0.46493225  0.08941266  1
  O  O51  1  0.66097211  0.54191690  0.44133225  1
  O  O52  1  0.65889109  0.69203120  0.24787242  1
  O  O53  1  0.64672822  0.73175161  0.52941568  1
  O  O54  1  0.67275511  0.93240107  0.33026378  1
  O  O55  1  0.68525628  0.28088680  0.98543946  1
  O  O56  1  0.81474372  0.21911320  0.48543846  1
  O  O57  1  0.82724489  0.56759893  0.83026378  1
  O  O58  1  0.85327178  0.76824839  0.02941568  1
  O  O59  1  0.84110891  0.80796880  0.74787242  1
  O  O60  1  0.85560410  0.03506775  0.58941266  1
  O  O61  1  0.83902789  0.95808310  0.94133225  1
  O  O62  1  0.85718370  0.19081279  0.76902805  1
  O  O63  1  0.89642524  0.43723661  0.62906254  1
  O  O64  1  0.92867360  0.15726076  0.10954437  1
  O  O65  1  0.93193038  0.82962969  0.41041397  1
  O  O66  1  0.93444014  0.40292405  0.30578754  1
  O  O67  1  0.96239315  0.56717214  0.13608795  1
  P  P68  1  0.04191149  0.49118501  0.24804715  1
  P  P69  1  0.10218446  0.84859086  0.39124006  1
  P  P70  1  0.10225279  0.15106926  0.09657400  1
  P  P71  1  0.39774721  0.34893074  0.59657400  1
  P  P72  1  0.39781554  0.65140914  0.89124006  1
  P  P73  1  0.45808851  0.00881499  0.74804715  1
  P  P74  1  0.54191149  0.99118501  0.25195285  1
  P  P75  1  0.60218446  0.34859086  0.10875994  1
  P  P76  1  0.60225279  0.65106926  0.40342600  1
  P  P77  1  0.89774721  0.84893074  0.90342600  1
  P  P78  1  0.89781554  0.15140914  0.60875994  1
  P  P79  1  0.95808851  0.50881499  0.75195285  1
