# generated using pymatgen
data_Mo2P3O13
_symmetry_space_group_name_H-M   'P 1'
_cell_length_a   9.10235671
_cell_length_b   9.20315798
_cell_length_c   9.20202023
_cell_angle_alpha   107.88081053
_cell_angle_beta   69.77894888
_cell_angle_gamma   69.73290453
_symmetry_Int_Tables_number   1
_chemical_formula_structural   Mo2P3O13
_chemical_formula_sum   'Mo4 P6 O26'
_cell_volume   593.48226971
_cell_formula_units_Z   2
loop_
 _symmetry_equiv_pos_site_id
 _symmetry_equiv_pos_as_xyz
  1  'x, y, z'
loop_
 _atom_site_type_symbol
 _atom_site_label
 _atom_site_symmetry_multiplicity
 _atom_site_fract_x
 _atom_site_fract_y
 _atom_site_fract_z
 _atom_site_occupancy
  Mo  Mo0  1  0.83295386  0.83395318  0.14981040  1
  Mo  Mo1  1  0.66595363  0.34713185  0.66472713  1
  Mo  Mo2  1  0.33288451  0.65028590  0.33392232  1
  Mo  Mo3  1  0.16588893  0.16468311  0.84759248  1
  P  P4  1  0.06800002  0.84020410  0.76202543  1
  P  P5  1  0.56809251  0.26214447  0.34016847  1
  P  P6  1  0.43337253  0.73797189  0.65942650  1
  P  P7  1  0.93345484  0.15936681  0.23812085  1
  P  P8  1  0.25123361  0.49041676  0.00987162  1
  P  P9  1  0.75119647  0.50993532  0.99048833  1
  O  O10  1  0.41358950  0.49303861  0.89057981  1
  O  O11  1  0.92087136  0.82832730  0.88738971  1
  O  O12  1  0.91360227  0.39074149  0.99325955  1
  O  O13  1  0.95637733  0.97128909  0.19005583  1
  O  O14  1  0.08488985  0.15552049  0.10036296  1
  O  O15  1  0.07491777  0.62349669  0.02715763  1
  O  O16  1  0.03277029  0.02784456  0.80669823  1
  O  O17  1  0.23129296  0.55895735  0.19849534  1
  O  O18  1  0.23171747  0.17131496  0.65481913  1
  O  O19  1  0.12026995  0.73780424  0.56405137  1
  O  O20  1  0.42078646  0.38800142  0.32872812  1
  O  O21  1  0.26652572  0.84591375  0.33288698  1
  O  O22  1  0.62050218  0.06423136  0.23704223  1
  O  O23  1  0.26937204  0.30864924  0.94970855  1
  O  O24  1  0.25011421  0.73574659  0.76458505  1
  O  O25  1  0.76651478  0.83337051  0.34562577  1
  O  O26  1  0.53309692  0.30593224  0.52760820  1
  O  O27  1  0.45604734  0.69082047  0.47151595  1
  O  O28  1  0.76928218  0.44951902  0.80873347  1
  O  O29  1  0.75004829  0.26500266  0.23618040  1
  O  O30  1  0.73122640  0.69857017  0.05875068  1
  O  O31  1  0.39568369  0.92688623  0.75200410  1
  O  O32  1  0.73171507  0.15453601  0.67177044  1
  O  O33  1  0.58496718  0.59974160  0.65510112  1
  O  O34  1  0.89587010  0.25125495  0.42709415  1
  O  O35  1  0.57492480  0.52738560  0.12364167  1
