# generated using pymatgen
data_LiV2(PO4)3
_symmetry_space_group_name_H-M   'P 1'
_cell_length_a   8.50541381
_cell_length_b   8.66639564
_cell_length_c   11.93676881
_cell_angle_alpha   90.00000000
_cell_angle_beta   89.93705095
_cell_angle_gamma   90.00000000
_symmetry_Int_Tables_number   1
_chemical_formula_structural   LiV2(PO4)3
_chemical_formula_sum   'Li4 V8 P12 O48'
_cell_volume   879.87399079
_cell_formula_units_Z   4
loop_
 _symmetry_equiv_pos_site_id
 _symmetry_equiv_pos_as_xyz
  1  'x, y, z'
loop_
 _atom_site_type_symbol
 _atom_site_label
 _atom_site_symmetry_multiplicity
 _atom_site_fract_x
 _atom_site_fract_y
 _atom_site_fract_z
 _atom_site_occupancy
  Li  Li0  1  0.19741195  0.72087249  0.82120035  1
  Li  Li1  1  0.30258805  0.22087249  0.67879965  1
  Li  Li2  1  0.69741195  0.77912751  0.32120035  1
  Li  Li3  1  0.80258805  0.27912751  0.17879965  1
  O  O4  1  0.05973913  0.63008812  0.56578508  1
  O  O5  1  0.07006357  0.61530860  0.12829388  1
  O  O6  1  0.08036723  0.81748341  0.40383480  1
  O  O7  1  0.07404708  0.91994795  0.83582794  1
  O  O8  1  0.09812764  0.12964558  0.42619252  1
  O  O9  1  0.11731777  0.29196364  0.16572359  1
  O  O10  1  0.15291380  0.07021658  0.02795417  1
  O  O11  1  0.15803043  0.51186146  0.76762938  1
  O  O12  1  0.16548257  0.33089412  0.57047328  1
  O  O13  1  0.17271071  0.23121605  0.81999192  1
  O  O14  1  0.19864114  0.01800774  0.23129672  1
  O  O15  1  0.19159967  0.44136300  0.96644410  1
  O  O16  1  0.30135886  0.51800774  0.26870328  1
  O  O17  1  0.30840033  0.94136300  0.53355590  1
  O  O18  1  0.32728929  0.73121605  0.68000808  1
  O  O19  1  0.33451743  0.83089412  0.92952672  1
  O  O20  1  0.34708620  0.57021658  0.47204583  1
  O  O21  1  0.34196957  0.01186146  0.73237062  1
  O  O22  1  0.38268223  0.79196364  0.33427641  1
  O  O23  1  0.40187236  0.62964558  0.07380748  1
  O  O24  1  0.41963277  0.31748341  0.09616520  1
  O  O25  1  0.42993643  0.11530860  0.37170612  1
  O  O26  1  0.42595292  0.41994795  0.66417206  1
  O  O27  1  0.44026087  0.13008812  0.93421492  1
  O  O28  1  0.55973913  0.86991188  0.06578508  1
  O  O29  1  0.57404708  0.58005205  0.33582794  1
  O  O30  1  0.57006357  0.88469140  0.62829388  1
  O  O31  1  0.58036723  0.68251659  0.90383480  1
  O  O32  1  0.59812764  0.37035442  0.92619252  1
  O  O33  1  0.61731777  0.20803636  0.66572359  1
  O  O34  1  0.65803043  0.98813854  0.26762938  1
  O  O35  1  0.65291380  0.42978342  0.52795417  1
  O  O36  1  0.66548257  0.16910588  0.07047328  1
  O  O37  1  0.67271071  0.26878395  0.31999192  1
  O  O38  1  0.69159967  0.05863700  0.46644410  1
  O  O39  1  0.69864114  0.48199226  0.73129672  1
  O  O40  1  0.80840033  0.55863700  0.03355590  1
  O  O41  1  0.80135886  0.98199226  0.76870328  1
  O  O42  1  0.82728929  0.76878395  0.18000808  1
  O  O43  1  0.83451743  0.66910588  0.42952672  1
  O  O44  1  0.84196957  0.48813854  0.23237062  1
  O  O45  1  0.84708620  0.92978342  0.97204583  1
  O  O46  1  0.88268223  0.70803636  0.83427641  1
  O  O47  1  0.90187236  0.87035442  0.57380748  1
  O  O48  1  0.92595292  0.08005205  0.16417206  1
  O  O49  1  0.91963277  0.18251659  0.59616520  1
  O  O50  1  0.92993643  0.38469140  0.87170612  1
  O  O51  1  0.94026087  0.36991188  0.43421492  1
  P  P52  1  0.03141442  0.24850377  0.50691417  1
  P  P53  1  0.10398260  0.11663169  0.14627465  1
  P  P54  1  0.10791522  0.39121241  0.85740869  1
  P  P55  1  0.39601740  0.61663169  0.35372535  1
  P  P56  1  0.39208478  0.89121241  0.64259131  1
  P  P57  1  0.46858558  0.74850377  0.99308583  1
  P  P58  1  0.53141442  0.25149623  0.00691417  1
  P  P59  1  0.60791522  0.10878759  0.35740869  1
  P  P60  1  0.60398260  0.38336831  0.64627465  1
  P  P61  1  0.89208478  0.60878759  0.14259131  1
  P  P62  1  0.89601740  0.88336831  0.85372535  1
  P  P63  1  0.96858558  0.75149623  0.49308583  1
  V  V64  1  0.25197515  0.46833042  0.11902895  1
  V  V65  1  0.24802485  0.96833042  0.38097105  1
  V  V66  1  0.24464953  0.53922095  0.61353033  1
  V  V67  1  0.25535047  0.03922095  0.88646967  1
  V  V68  1  0.74464953  0.96077905  0.11353033  1
  V  V69  1  0.75535047  0.46077905  0.38646967  1
  V  V70  1  0.75197515  0.03166958  0.61902895  1
  V  V71  1  0.74802485  0.53166958  0.88097105  1
