# generated using pymatgen
data_Na2In2Sb3
_symmetry_space_group_name_H-M   'P 1'
_cell_length_a   7.68755744
_cell_length_b   14.83001214
_cell_length_c   15.84302388
_cell_angle_alpha   89.99286058
_cell_angle_beta   90.00000000
_cell_angle_gamma   90.00000000
_symmetry_Int_Tables_number   1
_chemical_formula_structural   Na2In2Sb3
_chemical_formula_sum   'Na16 In16 Sb24'
_cell_volume   1806.20879947
_cell_formula_units_Z   8
loop_
 _symmetry_equiv_pos_site_id
 _symmetry_equiv_pos_as_xyz
  1  'x, y, z'
loop_
 _atom_site_type_symbol
 _atom_site_label
 _atom_site_symmetry_multiplicity
 _atom_site_fract_x
 _atom_site_fract_y
 _atom_site_fract_z
 _atom_site_occupancy
  Na  Na0  1  0.95318283  0.14147827  0.98744803  1
  Na  Na1  1  0.45318283  0.85852173  0.51255197  1
  Na  Na2  1  0.04681717  0.85852173  0.01255197  1
  Na  Na3  1  0.54681717  0.14147827  0.48744803  1
  Na  Na4  1  0.57511067  0.65904728  0.02497376  1
  Na  Na5  1  0.07511067  0.34095272  0.47502624  1
  Na  Na6  1  0.42488933  0.34095272  0.97502624  1
  Na  Na7  1  0.92488933  0.65904728  0.52497376  1
  Na  Na8  1  0.54759584  0.91861133  0.11585739  1
  Na  Na9  1  0.04759584  0.08138867  0.38414261  1
  Na  Na10  1  0.45240416  0.08138867  0.88414261  1
  Na  Na11  1  0.95240416  0.91861133  0.61585739  1
  Na  Na12  1  0.90945679  0.43866605  0.91159554  1
  Na  Na13  1  0.40945679  0.56133395  0.58840446  1
  Na  Na14  1  0.09054321  0.56133395  0.08840446  1
  Na  Na15  1  0.59054321  0.43866605  0.41159554  1
  In  In16  1  0.28566449  0.68038314  0.84925413  1
  In  In17  1  0.78566449  0.31961686  0.65074587  1
  In  In18  1  0.71433551  0.31961686  0.15074587  1
  In  In19  1  0.21433551  0.68038314  0.34925413  1
  In  In20  1  0.78402776  0.09220593  0.72698179  1
  In  In21  1  0.28402776  0.90779407  0.77301821  1
  In  In22  1  0.21597224  0.90779407  0.27301821  1
  In  In23  1  0.71597224  0.09220593  0.22698179  1
  In  In24  1  0.75918331  0.81522528  0.83764656  1
  In  In25  1  0.25918331  0.18477472  0.66235344  1
  In  In26  1  0.24081669  0.18477472  0.16235344  1
  In  In27  1  0.74081669  0.81522528  0.33764656  1
  In  In28  1  0.76884047  0.58645727  0.75859778  1
  In  In29  1  0.26884047  0.41354273  0.74140222  1
  In  In30  1  0.23115953  0.41354273  0.24140222  1
  In  In31  1  0.73115953  0.58645727  0.25859778  1
  Sb  Sb32  1  0.96739668  0.97718658  0.84198698  1
  Sb  Sb33  1  0.46739668  0.02281342  0.65801302  1
  Sb  Sb34  1  0.03260332  0.02281342  0.15801302  1
  Sb  Sb35  1  0.53260332  0.97718658  0.34198698  1
  Sb  Sb36  1  0.44355698  0.84510109  0.92945392  1
  Sb  Sb37  1  0.94355698  0.15489891  0.57054608  1
  Sb  Sb38  1  0.55644302  0.15489891  0.07054608  1
  Sb  Sb39  1  0.05644302  0.84510109  0.42945392  1
  Sb  Sb40  1  0.94063128  0.65673497  0.91219148  1
  Sb  Sb41  1  0.44063128  0.34326503  0.58780852  1
  Sb  Sb42  1  0.05936872  0.34326503  0.08780852  1
  Sb  Sb43  1  0.55936872  0.65673497  0.41219148  1
  Sb  Sb44  1  0.83847308  0.75179704  0.16923604  1
  Sb  Sb45  1  0.33847308  0.24820296  0.33076396  1
  Sb  Sb46  1  0.16152692  0.24820296  0.83076396  1
  Sb  Sb47  1  0.66152692  0.75179704  0.66923604  1
  Sb  Sb48  1  0.48524918  0.51438213  0.85574977  1
  Sb  Sb49  1  0.98524918  0.48561787  0.64425023  1
  Sb  Sb50  1  0.51475082  0.48561787  0.14425023  1
  Sb  Sb51  1  0.01475082  0.51438213  0.35574977  1
  Sb  Sb52  1  0.21633106  0.74179448  0.17567269  1
  Sb  Sb53  1  0.71633106  0.25820552  0.32432731  1
  Sb  Sb54  1  0.78366894  0.25820552  0.82432731  1
  Sb  Sb55  1  0.28366894  0.74179448  0.67567269  1
