# generated using pymatgen
data_MgB4(H9O8)2
_symmetry_space_group_name_H-M   'P 1'
_cell_length_a   7.87413261
_cell_length_b   8.85661655
_cell_length_c   10.66171176
_cell_angle_alpha   97.65603624
_cell_angle_beta   102.89996774
_cell_angle_gamma   108.64297812
_symmetry_Int_Tables_number   1
_chemical_formula_structural   MgB4(H9O8)2
_chemical_formula_sum   'Mg2 B8 H36 O32'
_cell_volume   669.67340412
_cell_formula_units_Z   2
loop_
 _symmetry_equiv_pos_site_id
 _symmetry_equiv_pos_as_xyz
  1  'x, y, z'
loop_
 _atom_site_type_symbol
 _atom_site_label
 _atom_site_symmetry_multiplicity
 _atom_site_fract_x
 _atom_site_fract_y
 _atom_site_fract_z
 _atom_site_occupancy
  Mg  Mg0  1  0.12973109  0.82696002  0.22558590  1
  Mg  Mg1  1  0.87026891  0.17303998  0.77441410  1
  B  B2  1  0.48370220  0.18269077  0.30345181  1
  B  B3  1  0.51629780  0.81730923  0.69654819  1
  B  B4  1  0.52780171  0.22635926  0.08201113  1
  B  B5  1  0.47219829  0.77364074  0.91798887  1
  B  B6  1  0.79712540  0.28130090  0.27646900  1
  B  B7  1  0.20287460  0.71869910  0.72353100  1
  B  B8  1  0.69182094  0.46680069  0.41227756  1
  B  B9  1  0.30817906  0.53319931  0.58772244  1
  O  O10  1  0.41040496  0.19265248  0.16194028  1
  O  O11  1  0.58959504  0.80734752  0.83805972  1
  O  O12  1  0.71928040  0.27524939  0.13179831  1
  O  O13  1  0.28071960  0.72475061  0.86820169  1
  O  O14  1  0.82650052  0.44673499  0.35537180  1
  O  O15  1  0.17349948  0.55326501  0.64462820  1
  O  O16  1  0.52102622  0.34431078  0.39121134  1
  O  O17  1  0.47897378  0.65568922  0.60878866  1
  O  O18  1  0.66285616  0.15722897  0.32045596  1
  O  O19  1  0.33714384  0.84277103  0.67954404  1
  O  O20  1  0.33951401  0.05265827  0.33256956  1
  O  O21  1  0.66048599  0.94734173  0.66743044  1
  O  O22  1  0.44401279  0.20806959  0.95023727  1
  O  O23  1  0.55598721  0.79193041  0.04976273  1
  O  O24  1  0.97350773  0.25621237  0.28728403  1
  O  O25  1  0.02649227  0.74378763  0.71271597  1
  O  O26  1  0.73466500  0.61725592  0.49315647  1
  O  O27  1  0.26533500  0.38274408  0.50684353  1
  O  O28  1  0.92174526  0.61003956  0.11015902  1
  O  O29  1  0.07825474  0.38996044  0.88984098  1
  O  O30  1  0.14438308  0.89102965  0.04582329  1
  O  O31  1  0.85561692  0.10897035  0.95417671  1
  O  O32  1  0.34377692  0.72328194  0.21478998  1
  O  O33  1  0.65622308  0.27671806  0.78521002  1
  O  O34  1  0.10829631  0.73730784  0.39439897  1
  O  O35  1  0.89170369  0.26269216  0.60560103  1
  O  O36  1  0.91994804  0.92631297  0.23115275  1
  O  O37  1  0.08005196  0.07368703  0.76884725  1
  O  O38  1  0.20615573  0.39887943  0.14964014  1
  O  O39  1  0.79384427  0.60112057  0.85035986  1
  O  O40  1  0.65572777  0.89311773  0.40900819  1
  O  O41  1  0.34427223  0.10688227  0.59099181  1
  H  H42  1  0.34427265  0.07457377  0.42773678  1
  H  H43  1  0.65572735  0.92542623  0.57226322  1
  H  H44  1  0.53233801  0.23465669  0.89460749  1
  H  H45  1  0.46766199  0.76534331  0.10539251  1
  H  H46  1  0.06501049  0.30136024  0.37631334  1
  H  H47  1  0.93498951  0.69863976  0.62368666  1
  H  H48  1  0.63376062  0.62757224  0.53334123  1
  H  H49  1  0.36623938  0.37242776  0.46665877  1
  H  H50  1  0.85592465  0.50268058  0.12533910  1
  H  H51  1  0.14407535  0.49731942  0.87466090  1
  H  H52  1  0.87676171  0.60574122  0.01388535  1
  H  H53  1  0.12323829  0.39425878  0.98611465  1
  H  H54  1  0.18924756  0.83363798  0.98198108  1
  H  H55  1  0.81075244  0.16636202  0.01801892  1
  H  H56  1  0.22477663  0.00793523  0.06768849  1
  H  H57  1  0.77522337  0.99206477  0.93231151  1
  H  H58  1  0.29864635  0.60071485  0.20105104  1
  H  H59  1  0.70135365  0.39928515  0.79894896  1
  H  H60  1  0.45368664  0.77159006  0.29575237  1
  H  H61  1  0.54631336  0.22840994  0.70424763  1
  H  H62  1  0.18989532  0.77392886  0.48544359  1
  H  H63  1  0.81010468  0.22607114  0.51455641  1
  H  H64  1  0.01014537  0.62911239  0.38616967  1
  H  H65  1  0.98985463  0.37088761  0.61383033  1
  H  H66  1  0.94575931  0.04606271  0.24891779  1
  H  H67  1  0.05424069  0.95393729  0.75108221  1
  H  H68  1  0.80017495  0.87557753  0.16083171  1
  H  H69  1  0.19982505  0.12442247  0.83916829  1
  H  H70  1  0.28458253  0.33044318  0.15462436  1
  H  H71  1  0.71541747  0.66955682  0.84537564  1
  H  H72  1  0.11011158  0.34777813  0.19472063  1
  H  H73  1  0.88988842  0.65222187  0.80527937  1
  H  H74  1  0.67084408  0.99352934  0.37059990  1
  H  H75  1  0.32915592  0.00647066  0.62940010  1
  H  H76  1  0.75666167  0.85596286  0.39726437  1
  H  H77  1  0.24333833  0.14403714  0.60273563  1
