# generated using pymatgen
data_Te7(OF5)6
_symmetry_space_group_name_H-M   'P 1'
_cell_length_a   9.10331892
_cell_length_b   9.31288941
_cell_length_c   9.35085854
_cell_angle_alpha   115.43608945
_cell_angle_beta   100.22953856
_cell_angle_gamma   99.90437530
_symmetry_Int_Tables_number   1
_chemical_formula_structural   Te7(OF5)6
_chemical_formula_sum   'Te7 O6 F30'
_cell_volume   676.47181997
_cell_formula_units_Z   1
loop_
 _symmetry_equiv_pos_site_id
 _symmetry_equiv_pos_as_xyz
  1  'x, y, z'
loop_
 _atom_site_type_symbol
 _atom_site_label
 _atom_site_symmetry_multiplicity
 _atom_site_fract_x
 _atom_site_fract_y
 _atom_site_fract_z
 _atom_site_occupancy
  Te  Te0  1  0.00000000  0.00000000  0.00000000  1
  Te  Te1  1  0.24868676  0.39424460  0.08436335  1
  Te  Te2  1  0.75131324  0.60575540  0.91563665  1
  Te  Te3  1  0.77379068  0.24215189  0.23913095  1
  Te  Te4  1  0.22620932  0.75784811  0.76086905  1
  Te  Te5  1  0.24174485  0.07496640  0.39284200  1
  Te  Te6  1  0.75825515  0.92503360  0.60715800  1
  O  O7  1  0.05918699  0.22013739  0.01679981  1
  O  O8  1  0.94081301  0.77986261  0.98320019  1
  O  O9  1  0.88367364  0.07491827  0.16232677  1
  O  O10  1  0.11632636  0.92508173  0.83767323  1
  O  O11  1  0.18847485  0.05417467  0.17293784  1
  O  O12  1  0.81152515  0.94582533  0.82706216  1
  F  F13  1  0.13118833  0.54524589  0.14031359  1
  F  F14  1  0.86881167  0.45475411  0.85968641  1
  F  F15  1  0.29687314  0.42707328  0.30098601  1
  F  F16  1  0.70312686  0.57292672  0.69901399  1
  F  F17  1  0.36965398  0.24607618  0.02887574  1
  F  F18  1  0.63034602  0.75392382  0.97112426  1
  F  F19  1  0.20543574  0.37014301  0.87120376  1
  F  F20  1  0.79456426  0.62985699  0.12879624  1
  F  F21  1  0.42463659  0.56765059  0.14717940  1
  F  F22  1  0.57536341  0.43234941  0.85282060  1
  F  F23  1  0.82000090  0.24393431  0.44252499  1
  F  F24  1  0.17999910  0.75606569  0.55747501  1
  F  F25  1  0.95441241  0.41486374  0.31404693  1
  F  F26  1  0.04558759  0.58513626  0.68595307  1
  F  F27  1  0.72482040  0.24411790  0.03723618  1
  F  F28  1  0.27517960  0.75588210  0.96276382  1
  F  F29  1  0.59067439  0.07485130  0.16967807  1
  F  F30  1  0.40932561  0.92514870  0.83032193  1
  F  F31  1  0.66597705  0.39889038  0.32013560  1
  F  F32  1  0.33402295  0.60110962  0.67986440  1
  F  F33  1  0.42878113  0.22727078  0.43859531  1
  F  F34  1  0.57121887  0.77272922  0.56140469  1
  F  F35  1  0.15046856  0.24757095  0.47557531  1
  F  F36  1  0.84953144  0.75242905  0.52442469  1
  F  F37  1  0.05623600  0.92124208  0.34993089  1
  F  F38  1  0.94376400  0.07875792  0.65006911  1
  F  F39  1  0.33713221  0.90488348  0.31924673  1
  F  F40  1  0.66286779  0.09511652  0.68075327  1
  F  F41  1  0.30368114  0.09938995  0.60504329  1
  F  F42  1  0.69631886  0.90061005  0.39495671  1
