# generated using pymatgen
data_AlPO4
_symmetry_space_group_name_H-M   'P 1'
_cell_length_a   5.05499110
_cell_length_b   5.05499110
_cell_length_c   11.16223183
_cell_angle_alpha   90.00000000
_cell_angle_beta   90.00000000
_cell_angle_gamma   119.99999999
_symmetry_Int_Tables_number   1
_chemical_formula_structural   AlPO4
_chemical_formula_sum   'Al3 P3 O12'
_cell_volume   247.01450745
_cell_formula_units_Z   3
loop_
 _symmetry_equiv_pos_site_id
 _symmetry_equiv_pos_as_xyz
  1  'x, y, z'
loop_
 _atom_site_type_symbol
 _atom_site_label
 _atom_site_symmetry_multiplicity
 _atom_site_fract_x
 _atom_site_fract_y
 _atom_site_fract_z
 _atom_site_occupancy
  O  O0  1  0.24655446  0.41756324  0.11150215  1
  O  O1  1  0.58243676  0.82899122  0.44483548  1
  O  O2  1  0.17100878  0.75344554  0.77816882  1
  O  O3  1  0.82899122  0.58243676  0.55516452  1
  O  O4  1  0.75344554  0.17100878  0.22183118  1
  O  O5  1  0.41756324  0.24655446  0.88849785  1
  O  O6  1  0.41748702  0.28007598  0.40175907  1
  O  O7  1  0.71992402  0.13741105  0.73509240  1
  O  O8  1  0.86258895  0.58251298  0.06842574  1
  O  O9  1  0.13741105  0.71992402  0.26490760  1
  O  O10  1  0.58251298  0.86258895  0.93157426  1
  O  O11  1  0.28007598  0.41748702  0.59824093  1
  Al  Al12  1  0.47298392  0.00000000  0.33333333  1
  Al  Al13  1  0.00000000  0.47298392  0.66666667  1
  Al  Al14  1  0.52701608  0.52701608  0.00000000  1
  P  P15  1  0.47360240  0.00000000  0.83333333  1
  P  P16  1  0.00000000  0.47360240  0.16666667  1
  P  P17  1  0.52639760  0.52639760  0.50000000  1
