# generated using pymatgen
data_Bi9Rh2I3
_symmetry_space_group_name_H-M   'P 1'
_cell_length_a   8.14972978
_cell_length_b   9.24971195
_cell_length_c   13.89737371
_cell_angle_alpha   90.00000000
_cell_angle_beta   90.00000000
_cell_angle_gamma   111.00449275
_symmetry_Int_Tables_number   1
_chemical_formula_structural   Bi9Rh2I3
_chemical_formula_sum   'Bi18 Rh4 I6'
_cell_volume   978.00892358
_cell_formula_units_Z   2
loop_
 _symmetry_equiv_pos_site_id
 _symmetry_equiv_pos_as_xyz
  1  'x, y, z'
loop_
 _atom_site_type_symbol
 _atom_site_label
 _atom_site_symmetry_multiplicity
 _atom_site_fract_x
 _atom_site_fract_y
 _atom_site_fract_z
 _atom_site_occupancy
  Bi  Bi0  1  0.16331107  0.84398411  0.75000000  1
  Bi  Bi1  1  0.83668893  0.15601589  0.25000000  1
  Bi  Bi2  1  0.09517829  0.17326077  0.75000000  1
  Bi  Bi3  1  0.90482171  0.82673923  0.25000000  1
  Bi  Bi4  1  0.71591339  0.88627346  0.75000000  1
  Bi  Bi5  1  0.28408661  0.11372654  0.25000000  1
  Bi  Bi6  1  0.81948998  0.62651447  0.86501103  1
  Bi  Bi7  1  0.18051002  0.37348553  0.36501103  1
  Bi  Bi8  1  0.18051002  0.37348553  0.13498897  1
  Bi  Bi9  1  0.81948998  0.62651447  0.63498897  1
  Bi  Bi10  1  0.86159587  0.18601542  0.96220167  1
  Bi  Bi11  1  0.13840413  0.81398458  0.46220167  1
  Bi  Bi12  1  0.13840413  0.81398458  0.03779833  1
  Bi  Bi13  1  0.86159587  0.18601542  0.53779833  1
  Bi  Bi14  1  0.69531487  0.85262354  0.03270966  1
  Bi  Bi15  1  0.30468513  0.14737646  0.53270966  1
  Bi  Bi16  1  0.30468513  0.14737646  0.96729034  1
  Bi  Bi17  1  0.69531487  0.85262354  0.46729034  1
  Rh  Rh18  1  0.97718191  0.94511247  0.89958324  1
  Rh  Rh19  1  0.02281809  0.05488753  0.39958324  1
  Rh  Rh20  1  0.02281809  0.05488753  0.10041676  1
  Rh  Rh21  1  0.97718191  0.94511247  0.60041676  1
  I  I22  1  0.58680109  0.21319059  0.75000000  1
  I  I23  1  0.41319891  0.78680941  0.25000000  1
  I  I24  1  0.32389340  0.57366325  0.90147309  1
  I  I25  1  0.67610660  0.42633675  0.40147309  1
  I  I26  1  0.67610660  0.42633675  0.09852691  1
  I  I27  1  0.32389340  0.57366325  0.59852691  1
