# generated using pymatgen
data_K2PrH4N5O17
_symmetry_space_group_name_H-M   'P 1'
_cell_length_a   8.43398444
_cell_length_b   8.43422655
_cell_length_c   12.28647521
_cell_angle_alpha   108.35750850
_cell_angle_beta   108.37118252
_cell_angle_gamma   94.70683050
_symmetry_Int_Tables_number   1
_chemical_formula_structural   K2PrH4N5O17
_chemical_formula_sum   'K4 Pr2 H8 N10 O34'
_cell_volume   771.11905444
_cell_formula_units_Z   2
loop_
 _symmetry_equiv_pos_site_id
 _symmetry_equiv_pos_as_xyz
  1  'x, y, z'
loop_
 _atom_site_type_symbol
 _atom_site_label
 _atom_site_symmetry_multiplicity
 _atom_site_fract_x
 _atom_site_fract_y
 _atom_site_fract_z
 _atom_site_occupancy
  Pr  Pr0  1  0.99774393  0.00225707  1.00000771  1
  Pr  Pr1  1  0.74780871  0.25220817  0.50001072  1
  O  O2  1  0.77201436  0.95825736  0.09721409  1
  O  O3  1  0.04173100  0.22797131  0.90278375  1
  O  O4  1  0.88893228  0.57522418  0.59728442  1
  O  O5  1  0.42478823  0.11106934  0.40270475  1
  O  O6  1  0.73064621  0.75472911  0.92308951  1
  O  O7  1  0.24529482  0.26933725  0.07691240  1
  O  O8  1  0.91830441  0.44250443  0.42313552  1
  O  O9  1  0.55752563  0.08167142  0.57685464  1
  O  O10  1  0.57658006  0.72540035  0.03348755  1
  O  O11  1  0.27457955  0.42342039  0.96651030  1
  O  O12  1  0.05806520  0.70693177  0.53355961  1
  O  O13  1  0.29306922  0.94194448  0.46642950  1
  O  O14  1  0.06355870  0.77485244  0.11497674  1
  O  O15  1  0.22516151  0.93644747  0.88504592  1
  O  O16  1  0.09003941  0.30141793  0.61495695  1
  O  O17  1  0.69857488  0.90993569  0.38504420  1
  O  O18  1  0.28883849  0.93124254  0.12269038  1
  O  O19  1  0.06876370  0.71117381  0.87733747  1
  O  O20  1  0.94139668  0.08382757  0.62261247  1
  O  O21  1  0.91618942  0.05859897  0.37740239  1
  O  O22  1  0.31725411  0.73116302  0.20392785  1
  O  O23  1  0.26881572  0.68276303  0.79607782  1
  O  O24  1  0.22267535  0.13672432  0.70392647  1
  O  O25  1  0.86327596  0.77733205  0.29606986  1
  O  O26  1  0.71359063  0.11381303  0.90965258  1
  O  O27  1  0.88620676  0.28637461  0.09032018  1
  O  O28  1  0.54590718  0.44624176  0.40970137  1
  O  O29  1  0.55376467  0.45404619  0.59026691  1
  O  O30  1  0.64545719  0.35453624  1.00000427  1
  O  O31  1  0.39541915  0.60459892  0.50000493  1
  K  K32  1  0.56141165  0.52441722  0.20477980  1
  K  K33  1  0.47555014  0.43860561  0.79519584  1
  K  K34  1  0.42990112  0.89371162  0.70480711  1
  K  K35  1  0.10625854  0.57011229  0.29517286  1
  N  N36  1  0.68925634  0.80980720  0.01843335  1
  N  N37  1  0.19019403  0.31073590  0.98156693  1
  N  N38  1  0.95858833  0.57920784  0.51849812  1
  N  N39  1  0.42080611  0.04140573  0.48149222  1
  N  N40  1  0.22504710  0.81014498  0.14826122  1
  N  N41  1  0.18985371  0.77497072  0.85176001  1
  N  N42  1  0.08802041  0.17322018  0.64822524  1
  N  N43  1  0.82678953  0.91196713  0.35177494  1
  N  N44  1  0.74610212  0.25388843  -0.00000855  1
  N  N45  1  0.49605030  0.50394277  0.49998987  1
  O  O46  1  0.11017980  0.15794044  0.24513864  1
  O  O47  1  0.84203323  0.88984417  0.75486421  1
  O  O48  1  0.83713034  0.38491019  0.74516778  1
  O  O49  1  0.61506224  0.16289766  0.25483022  1
  H  H50  1  0.22236510  0.14273600  0.29257011  1
  H  H51  1  0.85723625  0.77766400  0.70746411  1
  H  H52  1  0.89981282  0.32017816  0.79258843  1
  H  H53  1  0.67982887  0.10024595  0.20744595  1
  H  H54  1  0.03403126  0.11819104  0.28200155  1
  H  H55  1  0.88179362  0.96597000  0.71798822  1
  H  H56  1  0.91374339  0.49792673  0.78199468  1
  H  H57  1  0.50206051  0.08626180  0.21799391  1
