# generated using pymatgen
data_SiO2
_symmetry_space_group_name_H-M   'P 1'
_cell_length_a   9.06504671
_cell_length_b   10.98464949
_cell_length_c   10.98464885
_cell_angle_alpha   80.19717312
_cell_angle_beta   65.63026019
_cell_angle_gamma   65.63025679
_symmetry_Int_Tables_number   1
_chemical_formula_structural   SiO2
_chemical_formula_sum   'Si16 O32'
_cell_volume   907.58111709
_cell_formula_units_Z   16
loop_
 _symmetry_equiv_pos_site_id
 _symmetry_equiv_pos_as_xyz
  1  'x, y, z'
loop_
 _atom_site_type_symbol
 _atom_site_label
 _atom_site_symmetry_multiplicity
 _atom_site_fract_x
 _atom_site_fract_y
 _atom_site_fract_z
 _atom_site_occupancy
  Si  Si0  1  0.41508210  0.65901168  0.86079093  1
  Si  Si1  1  0.27587303  0.13920907  0.65901168  1
  Si  Si2  1  0.08491790  0.13920907  0.34098832  1
  Si  Si3  1  0.42590621  0.65901168  0.13920907  1
  Si  Si4  1  0.22412697  0.34098832  0.86079093  1
  Si  Si5  1  0.56511528  0.86079093  0.65901168  1
  Si  Si6  1  0.91508210  0.86079093  0.65901168  1
  Si  Si7  1  0.57409379  0.34098832  0.86079093  1
  Si  Si8  1  0.58491790  0.34098832  0.13920907  1
  Si  Si9  1  0.92590621  0.13920907  0.65901168  1
  Si  Si10  1  0.43488472  0.13920907  0.34098832  1
  Si  Si11  1  0.93488472  0.34098832  0.13920907  1
  Si  Si12  1  0.06511528  0.65901168  0.86079093  1
  Si  Si13  1  0.72412697  0.86079093  0.34098832  1
  Si  Si14  1  0.07409379  0.86079093  0.34098832  1
  Si  Si15  1  0.77587303  0.65901168  0.13920907  1
  O  O16  1  0.87251088  0.50000000  0.16006741  1
  O  O17  1  0.39570721  0.00000000  0.70858559  1
  O  O18  1  0.51388886  0.73611114  0.73611114  1
  O  O19  1  0.72124567  0.86542235  0.69208632  1
  O  O20  1  0.96742171  0.16006741  0.50000000  1
  O  O21  1  0.12748912  0.50000000  0.83993259  1
  O  O22  1  0.39570721  0.70858559  0.00000000  1
  O  O23  1  0.98611114  0.26388886  0.26388886  1
  O  O24  1  0.41333198  0.30791368  0.86542235  1
  O  O25  1  0.60429279  0.29141441  1.00000000  1
  O  O26  1  0.27875433  0.13457765  0.30791368  1
  O  O27  1  0.01388886  0.73611114  0.73611114  1
  O  O28  1  0.37251088  0.16006741  0.50000000  1
  O  O29  1  0.10429279  1.00000000  0.29141441  1
  O  O30  1  0.89570721  0.70858559  0.00000000  1
  O  O31  1  0.75000000  0.26388886  0.73611114  1
  O  O32  1  0.53257829  0.50000000  0.83993259  1
  O  O33  1  0.48611114  0.26388886  0.26388886  1
  O  O34  1  0.22124567  0.69208632  0.86542235  1
  O  O35  1  0.91333198  0.86542235  0.30791368  1
  O  O36  1  0.62748912  0.83993259  0.50000000  1
  O  O37  1  0.08666802  0.13457765  0.69208632  1
  O  O38  1  0.03257829  0.83993259  0.50000000  1
  O  O39  1  0.77875433  0.30791368  0.13457765  1
  O  O40  1  0.58666802  0.69208632  0.13457765  1
  O  O41  1  0.25000000  0.73611114  0.26388886  1
  O  O42  1  0.75000000  0.73611114  0.26388886  1
  O  O43  1  0.89570721  0.00000000  0.70858559  1
  O  O44  1  0.25000000  0.26388886  0.73611114  1
  O  O45  1  0.60429279  1.00000000  0.29141441  1
  O  O46  1  0.46742171  0.50000000  0.16006741  1
  O  O47  1  0.10429279  0.29141441  1.00000000  1
