# generated using pymatgen
data_HI3O8
_symmetry_space_group_name_H-M   'P 1'
_cell_length_a   7.73598896
_cell_length_b   7.97616241
_cell_length_c   11.59357931
_cell_angle_alpha   90.00000000
_cell_angle_beta   88.87648925
_cell_angle_gamma   90.00000000
_symmetry_Int_Tables_number   1
_chemical_formula_structural   HI3O8
_chemical_formula_sum   'H4 I12 O32'
_cell_volume   715.22694271
_cell_formula_units_Z   4
loop_
 _symmetry_equiv_pos_site_id
 _symmetry_equiv_pos_as_xyz
  1  'x, y, z'
loop_
 _atom_site_type_symbol
 _atom_site_label
 _atom_site_symmetry_multiplicity
 _atom_site_fract_x
 _atom_site_fract_y
 _atom_site_fract_z
 _atom_site_occupancy
  I  I0  1  0.23872762  0.22725623  0.09534343  1
  I  I1  1  0.26127238  0.72725623  0.40465657  1
  I  I2  1  0.76127238  0.77274377  0.90465657  1
  I  I3  1  0.73872762  0.27274377  0.59534343  1
  I  I4  1  0.34965097  0.74182301  0.10426928  1
  I  I5  1  0.15034903  0.24182301  0.39573072  1
  I  I6  1  0.65034903  0.25817699  0.89573072  1
  I  I7  1  0.84965097  0.75817699  0.60426928  1
  I  I8  1  0.75568254  0.04900822  0.18684375  1
  I  I9  1  0.74431746  0.54900822  0.31315625  1
  I  I10  1  0.24431746  0.95099178  0.81315625  1
  I  I11  1  0.25568254  0.45099178  0.68684375  1
  O  O12  1  0.45546460  0.30048995  0.05098441  1
  O  O13  1  0.04453540  0.80048995  0.44901559  1
  O  O14  1  0.54453540  0.69951005  0.94901559  1
  O  O15  1  0.95546460  0.19951005  0.55098441  1
  O  O16  1  0.12842228  0.42576288  0.08590961  1
  O  O17  1  0.37157772  0.92576288  0.41409039  1
  O  O18  1  0.87157772  0.57423712  0.91409039  1
  O  O19  1  0.62842228  0.07423712  0.58590961  1
  O  O20  1  0.18493508  0.82158850  0.00894548  1
  O  O21  1  0.31506492  0.32158850  0.49105452  1
  O  O22  1  0.81506492  0.17841150  0.99105452  1
  O  O23  1  0.68493508  0.67841150  0.50894548  1
  O  O24  1  0.44603839  0.94457458  0.13653056  1
  O  O25  1  0.05396161  0.44457458  0.36346944  1
  O  O26  1  0.55396161  0.05542542  0.86346944  1
  O  O27  1  0.94603839  0.55542542  0.63653056  1
  O  O28  1  0.18857596  0.74948823  0.24173320  1
  O  O29  1  0.31142404  0.24948823  0.25826680  1
  O  O30  1  0.81142404  0.25051177  0.75826680  1
  O  O31  1  0.68857596  0.75051177  0.74173320  1
  O  O32  1  0.78254821  0.45581384  0.16092825  1
  O  O33  1  0.71745179  0.95581384  0.33907175  1
  O  O34  1  0.21745179  0.54418616  0.83907175  1
  O  O35  1  0.28254821  0.04418616  0.66092825  1
  O  O36  1  0.80883728  0.84984816  0.11805458  1
  O  O37  1  0.69116272  0.34984816  0.38194542  1
  O  O38  1  0.19116272  0.15015184  0.88194542  1
  O  O39  1  0.30883728  0.65015184  0.61805458  1
  O  O40  1  0.97470661  0.11678280  0.22158872  1
  O  O41  1  0.52529339  0.61678280  0.27841128  1
  O  O42  1  0.02529339  0.88321720  0.77841128  1
  O  O43  1  0.47470661  0.38321720  0.72158872  1
  H  H44  1  0.90860489  0.45387264  0.13764652  1
  H  H45  1  0.59139511  0.95387264  0.36235348  1
  H  H46  1  0.09139511  0.54612736  0.86235348  1
  H  H47  1  0.40860489  0.04612736  0.63764652  1
