# generated using pymatgen
data_MgCo
_symmetry_space_group_name_H-M   'P 1'
_cell_length_a   8.02826060
_cell_length_b   8.02826060
_cell_length_c   8.02826060
_cell_angle_alpha   120.00000000
_cell_angle_beta   90.00000000
_cell_angle_gamma   120.00000000
_symmetry_Int_Tables_number   1
_chemical_formula_structural   MgCo
_chemical_formula_sum   'Mg12 Co12'
_cell_volume   365.88902768
_cell_formula_units_Z   12
loop_
 _symmetry_equiv_pos_site_id
 _symmetry_equiv_pos_as_xyz
  1  'x, y, z'
loop_
 _atom_site_type_symbol
 _atom_site_label
 _atom_site_symmetry_multiplicity
 _atom_site_fract_x
 _atom_site_fract_y
 _atom_site_fract_z
 _atom_site_occupancy
  Mg  Mg0  1  0.54873394  0.50000000  0.04873394  1
  Mg  Mg1  1  0.54873394  0.09746789  0.04873394  1
  Mg  Mg2  1  0.95126606  0.50000000  0.04873494  1
  Mg  Mg3  1  0.79873494  0.00000000  0.20126606  1
  Mg  Mg4  1  0.20126606  0.00000000  0.20126606  1
  Mg  Mg5  1  0.20126606  0.40253211  0.20126606  1
  Mg  Mg6  1  0.95126606  0.50000000  0.45126506  1
  Mg  Mg7  1  0.95126606  0.90253111  0.45126506  1
  Mg  Mg8  1  0.54873394  0.50000000  0.45126606  1
  Mg  Mg9  1  0.79873294  0.00000000  0.79873294  1
  Mg  Mg10  1  0.20126606  0.00000000  0.79873494  1
  Mg  Mg11  1  0.79873494  0.59746889  0.79873494  1
  Co  Co12  1  0.37500100  0.75000100  0.12500100  1
  Co  Co13  1  0.57745616  0.15491331  0.42254284  1
  Co  Co14  1  0.26763053  0.84508669  0.42254284  1
  Co  Co15  1  0.57745616  0.84508669  0.42254284  1
  Co  Co16  1  0.17254284  0.34508669  0.51762953  1
  Co  Co17  1  0.37500000  0.25000000  0.62500000  1
  Co  Co18  1  0.87500000  0.25000000  0.62500000  1
  Co  Co19  1  0.37500100  0.75000100  0.62500000  1
  Co  Co20  1  0.57745716  0.15491331  0.73237047  1
  Co  Co21  1  0.17254284  0.34508669  0.82745616  1
  Co  Co22  1  0.17254284  0.65491231  0.82745616  1
  Co  Co23  1  0.48236947  0.65491231  0.82745616  1
