# generated using pymatgen
data_PNF2
_symmetry_space_group_name_H-M   'P 1'
_cell_length_a   7.62277857
_cell_length_b   11.43002790
_cell_length_c   14.95402192
_cell_angle_alpha   90.00000000
_cell_angle_beta   90.00000000
_cell_angle_gamma   103.92762298
_symmetry_Int_Tables_number   1
_chemical_formula_structural   PNF2
_chemical_formula_sum   'P20 N20 F40'
_cell_volume   1264.61736728
_cell_formula_units_Z   20
loop_
 _symmetry_equiv_pos_site_id
 _symmetry_equiv_pos_as_xyz
  1  'x, y, z'
loop_
 _atom_site_type_symbol
 _atom_site_label
 _atom_site_symmetry_multiplicity
 _atom_site_fract_x
 _atom_site_fract_y
 _atom_site_fract_z
 _atom_site_occupancy
  P  P0  1  0.40556991  0.94424390  0.36123678  1
  P  P1  1  0.81736856  0.82738624  0.23853931  1
  P  P2  1  0.30118338  0.70243890  0.43793643  1
  P  P3  1  0.33362314  0.32266372  0.60750349  1
  P  P4  1  0.69881662  0.29756110  0.56206357  1
  P  P5  1  0.68263144  0.67261376  0.73853931  1
  P  P6  1  0.19881662  0.79756110  0.93793643  1
  P  P7  1  0.80118338  0.20243890  0.06206357  1
  P  P8  1  0.83362314  0.82266372  0.89249651  1
  P  P9  1  0.70405063  0.46541120  0.84248277  1
  P  P10  1  0.79594937  0.03458880  0.34248277  1
  P  P11  1  0.20405063  0.96541120  0.65751723  1
  P  P12  1  0.18263144  0.17261376  0.76146069  1
  P  P13  1  0.66637686  0.67733628  0.39249651  1
  P  P14  1  0.59443009  0.05575610  0.63876322  1
  P  P15  1  0.09443009  0.55575610  0.86123678  1
  P  P16  1  0.31736856  0.32738624  0.26146069  1
  P  P17  1  0.90556991  0.44424390  0.13876322  1
  P  P18  1  0.16637686  0.17733628  0.10750349  1
  P  P19  1  0.29594937  0.53458880  0.15751723  1
  N  N20  1  0.12224723  0.03908959  0.72773730  1
  N  N21  1  0.10954823  0.48066732  0.11129570  1
  N  N22  1  0.30916283  0.27388708  0.70541725  1
  N  N23  1  0.37775277  0.46091041  0.22773730  1
  N  N24  1  0.21776261  0.67555015  0.89681505  1
  N  N25  1  0.28223739  0.82444985  0.39681505  1
  N  N26  1  0.51872515  0.33902291  0.55927405  1
  N  N27  1  0.19083717  0.22611292  0.20541725  1
  N  N28  1  0.71776261  0.17555015  0.60318495  1
  N  N29  1  0.39045177  0.01933268  0.61129570  1
  N  N30  1  0.48127485  0.66097709  0.44072595  1
  N  N31  1  0.78223739  0.32444985  0.10318495  1
  N  N32  1  0.87775277  0.96091041  0.27226270  1
  N  N33  1  0.60954823  0.98066732  0.38870430  1
  N  N34  1  0.01872515  0.83902291  0.94072595  1
  N  N35  1  0.69083717  0.72611292  0.29458275  1
  N  N36  1  0.80916283  0.77388708  0.79458275  1
  N  N37  1  0.89045177  0.51933268  0.88870430  1
  N  N38  1  0.62224723  0.53908959  0.77226270  1
  N  N39  1  0.98127485  0.16097709  0.05927405  1
  F  F40  1  0.27282695  0.17435898  0.85518346  1
  F  F41  1  0.18601249  0.45248371  0.88779972  1
  F  F42  1  0.77321189  0.30587781  0.46455599  1
  F  F43  1  0.31398751  0.04751629  0.38779972  1
  F  F44  1  0.15059912  0.60091116  0.39453754  1
  F  F45  1  0.28362408  0.44698706  0.60401179  1
  F  F46  1  0.80035436  0.15995103  0.29948440  1
  F  F47  1  0.78362408  0.94698706  0.89598821  1
  F  F48  1  0.22678811  0.69412219  0.53544401  1
  F  F49  1  0.61521780  0.05077924  0.74291730  1
  F  F50  1  0.31909162  0.25132832  0.04537808  1
  F  F51  1  0.49326104  0.28982495  0.28963382  1
  F  F52  1  0.34940088  0.89908884  0.89453754  1
  F  F53  1  0.50673896  0.71017505  0.71036618  1
  F  F54  1  0.56448435  0.42502432  0.91890117  1
  F  F55  1  0.71637592  0.55301294  0.39598821  1
  F  F56  1  0.93551565  0.07497568  0.41890117  1
  F  F57  1  0.19964564  0.84004897  0.70051560  1
  F  F58  1  0.43551565  0.57497568  0.08109883  1
  F  F59  1  0.77282695  0.67435898  0.64481654  1
  F  F60  1  0.68601249  0.95248371  0.61220028  1
  F  F61  1  0.68090838  0.74867168  0.95462192  1
  F  F62  1  0.65059912  0.10091116  0.10546246  1
  F  F63  1  0.00673896  0.21017505  0.78963382  1
  F  F64  1  0.81909162  0.75132832  0.45462192  1
  F  F65  1  0.27321189  0.80587781  0.03544401  1
  F  F66  1  0.99326104  0.78982495  0.21036618  1
  F  F67  1  0.21637592  0.05301294  0.10401179  1
  F  F68  1  0.84940088  0.39908884  0.60546246  1
  F  F69  1  0.88478220  0.44922076  0.24291730  1
  F  F70  1  0.69964564  0.34004897  0.79948440  1
  F  F71  1  0.38478220  0.94922076  0.25708270  1
  F  F72  1  0.11521780  0.55077924  0.75708270  1
  F  F73  1  0.81398751  0.54751629  0.11220028  1
  F  F74  1  0.72717305  0.82564102  0.14481654  1
  F  F75  1  0.72678811  0.19412219  0.96455599  1
  F  F76  1  0.18090838  0.24867168  0.54537808  1
  F  F77  1  0.22717305  0.32564102  0.35518346  1
  F  F78  1  0.30035436  0.65995103  0.20051560  1
  F  F79  1  0.06448435  0.92502432  0.58109883  1
