# generated using pymatgen
data_Zn3P2H2O9
_symmetry_space_group_name_H-M   'P 1'
_cell_length_a   4.94081200
_cell_length_b   8.81469362
_cell_length_c   16.99514626
_cell_angle_alpha   95.18503352
_cell_angle_beta   90.00000000
_cell_angle_gamma   90.00000000
_symmetry_Int_Tables_number   1
_chemical_formula_structural   Zn3P2H2O9
_chemical_formula_sum   'Zn12 P8 H8 O36'
_cell_volume   737.13951986
_cell_formula_units_Z   4
loop_
 _symmetry_equiv_pos_site_id
 _symmetry_equiv_pos_as_xyz
  1  'x, y, z'
loop_
 _atom_site_type_symbol
 _atom_site_label
 _atom_site_symmetry_multiplicity
 _atom_site_fract_x
 _atom_site_fract_y
 _atom_site_fract_z
 _atom_site_occupancy
  Zn  Zn0  1  0.99035891  0.08006464  0.18049715  1
  Zn  Zn1  1  0.70430716  0.43387955  0.15357329  1
  Zn  Zn2  1  0.29827880  0.67002500  0.05538988  1
  Zn  Zn3  1  0.49035891  0.91993536  0.31950285  1
  Zn  Zn4  1  0.20172120  0.67002500  0.55538988  1
  Zn  Zn5  1  0.70172120  0.32997500  0.94461012  1
  Zn  Zn6  1  0.29569284  0.56612045  0.84642671  1
  Zn  Zn7  1  0.50964109  0.08006464  0.68049715  1
  Zn  Zn8  1  0.00964109  0.91993536  0.81950285  1
  Zn  Zn9  1  0.20430716  0.56612045  0.34642671  1
  Zn  Zn10  1  0.79569284  0.43387955  0.65357329  1
  Zn  Zn11  1  0.79827880  0.32997500  0.44461012  1
  P  P12  1  0.79076985  0.68519986  0.94419050  1
  P  P13  1  0.00889589  0.76178756  0.21679581  1
  P  P14  1  0.99110411  0.23821244  0.78320419  1
  P  P15  1  0.29076985  0.31480014  0.55580950  1
  P  P16  1  0.20923015  0.31480014  0.05580950  1
  P  P17  1  0.70923015  0.68519986  0.44419050  1
  P  P18  1  0.50889589  0.23821244  0.28320419  1
  P  P19  1  0.49110411  0.76178756  0.71679581  1
  H  H20  1  0.04571871  0.93244502  0.40698770  1
  H  H21  1  0.21474711  0.08303265  0.43452627  1
  H  H22  1  0.28525289  0.08303265  0.93452627  1
  H  H23  1  0.78525289  0.91696735  0.56547373  1
  H  H24  1  0.45428129  0.93244502  0.90698770  1
  H  H25  1  0.95428129  0.06755498  0.59301230  1
  H  H26  1  0.71474711  0.91696735  0.06547373  1
  H  H27  1  0.54571871  0.06755498  0.09301230  1
  O  O28  1  0.73071354  0.02676069  0.08311592  1
  O  O29  1  0.73254388  0.25890116  0.21815633  1
  O  O30  1  0.34502683  0.80237271  0.64058623  1
  O  O31  1  0.23254388  0.74109884  0.28184367  1
  O  O32  1  0.65814810  0.61534337  0.70936301  1
  O  O33  1  0.15497317  0.80237271  0.14058623  1
  O  O34  1  0.74476362  0.81696115  0.39304980  1
  O  O35  1  0.16802545  0.09520187  0.75845380  1
  O  O36  1  0.84502683  0.19762729  0.85941377  1
  O  O37  1  0.90311963  0.36127753  0.04838501  1
  O  O38  1  0.25523638  0.18303885  0.60695020  1
  O  O39  1  0.85470407  0.53827857  0.40352499  1
  O  O40  1  0.76928646  0.02676069  0.58311592  1
  O  O41  1  0.64529593  0.53827857  0.90352499  1
  O  O42  1  0.67218663  0.72257105  0.02782541  1
  O  O43  1  0.84185190  0.61534337  0.20936301  1
  O  O44  1  0.59688037  0.36127753  0.54838501  1
  O  O45  1  0.65497317  0.19762729  0.35941377  1
  O  O46  1  0.24476362  0.18303885  0.10695020  1
  O  O47  1  0.09688037  0.63872247  0.95161499  1
  O  O48  1  0.33197455  0.09520187  0.25845380  1
  O  O49  1  0.75523638  0.81696115  0.89304980  1
  O  O50  1  0.82781337  0.72257105  0.52782541  1
  O  O51  1  0.26745612  0.74109884  0.78184367  1
  O  O52  1  0.76745612  0.25890116  0.71815633  1
  O  O53  1  0.66802545  0.90479813  0.74154620  1
  O  O54  1  0.83197455  0.90479813  0.24154620  1
  O  O55  1  0.26928646  0.97323931  0.91688408  1
  O  O56  1  0.34185190  0.38465663  0.29063699  1
  O  O57  1  0.35470407  0.46172143  0.09647501  1
  O  O58  1  0.15814810  0.38465663  0.79063699  1
  O  O59  1  0.23071354  0.97323931  0.41688408  1
  O  O60  1  0.17218663  0.27742895  0.47217459  1
  O  O61  1  0.14529593  0.46172143  0.59647501  1
  O  O62  1  0.32781337  0.27742895  0.97217459  1
  O  O63  1  0.40311963  0.63872247  0.45161499  1
